# generated using pymatgen
data_Dy3U(Si5Os3)2
_symmetry_space_group_name_H-M   'P 1'
_cell_length_a   8.12232591
_cell_length_b   8.10585447
_cell_length_c   5.78805838
_cell_angle_alpha   70.65233726
_cell_angle_beta   70.65255518
_cell_angle_gamma   93.80709697
_symmetry_Int_Tables_number   1
_chemical_formula_structural   Dy3U(Si5Os3)2
_chemical_formula_sum   'Dy3 U1 Si10 Os6'
_cell_volume   332.54239863
_cell_formula_units_Z   1
loop_
 _symmetry_equiv_pos_site_id
 _symmetry_equiv_pos_as_xyz
  1  'x, y, z'
loop_
 _atom_site_type_symbol
 _atom_site_label
 _atom_site_symmetry_multiplicity
 _atom_site_fract_x
 _atom_site_fract_y
 _atom_site_fract_z
 _atom_site_occupancy
  Dy  Dy0  1  0.870363  0.601012  0.752909  1
  Dy  Dy1  1  0.399977  0.134500  0.740025  1
  Dy  Dy2  1  0.133419  0.397844  0.243771  1
  U  U3  1  0.593999  0.870264  0.260316  1
  Si  Si4  1  0.067229  0.260243  0.836587  1
  Si  Si5  1  0.736259  0.935140  0.667636  1
  Si  Si6  1  0.931637  0.739191  0.163377  1
  Si  Si7  1  0.264739  0.063827  0.332747  1
  Si  Si8  1  0.208122  0.796703  0.741084  1
  Si  Si9  1  0.794921  0.206205  0.256992  1
  Si  Si10  1  0.515291  0.486528  0.750117  1
  Si  Si11  1  0.485183  0.511017  0.253508  1
  Si  Si12  1  0.774626  0.226286  0.744410  1
  Si  Si13  1  0.225103  0.776534  0.254311  1
  Os  Os14  1  0.256934  0.541022  0.633192  1
  Os  Os15  1  0.454286  0.745551  0.868385  1
  Os  Os16  1  0.743881  0.459802  0.364086  1
  Os  Os17  1  0.549050  0.252016  0.130315  1
  Os  Os18  1  0.000340  0.996933  0.751729  1
  Os  Os19  1  0.994639  0.999380  0.254503  1
