# generated using pymatgen
data_Na2Sr(CoAs)6
_symmetry_space_group_name_H-M   'P 1'
_cell_length_a   5.36533871
_cell_length_b   6.75864665
_cell_length_c   8.60203978
_cell_angle_alpha   65.83556176
_cell_angle_beta   71.82838703
_cell_angle_gamma   90.00000575
_symmetry_Int_Tables_number   1
_chemical_formula_structural   Na2Sr(CoAs)6
_chemical_formula_sum   'Na2 Sr1 Co6 As6'
_cell_volume   267.45549898
_cell_formula_units_Z   1
loop_
 _symmetry_equiv_pos_site_id
 _symmetry_equiv_pos_as_xyz
  1  'x, y, z'
loop_
 _atom_site_type_symbol
 _atom_site_label
 _atom_site_symmetry_multiplicity
 _atom_site_fract_x
 _atom_site_fract_y
 _atom_site_fract_z
 _atom_site_occupancy
  Na  Na0  1  0.330766  0.660340  0.338466  1
  Na  Na1  1  0.669234  0.339660  0.661534  1
  Sr  Sr2  1  0.000000  0.000000  0.000000  1
  Co  Co3  1  0.417314  0.831598  0.665624  1
  Co  Co4  1  0.749187  0.500000  0.000000  1
  Co  Co5  1  0.082938  0.168402  0.334376  1
  Co  Co6  1  0.250813  0.500000  0.000000  1
  Co  Co7  1  0.582686  0.168402  0.334376  1
  Co  Co8  1  0.917062  0.831598  0.665624  1
  As  As9  1  0.119684  0.523222  0.760631  1
  As  As10  1  0.452288  0.189690  0.095424  1
  As  As11  1  0.786821  0.858089  0.426357  1
  As  As12  1  0.547712  0.810310  0.904576  1
  As  As13  1  0.880316  0.476778  0.239369  1
  As  As14  1  0.213179  0.141911  0.573643  1
