# generated using pymatgen
data_TbHo9(InBi)3
_symmetry_space_group_name_H-M   'P 1'
_cell_length_a   9.04523637
_cell_length_b   9.04523588
_cell_length_c   6.55043300
_cell_angle_alpha   90.00000000
_cell_angle_beta   90.00000000
_cell_angle_gamma   120.03255535
_symmetry_Int_Tables_number   1
_chemical_formula_structural   TbHo9(InBi)3
_chemical_formula_sum   'Tb1 Ho9 In3 Bi3'
_cell_volume   463.97854021
_cell_formula_units_Z   1
loop_
 _symmetry_equiv_pos_site_id
 _symmetry_equiv_pos_as_xyz
  1  'x, y, z'
loop_
 _atom_site_type_symbol
 _atom_site_label
 _atom_site_symmetry_multiplicity
 _atom_site_fract_x
 _atom_site_fract_y
 _atom_site_fract_z
 _atom_site_occupancy
  Tb  Tb0  1  0.763003  0.763003  0.750000  1
  Ho  Ho1  1  0.666653  0.333306  0.006464  1
  Ho  Ho2  1  0.333306  0.666653  0.006464  1
  Ho  Ho3  1  0.333306  0.666653  0.493536  1
  Ho  Ho4  1  0.666653  0.333306  0.493536  1
  Ho  Ho5  1  0.237106  0.000069  0.750000  1
  Ho  Ho6  1  0.000069  0.237106  0.750000  1
  Ho  Ho7  1  0.237664  0.237664  0.250000  1
  Ho  Ho8  1  0.762279  0.000047  0.250000  1
  Ho  Ho9  1  0.000047  0.762279  0.250000  1
  In  In10  1  0.606828  0.606828  0.250000  1
  In  In11  1  0.393213  0.000003  0.250000  1
  In  In12  1  0.000003  0.393213  0.250000  1
  Bi  Bi13  1  0.395625  0.395625  0.750000  1
  Bi  Bi14  1  0.604105  0.000139  0.750000  1
  Bi  Bi15  1  0.000139  0.604105  0.750000  1
