# generated using pymatgen
data_LiHo3(P3Ir4)2
_symmetry_space_group_name_H-M   'P 1'
_cell_length_a   3.94521200
_cell_length_b   11.30459100
_cell_length_c   12.74273800
_cell_angle_alpha   90.00000000
_cell_angle_beta   90.00000000
_cell_angle_gamma   90.00000000
_symmetry_Int_Tables_number   1
_chemical_formula_structural   LiHo3(P3Ir4)2
_chemical_formula_sum   'Li2 Ho6 P12 Ir16'
_cell_volume   568.31347487
_cell_formula_units_Z   2
loop_
 _symmetry_equiv_pos_site_id
 _symmetry_equiv_pos_as_xyz
  1  'x, y, z'
loop_
 _atom_site_type_symbol
 _atom_site_label
 _atom_site_symmetry_multiplicity
 _atom_site_fract_x
 _atom_site_fract_y
 _atom_site_fract_z
 _atom_site_occupancy
  Li  Li0  1  0.500000  0.500000  0.157056  1
  Li  Li1  1  0.000000  0.000000  0.842944  1
  Ho  Ho2  1  0.000000  0.500000  0.517948  1
  Ho  Ho3  1  0.500000  0.000000  0.482052  1
  Ho  Ho4  1  0.500000  0.816349  0.203000  1
  Ho  Ho5  1  0.500000  0.183651  0.203000  1
  Ho  Ho6  1  0.000000  0.683651  0.797000  1
  Ho  Ho7  1  0.000000  0.316349  0.797000  1
  P  P8  1  0.500000  0.313675  0.618511  1
  P  P9  1  0.500000  0.686325  0.618511  1
  P  P10  1  0.000000  0.186325  0.381489  1
  P  P11  1  0.000000  0.813675  0.381489  1
  P  P12  1  0.500000  0.500000  0.878662  1
  P  P13  1  0.000000  0.000000  0.121338  1
  P  P14  1  0.500000  0.843607  0.892538  1
  P  P15  1  0.500000  0.156393  0.892538  1
  P  P16  1  0.000000  0.656393  0.107462  1
  P  P17  1  0.000000  0.343607  0.107462  1
  P  P18  1  0.500000  0.500000  0.346005  1
  P  P19  1  0.000000  0.000000  0.653995  1
  Ir  Ir20  1  0.000000  0.500000  0.977963  1
  Ir  Ir21  1  0.500000  0.000000  0.022037  1
  Ir  Ir22  1  0.500000  0.289824  0.429409  1
  Ir  Ir23  1  0.500000  0.710176  0.429409  1
  Ir  Ir24  1  0.000000  0.210176  0.570591  1
  Ir  Ir25  1  0.000000  0.789824  0.570591  1
  Ir  Ir26  1  0.500000  0.874200  0.710951  1
  Ir  Ir27  1  0.500000  0.125800  0.710951  1
  Ir  Ir28  1  0.000000  0.625800  0.289049  1
  Ir  Ir29  1  0.000000  0.374200  0.289049  1
  Ir  Ir30  1  0.500000  0.333201  0.997971  1
  Ir  Ir31  1  0.500000  0.666799  0.997971  1
  Ir  Ir32  1  0.000000  0.166799  0.002029  1
  Ir  Ir33  1  0.000000  0.833201  0.002029  1
  Ir  Ir34  1  0.500000  0.500000  0.698930  1
  Ir  Ir35  1  0.000000  0.000000  0.301070  1
