# generated using pymatgen
data_Rb2NaCr3F12
_symmetry_space_group_name_H-M   'P 1'
_cell_length_a   7.43701200
_cell_length_b   7.37427102
_cell_length_c   10.31207117
_cell_angle_alpha   89.95329677
_cell_angle_beta   90.00000000
_cell_angle_gamma   90.00000000
_symmetry_Int_Tables_number   1
_chemical_formula_structural   Rb2NaCr3F12
_chemical_formula_sum   'Rb4 Na2 Cr6 F24'
_cell_volume   565.54000872
_cell_formula_units_Z   2
loop_
 _symmetry_equiv_pos_site_id
 _symmetry_equiv_pos_as_xyz
  1  'x, y, z'
loop_
 _atom_site_type_symbol
 _atom_site_label
 _atom_site_symmetry_multiplicity
 _atom_site_fract_x
 _atom_site_fract_y
 _atom_site_fract_z
 _atom_site_occupancy
  Rb  Rb0  1  0.250000  0.535072  0.362037  1
  Rb  Rb1  1  0.250000  0.986351  0.105616  1
  Rb  Rb2  1  0.750000  0.464928  0.637963  1
  Rb  Rb3  1  0.750000  0.013649  0.894384  1
  Na  Na4  1  0.750000  0.793637  0.241911  1
  Na  Na5  1  0.250000  0.206363  0.758089  1
  Cr  Cr6  1  0.000000  0.500000  0.000000  1
  Cr  Cr7  1  0.250000  0.693152  0.719780  1
  Cr  Cr8  1  0.750000  0.306848  0.280220  1
  Cr  Cr9  1  0.500000  0.000000  0.500000  1
  Cr  Cr10  1  0.500000  0.500000  0.000000  1
  Cr  Cr11  1  0.000000  0.000000  0.500000  1
  F  F12  1  0.438976  0.779520  0.600139  1
  F  F13  1  0.037126  0.867347  0.342862  1
  F  F14  1  0.447740  0.259905  0.941749  1
  F  F15  1  0.962874  0.132653  0.657138  1
  F  F16  1  0.938976  0.220480  0.399861  1
  F  F17  1  0.250000  0.536765  0.059967  1
  F  F18  1  0.447798  0.592677  0.825362  1
  F  F19  1  0.250000  0.085648  0.501685  1
  F  F20  1  0.947740  0.740095  0.058251  1
  F  F21  1  0.250000  0.467973  0.627909  1
  F  F22  1  0.052260  0.259905  0.941749  1
  F  F23  1  0.552202  0.407323  0.174638  1
  F  F24  1  0.947798  0.407323  0.174638  1
  F  F25  1  0.750000  0.463235  0.940033  1
  F  F26  1  0.061024  0.779520  0.600139  1
  F  F27  1  0.250000  0.908653  0.819834  1
  F  F28  1  0.750000  0.091347  0.180166  1
  F  F29  1  0.462874  0.867347  0.342862  1
  F  F30  1  0.750000  0.532027  0.372091  1
  F  F31  1  0.537126  0.132653  0.657138  1
  F  F32  1  0.561024  0.220480  0.399861  1
  F  F33  1  0.052202  0.592677  0.825362  1
  F  F34  1  0.750000  0.914352  0.498315  1
  F  F35  1  0.552260  0.740095  0.058251  1
