# generated using pymatgen
data_Ho2ZnCdRh2
_symmetry_space_group_name_H-M   'P 1'
_cell_length_a   4.07589200
_cell_length_b   7.00226042
_cell_length_c   8.40194548
_cell_angle_alpha   88.95068482
_cell_angle_beta   90.00000000
_cell_angle_gamma   90.00000000
_symmetry_Int_Tables_number   1
_chemical_formula_structural   Ho2ZnCdRh2
_chemical_formula_sum   'Ho4 Zn2 Cd2 Rh4'
_cell_volume   239.75515272
_cell_formula_units_Z   2
loop_
 _symmetry_equiv_pos_site_id
 _symmetry_equiv_pos_as_xyz
  1  'x, y, z'
loop_
 _atom_site_type_symbol
 _atom_site_label
 _atom_site_symmetry_multiplicity
 _atom_site_fract_x
 _atom_site_fract_y
 _atom_site_fract_z
 _atom_site_occupancy
  Ho  Ho0  1  0.250000  0.536139  0.189515  1
  Ho  Ho1  1  0.750000  0.463861  0.810485  1
  Ho  Ho2  1  0.250000  0.043302  0.326482  1
  Ho  Ho3  1  0.750000  0.956698  0.673518  1
  Zn  Zn4  1  0.250000  0.636017  0.560803  1
  Zn  Zn5  1  0.750000  0.363983  0.439197  1
  Cd  Cd6  1  0.250000  0.139608  0.934807  1
  Cd  Cd7  1  0.750000  0.860392  0.065193  1
  Rh  Rh8  1  0.750000  0.742817  0.387561  1
  Rh  Rh9  1  0.250000  0.257183  0.612439  1
  Rh  Rh10  1  0.750000  0.261770  0.142181  1
  Rh  Rh11  1  0.250000  0.738230  0.857819  1
