# generated using pymatgen
data_Pr15Nd5(GaSi5)2
_symmetry_space_group_name_H-M   'P 1'
_cell_length_a   7.80750410
_cell_length_b   7.80851209
_cell_length_c   14.48200101
_cell_angle_alpha   90.00067359
_cell_angle_beta   90.00444257
_cell_angle_gamma   89.98218313
_symmetry_Int_Tables_number   1
_chemical_formula_structural   Pr15Nd5(GaSi5)2
_chemical_formula_sum   'Pr15 Nd5 Ga2 Si10'
_cell_volume   882.89500424
_cell_formula_units_Z   1
loop_
 _symmetry_equiv_pos_site_id
 _symmetry_equiv_pos_as_xyz
  1  'x, y, z'
loop_
 _atom_site_type_symbol
 _atom_site_label
 _atom_site_symmetry_multiplicity
 _atom_site_fract_x
 _atom_site_fract_y
 _atom_site_fract_z
 _atom_site_occupancy
  Pr  Pr0  1  0.185341  0.829828  0.109759  1
  Pr  Pr1  1  0.172226  0.814005  0.394976  1
  Pr  Pr2  1  0.827586  0.185879  0.394989  1
  Pr  Pr3  1  0.686236  0.672599  0.394976  1
  Pr  Pr4  1  0.672576  0.313741  0.605043  1
  Pr  Pr5  1  0.327556  0.686271  0.604979  1
  Pr  Pr6  1  0.670127  0.685317  0.109738  1
  Pr  Pr7  1  0.685337  0.329875  0.890171  1
  Pr  Pr8  1  0.829872  0.814688  0.890261  1
  Pr  Pr9  1  0.313972  0.327617  0.394930  1
  Pr  Pr10  1  0.185844  0.172298  0.605025  1
  Pr  Pr11  1  0.814671  0.170174  0.109732  1
  Pr  Pr12  1  0.314660  0.670150  0.890213  1
  Pr  Pr13  1  0.329798  0.314635  0.109779  1
  Pr  Pr14  1  0.170111  0.185224  0.890160  1
  Nd  Nd15  1  0.814136  0.827780  0.605883  1
  Nd  Nd16  1  0.000019  0.499977  0.729784  1
  Nd  Nd17  1  0.000017  0.499974  0.228482  1
  Nd  Nd18  1  0.499951  0.000017  0.270177  1
  Nd  Nd19  1  0.499979  0.999988  0.771352  1
  Ga  Ga20  1  0.500006  0.000048  0.994903  1
  Ga  Ga21  1  0.000031  0.499987  0.005097  1
  Si  Si22  1  0.614133  0.386173  0.253165  1
  Si  Si23  1  0.113712  0.885979  0.746577  1
  Si  Si24  1  0.386329  0.385965  0.746800  1
  Si  Si25  1  0.385806  0.613793  0.253152  1
  Si  Si26  1  0.886215  0.885878  0.253125  1
  Si  Si27  1  0.614161  0.614584  0.746590  1
  Si  Si28  1  0.999507  0.500673  0.508863  1
  Si  Si29  1  0.885573  0.113290  0.746523  1
  Si  Si30  1  0.500709  0.999418  0.491650  1
  Si  Si31  1  0.113804  0.114176  0.253145  1
