# generated using pymatgen
data_Ti6Sn5Rh12Au
_symmetry_space_group_name_H-M   'P 1'
_cell_length_a   4.15725000
_cell_length_b   7.33743500
_cell_length_c   12.48346900
_cell_angle_alpha   90.00049772
_cell_angle_beta   89.99994949
_cell_angle_gamma   89.99986081
_symmetry_Int_Tables_number   1
_chemical_formula_structural   Ti6Sn5Rh12Au
_chemical_formula_sum   'Ti6 Sn5 Rh12 Au1'
_cell_volume   380.79014145
_cell_formula_units_Z   1
loop_
 _symmetry_equiv_pos_site_id
 _symmetry_equiv_pos_as_xyz
  1  'x, y, z'
loop_
 _atom_site_type_symbol
 _atom_site_label
 _atom_site_symmetry_multiplicity
 _atom_site_fract_x
 _atom_site_fract_y
 _atom_site_fract_z
 _atom_site_occupancy
  Ti  Ti0  1  0.000000  0.499999  0.000000  1
  Ti  Ti1  1  0.500016  0.000000  0.153412  1
  Ti  Ti2  1  0.000008  0.499999  0.333732  1
  Ti  Ti3  1  0.499999  0.000000  0.500000  1
  Ti  Ti4  1  0.999992  0.499999  0.666268  1
  Ti  Ti5  1  0.499982  0.000000  0.846589  1
  Sn  Sn6  1  0.500005  0.500000  0.169339  1
  Sn  Sn7  1  0.000014  0.000000  0.329023  1
  Sn  Sn8  1  0.499999  0.499999  0.500000  1
  Sn  Sn9  1  0.999986  0.000000  0.670976  1
  Sn  Sn10  1  0.499996  0.499998  0.830661  1
  Rh  Rh11  1  0.500003  0.260528  0.000001  1
  Rh  Rh12  1  0.499995  0.739472  0.999999  1
  Rh  Rh13  1  0.000008  0.255965  0.167811  1
  Rh  Rh14  1  0.000006  0.744032  0.167810  1
  Rh  Rh15  1  0.500016  0.248115  0.334369  1
  Rh  Rh16  1  0.500014  0.751884  0.334370  1
  Rh  Rh17  1  0.000001  0.246719  0.500000  1
  Rh  Rh18  1  0.999999  0.753281  0.500000  1
  Rh  Rh19  1  0.499984  0.248116  0.665629  1
  Rh  Rh20  1  0.499982  0.751885  0.665630  1
  Rh  Rh21  1  0.999994  0.255968  0.832190  1
  Rh  Rh22  1  0.999992  0.744035  0.832189  1
  Au  Au23  1  0.000000  0.000000  0.000000  1
