# generated using pymatgen
data_NdYTh2(Al3Ir)6
_symmetry_space_group_name_H-M   'P 1'
_cell_length_a   7.61681924
_cell_length_b   7.62557880
_cell_length_c   9.51233900
_cell_angle_alpha   90.00000000
_cell_angle_beta   90.00000000
_cell_angle_gamma   119.50436488
_symmetry_Int_Tables_number   1
_chemical_formula_structural   NdYTh2(Al3Ir)6
_chemical_formula_sum   'Nd1 Y1 Th2 Al18 Ir6'
_cell_volume   480.85245433
_cell_formula_units_Z   1
loop_
 _symmetry_equiv_pos_site_id
 _symmetry_equiv_pos_as_xyz
  1  'x, y, z'
loop_
 _atom_site_type_symbol
 _atom_site_label
 _atom_site_symmetry_multiplicity
 _atom_site_fract_x
 _atom_site_fract_y
 _atom_site_fract_z
 _atom_site_occupancy
  Nd  Nd0  1  0.004481  0.328910  0.750000  1
  Y  Y1  1  0.328285  0.005440  0.750000  1
  Th  Th2  1  0.995353  0.671340  0.250000  1
  Th  Th3  1  0.671314  0.994651  0.250000  1
  Al  Al4  1  0.135526  0.133918  0.250000  1
  Al  Al5  1  0.872372  0.872048  0.750000  1
  Al  Al6  1  0.005809  0.335528  0.071876  1
  Al  Al7  1  0.999896  0.666423  0.920595  1
  Al  Al8  1  0.999896  0.666423  0.579405  1
  Al  Al9  1  0.335458  0.005017  0.430708  1
  Al  Al10  1  0.005809  0.335528  0.428124  1
  Al  Al11  1  0.662755  0.998457  0.579289  1
  Al  Al12  1  0.662755  0.998457  0.920711  1
  Al  Al13  1  0.335458  0.005017  0.069292  1
  Al  Al14  1  0.333479  0.332542  0.554311  1
  Al  Al15  1  0.663125  0.662977  0.456098  1
  Al  Al16  1  0.663125  0.662977  0.043902  1
  Al  Al17  1  0.333479  0.332542  0.945689  1
  Al  Al18  1  0.341314  0.543501  0.250000  1
  Al  Al19  1  0.657564  0.449001  0.750000  1
  Al  Al20  1  0.543754  0.338996  0.250000  1
  Al  Al21  1  0.449760  0.660553  0.750000  1
  Ir  Ir22  1  0.672739  0.328772  0.002127  1
  Ir  Ir23  1  0.328879  0.673238  0.002327  1
  Ir  Ir24  1  0.328879  0.673238  0.497673  1
  Ir  Ir25  1  0.672739  0.328772  0.497873  1
  Ir  Ir26  1  0.997997  0.997864  0.002790  1
  Ir  Ir27  1  0.997997  0.997864  0.497210  1
