# generated using pymatgen
data_NaSb3(SeO3)8
_symmetry_space_group_name_H-M   'P 1'
_cell_length_a   8.35919623
_cell_length_b   8.38040272
_cell_length_c   8.35846185
_cell_angle_alpha   89.48273224
_cell_angle_beta   90.32930029
_cell_angle_gamma   89.54354916
_symmetry_Int_Tables_number   1
_chemical_formula_structural   NaSb3(SeO3)8
_chemical_formula_sum   'Na1 Sb3 Se8 O24'
_cell_volume   585.48657218
_cell_formula_units_Z   1
loop_
 _symmetry_equiv_pos_site_id
 _symmetry_equiv_pos_as_xyz
  1  'x, y, z'
loop_
 _atom_site_type_symbol
 _atom_site_label
 _atom_site_symmetry_multiplicity
 _atom_site_fract_x
 _atom_site_fract_y
 _atom_site_fract_z
 _atom_site_occupancy
  Na  Na0  1  0.000000  0.500000  0.000000  1
  Sb  Sb1  1  0.500000  0.500000  0.500000  1
  Sb  Sb2  1  0.000000  0.000000  0.500000  1
  Sb  Sb3  1  0.500000  0.000000  0.000000  1
  Se  Se4  1  0.346294  0.665363  0.166808  1
  Se  Se5  1  0.835606  0.333350  0.345783  1
  Se  Se6  1  0.676789  0.821960  0.675791  1
  Se  Se7  1  0.167307  0.152498  0.834574  1
  Se  Se8  1  0.653706  0.334637  0.833192  1
  Se  Se9  1  0.164394  0.666650  0.654217  1
  Se  Se10  1  0.323211  0.178040  0.324209  1
  Se  Se11  1  0.832693  0.847502  0.165426  1
  O  O12  1  0.273431  0.542724  0.034633  1
  O  O13  1  0.733327  0.451250  0.496388  1
  O  O14  1  0.760679  0.962888  0.547195  1
  O  O15  1  0.264756  0.001827  0.961884  1
  O  O16  1  0.536399  0.949927  0.761003  1
  O  O17  1  0.494502  0.535765  0.264284  1
  O  O18  1  0.961984  0.462535  0.273146  1
  O  O19  1  0.047638  0.002460  0.733636  1
  O  O20  1  0.961910  0.234956  0.496235  1
  O  O21  1  0.548088  0.738668  0.535084  1
  O  O22  1  0.499553  0.767622  0.052018  1
  O  O23  1  0.038744  0.226884  0.960717  1
  O  O24  1  0.726569  0.457276  0.965367  1
  O  O25  1  0.266673  0.548750  0.503612  1
  O  O26  1  0.239321  0.037112  0.452805  1
  O  O27  1  0.735244  0.998173  0.038116  1
  O  O28  1  0.463601  0.050073  0.238997  1
  O  O29  1  0.505498  0.464235  0.735716  1
  O  O30  1  0.038016  0.537465  0.726854  1
  O  O31  1  0.952362  0.997540  0.266364  1
  O  O32  1  0.038090  0.765044  0.503765  1
  O  O33  1  0.451912  0.261332  0.464916  1
  O  O34  1  0.500447  0.232378  0.947982  1
  O  O35  1  0.961256  0.773116  0.039283  1
