# generated using pymatgen
data_Dy4YHo3Pt4
_symmetry_space_group_name_H-M   'P 1'
_cell_length_a   4.75886500
_cell_length_b   7.15668167
_cell_length_c   8.79413215
_cell_angle_alpha   89.92127509
_cell_angle_beta   90.00000000
_cell_angle_gamma   90.00000000
_symmetry_Int_Tables_number   1
_chemical_formula_structural   Dy4YHo3Pt4
_chemical_formula_sum   'Dy4 Y1 Ho3 Pt4'
_cell_volume   299.50747257
_cell_formula_units_Z   1
loop_
 _symmetry_equiv_pos_site_id
 _symmetry_equiv_pos_as_xyz
  1  'x, y, z'
loop_
 _atom_site_type_symbol
 _atom_site_label
 _atom_site_symmetry_multiplicity
 _atom_site_fract_x
 _atom_site_fract_y
 _atom_site_fract_z
 _atom_site_occupancy
  Dy  Dy0  1  0.750000  0.644917  0.420040  1
  Dy  Dy1  1  0.250000  0.989946  0.331566  1
  Dy  Dy2  1  0.750000  0.010725  0.668858  1
  Dy  Dy3  1  0.750000  0.510469  0.831595  1
  Y  Y4  1  0.250000  0.489326  0.168568  1
  Ho  Ho5  1  0.250000  0.855851  0.920176  1
  Ho  Ho6  1  0.250000  0.355280  0.579982  1
  Ho  Ho7  1  0.750000  0.144184  0.079705  1
  Pt  Pt8  1  0.250000  0.257021  0.906078  1
  Pt  Pt9  1  0.250000  0.757956  0.594328  1
  Pt  Pt10  1  0.750000  0.742999  0.092512  1
  Pt  Pt11  1  0.750000  0.241328  0.406594  1
