# generated using pymatgen
data_Ce5Ir3
_symmetry_space_group_name_H-M   'P 1'
_cell_length_a   11.20492300
_cell_length_b   11.20492300
_cell_length_c   6.16088500
_cell_angle_alpha   90.00000000
_cell_angle_beta   90.00000000
_cell_angle_gamma   90.00000000
_symmetry_Int_Tables_number   1
_chemical_formula_structural   Ce5Ir3
_chemical_formula_sum   'Ce20 Ir12'
_cell_volume   773.50095654
_cell_formula_units_Z   4
loop_
 _symmetry_equiv_pos_site_id
 _symmetry_equiv_pos_as_xyz
  1  'x, y, z'
loop_
 _atom_site_type_symbol
 _atom_site_label
 _atom_site_symmetry_multiplicity
 _atom_site_fract_x
 _atom_site_fract_y
 _atom_site_fract_z
 _atom_site_occupancy
  Ce  Ce0  1  0.288001  0.090425  0.373495  1
  Ce  Ce1  1  0.288001  0.909575  0.873495  1
  Ce  Ce2  1  0.711999  0.090425  0.873495  1
  Ce  Ce3  1  0.711999  0.909575  0.373495  1
  Ce  Ce4  1  0.590425  0.788001  0.873495  1
  Ce  Ce5  1  0.590425  0.211999  0.373495  1
  Ce  Ce6  1  0.409575  0.788001  0.373495  1
  Ce  Ce7  1  0.409575  0.211999  0.873495  1
  Ce  Ce8  1  0.211999  0.409575  0.626505  1
  Ce  Ce9  1  0.211999  0.590425  0.126505  1
  Ce  Ce10  1  0.788001  0.409575  0.126505  1
  Ce  Ce11  1  0.788001  0.590425  0.626505  1
  Ce  Ce12  1  0.909575  0.711999  0.126505  1
  Ce  Ce13  1  0.909575  0.288001  0.626505  1
  Ce  Ce14  1  0.090425  0.711999  0.626505  1
  Ce  Ce15  1  0.090425  0.288001  0.126505  1
  Ce  Ce16  1  0.000000  0.000000  0.500000  1
  Ce  Ce17  1  0.000000  0.000000  0.000000  1
  Ce  Ce18  1  0.500000  0.500000  0.000000  1
  Ce  Ce19  1  0.500000  0.500000  0.500000  1
  Ir  Ir20  1  0.842813  0.157187  0.250000  1
  Ir  Ir21  1  0.842813  0.842813  0.750000  1
  Ir  Ir22  1  0.157187  0.157187  0.750000  1
  Ir  Ir23  1  0.157187  0.842813  0.250000  1
  Ir  Ir24  1  0.657187  0.342813  0.750000  1
  Ir  Ir25  1  0.657187  0.657187  0.250000  1
  Ir  Ir26  1  0.342813  0.342813  0.250000  1
  Ir  Ir27  1  0.342813  0.657187  0.750000  1
  Ir  Ir28  1  0.500000  0.000000  0.115186  1
  Ir  Ir29  1  0.500000  0.000000  0.615186  1
  Ir  Ir30  1  0.000000  0.500000  0.884814  1
  Ir  Ir31  1  0.000000  0.500000  0.384814  1
