# generated using pymatgen
data_Yb(Eu4Au3)2
_symmetry_space_group_name_H-M   'P 1'
_cell_length_a   8.09186293
_cell_length_b   8.09186309
_cell_length_c   8.09186330
_cell_angle_alpha   71.05465741
_cell_angle_beta   71.05465217
_cell_angle_gamma   71.05465033
_symmetry_Int_Tables_number   1
_chemical_formula_structural   Yb(Eu4Au3)2
_chemical_formula_sum   'Yb1 Eu8 Au6'
_cell_volume   459.53458519
_cell_formula_units_Z   1
loop_
 _symmetry_equiv_pos_site_id
 _symmetry_equiv_pos_as_xyz
  1  'x, y, z'
loop_
 _atom_site_type_symbol
 _atom_site_label
 _atom_site_symmetry_multiplicity
 _atom_site_fract_x
 _atom_site_fract_y
 _atom_site_fract_z
 _atom_site_occupancy
  Yb  Yb0  1  0.000000  0.000000  0.000000  1
  Eu  Eu1  1  0.200120  0.200120  0.200120  1
  Eu  Eu2  1  0.799880  0.799880  0.799880  1
  Eu  Eu3  1  0.399130  0.662339  0.158779  1
  Eu  Eu4  1  0.662339  0.158779  0.399130  1
  Eu  Eu5  1  0.158779  0.399130  0.662339  1
  Eu  Eu6  1  0.600870  0.337661  0.841221  1
  Eu  Eu7  1  0.337661  0.841221  0.600870  1
  Eu  Eu8  1  0.841221  0.600870  0.337661  1
  Au  Au9  1  0.043601  0.842091  0.405252  1
  Au  Au10  1  0.842091  0.405252  0.043601  1
  Au  Au11  1  0.405252  0.043601  0.842091  1
  Au  Au12  1  0.956399  0.157909  0.594748  1
  Au  Au13  1  0.157909  0.594748  0.956399  1
  Au  Au14  1  0.594748  0.956399  0.157909  1
