# generated using pymatgen
data_Pr6Eu4Ir3Rh
_symmetry_space_group_name_H-M   'P 1'
_cell_length_a   9.20176623
_cell_length_b   9.19859608
_cell_length_c   7.37334300
_cell_angle_alpha   84.14218514
_cell_angle_beta   84.08488806
_cell_angle_gamma   43.12660766
_symmetry_Int_Tables_number   1
_chemical_formula_structural   Pr6Eu4Ir3Rh
_chemical_formula_sum   'Pr6 Eu4 Ir3 Rh1'
_cell_volume   424.04320516
_cell_formula_units_Z   1
loop_
 _symmetry_equiv_pos_site_id
 _symmetry_equiv_pos_as_xyz
  1  'x, y, z'
loop_
 _atom_site_type_symbol
 _atom_site_label
 _atom_site_symmetry_multiplicity
 _atom_site_fract_x
 _atom_site_fract_y
 _atom_site_fract_z
 _atom_site_occupancy
  Pr  Pr0  1  0.353501  0.212624  0.817168  1
  Pr  Pr1  1  0.783652  0.647235  0.684759  1
  Pr  Pr2  1  0.647750  0.785400  0.184193  1
  Pr  Pr3  1  0.214553  0.353477  0.316187  1
  Pr  Pr4  1  0.566747  0.433958  0.750677  1
  Pr  Pr5  1  0.435239  0.565934  0.248359  1
  Eu  Eu6  1  0.010574  0.802888  0.918092  1
  Eu  Eu7  1  0.197219  0.990578  0.582050  1
  Eu  Eu8  1  0.989886  0.197024  0.082662  1
  Eu  Eu9  1  0.800877  0.012711  0.417231  1
  Ir  Ir10  1  0.414310  0.812198  0.926641  1
  Ir  Ir11  1  0.812347  0.413731  0.426707  1
  Ir  Ir12  1  0.585400  0.187429  0.073324  1
  Rh  Rh13  1  0.187946  0.584814  0.571951  1
