# generated using pymatgen
data_LaPrTiCrO8
_symmetry_space_group_name_H-M   'P 1'
_cell_length_a   6.26182343
_cell_length_b   6.26182299
_cell_length_c   6.26182328
_cell_angle_alpha   106.02190200
_cell_angle_beta   106.02190913
_cell_angle_gamma   116.61482759
_symmetry_Int_Tables_number   1
_chemical_formula_structural   LaPrTiCrO8
_chemical_formula_sum   'La1 Pr1 Ti1 Cr1 O8'
_cell_volume   186.77827195
_cell_formula_units_Z   1
loop_
 _symmetry_equiv_pos_site_id
 _symmetry_equiv_pos_as_xyz
  1  'x, y, z'
loop_
 _atom_site_type_symbol
 _atom_site_label
 _atom_site_symmetry_multiplicity
 _atom_site_fract_x
 _atom_site_fract_y
 _atom_site_fract_z
 _atom_site_occupancy
  La  La0  1  0.000000  0.000000  0.000000  1
  Pr  Pr1  1  0.250000  0.750000  0.500000  1
  Ti  Ti2  1  0.750000  0.250000  0.500000  1
  Cr  Cr3  1  0.500000  0.500000  0.000000  1
  O  O4  1  0.345451  0.519857  0.174407  1
  O  O5  1  0.381092  0.063248  0.317845  1
  O  O6  1  0.745404  0.063248  0.682155  1
  O  O7  1  0.345451  0.171044  0.825593  1
  O  O8  1  0.828956  0.654549  0.174407  1
  O  O9  1  0.936752  0.254596  0.317845  1
  O  O10  1  0.936752  0.618908  0.682155  1
  O  O11  1  0.480143  0.654549  0.825593  1
