# generated using pymatgen
data_Pr7PBr12
_symmetry_space_group_name_H-M   'P 1'
_cell_length_a   9.48758580
_cell_length_b   9.48758466
_cell_length_c   9.48758491
_cell_angle_alpha   107.55820380
_cell_angle_beta   107.55820982
_cell_angle_gamma   107.55821346
_symmetry_Int_Tables_number   1
_chemical_formula_structural   Pr7PBr12
_chemical_formula_sum   'Pr7 P1 Br12'
_cell_volume   700.12193189
_cell_formula_units_Z   1
loop_
 _symmetry_equiv_pos_site_id
 _symmetry_equiv_pos_as_xyz
  1  'x, y, z'
loop_
 _atom_site_type_symbol
 _atom_site_label
 _atom_site_symmetry_multiplicity
 _atom_site_fract_x
 _atom_site_fract_y
 _atom_site_fract_z
 _atom_site_occupancy
  Pr  Pr0  1  0.500000  0.500000  0.500000  1
  Pr  Pr1  1  0.105241  0.029247  0.316973  1
  Pr  Pr2  1  0.029247  0.316973  0.105241  1
  Pr  Pr3  1  0.316973  0.105241  0.029247  1
  Pr  Pr4  1  0.894758  0.970753  0.683027  1
  Pr  Pr5  1  0.970753  0.683027  0.894758  1
  Pr  Pr6  1  0.683027  0.894758  0.970753  1
  P  P7  1  0.000000  0.000000  0.000000  1
  Br  Br8  1  0.076981  0.686773  0.227768  1
  Br  Br9  1  0.686773  0.227768  0.076981  1
  Br  Br10  1  0.227768  0.076981  0.686773  1
  Br  Br11  1  0.923019  0.313227  0.772232  1
  Br  Br12  1  0.313227  0.772232  0.923019  1
  Br  Br13  1  0.772232  0.923019  0.313227  1
  Br  Br14  1  0.467690  0.158591  0.385864  1
  Br  Br15  1  0.158591  0.385864  0.467690  1
  Br  Br16  1  0.385864  0.467690  0.158591  1
  Br  Br17  1  0.532310  0.841409  0.614136  1
  Br  Br18  1  0.841409  0.614136  0.532310  1
  Br  Br19  1  0.614136  0.532310  0.841409  1
