# generated using pymatgen
data_NaYbVO4
_symmetry_space_group_name_H-M   'P 1'
_cell_length_a   5.51909234
_cell_length_b   5.51909232
_cell_length_c   7.12385400
_cell_angle_alpha   90.00000000
_cell_angle_beta   90.00000000
_cell_angle_gamma   115.34119789
_symmetry_Int_Tables_number   1
_chemical_formula_structural   NaYbVO4
_chemical_formula_sum   'Na2 Yb2 V2 O8'
_cell_volume   196.11493466
_cell_formula_units_Z   2
loop_
 _symmetry_equiv_pos_site_id
 _symmetry_equiv_pos_as_xyz
  1  'x, y, z'
loop_
 _atom_site_type_symbol
 _atom_site_label
 _atom_site_symmetry_multiplicity
 _atom_site_fract_x
 _atom_site_fract_y
 _atom_site_fract_z
 _atom_site_occupancy
  Na  Na0  1  0.178953  0.821047  0.750000  1
  Na  Na1  1  0.821047  0.178953  0.250000  1
  Yb  Yb2  1  0.500000  0.500000  0.500000  1
  Yb  Yb3  1  0.500000  0.500000  0.000000  1
  V  V4  1  0.852145  0.147855  0.750000  1
  V  V5  1  0.147855  0.852145  0.250000  1
  O  O6  1  0.256118  0.743882  0.054950  1
  O  O7  1  0.743882  0.256118  0.554950  1
  O  O8  1  0.743882  0.256118  0.945050  1
  O  O9  1  0.256118  0.743882  0.445050  1
  O  O10  1  0.206996  0.279386  0.750000  1
  O  O11  1  0.793004  0.720614  0.250000  1
  O  O12  1  0.720614  0.793004  0.750000  1
  O  O13  1  0.279386  0.206996  0.250000  1
