# generated using pymatgen
data_Dy2Y2Co20(As3P)3
_symmetry_space_group_name_H-M   'P 1'
_cell_length_a   3.75591000
_cell_length_b   12.11478813
_cell_length_c   10.60982934
_cell_angle_alpha   90.08479565
_cell_angle_beta   90.00000000
_cell_angle_gamma   90.00000000
_symmetry_Int_Tables_number   1
_chemical_formula_structural   Dy2Y2Co20(As3P)3
_chemical_formula_sum   'Dy2 Y2 Co20 As9 P3'
_cell_volume   482.76849760
_cell_formula_units_Z   1
loop_
 _symmetry_equiv_pos_site_id
 _symmetry_equiv_pos_as_xyz
  1  'x, y, z'
loop_
 _atom_site_type_symbol
 _atom_site_label
 _atom_site_symmetry_multiplicity
 _atom_site_fract_x
 _atom_site_fract_y
 _atom_site_fract_z
 _atom_site_occupancy
  Dy  Dy0  1  0.750000  0.706180  0.082772  1
  Dy  Dy1  1  0.750000  0.209315  0.417719  1
  Y  Y2  1  0.250000  0.297415  0.918262  1
  Y  Y3  1  0.250000  0.792335  0.582557  1
  Co  Co4  1  0.750000  0.694558  0.388465  1
  Co  Co5  1  0.250000  0.306816  0.609588  1
  Co  Co6  1  0.250000  0.803200  0.888420  1
  Co  Co7  1  0.750000  0.196677  0.117867  1
  Co  Co8  1  0.750000  0.985367  0.207687  1
  Co  Co9  1  0.250000  0.009198  0.788126  1
  Co  Co10  1  0.250000  0.515348  0.706109  1
  Co  Co11  1  0.750000  0.485673  0.294552  1
  Co  Co12  1  0.750000  0.674585  0.771841  1
  Co  Co13  1  0.250000  0.326222  0.228596  1
  Co  Co14  1  0.250000  0.824681  0.273111  1
  Co  Co15  1  0.750000  0.178969  0.716102  1
  Co  Co16  1  0.750000  0.928013  0.975483  1
  Co  Co17  1  0.250000  0.061456  0.034883  1
  Co  Co18  1  0.250000  0.565944  0.471635  1
  Co  Co19  1  0.750000  0.435753  0.527869  1
  Co  Co20  1  0.750000  0.988503  0.593214  1
  Co  Co21  1  0.250000  0.010655  0.406175  1
  Co  Co22  1  0.250000  0.511014  0.094299  1
  Co  Co23  1  0.750000  0.489854  0.906391  1
  As  As24  1  0.750000  0.111472  0.916202  1
  As  As25  1  0.750000  0.889474  0.399217  1
  As  As26  1  0.250000  0.110529  0.599115  1
  As  As27  1  0.250000  0.610001  0.899094  1
  As  As28  1  0.750000  0.390767  0.102235  1
  As  As29  1  0.750000  0.869794  0.769837  1
  As  As30  1  0.250000  0.130434  0.232992  1
  As  As31  1  0.250000  0.629943  0.269694  1
  As  As32  1  0.750000  0.372269  0.729694  1
  P  P33  1  0.750000  0.611444  0.579198  1
  P  P34  1  0.250000  0.390105  0.420420  1
  P  P35  1  0.250000  0.886036  0.080578  1
