# generated using pymatgen
data_Dy2Cr3Co9As7
_symmetry_space_group_name_H-M   'P 1'
_cell_length_a   9.43983100
_cell_length_b   9.43983172
_cell_length_c   3.74702400
_cell_angle_alpha   90.00000000
_cell_angle_beta   90.00000000
_cell_angle_gamma   120.00000097
_symmetry_Int_Tables_number   1
_chemical_formula_structural   Dy2Cr3Co9As7
_chemical_formula_sum   'Dy2 Cr3 Co9 As7'
_cell_volume   289.16489908
_cell_formula_units_Z   1
loop_
 _symmetry_equiv_pos_site_id
 _symmetry_equiv_pos_as_xyz
  1  'x, y, z'
loop_
 _atom_site_type_symbol
 _atom_site_label
 _atom_site_symmetry_multiplicity
 _atom_site_fract_x
 _atom_site_fract_y
 _atom_site_fract_z
 _atom_site_occupancy
  Dy  Dy0  1  0.333333  0.666667  0.743313  1
  Dy  Dy1  1  0.666667  0.333333  0.243080  1
  Cr  Cr2  1  0.892824  0.119982  0.242822  1
  Cr  Cr3  1  0.880018  0.772842  0.242822  1
  Cr  Cr4  1  0.227158  0.107176  0.242822  1
  Co  Co5  1  0.631034  0.570626  0.743220  1
  Co  Co6  1  0.429374  0.060407  0.743220  1
  Co  Co7  1  0.939593  0.368966  0.743220  1
  Co  Co8  1  0.383821  0.435461  0.243138  1
  Co  Co9  1  0.564539  0.948360  0.243138  1
  Co  Co10  1  0.051640  0.616179  0.243138  1
  Co  Co11  1  0.121127  0.841176  0.743232  1
  Co  Co12  1  0.158824  0.279952  0.743232  1
  Co  Co13  1  0.720048  0.878873  0.743232  1
  As  As14  1  0.000000  0.000000  0.742360  1
  As  As15  1  0.886573  0.585633  0.742831  1
  As  As16  1  0.414367  0.300940  0.742831  1
  As  As17  1  0.699060  0.113427  0.742831  1
  As  As18  1  0.118874  0.409641  0.243266  1
  As  As19  1  0.590359  0.709234  0.243266  1
  As  As20  1  0.290766  0.881126  0.243266  1
