# generated using pymatgen
data_Mn3CdP6N13
_symmetry_space_group_name_H-M   'P 1'
_cell_length_a   7.09050821
_cell_length_b   7.09050789
_cell_length_c   7.09050950
_cell_angle_alpha   109.25848804
_cell_angle_beta   109.25848958
_cell_angle_gamma   109.25847877
_symmetry_Int_Tables_number   1
_chemical_formula_structural   Mn3CdP6N13
_chemical_formula_sum   'Mn3 Cd1 P6 N13'
_cell_volume   276.55679774
_cell_formula_units_Z   1
loop_
 _symmetry_equiv_pos_site_id
 _symmetry_equiv_pos_as_xyz
  1  'x, y, z'
loop_
 _atom_site_type_symbol
 _atom_site_label
 _atom_site_symmetry_multiplicity
 _atom_site_fract_x
 _atom_site_fract_y
 _atom_site_fract_z
 _atom_site_occupancy
  Mn  Mn0  1  0.699009  0.991399  0.991399  1
  Mn  Mn1  1  0.991399  0.991399  0.699009  1
  Mn  Mn2  1  0.991399  0.699009  0.991399  1
  Cd  Cd3  1  0.270271  0.270271  0.270271  1
  P  P4  1  0.254072  0.755162  0.504240  1
  P  P5  1  0.755162  0.254072  0.504240  1
  P  P6  1  0.755162  0.504240  0.254072  1
  P  P7  1  0.254072  0.504240  0.755162  1
  P  P8  1  0.504240  0.755162  0.254072  1
  P  P9  1  0.504240  0.254072  0.755162  1
  N  N10  1  0.964452  0.964452  0.964452  1
  N  N11  1  0.729126  0.272410  0.272410  1
  N  N12  1  0.272410  0.729126  0.272410  1
  N  N13  1  0.284236  0.556339  0.556339  1
  N  N14  1  0.556339  0.556339  0.284236  1
  N  N15  1  0.453978  0.735954  0.002899  1
  N  N16  1  0.002899  0.735954  0.453978  1
  N  N17  1  0.556339  0.284236  0.556339  1
  N  N18  1  0.735954  0.002899  0.453978  1
  N  N19  1  0.453978  0.002899  0.735954  1
  N  N20  1  0.735954  0.453978  0.002899  1
  N  N21  1  0.272410  0.272410  0.729126  1
  N  N22  1  0.002899  0.453978  0.735954  1
