# generated using pymatgen
data_Ba4YSbO8
_symmetry_space_group_name_H-M   'P 1'
_cell_length_a   7.47165455
_cell_length_b   7.47165324
_cell_length_c   6.03495000
_cell_angle_alpha   90.00000000
_cell_angle_beta   90.00000000
_cell_angle_gamma   132.53588544
_symmetry_Int_Tables_number   1
_chemical_formula_structural   Ba4YSbO8
_chemical_formula_sum   'Ba4 Y1 Sb1 O8'
_cell_volume   248.24965170
_cell_formula_units_Z   1
loop_
 _symmetry_equiv_pos_site_id
 _symmetry_equiv_pos_as_xyz
  1  'x, y, z'
loop_
 _atom_site_type_symbol
 _atom_site_label
 _atom_site_symmetry_multiplicity
 _atom_site_fract_x
 _atom_site_fract_y
 _atom_site_fract_z
 _atom_site_occupancy
  Ba  Ba0  1  0.352730  0.647270  0.000000  1
  Ba  Ba1  1  0.852656  0.147344  0.500000  1
  Ba  Ba2  1  0.147344  0.852656  0.500000  1
  Ba  Ba3  1  0.647270  0.352730  0.000000  1
  Y  Y4  1  0.000000  0.000000  0.000000  1
  Sb  Sb5  1  0.500000  0.500000  0.500000  1
  O  O6  1  0.261535  0.261535  0.733739  1
  O  O7  1  0.738465  0.738465  0.266261  1
  O  O8  1  0.738465  0.738465  0.733739  1
  O  O9  1  0.261535  0.261535  0.266261  1
  O  O10  1  0.165670  0.834330  0.000000  1
  O  O11  1  0.650748  0.349252  0.500000  1
  O  O12  1  0.349252  0.650748  0.500000  1
  O  O13  1  0.834330  0.165670  0.000000  1
