# generated using pymatgen
data_V8Zn7Co5(TeO10)4
_symmetry_space_group_name_H-M   'P 1'
_cell_length_a   30.85829953
_cell_length_b   5.35021068
_cell_length_c   5.60494913
_cell_angle_alpha   81.38546469
_cell_angle_beta   90.03812721
_cell_angle_gamma   90.03130850
_symmetry_Int_Tables_number   1
_chemical_formula_structural   V8Zn7Co5(TeO10)4
_chemical_formula_sum   'V8 Zn7 Co5 Te4 O40'
_cell_volume   914.92823772
_cell_formula_units_Z   1
loop_
 _symmetry_equiv_pos_site_id
 _symmetry_equiv_pos_as_xyz
  1  'x, y, z'
loop_
 _atom_site_type_symbol
 _atom_site_label
 _atom_site_symmetry_multiplicity
 _atom_site_fract_x
 _atom_site_fract_y
 _atom_site_fract_z
 _atom_site_occupancy
  V  V0  1  0.444541  0.752486  0.219014  1
  V  V1  1  0.204944  0.929974  0.726648  1
  V  V2  1  0.055700  0.752859  0.720590  1
  V  V3  1  0.795181  0.069739  0.274241  1
  V  V4  1  0.294553  0.929998  0.226773  1
  V  V5  1  0.705059  0.071228  0.771822  1
  V  V6  1  0.555672  0.246517  0.780520  1
  V  V7  1  0.944455  0.247292  0.279272  1
  Zn  Zn8  1  0.942205  0.692994  0.643272  1
  Zn  Zn9  1  0.442246  0.305241  0.857655  1
  Zn  Zn10  1  0.557993  0.692742  0.143564  1
  Zn  Zn11  1  0.273164  0.422604  0.719126  1
  Zn  Zn12  1  0.226772  0.422415  0.219286  1
  Zn  Zn13  1  0.773159  0.578422  0.777986  1
  Zn  Zn14  1  0.370437  0.779258  0.767067  1
  Co  Co15  1  0.870747  0.223949  0.734955  1
  Co  Co16  1  0.057965  0.305490  0.358669  1
  Co  Co17  1  0.129255  0.776260  0.265699  1
  Co  Co18  1  0.727307  0.582006  0.273114  1
  Co  Co19  1  0.629548  0.223040  0.234767  1
  Te  Te20  1  0.130874  0.327929  0.930927  1
  Te  Te21  1  0.869129  0.672260  0.068901  1
  Te  Te22  1  0.369072  0.329162  0.430186  1
  Te  Te23  1  0.630848  0.670720  0.569638  1
  O  O24  1  0.901188  0.883627  0.828009  1
  O  O25  1  0.002088  0.682170  0.737697  1
  O  O26  1  0.598984  0.883531  0.328464  1
  O  O27  1  0.565048  0.928110  0.831655  1
  O  O28  1  0.760661  0.311632  0.149128  1
  O  O29  1  0.268821  0.201957  0.066790  1
  O  O30  1  0.498177  0.683639  0.237710  1
  O  O31  1  0.664333  0.513151  0.344089  1
  O  O32  1  0.831918  0.179113  0.457814  1
  O  O33  1  0.825346  0.971221  0.025119  1
  O  O34  1  0.998144  0.317418  0.260948  1
  O  O35  1  0.164303  0.485307  0.158689  1
  O  O36  1  0.920334  0.386155  0.514784  1
  O  O37  1  0.230759  0.202450  0.568231  1
  O  O38  1  0.668421  0.179218  0.956677  1
  O  O39  1  0.085261  0.610043  0.990274  1
  O  O40  1  0.414992  0.606892  0.486114  1
  O  O41  1  0.239277  0.688125  0.854110  1
  O  O42  1  0.331587  0.817507  0.047484  1
  O  O43  1  0.914369  0.389161  0.010693  1
  O  O44  1  0.324717  0.032755  0.472407  1
  O  O45  1  0.420519  0.613300  0.983523  1
  O  O46  1  0.730919  0.798090  0.932777  1
  O  O47  1  0.079833  0.613022  0.486023  1
  O  O48  1  0.174524  0.028779  0.974681  1
  O  O49  1  0.260276  0.688240  0.355507  1
  O  O50  1  0.769435  0.796771  0.432501  1
  O  O51  1  0.064819  0.072225  0.666168  1
  O  O52  1  0.674919  0.969911  0.524721  1
  O  O53  1  0.835537  0.514753  0.841795  1
  O  O54  1  0.585382  0.389071  0.511941  1
  O  O55  1  0.738883  0.315019  0.642825  1
  O  O56  1  0.579923  0.385610  0.015742  1
  O  O57  1  0.168170  0.821350  0.542756  1
  O  O58  1  0.434873  0.070998  0.169809  1
  O  O59  1  0.335762  0.486635  0.658441  1
  O  O60  1  0.935195  0.928544  0.331357  1
  O  O61  1  0.502016  0.316217  0.762495  1
  O  O62  1  0.098944  0.117179  0.172687  1
  O  O63  1  0.400511  0.116518  0.673672  1
