# generated using pymatgen
data_Yb4ZnIr7
_symmetry_space_group_name_H-M   'P 1'
_cell_length_a   5.37550600
_cell_length_b   5.37550571
_cell_length_c   8.54417100
_cell_angle_alpha   90.00000000
_cell_angle_beta   90.00000000
_cell_angle_gamma   119.99998946
_symmetry_Int_Tables_number   1
_chemical_formula_structural   Yb4ZnIr7
_chemical_formula_sum   'Yb4 Zn1 Ir7'
_cell_volume   213.81555073
_cell_formula_units_Z   1
loop_
 _symmetry_equiv_pos_site_id
 _symmetry_equiv_pos_as_xyz
  1  'x, y, z'
loop_
 _atom_site_type_symbol
 _atom_site_label
 _atom_site_symmetry_multiplicity
 _atom_site_fract_x
 _atom_site_fract_y
 _atom_site_fract_z
 _atom_site_occupancy
  Yb  Yb0  1  0.333333  0.666667  0.433815  1
  Yb  Yb1  1  0.666667  0.333333  0.566185  1
  Yb  Yb2  1  0.666667  0.333333  0.927237  1
  Yb  Yb3  1  0.333333  0.666667  0.072763  1
  Zn  Zn4  1  0.000000  0.000000  0.000000  1
  Ir  Ir5  1  0.000000  0.000000  0.500000  1
  Ir  Ir6  1  0.828427  0.171573  0.251436  1
  Ir  Ir7  1  0.828427  0.656853  0.251436  1
  Ir  Ir8  1  0.343147  0.171573  0.251436  1
  Ir  Ir9  1  0.171573  0.828427  0.748564  1
  Ir  Ir10  1  0.171573  0.343147  0.748564  1
  Ir  Ir11  1  0.656853  0.828427  0.748564  1
