# generated using pymatgen
data_Y3Mg2CdPt3
_symmetry_space_group_name_H-M   'P 1'
_cell_length_a   7.48157800
_cell_length_b   7.44581159
_cell_length_c   4.05126200
_cell_angle_alpha   90.00000000
_cell_angle_beta   90.00000000
_cell_angle_gamma   120.15902813
_symmetry_Int_Tables_number   1
_chemical_formula_structural   Y3Mg2CdPt3
_chemical_formula_sum   'Y3 Mg2 Cd1 Pt3'
_cell_volume   195.13179287
_cell_formula_units_Z   1
loop_
 _symmetry_equiv_pos_site_id
 _symmetry_equiv_pos_as_xyz
  1  'x, y, z'
loop_
 _atom_site_type_symbol
 _atom_site_label
 _atom_site_symmetry_multiplicity
 _atom_site_fract_x
 _atom_site_fract_y
 _atom_site_fract_z
 _atom_site_occupancy
  Y  Y0  1  0.411089  0.000000  0.500001  1
  Y  Y1  1  0.997221  0.403613  0.500001  1
  Y  Y2  1  0.593608  0.596386  0.500001  1
  Mg  Mg3  1  0.248751  0.248137  0.000000  1
  Mg  Mg4  1  0.000614  0.751863  0.000000  1
  Cd  Cd5  1  0.748817  0.000000  0.000000  1
  Pt  Pt6  1  0.663171  0.341724  0.000000  1
  Pt  Pt7  1  0.321447  0.658276  0.000000  1
  Pt  Pt8  1  0.015281  0.000000  0.500001  1
