# generated using pymatgen
data_YbPa2Co2Sn3Ir
_symmetry_space_group_name_H-M   'P 1'
_cell_length_a   7.28409890
_cell_length_b   7.37604700
_cell_length_c   3.91765800
_cell_angle_alpha   90.00000000
_cell_angle_beta   90.00000000
_cell_angle_gamma   119.69095340
_symmetry_Int_Tables_number   1
_chemical_formula_structural   YbPa2Co2Sn3Ir
_chemical_formula_sum   'Yb1 Pa2 Co2 Sn3 Ir1'
_cell_volume   182.85242200
_cell_formula_units_Z   1
loop_
 _symmetry_equiv_pos_site_id
 _symmetry_equiv_pos_as_xyz
  1  'x, y, z'
loop_
 _atom_site_type_symbol
 _atom_site_label
 _atom_site_symmetry_multiplicity
 _atom_site_fract_x
 _atom_site_fract_y
 _atom_site_fract_z
 _atom_site_occupancy
  Yb  Yb0  1  0.408805  0.999936  0.500000  1
  Pa  Pa1  1  0.008743  0.415919  0.500000  1
  Pa  Pa2  1  0.584902  0.590291  0.500000  1
  Co  Co3  1  0.327616  0.632436  0.000000  1
  Co  Co4  1  0.978350  0.999549  0.500000  1
  Sn  Sn5  1  0.019036  0.766146  0.000000  1
  Sn  Sn6  1  0.248603  0.239952  0.000000  1
  Sn  Sn7  1  0.733796  0.994857  0.000000  1
  Ir  Ir8  1  0.690149  0.360913  0.000000  1
