# generated using pymatgen
data_Hf10Cu2(SnSb)3
_symmetry_space_group_name_H-M   'P 1'
_cell_length_a   8.59450900
_cell_length_b   8.59450951
_cell_length_c   5.76568200
_cell_angle_alpha   90.00000000
_cell_angle_beta   90.00000000
_cell_angle_gamma   119.99999420
_symmetry_Int_Tables_number   1
_chemical_formula_structural   Hf10Cu2(SnSb)3
_chemical_formula_sum   'Hf10 Cu2 Sn3 Sb3'
_cell_volume   368.82768247
_cell_formula_units_Z   1
loop_
 _symmetry_equiv_pos_site_id
 _symmetry_equiv_pos_as_xyz
  1  'x, y, z'
loop_
 _atom_site_type_symbol
 _atom_site_label
 _atom_site_symmetry_multiplicity
 _atom_site_fract_x
 _atom_site_fract_y
 _atom_site_fract_z
 _atom_site_occupancy
  Hf  Hf0  1  0.666667  0.333333  0.998696  1
  Hf  Hf1  1  0.333333  0.666667  0.998696  1
  Hf  Hf2  1  0.333333  0.666667  0.501304  1
  Hf  Hf3  1  0.666667  0.333333  0.501304  1
  Hf  Hf4  1  0.733946  0.733946  0.750000  1
  Hf  Hf5  1  0.266054  0.000000  0.750000  1
  Hf  Hf6  1  0.000000  0.266054  0.750000  1
  Hf  Hf7  1  0.261282  0.261282  0.250000  1
  Hf  Hf8  1  0.738718  0.000000  0.250000  1
  Hf  Hf9  1  0.000000  0.738718  0.250000  1
  Cu  Cu10  1  0.000000  0.000000  0.507533  1
  Cu  Cu11  1  0.000000  0.000000  0.992467  1
  Sn  Sn12  1  0.385061  0.385061  0.750000  1
  Sn  Sn13  1  0.614939  0.000000  0.750000  1
  Sn  Sn14  1  0.000000  0.614939  0.750000  1
  Sb  Sb15  1  0.611395  0.611395  0.250000  1
  Sb  Sb16  1  0.388605  0.000000  0.250000  1
  Sb  Sb17  1  0.000000  0.388605  0.250000  1
