# generated using pymatgen
data_Nb12Al9Co2TcC4
_symmetry_space_group_name_H-M   'P 1'
_cell_length_a   8.33289927
_cell_length_b   8.30141221
_cell_length_c   8.30141015
_cell_angle_alpha   60.01288462
_cell_angle_beta   60.13062688
_cell_angle_gamma   60.13063109
_symmetry_Int_Tables_number   1
_chemical_formula_structural   Nb12Al9Co2TcC4
_chemical_formula_sum   'Nb12 Al9 Co2 Tc1 C4'
_cell_volume   406.89476552
_cell_formula_units_Z   1
loop_
 _symmetry_equiv_pos_site_id
 _symmetry_equiv_pos_as_xyz
  1  'x, y, z'
loop_
 _atom_site_type_symbol
 _atom_site_label
 _atom_site_symmetry_multiplicity
 _atom_site_fract_x
 _atom_site_fract_y
 _atom_site_fract_z
 _atom_site_occupancy
  Nb  Nb0  1  0.681159  0.310647  0.696013  1
  Nb  Nb1  1  0.936267  0.563357  0.563357  1
  Nb  Nb2  1  0.563677  0.941051  0.941051  1
  Nb  Nb3  1  0.937345  0.559634  0.939898  1
  Nb  Nb4  1  0.568841  0.553987  0.939353  1
  Nb  Nb5  1  0.937345  0.939898  0.559634  1
  Nb  Nb6  1  0.681159  0.696013  0.310647  1
  Nb  Nb7  1  0.313733  0.686643  0.686643  1
  Nb  Nb8  1  0.686323  0.308949  0.308949  1
  Nb  Nb9  1  0.312655  0.310102  0.690366  1
  Nb  Nb10  1  0.568841  0.939353  0.553987  1
  Nb  Nb11  1  0.312655  0.690366  0.310102  1
  Al  Al12  1  0.125000  0.125000  0.125000  1
  Al  Al13  1  0.323640  0.338436  0.338436  1
  Al  Al14  1  0.255766  0.906626  0.906626  1
  Al  Al15  1  0.921370  0.247780  0.902367  1
  Al  Al16  1  0.921370  0.902367  0.247780  1
  Al  Al17  1  0.328630  0.002220  0.347633  1
  Al  Al18  1  0.328630  0.347633  0.002220  1
  Al  Al19  1  0.994234  0.343374  0.343374  1
  Al  Al20  1  0.926360  0.911564  0.911564  1
  Co  Co21  1  0.125000  0.625000  0.125000  1
  Co  Co22  1  0.125000  0.125000  0.625000  1
  Tc  Tc23  1  0.625000  0.125000  0.125000  1
  C  C24  1  0.625000  0.625000  0.625000  1
  C  C25  1  0.125000  0.625000  0.625000  1
  C  C26  1  0.625000  0.125000  0.625000  1
  C  C27  1  0.625000  0.625000  0.125000  1
