# generated using pymatgen
data_Tb3Er2Bi2Ru
_symmetry_space_group_name_H-M   'P 1'
_cell_length_a   7.97339800
_cell_length_b   9.00459400
_cell_length_c   12.50562000
_cell_angle_alpha   90.00000000
_cell_angle_beta   90.00000000
_cell_angle_gamma   90.00000000
_symmetry_Int_Tables_number   1
_chemical_formula_structural   Tb3Er2Bi2Ru
_chemical_formula_sum   'Tb12 Er8 Bi8 Ru4'
_cell_volume   897.86864771
_cell_formula_units_Z   4
loop_
 _symmetry_equiv_pos_site_id
 _symmetry_equiv_pos_as_xyz
  1  'x, y, z'
loop_
 _atom_site_type_symbol
 _atom_site_label
 _atom_site_symmetry_multiplicity
 _atom_site_fract_x
 _atom_site_fract_y
 _atom_site_fract_z
 _atom_site_occupancy
  Tb  Tb0  1  0.845617  0.750000  0.794965  1
  Tb  Tb1  1  0.154383  0.250000  0.205035  1
  Tb  Tb2  1  0.345617  0.250000  0.705035  1
  Tb  Tb3  1  0.654383  0.750000  0.294965  1
  Tb  Tb4  1  0.375888  0.750000  0.690838  1
  Tb  Tb5  1  0.624112  0.250000  0.309162  1
  Tb  Tb6  1  0.875888  0.250000  0.809162  1
  Tb  Tb7  1  0.124112  0.750000  0.190838  1
  Tb  Tb8  1  0.948898  0.750000  0.504544  1
  Tb  Tb9  1  0.051102  0.250000  0.495456  1
  Tb  Tb10  1  0.448898  0.250000  0.995456  1
  Tb  Tb11  1  0.551102  0.750000  0.004544  1
  Er  Er12  1  0.674793  0.039735  0.564088  1
  Er  Er13  1  0.325207  0.960265  0.435912  1
  Er  Er14  1  0.174793  0.960265  0.935912  1
  Er  Er15  1  0.325207  0.539735  0.435912  1
  Er  Er16  1  0.825207  0.039735  0.064088  1
  Er  Er17  1  0.674793  0.460265  0.564088  1
  Er  Er18  1  0.825207  0.460265  0.064088  1
  Er  Er19  1  0.174793  0.539735  0.935912  1
  Bi  Bi20  1  0.568923  0.493923  0.826937  1
  Bi  Bi21  1  0.431077  0.506077  0.173063  1
  Bi  Bi22  1  0.068923  0.506077  0.673063  1
  Bi  Bi23  1  0.431077  0.993923  0.173063  1
  Bi  Bi24  1  0.931077  0.493923  0.326937  1
  Bi  Bi25  1  0.568923  0.006077  0.826937  1
  Bi  Bi26  1  0.931077  0.006077  0.326937  1
  Bi  Bi27  1  0.068923  0.993923  0.673063  1
  Ru  Ru28  1  0.569440  0.750000  0.509789  1
  Ru  Ru29  1  0.430560  0.250000  0.490211  1
  Ru  Ru30  1  0.069440  0.250000  0.990211  1
  Ru  Ru31  1  0.930560  0.750000  0.009789  1
