# generated using pymatgen
data_RbCr4Tc2Se7
_symmetry_space_group_name_H-M   'P 1'
_cell_length_a   9.54291103
_cell_length_b   9.59795345
_cell_length_c   9.55301025
_cell_angle_alpha   60.78554146
_cell_angle_beta   60.72072237
_cell_angle_gamma   60.53462558
_symmetry_Int_Tables_number   1
_chemical_formula_structural   RbCr4Tc2Se7
_chemical_formula_sum   'Rb2 Cr8 Tc4 Se14'
_cell_volume   628.20137595
_cell_formula_units_Z   2
loop_
 _symmetry_equiv_pos_site_id
 _symmetry_equiv_pos_as_xyz
  1  'x, y, z'
loop_
 _atom_site_type_symbol
 _atom_site_label
 _atom_site_symmetry_multiplicity
 _atom_site_fract_x
 _atom_site_fract_y
 _atom_site_fract_z
 _atom_site_occupancy
  Rb  Rb0  1  0.122430  0.122962  0.123824  1
  Rb  Rb1  1  0.879771  0.880848  0.877487  1
  Cr  Cr2  1  0.692159  0.559060  0.392499  1
  Cr  Cr3  1  0.557007  0.394430  0.692833  1
  Cr  Cr4  1  0.377615  0.209904  0.500802  1
  Cr  Cr5  1  0.210062  0.498934  0.374772  1
  Cr  Cr6  1  0.503051  0.374000  0.209430  1
  Cr  Cr7  1  0.626342  0.786335  0.500493  1
  Cr  Cr8  1  0.786580  0.499293  0.623291  1
  Cr  Cr9  1  0.501537  0.623173  0.788201  1
  Tc  Tc10  1  0.615461  0.304301  0.442003  1
  Tc  Tc11  1  0.300818  0.442265  0.614963  1
  Tc  Tc12  1  0.440912  0.614941  0.301490  1
  Tc  Tc13  1  0.385430  0.699868  0.559447  1
  Se  Se14  1  0.662678  0.322148  0.915651  1
  Se  Se15  1  0.080546  0.330685  0.675755  1
  Se  Se16  1  0.282423  0.276712  0.279542  1
  Se  Se17  1  0.724210  0.716694  0.721727  1
  Se  Se18  1  0.854505  0.264037  0.524193  1
  Se  Se19  1  0.258311  0.521803  0.859769  1
  Se  Se20  1  0.526269  0.856393  0.256177  1
  Se  Se21  1  0.135528  0.744267  0.476462  1
  Se  Se22  1  0.744329  0.478787  0.141532  1
  Se  Se23  1  0.478617  0.143964  0.744133  1
  Se  Se24  1  0.332210  0.673743  0.079579  1
  Se  Se25  1  0.679651  0.079289  0.333082  1
  Se  Se26  1  0.916929  0.660307  0.321623  1
  Se  Se27  1  0.324623  0.920857  0.669240  1
