# generated using pymatgen
data_ZnReN
_symmetry_space_group_name_H-M   'P 1'
_cell_length_a   6.10593713
_cell_length_b   2.84437882
_cell_length_c   7.22630444
_cell_angle_alpha   90.00000063
_cell_angle_beta   22.14326009
_cell_angle_gamma   76.53100324
_symmetry_Int_Tables_number   1
_chemical_formula_structural   ZnReN
_chemical_formula_sum   'Zn1 Re1 N1'
_cell_volume   37.19230400
_cell_formula_units_Z   1
loop_
 _symmetry_equiv_pos_site_id
 _symmetry_equiv_pos_as_xyz
  1  'x, y, z'
loop_
 _atom_site_type_symbol
 _atom_site_label
 _atom_site_symmetry_multiplicity
 _atom_site_fract_x
 _atom_site_fract_y
 _atom_site_fract_z
 _atom_site_occupancy
  Zn  Zn0  1  0.535726  0.232136  0.425934  1
  Re  Re1  1  0.669267  0.165366  0.698286  1
  N  N2  1  0.813005  0.593498  0.784781  1
