# generated using pymatgen
data_Rb3ScS3
_symmetry_space_group_name_H-M   'P 1'
_cell_length_a   8.26864573
_cell_length_b   8.26864612
_cell_length_c   8.04030596
_cell_angle_alpha   83.80060009
_cell_angle_beta   83.80059965
_cell_angle_gamma   114.08952389
_symmetry_Int_Tables_number   1
_chemical_formula_structural   Rb3ScS3
_chemical_formula_sum   'Rb6 Sc2 S6'
_cell_volume   491.85625781
_cell_formula_units_Z   2
loop_
 _symmetry_equiv_pos_site_id
 _symmetry_equiv_pos_as_xyz
  1  'x, y, z'
loop_
 _atom_site_type_symbol
 _atom_site_label
 _atom_site_symmetry_multiplicity
 _atom_site_fract_x
 _atom_site_fract_y
 _atom_site_fract_z
 _atom_site_occupancy
  Rb  Rb0  1  0.249982  0.750018  0.000000  1
  Rb  Rb1  1  0.319100  0.680900  0.500000  1
  Rb  Rb2  1  0.115436  0.115436  0.644148  1
  Rb  Rb3  1  0.680900  0.319100  0.500000  1
  Rb  Rb4  1  0.750018  0.249982  0.000000  1
  Rb  Rb5  1  0.884564  0.884564  0.355852  1
  Sc  Sc6  1  0.671189  0.671189  0.855983  1
  Sc  Sc7  1  0.328811  0.328811  0.144017  1
  S  S8  1  0.058225  0.342852  0.270866  1
  S  S9  1  0.599010  0.599010  0.174084  1
  S  S10  1  0.400990  0.400990  0.825916  1
  S  S11  1  0.941775  0.657148  0.729134  1
  S  S12  1  0.657148  0.941775  0.729134  1
  S  S13  1  0.342852  0.058225  0.270866  1
