# generated using pymatgen
data_Tm4Ga4Ir2PtRh
_symmetry_space_group_name_H-M   'P 1'
_cell_length_a   4.33264300
_cell_length_b   6.74472746
_cell_length_c   7.72559096
_cell_angle_alpha   89.83674263
_cell_angle_beta   90.00000000
_cell_angle_gamma   90.00000000
_symmetry_Int_Tables_number   1
_chemical_formula_structural   Tm4Ga4Ir2PtRh
_chemical_formula_sum   'Tm4 Ga4 Ir2 Pt1 Rh1'
_cell_volume   225.76013588
_cell_formula_units_Z   1
loop_
 _symmetry_equiv_pos_site_id
 _symmetry_equiv_pos_as_xyz
  1  'x, y, z'
loop_
 _atom_site_type_symbol
 _atom_site_label
 _atom_site_symmetry_multiplicity
 _atom_site_fract_x
 _atom_site_fract_y
 _atom_site_fract_z
 _atom_site_occupancy
  Tm  Tm0  1  0.250000  0.973283  0.309028  1
  Tm  Tm1  1  0.250000  0.477862  0.187194  1
  Tm  Tm2  1  0.750000  0.023004  0.693756  1
  Tm  Tm3  1  0.750000  0.521743  0.811488  1
  Ga  Ga4  1  0.250000  0.345380  0.572956  1
  Ga  Ga5  1  0.250000  0.841990  0.929348  1
  Ga  Ga6  1  0.750000  0.661197  0.429443  1
  Ga  Ga7  1  0.750000  0.155263  0.068437  1
  Ir  Ir8  1  0.250000  0.233515  0.890927  1
  Ir  Ir9  1  0.750000  0.765093  0.108888  1
  Pt  Pt10  1  0.750000  0.266123  0.392191  1
  Rh  Rh11  1  0.250000  0.735547  0.606344  1
