# generated using pymatgen
data_TbHoTm3Ir2
_symmetry_space_group_name_H-M   'P 1'
_cell_length_a   6.43320772
_cell_length_b   7.17569199
_cell_length_c   8.44234222
_cell_angle_alpha   96.70794786
_cell_angle_beta   112.39614554
_cell_angle_gamma   89.99999800
_symmetry_Int_Tables_number   1
_chemical_formula_structural   TbHoTm3Ir2
_chemical_formula_sum   'Tb2 Ho2 Tm6 Ir4'
_cell_volume   357.43822174
_cell_formula_units_Z   2
loop_
 _symmetry_equiv_pos_site_id
 _symmetry_equiv_pos_as_xyz
  1  'x, y, z'
loop_
 _atom_site_type_symbol
 _atom_site_label
 _atom_site_symmetry_multiplicity
 _atom_site_fract_x
 _atom_site_fract_y
 _atom_site_fract_z
 _atom_site_occupancy
  Tb  Tb0  1  0.971979  0.919366  0.185191  1
  Tb  Tb1  1  0.786786  0.580634  0.814809  1
  Ho  Ho2  1  0.028151  0.081212  0.815226  1
  Ho  Ho3  1  0.212926  0.418788  0.184774  1
  Tm  Tm4  1  0.651492  0.817501  0.440732  1
  Tm  Tm5  1  0.210760  0.682499  0.559268  1
  Tm  Tm6  1  0.348280  0.182943  0.559696  1
  Tm  Tm7  1  0.788584  0.317057  0.440304  1
  Tm  Tm8  1  0.427242  0.750000  0.000000  1
  Tm  Tm9  1  0.571988  0.250000  0.000000  1
  Ir  Ir10  1  0.823036  0.572548  0.220965  1
  Ir  Ir11  1  0.602072  0.927452  0.779035  1
  Ir  Ir12  1  0.178192  0.425890  0.779676  1
  Ir  Ir13  1  0.398513  0.074110  0.220324  1
