# generated using pymatgen
data_Ho2Er2SiBr6
_symmetry_space_group_name_H-M   'P 1'
_cell_length_a   4.02841100
_cell_length_b   13.15702600
_cell_length_c   13.94017500
_cell_angle_alpha   90.00000000
_cell_angle_beta   90.00000000
_cell_angle_gamma   90.00000000
_symmetry_Int_Tables_number   1
_chemical_formula_structural   Ho2Er2SiBr6
_chemical_formula_sum   'Ho4 Er4 Si2 Br12'
_cell_volume   738.85587656
_cell_formula_units_Z   2
loop_
 _symmetry_equiv_pos_site_id
 _symmetry_equiv_pos_as_xyz
  1  'x, y, z'
loop_
 _atom_site_type_symbol
 _atom_site_label
 _atom_site_symmetry_multiplicity
 _atom_site_fract_x
 _atom_site_fract_y
 _atom_site_fract_z
 _atom_site_occupancy
  Ho  Ho0  1  0.000000  0.118235  0.578624  1
  Ho  Ho1  1  0.000000  0.881765  0.421376  1
  Ho  Ho2  1  0.000000  0.618235  0.921376  1
  Ho  Ho3  1  0.000000  0.381765  0.078624  1
  Er  Er4  1  0.500000  0.117494  0.341912  1
  Er  Er5  1  0.500000  0.882506  0.658088  1
  Er  Er6  1  0.500000  0.617494  0.158088  1
  Er  Er7  1  0.500000  0.382506  0.841912  1
  Si  Si8  1  0.500000  0.000000  0.500000  1
  Si  Si9  1  0.500000  0.500000  0.000000  1
  Br  Br10  1  0.500000  0.242615  0.164043  1
  Br  Br11  1  0.500000  0.757385  0.835957  1
  Br  Br12  1  0.500000  0.742615  0.335957  1
  Br  Br13  1  0.500000  0.257385  0.664043  1
  Br  Br14  1  0.000000  0.255083  0.409689  1
  Br  Br15  1  0.000000  0.744917  0.590311  1
  Br  Br16  1  0.000000  0.755083  0.090311  1
  Br  Br17  1  0.000000  0.244917  0.909689  1
  Br  Br18  1  0.000000  0.003520  0.242593  1
  Br  Br19  1  0.000000  0.996480  0.757407  1
  Br  Br20  1  0.000000  0.503520  0.257407  1
  Br  Br21  1  0.000000  0.496480  0.742593  1
