# generated using pymatgen
data_Ho15Lu5(Ir2Ru)4
_symmetry_space_group_name_H-M   'P 1'
_cell_length_a   10.73822635
_cell_length_b   10.73956407
_cell_length_c   6.38246517
_cell_angle_alpha   89.99655463
_cell_angle_beta   89.97373563
_cell_angle_gamma   90.01254835
_symmetry_Int_Tables_number   1
_chemical_formula_structural   Ho15Lu5(Ir2Ru)4
_chemical_formula_sum   'Ho15 Lu5 Ir8 Ru4'
_cell_volume   736.05048625
_cell_formula_units_Z   1
loop_
 _symmetry_equiv_pos_site_id
 _symmetry_equiv_pos_as_xyz
  1  'x, y, z'
loop_
 _atom_site_type_symbol
 _atom_site_label
 _atom_site_symmetry_multiplicity
 _atom_site_fract_x
 _atom_site_fract_y
 _atom_site_fract_z
 _atom_site_occupancy
  Ho  Ho0  1  0.292787  0.913731  0.877430  1
  Ho  Ho1  1  0.707170  0.086589  0.877364  1
  Ho  Ho2  1  0.707102  0.913445  0.377405  1
  Ho  Ho3  1  0.586563  0.792840  0.877385  1
  Ho  Ho4  1  0.586050  0.206969  0.377398  1
  Ho  Ho5  1  0.413182  0.793291  0.377397  1
  Ho  Ho6  1  0.413070  0.206994  0.877405  1
  Ho  Ho7  1  0.207238  0.413238  0.622502  1
  Ho  Ho8  1  0.207267  0.586645  0.122559  1
  Ho  Ho9  1  0.792792  0.413368  0.122584  1
  Ho  Ho10  1  0.792763  0.586628  0.622668  1
  Ho  Ho11  1  0.913399  0.707274  0.122599  1
  Ho  Ho12  1  0.913433  0.292802  0.622665  1
  Ho  Ho13  1  0.086652  0.707221  0.622543  1
  Ho  Ho14  1  0.086919  0.292486  0.122876  1
  Lu  Lu15  1  0.293475  0.086399  0.378261  1
  Lu  Lu16  1  0.000480  0.000253  0.499786  1
  Lu  Lu17  1  0.000090  0.000040  0.999947  1
  Lu  Lu18  1  0.499961  0.499962  0.000045  1
  Lu  Lu19  1  0.499925  0.499952  0.499893  1
  Ir  Ir20  1  0.849029  0.151067  0.250034  1
  Ir  Ir21  1  0.848991  0.848956  0.749979  1
  Ir  Ir22  1  0.151627  0.150715  0.748219  1
  Ir  Ir23  1  0.151405  0.849608  0.250457  1
  Ir  Ir24  1  0.651036  0.348952  0.749950  1
  Ir  Ir25  1  0.651121  0.651004  0.250056  1
  Ir  Ir26  1  0.348749  0.348012  0.250522  1
  Ir  Ir27  1  0.348902  0.651023  0.749974  1
  Ru  Ru28  1  0.499461  0.000282  0.122898  1
  Ru  Ru29  1  0.499315  0.000292  0.621523  1
  Ru  Ru30  1  0.000033  0.499999  0.877854  1
  Ru  Ru31  1  0.000015  0.499964  0.377822  1
