# generated using pymatgen
data_Ac8Tb11TmSi16
_symmetry_space_group_name_H-M   'P 1'
_cell_length_a   7.98971931
_cell_length_b   7.98971946
_cell_length_c   14.80543000
_cell_angle_alpha   89.98413016
_cell_angle_beta   90.01586984
_cell_angle_gamma   89.98870978
_symmetry_Int_Tables_number   1
_chemical_formula_structural   Ac8Tb11TmSi16
_chemical_formula_sum   'Ac8 Tb11 Tm1 Si16'
_cell_volume   945.11365091
_cell_formula_units_Z   1
loop_
 _symmetry_equiv_pos_site_id
 _symmetry_equiv_pos_as_xyz
  1  'x, y, z'
loop_
 _atom_site_type_symbol
 _atom_site_label
 _atom_site_symmetry_multiplicity
 _atom_site_fract_x
 _atom_site_fract_y
 _atom_site_fract_z
 _atom_site_occupancy
  Ac  Ac0  1  0.642761  0.990751  0.458530  1
  Ac  Ac1  1  0.356888  0.009538  0.958582  1
  Ac  Ac2  1  0.990751  0.642761  0.541470  1
  Ac  Ac3  1  0.490820  0.857189  0.208108  1
  Ac  Ac4  1  0.509609  0.142466  0.708901  1
  Ac  Ac5  1  0.857189  0.490820  0.791892  1
  Ac  Ac6  1  0.142466  0.509609  0.291099  1
  Ac  Ac7  1  0.009538  0.356888  0.041418  1
  Tb  Tb8  1  0.493774  0.361431  0.124724  1
  Tb  Tb9  1  0.993316  0.138818  0.625039  1
  Tb  Tb10  1  0.861232  0.006402  0.875572  1
  Tb  Tb11  1  0.138818  0.993316  0.374961  1
  Tb  Tb12  1  0.506858  0.638691  0.625582  1
  Tb  Tb13  1  0.361431  0.493774  0.875276  1
  Tb  Tb14  1  0.638691  0.506858  0.374418  1
  Tb  Tb15  1  0.006402  0.861232  0.124428  1
  Tb  Tb16  1  0.316496  0.316496  0.500000  1
  Tb  Tb17  1  0.182801  0.816267  0.750151  1
  Tb  Tb18  1  0.816267  0.182801  0.249849  1
  Tm  Tm19  1  0.683479  0.683479  0.000000  1
  Si  Si20  1  0.285827  0.933306  0.561937  1
  Si  Si21  1  0.714149  0.065193  0.061860  1
  Si  Si22  1  0.933306  0.285827  0.438063  1
  Si  Si23  1  0.433575  0.214702  0.311478  1
  Si  Si24  1  0.567073  0.785448  0.813394  1
  Si  Si25  1  0.214702  0.433575  0.688522  1
  Si  Si26  1  0.785448  0.567073  0.186606  1
  Si  Si27  1  0.065193  0.714149  0.938140  1
  Si  Si28  1  0.796359  0.848764  0.693710  1
  Si  Si29  1  0.204385  0.150786  0.192829  1
  Si  Si30  1  0.848764  0.796359  0.306290  1
  Si  Si31  1  0.349140  0.704355  0.443107  1
  Si  Si32  1  0.650912  0.296441  0.943134  1
  Si  Si33  1  0.704355  0.349140  0.556893  1
  Si  Si34  1  0.296441  0.650912  0.056866  1
  Si  Si35  1  0.150786  0.204385  0.807171  1
