# generated using pymatgen
data_Y11Er5(CdCo)4
_symmetry_space_group_name_H-M   'P 1'
_cell_length_a   9.51186259
_cell_length_b   9.52053245
_cell_length_c   9.52050727
_cell_angle_alpha   59.99573637
_cell_angle_beta   60.02321455
_cell_angle_gamma   60.02354861
_symmetry_Int_Tables_number   1
_chemical_formula_structural   Y11Er5(CdCo)4
_chemical_formula_sum   'Y11 Er5 Cd4 Co4'
_cell_volume   609.83351103
_cell_formula_units_Z   1
loop_
 _symmetry_equiv_pos_site_id
 _symmetry_equiv_pos_as_xyz
  1  'x, y, z'
loop_
 _atom_site_type_symbol
 _atom_site_label
 _atom_site_symmetry_multiplicity
 _atom_site_fract_x
 _atom_site_fract_y
 _atom_site_fract_z
 _atom_site_occupancy
  Y  Y0  1  0.439143  0.060887  0.060840  1
  Y  Y1  1  0.439111  0.060815  0.438026  1
  Y  Y2  1  0.061966  0.438026  0.060927  1
  Y  Y3  1  0.439129  0.438030  0.060793  1
  Y  Y4  1  0.061958  0.060938  0.438024  1
  Y  Y5  1  0.188844  0.811160  0.811156  1
  Y  Y6  1  0.810707  0.189311  0.189310  1
  Y  Y7  1  0.810869  0.190737  0.809787  1
  Y  Y8  1  0.188587  0.809839  0.190705  1
  Y  Y9  1  0.810856  0.809798  0.190729  1
  Y  Y10  1  0.188581  0.190708  0.809833  1
  Er  Er11  1  0.594729  0.595318  0.595313  1
  Er  Er12  1  0.595310  0.596078  0.213354  1
  Er  Er13  1  0.595321  0.213326  0.596087  1
  Er  Er14  1  0.214636  0.595345  0.595400  1
  Er  Er15  1  0.061238  0.438725  0.438707  1
  Cd  Cd16  1  0.830463  0.829569  0.829572  1
  Cd  Cd17  1  0.830746  0.829857  0.508667  1
  Cd  Cd18  1  0.830747  0.508658  0.829861  1
  Cd  Cd19  1  0.510399  0.829569  0.829572  1
  Co  Co20  1  0.388702  0.393520  0.393527  1
  Co  Co21  1  0.391885  0.392439  0.823810  1
  Co  Co22  1  0.391882  0.823805  0.392449  1
  Co  Co23  1  0.824191  0.393541  0.393550  1
