# generated using pymatgen
data_Lu7Sn23Ru6
_symmetry_space_group_name_H-M   'P 1'
_cell_length_a   9.80236300
_cell_length_b   9.80236379
_cell_length_c   10.01419600
_cell_angle_alpha   90.00000000
_cell_angle_beta   90.00000000
_cell_angle_gamma   120.00000070
_symmetry_Int_Tables_number   1
_chemical_formula_structural   Lu7Sn23Ru6
_chemical_formula_sum   'Lu7 Sn23 Ru6'
_cell_volume   833.31329993
_cell_formula_units_Z   1
loop_
 _symmetry_equiv_pos_site_id
 _symmetry_equiv_pos_as_xyz
  1  'x, y, z'
loop_
 _atom_site_type_symbol
 _atom_site_label
 _atom_site_symmetry_multiplicity
 _atom_site_fract_x
 _atom_site_fract_y
 _atom_site_fract_z
 _atom_site_occupancy
  Lu  Lu0  1  0.000000  0.000000  0.000000  1
  Lu  Lu1  1  0.024328  0.512164  0.301638  1
  Lu  Lu2  1  0.487836  0.975672  0.301638  1
  Lu  Lu3  1  0.487836  0.512164  0.301638  1
  Lu  Lu4  1  0.975672  0.487836  0.698362  1
  Lu  Lu5  1  0.512164  0.024328  0.698362  1
  Lu  Lu6  1  0.512164  0.487836  0.698362  1
  Sn  Sn7  1  0.000000  0.000000  0.500000  1
  Sn  Sn8  1  0.119418  0.880582  0.274294  1
  Sn  Sn9  1  0.761163  0.880582  0.274294  1
  Sn  Sn10  1  0.119418  0.238837  0.274294  1
  Sn  Sn11  1  0.880582  0.119418  0.725706  1
  Sn  Sn12  1  0.238837  0.119418  0.725706  1
  Sn  Sn13  1  0.880582  0.761163  0.725706  1
  Sn  Sn14  1  0.349252  0.000000  0.000000  1
  Sn  Sn15  1  0.650748  0.650748  0.000000  1
  Sn  Sn16  1  0.000000  0.349252  0.000000  1
  Sn  Sn17  1  0.349252  0.349252  0.000000  1
  Sn  Sn18  1  0.000000  0.650748  0.000000  1
  Sn  Sn19  1  0.650748  0.000000  0.000000  1
  Sn  Sn20  1  0.779103  0.558206  0.466073  1
  Sn  Sn21  1  0.779103  0.220897  0.466073  1
  Sn  Sn22  1  0.441794  0.220897  0.466073  1
  Sn  Sn23  1  0.220897  0.441794  0.533927  1
  Sn  Sn24  1  0.220897  0.779103  0.533927  1
  Sn  Sn25  1  0.558206  0.779103  0.533927  1
  Sn  Sn26  1  0.666667  0.333333  0.174024  1
  Sn  Sn27  1  0.333333  0.666667  0.825976  1
  Sn  Sn28  1  0.666667  0.333333  0.864185  1
  Sn  Sn29  1  0.333333  0.666667  0.135815  1
  Ru  Ru30  1  0.170750  0.829250  0.796866  1
  Ru  Ru31  1  0.658499  0.829250  0.796866  1
  Ru  Ru32  1  0.170750  0.341501  0.796866  1
  Ru  Ru33  1  0.829250  0.170750  0.203134  1
  Ru  Ru34  1  0.341501  0.170750  0.203134  1
  Ru  Ru35  1  0.829250  0.658499  0.203134  1
