# generated using pymatgen
data_Zr4ZnCrB4Ru9Rh
_symmetry_space_group_name_H-M   'P 1'
_cell_length_a   9.36448400
_cell_length_b   9.36448400
_cell_length_c   3.08029200
_cell_angle_alpha   90.00000000
_cell_angle_beta   90.00000000
_cell_angle_gamma   90.00000000
_symmetry_Int_Tables_number   1
_chemical_formula_structural   Zr4ZnCrB4Ru9Rh
_chemical_formula_sum   'Zr4 Zn1 Cr1 B4 Ru9 Rh1'
_cell_volume   270.12177313
_cell_formula_units_Z   1
loop_
 _symmetry_equiv_pos_site_id
 _symmetry_equiv_pos_as_xyz
  1  'x, y, z'
loop_
 _atom_site_type_symbol
 _atom_site_label
 _atom_site_symmetry_multiplicity
 _atom_site_fract_x
 _atom_site_fract_y
 _atom_site_fract_z
 _atom_site_occupancy
  Zr  Zr0  1  0.677896  0.175005  0.000000  1
  Zr  Zr1  1  0.323445  0.821581  0.000000  1
  Zr  Zr2  1  0.174156  0.325983  0.000000  1
  Zr  Zr3  1  0.825010  0.677776  0.000000  1
  Zn  Zn4  1  0.999259  0.999810  0.000000  1
  Cr  Cr5  1  0.501178  0.500519  0.000000  1
  B  B6  1  0.120625  0.626891  0.000000  1
  B  B7  1  0.879668  0.373390  0.000000  1
  B  B8  1  0.626510  0.878561  0.000000  1
  B  B9  1  0.376613  0.122329  0.000000  1
  Ru  Ru10  1  0.781629  0.926390  0.500000  1
  Ru  Ru11  1  0.074736  0.783705  0.500000  1
  Ru  Ru12  1  0.710936  0.432108  0.500000  1
  Ru  Ru13  1  0.926884  0.216806  0.500000  1
  Ru  Ru14  1  0.289242  0.566560  0.500000  1
  Ru  Ru15  1  0.566929  0.710552  0.500000  1
  Ru  Ru16  1  0.430763  0.288262  0.500000  1
  Ru  Ru17  1  0.498227  0.999676  0.500000  1
  Ru  Ru18  1  0.999628  0.500761  0.500000  1
  Rh  Rh19  1  0.216665  0.073336  0.500000  1
