# generated using pymatgen
data_Hf7Zr2Re3NiMo
_symmetry_space_group_name_H-M   'P 1'
_cell_length_a   8.66520968
_cell_length_b   8.67701129
_cell_length_c   8.41867100
_cell_angle_alpha   90.00000000
_cell_angle_beta   90.00000000
_cell_angle_gamma   120.04507122
_symmetry_Int_Tables_number   1
_chemical_formula_structural   Hf7Zr2Re3NiMo
_chemical_formula_sum   'Hf14 Zr4 Re6 Ni2 Mo2'
_cell_volume   547.93114445
_cell_formula_units_Z   2
loop_
 _symmetry_equiv_pos_site_id
 _symmetry_equiv_pos_as_xyz
  1  'x, y, z'
loop_
 _atom_site_type_symbol
 _atom_site_label
 _atom_site_symmetry_multiplicity
 _atom_site_fract_x
 _atom_site_fract_y
 _atom_site_fract_z
 _atom_site_occupancy
  Hf  Hf0  1  0.198668  0.802545  0.442416  1
  Hf  Hf1  1  0.198668  0.396121  0.442416  1
  Hf  Hf2  1  0.603554  0.801776  0.442064  1
  Hf  Hf3  1  0.801527  0.197841  0.556773  1
  Hf  Hf4  1  0.801527  0.603686  0.556773  1
  Hf  Hf5  1  0.396920  0.198461  0.556238  1
  Hf  Hf6  1  0.801527  0.197841  0.943227  1
  Hf  Hf7  1  0.801527  0.603686  0.943227  1
  Hf  Hf8  1  0.396920  0.198461  0.943762  1
  Hf  Hf9  1  0.198668  0.802545  0.057584  1
  Hf  Hf10  1  0.198668  0.396121  0.057584  1
  Hf  Hf11  1  0.603554  0.801776  0.057936  1
  Hf  Hf12  1  0.540839  0.458710  0.250000  1
  Hf  Hf13  1  0.540839  0.082131  0.250000  1
  Zr  Zr14  1  0.916428  0.458215  0.250000  1
  Zr  Zr15  1  0.458961  0.541114  0.750000  1
  Zr  Zr16  1  0.458961  0.917845  0.750000  1
  Zr  Zr17  1  0.081808  0.540903  0.750000  1
  Re  Re18  1  0.888563  0.109750  0.250000  1
  Re  Re19  1  0.888563  0.778812  0.250000  1
  Re  Re20  1  0.222388  0.111194  0.250000  1
  Re  Re21  1  0.110224  0.889947  0.750000  1
  Re  Re22  1  0.110224  0.220278  0.750000  1
  Re  Re23  1  0.779758  0.889880  0.750000  1
  Ni  Ni24  1  0.333670  0.666835  0.250000  1
  Ni  Ni25  1  0.666966  0.333482  0.750000  1
  Mo  Mo26  1  0.000041  0.000021  0.499721  1
  Mo  Mo27  1  0.000041  0.000021  0.000279  1
