# generated using pymatgen
data_AlH11Cl2
_symmetry_space_group_name_H-M   'P 1'
_cell_length_a   3.63454254
_cell_length_b   10.08741786
_cell_length_c   6.80613860
_cell_angle_alpha   97.29314970
_cell_angle_beta   83.45084100
_cell_angle_gamma   77.88892739
_symmetry_Int_Tables_number   1
_chemical_formula_structural   AlH11Cl2
_chemical_formula_sum   'Al1 H11 Cl2'
_cell_volume   239.44666417
_cell_formula_units_Z   1
loop_
 _symmetry_equiv_pos_site_id
 _symmetry_equiv_pos_as_xyz
  1  'x, y, z'
loop_
 _atom_site_type_symbol
 _atom_site_label
 _atom_site_symmetry_multiplicity
 _atom_site_fract_x
 _atom_site_fract_y
 _atom_site_fract_z
 _atom_site_occupancy
  Al  Al0  1  0.416563  0.378127  0.230546  1
  H  H1  1  0.475375  0.700104  0.101476  1
  H  H2  1  0.651437  0.972666  0.040720  1
  H  H3  1  0.330449  0.854007  0.817547  1
  H  H4  1  0.687809  0.958862  0.143099  1
  H  H5  1  0.447048  0.401338  0.006420  1
  H  H6  1  0.147891  0.910188  0.363740  1
  H  H7  1  0.064291  0.865281  0.427326  1
  H  H8  1  0.264620  0.893695  0.737460  1
  H  H9  1  0.592682  0.099628  0.634588  1
  H  H10  1  0.516858  0.661623  0.996734  1
  H  H11  1  0.448076  0.162254  0.686811  1
  Cl  Cl12  1  0.277295  0.533858  0.479726  1
  Cl  Cl13  1  0.989127  0.239230  0.269510  1
