# generated using pymatgen
data_Pt(ClF)2
_symmetry_space_group_name_H-M   'P 1'
_cell_length_a   5.25687698
_cell_length_b   5.25687757
_cell_length_c   3.51059478
_cell_angle_alpha   88.83328559
_cell_angle_beta   88.83328755
_cell_angle_gamma   93.03520291
_symmetry_Int_Tables_number   1
_chemical_formula_structural   Pt(ClF)2
_chemical_formula_sum   'Pt1 Cl2 F2'
_cell_volume   96.83592675
_cell_formula_units_Z   1
loop_
 _symmetry_equiv_pos_site_id
 _symmetry_equiv_pos_as_xyz
  1  'x, y, z'
loop_
 _atom_site_type_symbol
 _atom_site_label
 _atom_site_symmetry_multiplicity
 _atom_site_fract_x
 _atom_site_fract_y
 _atom_site_fract_z
 _atom_site_occupancy
  Pt  Pt0  1  0.000000  0.000000  0.000000  1
  Cl  Cl1  1  0.215732  0.215732  0.486052  1
  Cl  Cl2  1  0.784268  0.784268  0.513948  1
  F  F3  1  0.741084  0.258916  0.000000  1
  F  F4  1  0.258916  0.741084  0.000000  1
