# generated using pymatgen
data_Li4Pr3(TlBi)2
_symmetry_space_group_name_H-M   'P 1'
_cell_length_a   8.96631095
_cell_length_b   8.96631134
_cell_length_c   8.96631200
_cell_angle_alpha   149.13433445
_cell_angle_beta   131.35879166
_cell_angle_gamma   58.72510356
_symmetry_Int_Tables_number   1
_chemical_formula_structural   Li4Pr3(TlBi)2
_chemical_formula_sum   'Li4 Pr3 Tl2 Bi2'
_cell_volume   275.40736694
_cell_formula_units_Z   1
loop_
 _symmetry_equiv_pos_site_id
 _symmetry_equiv_pos_as_xyz
  1  'x, y, z'
loop_
 _atom_site_type_symbol
 _atom_site_label
 _atom_site_symmetry_multiplicity
 _atom_site_fract_x
 _atom_site_fract_y
 _atom_site_fract_z
 _atom_site_occupancy
  Li  Li0  1  0.640701  0.328984  0.311715  1
  Li  Li1  1  0.359299  0.671016  0.688285  1
  Li  Li2  1  0.017269  0.328984  0.688285  1
  Li  Li3  1  0.982731  0.671016  0.311715  1
  Pr  Pr4  1  0.375600  0.875600  0.500000  1
  Pr  Pr5  1  0.624400  0.124400  0.500000  1
  Pr  Pr6  1  0.000000  0.000000  0.000000  1
  Tl  Tl7  1  0.705936  0.500000  0.205936  1
  Tl  Tl8  1  0.294064  0.500000  0.794064  1
  Bi  Bi9  1  0.215270  0.215270  0.000000  1
  Bi  Bi10  1  0.784730  0.784730  0.000000  1
