# generated using pymatgen
data_Er2Co9Si7Mo3
_symmetry_space_group_name_H-M   'P 1'
_cell_length_a   3.70442600
_cell_length_b   9.34215290
_cell_length_c   9.34215200
_cell_angle_alpha   119.99999680
_cell_angle_beta   90.00000000
_cell_angle_gamma   90.00000000
_symmetry_Int_Tables_number   1
_chemical_formula_structural   Er2Co9Si7Mo3
_chemical_formula_sum   'Er2 Co9 Si7 Mo3'
_cell_volume   279.99190125
_cell_formula_units_Z   1
loop_
 _symmetry_equiv_pos_site_id
 _symmetry_equiv_pos_as_xyz
  1  'x, y, z'
loop_
 _atom_site_type_symbol
 _atom_site_label
 _atom_site_symmetry_multiplicity
 _atom_site_fract_x
 _atom_site_fract_y
 _atom_site_fract_z
 _atom_site_occupancy
  Er  Er0  1  0.000000  0.666667  0.333333  1
  Er  Er1  1  0.500000  0.333333  0.666667  1
  Co  Co2  1  0.000000  0.571864  0.945634  1
  Co  Co3  1  0.000000  0.373770  0.428136  1
  Co  Co4  1  0.000000  0.054366  0.626230  1
  Co  Co5  1  0.000000  0.876947  0.157526  1
  Co  Co6  1  0.000000  0.280579  0.123053  1
  Co  Co7  1  0.000000  0.842474  0.719421  1
  Co  Co8  1  0.500000  0.948821  0.384912  1
  Co  Co9  1  0.500000  0.436090  0.051179  1
  Co  Co10  1  0.500000  0.615088  0.563910  1
  Si  Si11  1  0.000000  0.000000  0.000000  1
  Si  Si12  1  0.500000  0.709429  0.118645  1
  Si  Si13  1  0.500000  0.409217  0.290571  1
  Si  Si14  1  0.500000  0.881355  0.590783  1
  Si  Si15  1  0.000000  0.584982  0.696004  1
  Si  Si16  1  0.000000  0.111023  0.415018  1
  Si  Si17  1  0.000000  0.303996  0.888977  1
  Mo  Mo18  1  0.500000  0.780499  0.893419  1
  Mo  Mo19  1  0.500000  0.112920  0.219501  1
  Mo  Mo20  1  0.500000  0.106581  0.887080  1
