# generated using pymatgen
data_HoLuCdCuNi
_symmetry_space_group_name_H-M   'P 1'
_cell_length_a   7.39761898
_cell_length_b   7.39761915
_cell_length_c   3.65688800
_cell_angle_alpha   90.00000000
_cell_angle_beta   90.00000000
_cell_angle_gamma   90.37626095
_symmetry_Int_Tables_number   1
_chemical_formula_structural   HoLuCdCuNi
_chemical_formula_sum   'Ho2 Lu2 Cd2 Cu2 Ni2'
_cell_volume   200.11803158
_cell_formula_units_Z   2
loop_
 _symmetry_equiv_pos_site_id
 _symmetry_equiv_pos_as_xyz
  1  'x, y, z'
loop_
 _atom_site_type_symbol
 _atom_site_label
 _atom_site_symmetry_multiplicity
 _atom_site_fract_x
 _atom_site_fract_y
 _atom_site_fract_z
 _atom_site_occupancy
  Ho  Ho0  1  0.684495  0.184495  0.500000  1
  Ho  Ho1  1  0.315505  0.815505  0.500000  1
  Lu  Lu2  1  0.165195  0.334805  0.500000  1
  Lu  Lu3  1  0.834805  0.665195  0.500000  1
  Cd  Cd4  1  0.000000  0.000000  0.000000  1
  Cd  Cd5  1  0.500000  0.500000  0.000000  1
  Cu  Cu6  1  0.621921  0.878079  0.000000  1
  Cu  Cu7  1  0.378079  0.121921  0.000000  1
  Ni  Ni8  1  0.119538  0.619538  0.000000  1
  Ni  Ni9  1  0.880462  0.380462  0.000000  1
