# generated using pymatgen
data_Na2In2SiTe6
_symmetry_space_group_name_H-M   'P 1'
_cell_length_a   8.23973949
_cell_length_b   8.23973919
_cell_length_c   14.01917493
_cell_angle_alpha   74.31986979
_cell_angle_beta   74.31986829
_cell_angle_gamma   65.15877924
_symmetry_Int_Tables_number   1
_chemical_formula_structural   Na2In2SiTe6
_chemical_formula_sum   'Na4 In4 Si2 Te12'
_cell_volume   818.10994488
_cell_formula_units_Z   2
loop_
 _symmetry_equiv_pos_site_id
 _symmetry_equiv_pos_as_xyz
  1  'x, y, z'
loop_
 _atom_site_type_symbol
 _atom_site_label
 _atom_site_symmetry_multiplicity
 _atom_site_fract_x
 _atom_site_fract_y
 _atom_site_fract_z
 _atom_site_occupancy
  Na  Na0  1  0.183611  0.335160  0.008458  1
  Na  Na1  1  0.335160  0.183611  0.508458  1
  Na  Na2  1  0.357988  0.726473  0.169811  1
  Na  Na3  1  0.726473  0.357988  0.669811  1
  In  In4  1  0.846115  0.976753  0.012210  1
  In  In5  1  0.976753  0.846115  0.512210  1
  In  In6  1  0.651705  0.803974  0.816881  1
  In  In7  1  0.803974  0.651705  0.316881  1
  Si  Si8  1  0.195770  0.747863  0.761114  1
  Si  Si9  1  0.747863  0.195770  0.261114  1
  Te  Te10  1  0.047034  0.054437  0.815015  1
  Te  Te11  1  0.054437  0.047034  0.315015  1
  Te  Te12  1  0.789627  0.304359  0.072137  1
  Te  Te13  1  0.304359  0.789627  0.572137  1
  Te  Te14  1  0.046763  0.650166  0.130307  1
  Te  Te15  1  0.650166  0.046763  0.630307  1
  Te  Te16  1  0.517776  0.969144  0.989198  1
  Te  Te17  1  0.969144  0.517776  0.489198  1
  Te  Te18  1  0.468571  0.557002  0.849186  1
  Te  Te19  1  0.557002  0.468571  0.349186  1
  Te  Te20  1  0.015988  0.543579  0.807452  1
  Te  Te21  1  0.543579  0.015988  0.307452  1
