# generated using pymatgen
data_TbCoF36
_symmetry_space_group_name_H-M   'P 1'
_cell_length_a   6.76416591
_cell_length_b   8.41607127
_cell_length_c   13.71246568
_cell_angle_alpha   107.68075284
_cell_angle_beta   88.73368123
_cell_angle_gamma   108.82177548
_symmetry_Int_Tables_number   1
_chemical_formula_structural   TbCoF36
_chemical_formula_sum   'Tb1 Co1 F36'
_cell_volume   701.47817534
_cell_formula_units_Z   1
loop_
 _symmetry_equiv_pos_site_id
 _symmetry_equiv_pos_as_xyz
  1  'x, y, z'
loop_
 _atom_site_type_symbol
 _atom_site_label
 _atom_site_symmetry_multiplicity
 _atom_site_fract_x
 _atom_site_fract_y
 _atom_site_fract_z
 _atom_site_occupancy
  Tb  Tb0  1  0.069461  0.912118  0.238135  1
  Co  Co1  1  0.956570  0.069433  0.723921  1
  F  F2  1  0.683469  0.600371  0.389251  1
  F  F3  1  0.327475  0.426487  0.605973  1
  F  F4  1  0.056178  0.355579  0.363757  1
  F  F5  1  0.956014  0.625308  0.639010  1
  F  F6  1  0.191634  0.904982  0.955568  1
  F  F7  1  0.793761  0.102494  0.033184  1
  F  F8  1  0.825777  0.871551  0.344017  1
  F  F9  1  0.142908  0.154393  0.649179  1
  F  F10  1  0.152373  0.678995  0.187308  1
  F  F11  1  0.961261  0.272181  0.805099  1
  F  F12  1  0.587686  0.422468  0.390048  1
  F  F13  1  0.470833  0.593497  0.605602  1
  F  F14  1  0.008130  0.054427  0.150634  1
  F  F15  1  0.905347  0.962475  0.815012  1
  F  F16  1  0.105162  0.060595  0.403799  1
  F  F17  1  0.820481  0.886327  0.623391  1
  F  F18  1  0.079557  0.463295  0.298159  1
  F  F19  1  0.954843  0.524542  0.706126  1
  F  F20  1  0.836276  0.773222  0.078316  1
  F  F21  1  0.307966  0.307830  0.943486  1
  F  F22  1  0.752220  0.576152  0.037131  1
  F  F23  1  0.217680  0.432272  0.004913  1
  F  F24  1  0.577497  0.592924  0.839195  1
  F  F25  1  0.446713  0.414813  0.173585  1
  F  F26  1  0.591285  0.079583  0.275939  1
  F  F27  1  0.356426  0.914759  0.723187  1
  F  F28  1  0.257664  0.868876  0.465681  1
  F  F29  1  0.718121  0.122828  0.532772  1
  F  F30  1  0.281867  0.858927  0.031580  1
  F  F31  1  0.659044  0.118588  0.959824  1
  F  F32  1  0.416854  0.898290  0.237018  1
  F  F33  1  0.507953  0.086496  0.765431  1
  F  F34  1  0.601404  0.329507  0.158856  1
  F  F35  1  0.420558  0.672556  0.840188  1
  F  F36  1  0.361506  0.754387  0.482334  1
  F  F37  1  0.640047  0.256472  0.523393  1
