# generated using pymatgen
data_Zr4P4Os3Ru
_symmetry_space_group_name_H-M   'P 1'
_cell_length_a   3.91739000
_cell_length_b   6.48629108
_cell_length_c   7.35846609
_cell_angle_alpha   89.98178588
_cell_angle_beta   90.00000000
_cell_angle_gamma   90.00000000
_symmetry_Int_Tables_number   1
_chemical_formula_structural   Zr4P4Os3Ru
_chemical_formula_sum   'Zr4 P4 Os3 Ru1'
_cell_volume   186.97369721
_cell_formula_units_Z   1
loop_
 _symmetry_equiv_pos_site_id
 _symmetry_equiv_pos_as_xyz
  1  'x, y, z'
loop_
 _atom_site_type_symbol
 _atom_site_label
 _atom_site_symmetry_multiplicity
 _atom_site_fract_x
 _atom_site_fract_y
 _atom_site_fract_z
 _atom_site_occupancy
  Zr  Zr0  1  0.750000  0.522029  0.320036  1
  Zr  Zr1  1  0.250000  0.978824  0.821555  1
  Zr  Zr2  1  0.750000  0.021604  0.179131  1
  Zr  Zr3  1  0.250000  0.477607  0.679441  1
  P  P4  1  0.250000  0.723294  0.122350  1
  P  P5  1  0.250000  0.222731  0.377012  1
  P  P6  1  0.750000  0.276414  0.878177  1
  P  P7  1  0.750000  0.776765  0.622686  1
  Os  Os8  1  0.250000  0.347968  0.060463  1
  Os  Os9  1  0.250000  0.848306  0.440531  1
  Os  Os10  1  0.750000  0.153388  0.559749  1
  Ru  Ru11  1  0.750000  0.651070  0.938869  1
