# generated using pymatgen
data_PrTh2Al3IrRh2
_symmetry_space_group_name_H-M   'P 1'
_cell_length_a   7.27257758
_cell_length_b   7.16571471
_cell_length_c   4.14230000
_cell_angle_alpha   90.00000000
_cell_angle_beta   90.00000000
_cell_angle_gamma   119.51510934
_symmetry_Int_Tables_number   1
_chemical_formula_structural   PrTh2Al3IrRh2
_chemical_formula_sum   'Pr1 Th2 Al3 Ir1 Rh2'
_cell_volume   187.85440566
_cell_formula_units_Z   1
loop_
 _symmetry_equiv_pos_site_id
 _symmetry_equiv_pos_as_xyz
  1  'x, y, z'
loop_
 _atom_site_type_symbol
 _atom_site_label
 _atom_site_symmetry_multiplicity
 _atom_site_fract_x
 _atom_site_fract_y
 _atom_site_fract_z
 _atom_site_occupancy
  Pr  Pr0  1  0.000000  0.419668  0.500000  1
  Th  Th1  1  0.579894  0.582895  0.500000  1
  Th  Th2  1  0.420106  0.003001  0.500000  1
  Al  Al3  1  0.000000  0.762652  0.000000  1
  Al  Al4  1  0.220950  0.226975  0.000000  1
  Al  Al5  1  0.779050  0.006025  0.000000  1
  Ir  Ir6  1  0.000000  0.981402  0.500000  1
  Rh  Rh7  1  0.361849  0.689616  0.000000  1
  Rh  Rh8  1  0.638151  0.327767  0.000000  1
