# generated using pymatgen
data_Sm4MnCu3(RuO5)4
_symmetry_space_group_name_H-M   'P 1'
_cell_length_a   5.61972700
_cell_length_b   7.80418007
_cell_length_c   8.79599070
_cell_angle_alpha   90.01145706
_cell_angle_beta   90.00000000
_cell_angle_gamma   90.00000000
_symmetry_Int_Tables_number   1
_chemical_formula_structural   Sm4MnCu3(RuO5)4
_chemical_formula_sum   'Sm4 Mn1 Cu3 Ru4 O20'
_cell_volume   385.76893567
_cell_formula_units_Z   1
loop_
 _symmetry_equiv_pos_site_id
 _symmetry_equiv_pos_as_xyz
  1  'x, y, z'
loop_
 _atom_site_type_symbol
 _atom_site_label
 _atom_site_symmetry_multiplicity
 _atom_site_fract_x
 _atom_site_fract_y
 _atom_site_fract_z
 _atom_site_occupancy
  Sm  Sm0  1  0.000000  0.357430  0.671236  1
  Sm  Sm1  1  0.000000  0.643578  0.328655  1
  Sm  Sm2  1  0.000000  0.855986  0.830689  1
  Sm  Sm3  1  0.000000  0.146709  0.168599  1
  Mn  Mn4  1  0.500000  0.423113  0.356380  1
  Cu  Cu5  1  0.500000  0.066939  0.849580  1
  Cu  Cu6  1  0.500000  0.935058  0.147864  1
  Cu  Cu7  1  0.500000  0.572585  0.650382  1
  Ru  Ru8  1  0.281931  0.501324  0.998391  1
  Ru  Ru9  1  0.718914  0.999145  0.499237  1
  Ru  Ru10  1  0.718069  0.501324  0.998391  1
  Ru  Ru11  1  0.281086  0.999145  0.499237  1
  O  O12  1  0.249144  0.907003  0.289181  1
  O  O13  1  0.248525  0.093990  0.708796  1
  O  O14  1  0.753710  0.402889  0.212247  1
  O  O15  1  0.752330  0.594584  0.791699  1
  O  O16  1  0.751475  0.093990  0.708796  1
  O  O17  1  0.750856  0.907003  0.289181  1
  O  O18  1  0.247670  0.594584  0.791699  1
  O  O19  1  0.246290  0.402889  0.212247  1
  O  O20  1  0.500000  0.327699  0.926932  1
  O  O21  1  0.500000  0.671820  0.074295  1
  O  O22  1  0.500000  0.825985  0.568174  1
  O  O23  1  0.500000  0.174489  0.428662  1
  O  O24  1  0.264908  0.999811  0.998481  1
  O  O25  1  0.738878  0.500857  0.500436  1
  O  O26  1  0.735092  0.999811  0.998481  1
  O  O27  1  0.261122  0.500857  0.500436  1
  O  O28  1  0.000000  0.156952  0.445793  1
  O  O29  1  0.000000  0.841240  0.554224  1
  O  O30  1  0.000000  0.658086  0.055496  1
  O  O31  1  0.000000  0.343124  0.946104  1
