# generated using pymatgen
data_Li2PrSmBi4
_symmetry_space_group_name_H-M   'P 1'
_cell_length_a   4.56296000
_cell_length_b   4.56296000
_cell_length_c   10.58297700
_cell_angle_alpha   90.00000000
_cell_angle_beta   90.00000000
_cell_angle_gamma   90.00000000
_symmetry_Int_Tables_number   1
_chemical_formula_structural   Li2PrSmBi4
_chemical_formula_sum   'Li2 Pr1 Sm1 Bi4'
_cell_volume   220.34397285
_cell_formula_units_Z   1
loop_
 _symmetry_equiv_pos_site_id
 _symmetry_equiv_pos_as_xyz
  1  'x, y, z'
loop_
 _atom_site_type_symbol
 _atom_site_label
 _atom_site_symmetry_multiplicity
 _atom_site_fract_x
 _atom_site_fract_y
 _atom_site_fract_z
 _atom_site_occupancy
  Li  Li0  1  0.000000  0.000000  0.001069  1
  Li  Li1  1  0.500000  0.500000  0.001069  1
  Pr  Pr2  1  0.500000  0.000000  0.743711  1
  Sm  Sm3  1  0.000000  0.500000  0.256798  1
  Bi  Bi4  1  0.000000  0.500000  0.837947  1
  Bi  Bi5  1  0.500000  0.000000  0.164762  1
  Bi  Bi6  1  0.000000  0.000000  0.497323  1
  Bi  Bi7  1  0.500000  0.500000  0.497323  1
