# generated using pymatgen
data_InSnPd4
_symmetry_space_group_name_H-M   'P 1'
_cell_length_a   5.72643800
_cell_length_b   4.27942400
_cell_length_c   8.41064100
_cell_angle_alpha   90.00000000
_cell_angle_beta   90.00000000
_cell_angle_gamma   90.00000000
_symmetry_Int_Tables_number   1
_chemical_formula_structural   InSnPd4
_chemical_formula_sum   'In2 Sn2 Pd8'
_cell_volume   206.10995899
_cell_formula_units_Z   2
loop_
 _symmetry_equiv_pos_site_id
 _symmetry_equiv_pos_as_xyz
  1  'x, y, z'
loop_
 _atom_site_type_symbol
 _atom_site_label
 _atom_site_symmetry_multiplicity
 _atom_site_fract_x
 _atom_site_fract_y
 _atom_site_fract_z
 _atom_site_occupancy
  In  In0  1  0.688604  0.250000  0.604493  1
  In  In1  1  0.188604  0.250000  0.895507  1
  Sn  Sn2  1  0.812902  0.749999  0.101260  1
  Sn  Sn3  1  0.312902  0.749999  0.398740  1
  Pd  Pd4  1  0.338482  0.749999  0.072839  1
  Pd  Pd5  1  0.058472  0.250000  0.221346  1
  Pd  Pd6  1  0.558471  0.250000  0.278653  1
  Pd  Pd7  1  0.838482  0.749999  0.427160  1
  Pd  Pd8  1  0.164539  0.250000  0.567194  1
  Pd  Pd9  1  0.437000  0.749999  0.725525  1
  Pd  Pd10  1  0.937000  0.749999  0.774475  1
  Pd  Pd11  1  0.664539  0.250000  0.932806  1
