# generated using pymatgen
data_Dy3Er3Cr2(Co4P3)4
_symmetry_space_group_name_H-M   'P 1'
_cell_length_a   3.67837000
_cell_length_b   10.49751805
_cell_length_c   12.15184706
_cell_angle_alpha   89.98862497
_cell_angle_beta   90.00000000
_cell_angle_gamma   90.00000000
_symmetry_Int_Tables_number   1
_chemical_formula_structural   Dy3Er3Cr2(Co4P3)4
_chemical_formula_sum   'Dy3 Er3 Cr2 Co16 P12'
_cell_volume   469.22844170
_cell_formula_units_Z   1
loop_
 _symmetry_equiv_pos_site_id
 _symmetry_equiv_pos_as_xyz
  1  'x, y, z'
loop_
 _atom_site_type_symbol
 _atom_site_label
 _atom_site_symmetry_multiplicity
 _atom_site_fract_x
 _atom_site_fract_y
 _atom_site_fract_z
 _atom_site_occupancy
  Dy  Dy0  1  0.000000  0.499993  0.523065  1
  Dy  Dy1  1  0.500000  0.000014  0.476732  1
  Dy  Dy2  1  0.000000  0.318177  0.795388  1
  Er  Er3  1  0.500000  0.818049  0.204389  1
  Er  Er4  1  0.500000  0.181807  0.204604  1
  Er  Er5  1  0.000000  0.682188  0.795713  1
  Cr  Cr6  1  0.500000  0.500217  0.155880  1
  Cr  Cr7  1  0.000000  0.999592  0.844334  1
  Co  Co8  1  0.500000  0.500819  0.702481  1
  Co  Co9  1  0.000000  0.999952  0.297188  1
  Co  Co10  1  0.000000  0.500469  0.987308  1
  Co  Co11  1  0.500000  0.999462  0.013254  1
  Co  Co12  1  0.500000  0.332568  0.992974  1
  Co  Co13  1  0.500000  0.667911  0.992444  1
  Co  Co14  1  0.000000  0.167045  0.008062  1
  Co  Co15  1  0.000000  0.832590  0.007713  1
  Co  Co16  1  0.500000  0.296158  0.430227  1
  Co  Co17  1  0.500000  0.703945  0.430547  1
  Co  Co18  1  0.000000  0.203642  0.568795  1
  Co  Co19  1  0.000000  0.796184  0.569367  1
  Co  Co20  1  0.500000  0.878636  0.709085  1
  Co  Co21  1  0.500000  0.120479  0.708621  1
  Co  Co22  1  0.000000  0.621259  0.291016  1
  Co  Co23  1  0.000000  0.378756  0.290895  1
  P  P24  1  0.500000  0.500808  0.881899  1
  P  P25  1  0.000000  0.999827  0.118594  1
  P  P26  1  0.500000  0.499985  0.344278  1
  P  P27  1  0.000000  0.000065  0.655991  1
  P  P28  1  0.500000  0.311486  0.615979  1
  P  P29  1  0.500000  0.688687  0.616953  1
  P  P30  1  0.000000  0.188328  0.382855  1
  P  P31  1  0.000000  0.811552  0.383004  1
  P  P32  1  0.500000  0.847618  0.891573  1
  P  P33  1  0.500000  0.151636  0.892015  1
  P  P34  1  0.000000  0.652793  0.108453  1
  P  P35  1  0.000000  0.347304  0.108323  1
