# generated using pymatgen
data_Tm12Ni4SnHg
_symmetry_space_group_name_H-M   'P 1'
_cell_length_a   8.28594021
_cell_length_b   8.28989102
_cell_length_c   8.28681591
_cell_angle_alpha   106.37737472
_cell_angle_beta   109.30424620
_cell_angle_gamma   112.83558176
_symmetry_Int_Tables_number   1
_chemical_formula_structural   Tm12Ni4SnHg
_chemical_formula_sum   'Tm12 Ni4 Sn1 Hg1'
_cell_volume   436.57524076
_cell_formula_units_Z   1
loop_
 _symmetry_equiv_pos_site_id
 _symmetry_equiv_pos_as_xyz
  1  'x, y, z'
loop_
 _atom_site_type_symbol
 _atom_site_label
 _atom_site_symmetry_multiplicity
 _atom_site_fract_x
 _atom_site_fract_y
 _atom_site_fract_z
 _atom_site_occupancy
  Tm  Tm0  1  0.703645  0.270414  0.973985  1
  Tm  Tm1  1  0.296351  0.729636  0.026062  1
  Tm  Tm2  1  0.703681  0.729706  0.433277  1
  Tm  Tm3  1  0.296317  0.270228  0.566653  1
  Tm  Tm4  1  0.807016  0.133036  0.326075  1
  Tm  Tm5  1  0.807004  0.481028  0.673936  1
  Tm  Tm6  1  0.192974  0.866968  0.673944  1
  Tm  Tm7  1  0.193014  0.519004  0.326083  1
  Tm  Tm8  1  0.612055  0.793157  0.818974  1
  Tm  Tm9  1  0.974303  0.793208  0.181098  1
  Tm  Tm10  1  0.025660  0.206775  0.818869  1
  Tm  Tm11  1  0.387927  0.206844  0.180992  1
  Ni  Ni12  1  0.853529  0.500005  0.353593  1
  Ni  Ni13  1  0.146582  0.499984  0.646511  1
  Ni  Ni14  1  0.999949  0.127015  0.126962  1
  Ni  Ni15  1  0.000032  0.873000  0.873044  1
  Sn  Sn16  1  0.500024  0.999999  0.500010  1
  Hg  Hg17  1  0.499938  0.499993  0.999931  1
