# generated using pymatgen
data_Li4TcO5
_symmetry_space_group_name_H-M   'P 1'
_cell_length_a   5.36543688
_cell_length_b   5.36543770
_cell_length_c   7.98765454
_cell_angle_alpha   82.90256732
_cell_angle_beta   82.90256583
_cell_angle_gamma   66.89907596
_symmetry_Int_Tables_number   1
_chemical_formula_structural   Li4TcO5
_chemical_formula_sum   'Li8 Tc2 O10'
_cell_volume   209.17766563
_cell_formula_units_Z   2
loop_
 _symmetry_equiv_pos_site_id
 _symmetry_equiv_pos_as_xyz
  1  'x, y, z'
loop_
 _atom_site_type_symbol
 _atom_site_label
 _atom_site_symmetry_multiplicity
 _atom_site_fract_x
 _atom_site_fract_y
 _atom_site_fract_z
 _atom_site_occupancy
  Li  Li0  1  0.633573  0.967567  0.649655  1
  Li  Li1  1  0.967567  0.633573  0.149655  1
  Li  Li2  1  0.780769  0.446588  0.555072  1
  Li  Li3  1  0.446588  0.780769  0.055072  1
  Li  Li4  1  0.553412  0.219231  0.944928  1
  Li  Li5  1  0.219231  0.553412  0.444928  1
  Li  Li6  1  0.032433  0.366427  0.850345  1
  Li  Li7  1  0.366427  0.032433  0.350345  1
  Tc  Tc8  1  0.166986  0.833014  0.750000  1
  Tc  Tc9  1  0.833014  0.166986  0.250000  1
  O  O10  1  0.414563  0.769184  0.564981  1
  O  O11  1  0.769184  0.414563  0.064981  1
  O  O12  1  0.856619  0.143381  0.750000  1
  O  O13  1  0.143381  0.856619  0.250000  1
  O  O14  1  0.230816  0.585437  0.935019  1
  O  O15  1  0.585437  0.230816  0.435019  1
  O  O16  1  0.977614  0.644157  0.655395  1
  O  O17  1  0.644157  0.977614  0.155395  1
  O  O18  1  0.355843  0.022386  0.844605  1
  O  O19  1  0.022386  0.355843  0.344605  1
