# generated using pymatgen
data_Ca7NbCr2N9
_symmetry_space_group_name_H-M   'P 1'
_cell_length_a   10.00278400
_cell_length_b   6.08763487
_cell_length_c   9.04737589
_cell_angle_alpha   87.83865399
_cell_angle_beta   90.00000000
_cell_angle_gamma   90.00000000
_symmetry_Int_Tables_number   1
_chemical_formula_structural   Ca7NbCr2N9
_chemical_formula_sum   'Ca14 Nb2 Cr4 N18'
_cell_volume   550.53260988
_cell_formula_units_Z   2
loop_
 _symmetry_equiv_pos_site_id
 _symmetry_equiv_pos_as_xyz
  1  'x, y, z'
loop_
 _atom_site_type_symbol
 _atom_site_label
 _atom_site_symmetry_multiplicity
 _atom_site_fract_x
 _atom_site_fract_y
 _atom_site_fract_z
 _atom_site_occupancy
  Ca  Ca0  1  0.934086  0.428820  0.165113  1
  Ca  Ca1  1  0.080056  0.246134  0.493586  1
  Ca  Ca2  1  0.250000  0.083953  0.798847  1
  Ca  Ca3  1  0.434086  0.571180  0.834887  1
  Ca  Ca4  1  0.580056  0.753866  0.506414  1
  Ca  Ca5  1  0.580220  0.066136  0.827056  1
  Ca  Ca6  1  0.919780  0.066136  0.827056  1
  Ca  Ca7  1  0.419780  0.933864  0.172944  1
  Ca  Ca8  1  0.419944  0.246134  0.493586  1
  Ca  Ca9  1  0.080220  0.933864  0.172944  1
  Ca  Ca10  1  0.919944  0.753866  0.506414  1
  Ca  Ca11  1  0.065914  0.571180  0.834887  1
  Ca  Ca12  1  0.750000  0.916047  0.201153  1
  Ca  Ca13  1  0.565914  0.428820  0.165113  1
  Nb  Nb14  1  0.750000  0.282531  0.441792  1
  Nb  Nb15  1  0.250000  0.717469  0.558208  1
  Cr  Cr16  1  0.250000  0.326088  0.065892  1
  Cr  Cr17  1  0.750000  0.461175  0.723770  1
  Cr  Cr18  1  0.750000  0.673912  0.934108  1
  Cr  Cr19  1  0.250000  0.538825  0.276230  1
  N  N20  1  0.400942  0.231296  0.981008  1
  N  N21  1  0.250000  0.230660  0.267235  1
  N  N22  1  0.903173  0.115443  0.341150  1
  N  N23  1  0.605916  0.365266  0.629479  1
  N  N24  1  0.750000  0.556607  0.332149  1
  N  N25  1  0.250000  0.633373  0.073497  1
  N  N26  1  0.894084  0.365266  0.629479  1
  N  N27  1  0.394084  0.634734  0.370521  1
  N  N28  1  0.750000  0.366627  0.926503  1
  N  N29  1  0.096827  0.884557  0.658850  1
  N  N30  1  0.750000  0.769340  0.732765  1
  N  N31  1  0.105916  0.634734  0.370521  1
  N  N32  1  0.599058  0.768704  0.018992  1
  N  N33  1  0.250000  0.443393  0.667851  1
  N  N34  1  0.403173  0.884557  0.658850  1
  N  N35  1  0.596827  0.115443  0.341150  1
  N  N36  1  0.099058  0.231296  0.981008  1
  N  N37  1  0.900942  0.768704  0.018992  1
