# generated using pymatgen
data_Sc11IrOs3
_symmetry_space_group_name_H-M   'P 1'
_cell_length_a   9.47431496
_cell_length_b   9.47205653
_cell_length_c   9.47431527
_cell_angle_alpha   60.00788763
_cell_angle_beta   59.98422441
_cell_angle_gamma   60.00788704
_symmetry_Int_Tables_number   1
_chemical_formula_structural   Sc11IrOs3
_chemical_formula_sum   'Sc22 Ir2 Os6'
_cell_volume   601.20818071
_cell_formula_units_Z   2
loop_
 _symmetry_equiv_pos_site_id
 _symmetry_equiv_pos_as_xyz
  1  'x, y, z'
loop_
 _atom_site_type_symbol
 _atom_site_label
 _atom_site_symmetry_multiplicity
 _atom_site_fract_x
 _atom_site_fract_y
 _atom_site_fract_z
 _atom_site_occupancy
  Sc  Sc0  1  0.801978  0.801978  0.198022  1
  Sc  Sc1  1  0.198308  0.801692  0.198308  1
  Sc  Sc2  1  0.801978  0.198022  0.198022  1
  Sc  Sc3  1  0.198022  0.198022  0.801978  1
  Sc  Sc4  1  0.801692  0.198308  0.801692  1
  Sc  Sc5  1  0.198022  0.801978  0.801978  1
  Sc  Sc6  1  0.615345  0.617764  0.149126  1
  Sc  Sc7  1  0.617764  0.149126  0.617764  1
  Sc  Sc8  1  0.149126  0.617764  0.615345  1
  Sc  Sc9  1  0.617764  0.615345  0.617764  1
  Sc  Sc10  1  0.384655  0.382236  0.850874  1
  Sc  Sc11  1  0.382236  0.850874  0.382236  1
  Sc  Sc12  1  0.850874  0.382236  0.384655  1
  Sc  Sc13  1  0.382236  0.384655  0.382236  1
  Sc  Sc14  1  0.844757  0.843507  0.468228  1
  Sc  Sc15  1  0.843507  0.468228  0.843507  1
  Sc  Sc16  1  0.468228  0.843507  0.844757  1
  Sc  Sc17  1  0.843507  0.844757  0.843507  1
  Sc  Sc18  1  0.155243  0.156493  0.531772  1
  Sc  Sc19  1  0.156493  0.531772  0.156493  1
  Sc  Sc20  1  0.531772  0.156493  0.155243  1
  Sc  Sc21  1  0.156493  0.155243  0.156493  1
  Ir  Ir22  1  0.500000  0.000000  0.500000  1
  Ir  Ir23  1  0.000000  0.500000  0.000000  1
  Os  Os24  1  0.000000  0.000000  0.000000  1
  Os  Os25  1  0.500000  0.500000  0.500000  1
  Os  Os26  1  0.000000  0.000000  0.500000  1
  Os  Os27  1  0.000000  0.500000  0.500000  1
  Os  Os28  1  0.500000  0.500000  0.000000  1
  Os  Os29  1  0.500000  0.000000  0.000000  1
