# generated using pymatgen
data_PrSi3AsRh6
_symmetry_space_group_name_H-M   'P 1'
_cell_length_a   7.12780000
_cell_length_b   7.11697840
_cell_length_c   3.84225700
_cell_angle_alpha   90.00000000
_cell_angle_beta   90.00000000
_cell_angle_gamma   120.05031157
_symmetry_Int_Tables_number   1
_chemical_formula_structural   PrSi3AsRh6
_chemical_formula_sum   'Pr1 Si3 As1 Rh6'
_cell_volume   168.71270808
_cell_formula_units_Z   1
loop_
 _symmetry_equiv_pos_site_id
 _symmetry_equiv_pos_as_xyz
  1  'x, y, z'
loop_
 _atom_site_type_symbol
 _atom_site_label
 _atom_site_symmetry_multiplicity
 _atom_site_fract_x
 _atom_site_fract_y
 _atom_site_fract_z
 _atom_site_occupancy
  Pr  Pr0  1  0.003713  0.007424  0.000000  1
  Si  Si1  1  0.797194  0.197302  0.500000  1
  Si  Si2  1  0.400108  0.197302  0.500000  1
  Si  Si3  1  0.333551  0.667103  0.000000  1
  As  As4  1  0.803562  0.607124  0.500000  1
  Rh  Rh5  1  0.205699  0.801603  0.500000  1
  Rh  Rh6  1  0.199075  0.398152  0.500000  1
  Rh  Rh7  1  0.533496  0.066994  0.000000  1
  Rh  Rh8  1  0.936848  0.461031  0.000000  1
  Rh  Rh9  1  0.524183  0.461031  0.000000  1
  Rh  Rh10  1  0.595904  0.801603  0.500000  1
