# generated using pymatgen
data_ErTm4(CoHg)2
_symmetry_space_group_name_H-M   'P 1'
_cell_length_a   7.75798436
_cell_length_b   7.75798420
_cell_length_c   15.29686100
_cell_angle_alpha   90.00000000
_cell_angle_beta   90.00000000
_cell_angle_gamma   152.87861825
_symmetry_Int_Tables_number   1
_chemical_formula_structural   ErTm4(CoHg)2
_chemical_formula_sum   'Er2 Tm8 Co4 Hg4'
_cell_volume   419.70860697
_cell_formula_units_Z   2
loop_
 _symmetry_equiv_pos_site_id
 _symmetry_equiv_pos_as_xyz
  1  'x, y, z'
loop_
 _atom_site_type_symbol
 _atom_site_label
 _atom_site_symmetry_multiplicity
 _atom_site_fract_x
 _atom_site_fract_y
 _atom_site_fract_z
 _atom_site_occupancy
  Er  Er0  1  0.254410  0.745590  0.371596  1
  Er  Er1  1  0.745590  0.254410  0.871596  1
  Tm  Tm2  1  0.607874  0.392126  0.249856  1
  Tm  Tm3  1  0.745549  0.254451  0.628332  1
  Tm  Tm4  1  0.960717  0.039283  0.126269  1
  Tm  Tm5  1  0.038861  0.961139  0.873681  1
  Tm  Tm6  1  0.392126  0.607874  0.749856  1
  Tm  Tm7  1  0.961139  0.038861  0.373681  1
  Tm  Tm8  1  0.039283  0.960717  0.626269  1
  Tm  Tm9  1  0.254451  0.745549  0.128332  1
  Co  Co10  1  0.408454  0.591546  0.249858  1
  Co  Co11  1  0.591546  0.408454  0.749858  1
  Co  Co12  1  0.811807  0.188193  0.249855  1
  Co  Co13  1  0.188193  0.811807  0.749855  1
  Hg  Hg14  1  0.610747  0.389253  0.032409  1
  Hg  Hg15  1  0.610559  0.389441  0.468143  1
  Hg  Hg16  1  0.389253  0.610747  0.532409  1
  Hg  Hg17  1  0.389441  0.610559  0.968143  1
