# generated using pymatgen
data_Ti4Al2CuRh9
_symmetry_space_group_name_H-M   'P 1'
_cell_length_a   4.04241900
_cell_length_b   5.33721951
_cell_length_c   10.54593329
_cell_angle_alpha   91.68128815
_cell_angle_beta   90.00000000
_cell_angle_gamma   90.00000000
_symmetry_Int_Tables_number   1
_chemical_formula_structural   Ti4Al2CuRh9
_chemical_formula_sum   'Ti4 Al2 Cu1 Rh9'
_cell_volume   227.43348454
_cell_formula_units_Z   1
loop_
 _symmetry_equiv_pos_site_id
 _symmetry_equiv_pos_as_xyz
  1  'x, y, z'
loop_
 _atom_site_type_symbol
 _atom_site_label
 _atom_site_symmetry_multiplicity
 _atom_site_fract_x
 _atom_site_fract_y
 _atom_site_fract_z
 _atom_site_occupancy
  Ti  Ti0  1  0.500000  0.344954  0.137495  1
  Ti  Ti1  1  0.500000  0.681609  0.859386  1
  Ti  Ti2  1  0.500000  0.806533  0.365670  1
  Ti  Ti3  1  0.500000  0.169762  0.639660  1
  Al  Al4  1  0.000000  0.013214  0.999803  1
  Al  Al5  1  0.000000  0.480924  0.497975  1
  Cu  Cu6  1  0.000000  0.077582  0.248810  1
  Rh  Rh7  1  0.000000  0.982085  0.496111  1
  Rh  Rh8  1  0.000000  0.512350  0.001040  1
  Rh  Rh9  1  0.000000  0.921377  0.756376  1
  Rh  Rh10  1  0.000000  0.582083  0.256617  1
  Rh  Rh11  1  0.000000  0.420361  0.742019  1
  Rh  Rh12  1  0.500000  0.292645  0.384240  1
  Rh  Rh13  1  0.500000  0.679746  0.609353  1
  Rh  Rh14  1  0.500000  0.839181  0.115076  1
  Rh  Rh15  1  0.500000  0.195591  0.890368  1
