# generated using pymatgen
data_ZrSc7Si16(MoW2)4
_symmetry_space_group_name_H-M   'P 1'
_cell_length_a   6.58403652
_cell_length_b   6.78236218
_cell_length_c   12.69555003
_cell_angle_alpha   89.97390010
_cell_angle_beta   90.03859078
_cell_angle_gamma   89.90964782
_symmetry_Int_Tables_number   1
_chemical_formula_structural   ZrSc7Si16(MoW2)4
_chemical_formula_sum   'Zr1 Sc7 Si16 Mo4 W8'
_cell_volume   566.92296004
_cell_formula_units_Z   1
loop_
 _symmetry_equiv_pos_site_id
 _symmetry_equiv_pos_as_xyz
  1  'x, y, z'
loop_
 _atom_site_type_symbol
 _atom_site_label
 _atom_site_symmetry_multiplicity
 _atom_site_fract_x
 _atom_site_fract_y
 _atom_site_fract_z
 _atom_site_occupancy
  Zr  Zr0  1  0.493992  0.669440  0.593642  1
  Sc  Sc1  1  0.993102  0.830375  0.908156  1
  Sc  Sc2  1  0.506462  0.330245  0.092483  1
  Sc  Sc3  1  0.006922  0.169685  0.407211  1
  Sc  Sc4  1  0.505485  0.330475  0.407176  1
  Sc  Sc5  1  0.005524  0.170193  0.092533  1
  Sc  Sc6  1  0.493803  0.670036  0.907628  1
  Sc  Sc7  1  0.992979  0.829879  0.592016  1
  Si  Si8  1  0.668108  0.963576  0.455606  1
  Si  Si9  1  0.167581  0.537362  0.044689  1
  Si  Si10  1  0.332778  0.037049  0.955248  1
  Si  Si11  1  0.833280  0.460589  0.543285  1
  Si  Si12  1  0.332551  0.039260  0.543414  1
  Si  Si13  1  0.832965  0.462561  0.955841  1
  Si  Si14  1  0.666358  0.963469  0.044627  1
  Si  Si15  1  0.167843  0.537255  0.455524  1
  Si  Si16  1  0.463971  0.378596  0.750552  1
  Si  Si17  1  0.965370  0.119772  0.750206  1
  Si  Si18  1  0.535412  0.619536  0.249014  1
  Si  Si19  1  0.035284  0.879914  0.249925  1
  Si  Si20  1  0.699742  0.858964  0.751154  1
  Si  Si21  1  0.196213  0.642397  0.751777  1
  Si  Si22  1  0.302003  0.142303  0.249369  1
  Si  Si23  1  0.801947  0.357527  0.250291  1
  Mo  Mo24  1  0.667381  0.164567  0.623824  1
  Mo  Mo25  1  0.167686  0.335541  0.876281  1
  Mo  Mo26  1  0.332397  0.835304  0.123976  1
  Mo  Mo27  1  0.831568  0.665210  0.376205  1
  W  W28  1  0.334350  0.834138  0.374928  1
  W  W29  1  0.832866  0.664492  0.124942  1
  W  W30  1  0.667187  0.165583  0.874780  1
  W  W31  1  0.167339  0.336817  0.625405  1
  W  W32  1  0.833545  0.503811  0.749124  1
  W  W33  1  0.333791  0.993818  0.749221  1
  W  W34  1  0.166193  0.496281  0.250230  1
  W  W35  1  0.666027  0.003976  0.249716  1
