# generated using pymatgen
data_Dy4Er2Al24Os5Pt3
_symmetry_space_group_name_H-M   'P 1'
_cell_length_a   8.80067555
_cell_length_b   8.82084247
_cell_length_c   9.52963201
_cell_angle_alpha   90.12021295
_cell_angle_beta   89.74496064
_cell_angle_gamma   119.54084208
_symmetry_Int_Tables_number   1
_chemical_formula_structural   Dy4Er2Al24Os5Pt3
_chemical_formula_sum   'Dy4 Er2 Al24 Os5 Pt3'
_cell_volume   643.60495798
_cell_formula_units_Z   1
loop_
 _symmetry_equiv_pos_site_id
 _symmetry_equiv_pos_as_xyz
  1  'x, y, z'
loop_
 _atom_site_type_symbol
 _atom_site_label
 _atom_site_symmetry_multiplicity
 _atom_site_fract_x
 _atom_site_fract_y
 _atom_site_fract_z
 _atom_site_occupancy
  Dy  Dy0  1  0.187905  0.383489  0.250811  1
  Dy  Dy1  1  0.812095  0.616511  0.749189  1
  Dy  Dy2  1  0.613587  0.813826  0.251958  1
  Dy  Dy3  1  0.386413  0.186174  0.748042  1
  Er  Er4  1  0.196551  0.808350  0.251673  1
  Er  Er5  1  0.803449  0.191650  0.748327  1
  Al  Al6  1  0.335112  0.671133  0.030457  1
  Al  Al7  1  0.664888  0.328867  0.969543  1
  Al  Al8  1  0.669332  0.331401  0.528341  1
  Al  Al9  1  0.330668  0.668599  0.471659  1
  Al  Al10  1  0.157950  0.325456  0.575415  1
  Al  Al11  1  0.842050  0.674544  0.424585  1
  Al  Al12  1  0.673436  0.840798  0.575801  1
  Al  Al13  1  0.837056  0.676139  0.078207  1
  Al  Al14  1  0.326564  0.159202  0.424199  1
  Al  Al15  1  0.162944  0.323861  0.921793  1
  Al  Al16  1  0.163893  0.834948  0.575889  1
  Al  Al17  1  0.325711  0.158779  0.076543  1
  Al  Al18  1  0.836107  0.165052  0.424111  1
  Al  Al19  1  0.674289  0.841221  0.923457  1
  Al  Al20  1  0.831792  0.159600  0.077196  1
  Al  Al21  1  0.168208  0.840400  0.922804  1
  Al  Al22  1  0.560634  0.124899  0.249765  1
  Al  Al23  1  0.439366  0.875101  0.750235  1
  Al  Al24  1  0.874271  0.438231  0.252643  1
  Al  Al25  1  0.125729  0.561769  0.747357  1
  Al  Al26  1  0.562670  0.436615  0.249696  1
  Al  Al27  1  0.437330  0.563385  0.750304  1
  Al  Al28  1  0.999369  0.002278  0.250216  1
  Al  Al29  1  0.000631  0.997722  0.749784  1
  Os  Os30  1  0.500000  0.000000  0.000000  1
  Os  Os31  1  0.500000  0.000000  0.500000  1
  Os  Os32  1  0.000000  0.500000  0.500000  1
  Os  Os33  1  0.000000  0.000000  0.000000  1
  Os  Os34  1  0.000000  0.000000  0.500000  1
  Pt  Pt35  1  0.000000  0.500000  0.000000  1
  Pt  Pt36  1  0.500000  0.500000  0.000000  1
  Pt  Pt37  1  0.500000  0.500000  0.500000  1
