# generated using pymatgen
data_Dy2BIrPt5
_symmetry_space_group_name_H-M   'P 1'
_cell_length_a   5.94757608
_cell_length_b   5.92390719
_cell_length_c   5.92390647
_cell_angle_alpha   60.26451125
_cell_angle_beta   59.86774884
_cell_angle_gamma   59.86774023
_symmetry_Int_Tables_number   1
_chemical_formula_structural   Dy2BIrPt5
_chemical_formula_sum   'Dy2 B1 Ir1 Pt5'
_cell_volume   147.58000714
_cell_formula_units_Z   1
loop_
 _symmetry_equiv_pos_site_id
 _symmetry_equiv_pos_as_xyz
  1  'x, y, z'
loop_
 _atom_site_type_symbol
 _atom_site_label
 _atom_site_symmetry_multiplicity
 _atom_site_fract_x
 _atom_site_fract_y
 _atom_site_fract_z
 _atom_site_occupancy
  Dy  Dy0  1  0.249109  0.250891  0.250891  1
  Dy  Dy1  1  0.749109  0.750891  0.750891  1
  B  B2  1  0.005608  0.994392  0.994392  1
  Ir  Ir3  1  0.255295  0.744706  0.744706  1
  Pt  Pt4  1  0.256545  0.743456  0.258745  1
  Pt  Pt5  1  0.745282  0.254719  0.254719  1
  Pt  Pt6  1  0.741255  0.743455  0.258746  1
  Pt  Pt7  1  0.256545  0.258745  0.743456  1
  Pt  Pt8  1  0.741255  0.258746  0.743455  1
