# generated using pymatgen
data_Ta2Be15Nb4(CoCu3)2
_symmetry_space_group_name_H-M   'P 1'
_cell_length_a   7.60820638
_cell_length_b   7.62870982
_cell_length_c   7.62889824
_cell_angle_alpha   60.05616161
_cell_angle_beta   60.09981885
_cell_angle_gamma   60.07460599
_symmetry_Int_Tables_number   1
_chemical_formula_structural   Ta2Be15Nb4(CoCu3)2
_chemical_formula_sum   'Ta2 Be15 Nb4 Co2 Cu6'
_cell_volume   313.64320158
_cell_formula_units_Z   1
loop_
 _symmetry_equiv_pos_site_id
 _symmetry_equiv_pos_as_xyz
  1  'x, y, z'
loop_
 _atom_site_type_symbol
 _atom_site_label
 _atom_site_symmetry_multiplicity
 _atom_site_fract_x
 _atom_site_fract_y
 _atom_site_fract_z
 _atom_site_occupancy
  Ta  Ta0  1  0.785794  0.197024  0.803030  1
  Ta  Ta1  1  0.808869  0.806099  0.193892  1
  Be  Be2  1  0.499942  0.493763  0.506130  1
  Be  Be3  1  0.501259  0.498542  0.997864  1
  Be  Be4  1  0.999835  0.499695  0.500313  1
  Be  Be5  1  0.500307  0.005374  0.994625  1
  Be  Be6  1  0.997609  0.002181  0.501450  1
  Be  Be7  1  0.002073  0.498829  0.998171  1
  Be  Be8  1  0.499034  0.001818  0.501206  1
  Be  Be9  1  0.827097  0.517162  0.828538  1
  Be  Be10  1  0.172808  0.171435  0.482842  1
  Be  Be11  1  0.478325  0.176009  0.168844  1
  Be  Be12  1  0.176965  0.176418  0.169274  1
  Be  Be13  1  0.522677  0.830759  0.823554  1
  Be  Be14  1  0.823174  0.831180  0.823949  1
  Be  Be15  1  0.822179  0.829316  0.526020  1
  Be  Be16  1  0.177547  0.473979  0.170695  1
  Nb  Nb17  1  0.213111  0.197310  0.802760  1
  Nb  Nb18  1  0.201163  0.789087  0.807915  1
  Nb  Nb19  1  0.798146  0.192141  0.210867  1
  Nb  Nb20  1  0.190396  0.806174  0.193816  1
  Co  Co21  1  0.623367  0.132930  0.621004  1
  Co  Co22  1  0.377298  0.378997  0.867052  1
  Cu  Cu23  1  0.868062  0.379170  0.376866  1
  Cu  Cu24  1  0.376536  0.378742  0.376232  1
  Cu  Cu25  1  0.131448  0.623752  0.621323  1
  Cu  Cu26  1  0.624097  0.623226  0.620797  1
  Cu  Cu27  1  0.621306  0.623561  0.134578  1
  Cu  Cu28  1  0.379574  0.865328  0.376388  1
