# generated using pymatgen
data_Tb6IrPd7
_symmetry_space_group_name_H-M   'P 1'
_cell_length_a   7.91323801
_cell_length_b   7.91323827
_cell_length_c   7.91323818
_cell_angle_alpha   114.28444042
_cell_angle_beta   114.28444432
_cell_angle_gamma   114.28445009
_symmetry_Int_Tables_number   1
_chemical_formula_structural   Tb6IrPd7
_chemical_formula_sum   'Tb6 Ir1 Pd7'
_cell_volume   294.59791564
_cell_formula_units_Z   1
loop_
 _symmetry_equiv_pos_site_id
 _symmetry_equiv_pos_as_xyz
  1  'x, y, z'
loop_
 _atom_site_type_symbol
 _atom_site_label
 _atom_site_symmetry_multiplicity
 _atom_site_fract_x
 _atom_site_fract_y
 _atom_site_fract_z
 _atom_site_occupancy
  Tb  Tb0  1  0.975536  0.602974  0.726108  1
  Tb  Tb1  1  0.726108  0.975536  0.602974  1
  Tb  Tb2  1  0.602974  0.726108  0.975536  1
  Tb  Tb3  1  0.024464  0.397026  0.273892  1
  Tb  Tb4  1  0.273892  0.024464  0.397026  1
  Tb  Tb5  1  0.397026  0.273892  0.024464  1
  Ir  Ir6  1  0.000000  0.000000  0.000000  1
  Pd  Pd7  1  0.500000  0.500000  0.500000  1
  Pd  Pd8  1  0.938376  0.773824  0.447713  1
  Pd  Pd9  1  0.447713  0.938376  0.773824  1
  Pd  Pd10  1  0.773824  0.447713  0.938376  1
  Pd  Pd11  1  0.061624  0.226176  0.552287  1
  Pd  Pd12  1  0.552287  0.061624  0.226176  1
  Pd  Pd13  1  0.226176  0.552287  0.061624  1
