# generated using pymatgen
data_Hf16Co4Mo3W
_symmetry_space_group_name_H-M   'P 1'
_cell_length_a   8.65224118
_cell_length_b   8.65161182
_cell_length_c   8.65218100
_cell_angle_alpha   60.00289752
_cell_angle_beta   60.00559396
_cell_angle_gamma   60.00291068
_symmetry_Int_Tables_number   1
_chemical_formula_structural   Hf16Co4Mo3W
_chemical_formula_sum   'Hf16 Co4 Mo3 W1'
_cell_volume   458.00863018
_cell_formula_units_Z   1
loop_
 _symmetry_equiv_pos_site_id
 _symmetry_equiv_pos_as_xyz
  1  'x, y, z'
loop_
 _atom_site_type_symbol
 _atom_site_label
 _atom_site_symmetry_multiplicity
 _atom_site_fract_x
 _atom_site_fract_y
 _atom_site_fract_z
 _atom_site_occupancy
  Hf  Hf0  1  0.052924  0.648819  0.648856  1
  Hf  Hf1  1  0.648813  0.052932  0.648832  1
  Hf  Hf2  1  0.648855  0.648837  0.052890  1
  Hf  Hf3  1  0.649482  0.649510  0.649503  1
  Hf  Hf4  1  0.799691  0.799713  0.200338  1
  Hf  Hf5  1  0.200320  0.200341  0.799218  1
  Hf  Hf6  1  0.799724  0.200330  0.799742  1
  Hf  Hf7  1  0.200378  0.799196  0.200339  1
  Hf  Hf8  1  0.200337  0.799724  0.799716  1
  Hf  Hf9  1  0.799193  0.200378  0.200318  1
  Hf  Hf10  1  0.436277  0.436291  0.064393  1
  Hf  Hf11  1  0.064044  0.063977  0.435937  1
  Hf  Hf12  1  0.436277  0.064354  0.436281  1
  Hf  Hf13  1  0.064008  0.435933  0.064023  1
  Hf  Hf14  1  0.064376  0.436295  0.436287  1
  Hf  Hf15  1  0.435928  0.063973  0.064055  1
  Co  Co16  1  0.423992  0.858802  0.858795  1
  Co  Co17  1  0.858810  0.424007  0.858785  1
  Co  Co18  1  0.858808  0.858794  0.423985  1
  Co  Co19  1  0.858814  0.858791  0.858793  1
  Mo  Mo20  1  0.750401  0.415992  0.415998  1
  Mo  Mo21  1  0.415979  0.750434  0.415975  1
  Mo  Mo22  1  0.416003  0.415999  0.750393  1
  W  W23  1  0.416564  0.416578  0.416549  1
