# generated using pymatgen
data_LiErTm(P3Pd10)2
_symmetry_space_group_name_H-M   'P 1'
_cell_length_a   8.61569101
_cell_length_b   8.61569002
_cell_length_c   8.61569100
_cell_angle_alpha   59.99999238
_cell_angle_beta   59.99999620
_cell_angle_gamma   59.99999808
_symmetry_Int_Tables_number   1
_chemical_formula_structural   LiErTm(P3Pd10)2
_chemical_formula_sum   'Li1 Er1 Tm1 P6 Pd20'
_cell_volume   452.22571419
_cell_formula_units_Z   1
loop_
 _symmetry_equiv_pos_site_id
 _symmetry_equiv_pos_as_xyz
  1  'x, y, z'
loop_
 _atom_site_type_symbol
 _atom_site_label
 _atom_site_symmetry_multiplicity
 _atom_site_fract_x
 _atom_site_fract_y
 _atom_site_fract_z
 _atom_site_occupancy
  Li  Li0  1  0.000000  0.000000  0.000000  1
  Er  Er1  1  0.250000  0.250000  0.250000  1
  Tm  Tm2  1  0.750000  0.750000  0.750000  1
  P  P3  1  0.738814  0.261186  0.261186  1
  P  P4  1  0.738814  0.738814  0.261186  1
  P  P5  1  0.738814  0.261186  0.738814  1
  P  P6  1  0.261186  0.738814  0.261186  1
  P  P7  1  0.261186  0.738814  0.738814  1
  P  P8  1  0.261186  0.261186  0.738814  1
  Pd  Pd9  1  0.344184  0.000604  0.000604  1
  Pd  Pd10  1  0.000604  0.654610  0.344184  1
  Pd  Pd11  1  0.344184  0.000604  0.654610  1
  Pd  Pd12  1  0.000604  0.654610  0.000604  1
  Pd  Pd13  1  0.654610  0.344184  0.000604  1
  Pd  Pd14  1  0.616616  0.616616  0.150152  1
  Pd  Pd15  1  0.384913  0.845263  0.384913  1
  Pd  Pd16  1  0.150152  0.616616  0.616616  1
  Pd  Pd17  1  0.654610  0.000604  0.344184  1
  Pd  Pd18  1  0.000604  0.344184  0.654610  1
  Pd  Pd19  1  0.654610  0.000604  0.000604  1
  Pd  Pd20  1  0.000604  0.000604  0.344184  1
  Pd  Pd21  1  0.616616  0.150152  0.616616  1
  Pd  Pd22  1  0.344184  0.654610  0.000604  1
  Pd  Pd23  1  0.384913  0.384913  0.384913  1
  Pd  Pd24  1  0.616616  0.616616  0.616616  1
  Pd  Pd25  1  0.384913  0.384913  0.845263  1
  Pd  Pd26  1  0.000604  0.000604  0.654610  1
  Pd  Pd27  1  0.845263  0.384913  0.384913  1
  Pd  Pd28  1  0.000604  0.344184  0.000604  1
