# generated using pymatgen
data_Er8Si12Ni3Pd
_symmetry_space_group_name_H-M   'P 1'
_cell_length_a   7.97130200
_cell_length_b   7.97130147
_cell_length_c   7.95529600
_cell_angle_alpha   90.00000000
_cell_angle_beta   90.00000000
_cell_angle_gamma   119.99999389
_symmetry_Int_Tables_number   1
_chemical_formula_structural   Er8Si12Ni3Pd
_chemical_formula_sum   'Er8 Si12 Ni3 Pd1'
_cell_volume   437.76949884
_cell_formula_units_Z   1
loop_
 _symmetry_equiv_pos_site_id
 _symmetry_equiv_pos_as_xyz
  1  'x, y, z'
loop_
 _atom_site_type_symbol
 _atom_site_label
 _atom_site_symmetry_multiplicity
 _atom_site_fract_x
 _atom_site_fract_y
 _atom_site_fract_z
 _atom_site_occupancy
  Er  Er0  1  0.501940  0.003882  0.248647  1
  Er  Er1  1  0.501977  0.003953  0.751528  1
  Er  Er2  1  0.996118  0.498060  0.248647  1
  Er  Er3  1  0.996047  0.498023  0.751528  1
  Er  Er4  1  0.501940  0.498060  0.248647  1
  Er  Er5  1  0.501977  0.498023  0.751528  1
  Er  Er6  1  0.000000  0.000000  0.248703  1
  Er  Er7  1  0.000000  0.000000  0.751250  1
  Si  Si8  1  0.171121  0.342242  0.000066  1
  Si  Si9  1  0.829590  0.659180  0.000189  1
  Si  Si10  1  0.657758  0.828879  0.000066  1
  Si  Si11  1  0.828268  0.656536  0.500036  1
  Si  Si12  1  0.340820  0.170410  0.000189  1
  Si  Si13  1  0.164253  0.328505  0.499832  1
  Si  Si14  1  0.171121  0.828879  0.000066  1
  Si  Si15  1  0.343464  0.171732  0.500036  1
  Si  Si16  1  0.829590  0.170410  0.000189  1
  Si  Si17  1  0.671495  0.835747  0.499832  1
  Si  Si18  1  0.828268  0.171732  0.500036  1
  Si  Si19  1  0.164253  0.835747  0.499832  1
  Ni  Ni20  1  0.333333  0.666667  0.999237  1
  Ni  Ni21  1  0.666667  0.333333  0.999414  1
  Ni  Ni22  1  0.666667  0.333333  0.499979  1
  Pd  Pd23  1  0.333333  0.666667  0.500523  1
