# generated using pymatgen
data_Sm3Y2Sn3Br
_symmetry_space_group_name_H-M   'P 1'
_cell_length_a   9.31038600
_cell_length_b   9.31038531
_cell_length_c   6.69894100
_cell_angle_alpha   90.00000000
_cell_angle_beta   90.00000000
_cell_angle_gamma   120.00000245
_symmetry_Int_Tables_number   1
_chemical_formula_structural   Sm3Y2Sn3Br
_chemical_formula_sum   'Sm6 Y4 Sn6 Br2'
_cell_volume   502.88897587
_cell_formula_units_Z   2
loop_
 _symmetry_equiv_pos_site_id
 _symmetry_equiv_pos_as_xyz
  1  'x, y, z'
loop_
 _atom_site_type_symbol
 _atom_site_label
 _atom_site_symmetry_multiplicity
 _atom_site_fract_x
 _atom_site_fract_y
 _atom_site_fract_z
 _atom_site_occupancy
  Sm  Sm0  1  0.268170  0.268170  0.750000  1
  Sm  Sm1  1  0.000000  0.731830  0.750000  1
  Sm  Sm2  1  0.731830  0.000000  0.750000  1
  Sm  Sm3  1  0.000000  0.268170  0.250000  1
  Sm  Sm4  1  0.731830  0.731830  0.250000  1
  Sm  Sm5  1  0.268170  0.000000  0.250000  1
  Y  Y6  1  0.333333  0.666667  0.500000  1
  Y  Y7  1  0.666667  0.333333  0.500000  1
  Y  Y8  1  0.333333  0.666667  0.000000  1
  Y  Y9  1  0.666667  0.333333  0.000000  1
  Sn  Sn10  1  0.610562  0.000000  0.250000  1
  Sn  Sn11  1  0.000000  0.389438  0.750000  1
  Sn  Sn12  1  0.389438  0.000000  0.750000  1
  Sn  Sn13  1  0.610562  0.610562  0.750000  1
  Sn  Sn14  1  0.000000  0.610562  0.250000  1
  Sn  Sn15  1  0.389438  0.389438  0.250000  1
  Br  Br16  1  0.000000  0.000000  0.000000  1
  Br  Br17  1  0.000000  0.000000  0.500000  1
