# generated using pymatgen
data_ZnGa6Fe5Rh12
_symmetry_space_group_name_H-M   'P 1'
_cell_length_a   4.27714203
_cell_length_b   6.02897900
_cell_length_c   12.83849109
_cell_angle_alpha   90.00000000
_cell_angle_beta   89.98620611
_cell_angle_gamma   90.00000000
_symmetry_Int_Tables_number   1
_chemical_formula_structural   ZnGa6Fe5Rh12
_chemical_formula_sum   'Zn1 Ga6 Fe5 Rh12'
_cell_volume   331.06358591
_cell_formula_units_Z   1
loop_
 _symmetry_equiv_pos_site_id
 _symmetry_equiv_pos_as_xyz
  1  'x, y, z'
loop_
 _atom_site_type_symbol
 _atom_site_label
 _atom_site_symmetry_multiplicity
 _atom_site_fract_x
 _atom_site_fract_y
 _atom_site_fract_z
 _atom_site_occupancy
  Zn  Zn0  1  0.000000  0.500000  0.000000  1
  Ga  Ga1  1  0.000000  0.000000  0.000000  1
  Ga  Ga2  1  0.499709  0.500000  0.167053  1
  Ga  Ga3  1  0.999708  0.000000  0.332747  1
  Ga  Ga4  1  0.500001  0.500000  0.500000  1
  Ga  Ga5  1  0.000291  0.000000  0.667253  1
  Ga  Ga6  1  0.500290  0.500000  0.832947  1
  Fe  Fe7  1  0.499890  0.000000  0.166052  1
  Fe  Fe8  1  0.999896  0.500000  0.333232  1
  Fe  Fe9  1  0.500001  0.000000  0.500000  1
  Fe  Fe10  1  0.000105  0.500000  0.666768  1
  Fe  Fe11  1  0.500111  0.000000  0.833948  1
  Rh  Rh12  1  0.500001  0.247297  0.000000  1
  Rh  Rh13  1  0.500001  0.752703  0.000000  1
  Rh  Rh14  1  0.999786  0.248973  0.168031  1
  Rh  Rh15  1  0.999786  0.751028  0.168031  1
  Rh  Rh16  1  0.499781  0.249841  0.333772  1
  Rh  Rh17  1  0.499781  0.750157  0.333772  1
  Rh  Rh18  1  0.000000  0.250336  0.500000  1
  Rh  Rh19  1  0.000000  0.749664  0.500000  1
  Rh  Rh20  1  0.500220  0.249841  0.666228  1
  Rh  Rh21  1  0.500220  0.750157  0.666228  1
  Rh  Rh22  1  0.000216  0.248973  0.831969  1
  Rh  Rh23  1  0.000216  0.751028  0.831969  1
