# generated using pymatgen
data_La(NiH3)2
_symmetry_space_group_name_H-M   'P 1'
_cell_length_a   4.49217116
_cell_length_b   4.47609771
_cell_length_c   4.29125300
_cell_angle_alpha   89.41351446
_cell_angle_beta   90.40848180
_cell_angle_gamma   119.92241808
_symmetry_Int_Tables_number   1
_chemical_formula_structural   La(NiH3)2
_chemical_formula_sum   'La1 Ni2 H6'
_cell_volume   74.78003354
_cell_formula_units_Z   1
loop_
 _symmetry_equiv_pos_site_id
 _symmetry_equiv_pos_as_xyz
  1  'x, y, z'
loop_
 _atom_site_type_symbol
 _atom_site_label
 _atom_site_symmetry_multiplicity
 _atom_site_fract_x
 _atom_site_fract_y
 _atom_site_fract_z
 _atom_site_occupancy
  La  La0  1  0.474760  0.394236  0.508983  1
  Ni  Ni1  1  0.141608  0.727852  0.007624  1
  Ni  Ni2  1  0.807920  0.060611  0.008250  1
  H  H3  1  0.976990  0.392838  0.244947  1
  H  H4  1  0.474427  0.892340  0.771827  1
  H  H5  1  0.972764  0.889945  0.245145  1
  H  H6  1  0.974053  0.895732  0.770803  1
  H  H7  1  0.475114  0.898736  0.243897  1
  H  H8  1  0.975499  0.395596  0.770796  1
