# generated using pymatgen
data_Er3IrAu3
_symmetry_space_group_name_H-M   'P 1'
_cell_length_a   7.97884375
_cell_length_b   7.97884432
_cell_length_c   7.97884454
_cell_angle_alpha   114.17105765
_cell_angle_beta   114.17105582
_cell_angle_gamma   114.17103189
_symmetry_Int_Tables_number   1
_chemical_formula_structural   Er3IrAu3
_chemical_formula_sum   'Er6 Ir2 Au6'
_cell_volume   304.65168892
_cell_formula_units_Z   2
loop_
 _symmetry_equiv_pos_site_id
 _symmetry_equiv_pos_as_xyz
  1  'x, y, z'
loop_
 _atom_site_type_symbol
 _atom_site_label
 _atom_site_symmetry_multiplicity
 _atom_site_fract_x
 _atom_site_fract_y
 _atom_site_fract_z
 _atom_site_occupancy
  Er  Er0  1  0.041613  0.392804  0.281601  1
  Er  Er1  1  0.392804  0.281601  0.041613  1
  Er  Er2  1  0.718399  0.958387  0.607196  1
  Er  Er3  1  0.281601  0.041613  0.392804  1
  Er  Er4  1  0.607196  0.718399  0.958387  1
  Er  Er5  1  0.958387  0.607196  0.718399  1
  Ir  Ir6  1  0.000000  0.000000  0.000000  1
  Ir  Ir7  1  0.500000  0.500000  0.500000  1
  Au  Au8  1  0.434130  0.937187  0.771959  1
  Au  Au9  1  0.937187  0.771959  0.434130  1
  Au  Au10  1  0.228041  0.565870  0.062813  1
  Au  Au11  1  0.771959  0.434130  0.937187  1
  Au  Au12  1  0.062813  0.228041  0.565870  1
  Au  Au13  1  0.565870  0.062813  0.228041  1
