# generated using pymatgen
data_DyHo(B3W)2
_symmetry_space_group_name_H-M   'P 1'
_cell_length_a   3.16478500
_cell_length_b   5.45739300
_cell_length_c   6.82684276
_cell_angle_alpha   77.80999427
_cell_angle_beta   90.00000000
_cell_angle_gamma   90.00000000
_symmetry_Int_Tables_number   1
_chemical_formula_structural   DyHo(B3W)2
_chemical_formula_sum   'Dy1 Ho1 B6 W2'
_cell_volume   115.25110824
_cell_formula_units_Z   1
loop_
 _symmetry_equiv_pos_site_id
 _symmetry_equiv_pos_as_xyz
  1  'x, y, z'
loop_
 _atom_site_type_symbol
 _atom_site_label
 _atom_site_symmetry_multiplicity
 _atom_site_fract_x
 _atom_site_fract_y
 _atom_site_fract_z
 _atom_site_occupancy
  Dy  Dy0  1  0.750000  0.674614  0.292728  1
  Ho  Ho1  1  0.250000  0.324139  0.708985  1
  B  B2  1  0.250000  0.919117  0.524977  1
  B  B3  1  0.750000  0.086044  0.474918  1
  B  B4  1  0.250000  0.911570  0.005268  1
  B  B5  1  0.750000  0.086424  0.994558  1
  B  B6  1  0.250000  0.582308  0.006940  1
  B  B7  1  0.750000  0.416316  0.992607  1
  W  W8  1  0.250000  0.187716  0.219215  1
  W  W9  1  0.750000  0.811752  0.779803  1
