# generated using pymatgen
data_Li2GePd5
_symmetry_space_group_name_H-M   'P 1'
_cell_length_a   4.10720000
_cell_length_b   5.38859200
_cell_length_c   10.41277400
_cell_angle_alpha   90.00000000
_cell_angle_beta   90.00000000
_cell_angle_gamma   90.00000000
_symmetry_Int_Tables_number   1
_chemical_formula_structural   Li2GePd5
_chemical_formula_sum   'Li4 Ge2 Pd10'
_cell_volume   230.45577514
_cell_formula_units_Z   2
loop_
 _symmetry_equiv_pos_site_id
 _symmetry_equiv_pos_as_xyz
  1  'x, y, z'
loop_
 _atom_site_type_symbol
 _atom_site_label
 _atom_site_symmetry_multiplicity
 _atom_site_fract_x
 _atom_site_fract_y
 _atom_site_fract_z
 _atom_site_occupancy
  Li  Li0  1  0.500000  0.162705  0.139339  1
  Li  Li1  1  0.500000  0.837295  0.860661  1
  Li  Li2  1  0.500000  0.337295  0.639339  1
  Li  Li3  1  0.500000  0.662705  0.360661  1
  Ge  Ge4  1  0.000000  0.000000  0.500000  1
  Ge  Ge5  1  0.000000  0.500000  0.000000  1
  Pd  Pd6  1  0.500000  0.179748  0.391445  1
  Pd  Pd7  1  0.500000  0.820252  0.608555  1
  Pd  Pd8  1  0.500000  0.320252  0.891445  1
  Pd  Pd9  1  0.500000  0.679748  0.108555  1
  Pd  Pd10  1  0.000000  0.397068  0.235105  1
  Pd  Pd11  1  0.000000  0.602932  0.764895  1
  Pd  Pd12  1  0.000000  0.102932  0.735105  1
  Pd  Pd13  1  0.000000  0.897068  0.264895  1
  Pd  Pd14  1  0.000000  0.000000  0.000000  1
  Pd  Pd15  1  0.000000  0.500000  0.500000  1
