# generated using pymatgen
data_Er7TmC10
_symmetry_space_group_name_H-M   'P 1'
_cell_length_a   3.62469200
_cell_length_b   6.50327465
_cell_length_c   11.81975466
_cell_angle_alpha   89.93348165
_cell_angle_beta   90.00000000
_cell_angle_gamma   90.00000000
_symmetry_Int_Tables_number   1
_chemical_formula_structural   Er7TmC10
_chemical_formula_sum   'Er7 Tm1 C10'
_cell_volume   278.61941405
_cell_formula_units_Z   1
loop_
 _symmetry_equiv_pos_site_id
 _symmetry_equiv_pos_as_xyz
  1  'x, y, z'
loop_
 _atom_site_type_symbol
 _atom_site_label
 _atom_site_symmetry_multiplicity
 _atom_site_fract_x
 _atom_site_fract_y
 _atom_site_fract_z
 _atom_site_occupancy
  Er  Er0  1  0.000000  0.750206  0.456178  1
  Er  Er1  1  0.000000  0.749738  0.955509  1
  Er  Er2  1  0.000000  0.236635  0.042058  1
  Er  Er3  1  0.500000  0.108121  0.803510  1
  Er  Er4  1  0.500000  0.893544  0.196125  1
  Er  Er5  1  0.500000  0.605725  0.696433  1
  Er  Er6  1  0.500000  0.391741  0.304456  1
  Tm  Tm7  1  0.000000  0.264415  0.542175  1
  C  C8  1  0.500000  0.511221  0.500872  1
  C  C9  1  0.500000  0.987954  0.000623  1
  C  C10  1  0.000000  0.364198  0.734440  1
  C  C11  1  0.000000  0.644004  0.262435  1
  C  C12  1  0.000000  0.856480  0.761605  1
  C  C13  1  0.000000  0.134890  0.235953  1
  C  C14  1  0.000000  0.386235  0.847124  1
  C  C15  1  0.000000  0.574143  0.156347  1
  C  C16  1  0.000000  0.114678  0.348756  1
  C  C17  1  0.000000  0.926071  0.655402  1
