# generated using pymatgen
data_Cs6CrAs(IrBr9)2
_symmetry_space_group_name_H-M   'P 1'
_cell_length_a   7.80120700
_cell_length_b   7.80120587
_cell_length_c   19.80935400
_cell_angle_alpha   90.00000000
_cell_angle_beta   90.00000000
_cell_angle_gamma   119.99999208
_symmetry_Int_Tables_number   1
_chemical_formula_structural   Cs6CrAs(IrBr9)2
_chemical_formula_sum   'Cs6 Cr1 As1 Ir2 Br18'
_cell_volume   1044.05774617
_cell_formula_units_Z   1
loop_
 _symmetry_equiv_pos_site_id
 _symmetry_equiv_pos_as_xyz
  1  'x, y, z'
loop_
 _atom_site_type_symbol
 _atom_site_label
 _atom_site_symmetry_multiplicity
 _atom_site_fract_x
 _atom_site_fract_y
 _atom_site_fract_z
 _atom_site_occupancy
  Cs  Cs0  1  0.666667  0.333333  0.936682  1
  Cs  Cs1  1  0.333333  0.666667  0.434860  1
  Cs  Cs2  1  0.666667  0.333333  0.575615  1
  Cs  Cs3  1  0.333333  0.666667  0.071395  1
  Cs  Cs4  1  0.000000  0.000000  0.749773  1
  Cs  Cs5  1  0.000000  0.000000  0.240089  1
  Cr  Cr6  1  0.333333  0.666667  0.835185  1
  As  As7  1  0.666667  0.333333  0.343227  1
  Ir  Ir8  1  0.333333  0.666667  0.668372  1
  Ir  Ir9  1  0.666667  0.333333  0.165637  1
  Br  Br10  1  0.825739  0.651476  0.411458  1
  Br  Br11  1  0.179905  0.359812  0.902072  1
  Br  Br12  1  0.179905  0.820095  0.902072  1
  Br  Br13  1  0.181518  0.363037  0.596133  1
  Br  Br14  1  0.640188  0.820095  0.902072  1
  Br  Br15  1  0.348524  0.174261  0.411458  1
  Br  Br16  1  0.039033  0.519516  0.748169  1
  Br  Br17  1  0.825739  0.174261  0.411458  1
  Br  Br18  1  0.514766  0.029533  0.241779  1
  Br  Br19  1  0.480484  0.519516  0.748169  1
  Br  Br20  1  0.514766  0.485234  0.241779  1
  Br  Br21  1  0.970467  0.485234  0.241779  1
  Br  Br22  1  0.362358  0.181179  0.093444  1
  Br  Br23  1  0.480484  0.960967  0.748169  1
  Br  Br24  1  0.818821  0.637642  0.093444  1
  Br  Br25  1  0.181518  0.818482  0.596133  1
  Br  Br26  1  0.636963  0.818482  0.596133  1
  Br  Br27  1  0.818821  0.181179  0.093444  1
