# generated using pymatgen
data_Ba2ReHN4
_symmetry_space_group_name_H-M   'P 1'
_cell_length_a   5.50215600
_cell_length_b   6.39641367
_cell_length_c   8.67388843
_cell_angle_alpha   77.15358174
_cell_angle_beta   90.00000000
_cell_angle_gamma   90.00000000
_symmetry_Int_Tables_number   1
_chemical_formula_structural   Ba2ReHN4
_chemical_formula_sum   'Ba4 Re2 H2 N8'
_cell_volume   297.62836934
_cell_formula_units_Z   2
loop_
 _symmetry_equiv_pos_site_id
 _symmetry_equiv_pos_as_xyz
  1  'x, y, z'
loop_
 _atom_site_type_symbol
 _atom_site_label
 _atom_site_symmetry_multiplicity
 _atom_site_fract_x
 _atom_site_fract_y
 _atom_site_fract_z
 _atom_site_occupancy
  Ba  Ba0  1  0.250000  0.246551  0.048392  1
  Ba  Ba1  1  0.750000  0.753449  0.951608  1
  Ba  Ba2  1  0.750000  0.772163  0.476810  1
  Ba  Ba3  1  0.250000  0.227837  0.523190  1
  Re  Re4  1  0.250000  0.703321  0.228663  1
  Re  Re5  1  0.750000  0.296679  0.771337  1
  H  H6  1  0.750000  0.513265  0.274344  1
  H  H7  1  0.250000  0.486735  0.725656  1
  N  N8  1  0.482650  0.473750  0.721999  1
  N  N9  1  0.982650  0.526250  0.278001  1
  N  N10  1  0.517350  0.526250  0.278001  1
  N  N11  1  0.017350  0.473750  0.721999  1
  N  N12  1  0.750000  0.082855  0.661757  1
  N  N13  1  0.250000  0.917145  0.338243  1
  N  N14  1  0.750000  0.171377  0.979972  1
  N  N15  1  0.250000  0.828623  0.020028  1
