# generated using pymatgen
data_Tb4TmIr3
_symmetry_space_group_name_H-M   'P 1'
_cell_length_a   10.92404700
_cell_length_b   10.92404700
_cell_length_c   6.37749800
_cell_angle_alpha   90.00000000
_cell_angle_beta   90.00000000
_cell_angle_gamma   90.00000000
_symmetry_Int_Tables_number   1
_chemical_formula_structural   Tb4TmIr3
_chemical_formula_sum   'Tb16 Tm4 Ir12'
_cell_volume   761.05746656
_cell_formula_units_Z   4
loop_
 _symmetry_equiv_pos_site_id
 _symmetry_equiv_pos_as_xyz
  1  'x, y, z'
loop_
 _atom_site_type_symbol
 _atom_site_label
 _atom_site_symmetry_multiplicity
 _atom_site_fract_x
 _atom_site_fract_y
 _atom_site_fract_z
 _atom_site_occupancy
  Tb  Tb0  1  0.290383  0.087692  0.377416  1
  Tb  Tb1  1  0.290383  0.912308  0.877416  1
  Tb  Tb2  1  0.709617  0.087692  0.877416  1
  Tb  Tb3  1  0.709617  0.912308  0.377416  1
  Tb  Tb4  1  0.587692  0.790383  0.877416  1
  Tb  Tb5  1  0.587692  0.209617  0.377416  1
  Tb  Tb6  1  0.412308  0.790383  0.377416  1
  Tb  Tb7  1  0.412308  0.209617  0.877416  1
  Tb  Tb8  1  0.209617  0.412308  0.622584  1
  Tb  Tb9  1  0.209617  0.587692  0.122584  1
  Tb  Tb10  1  0.790383  0.412308  0.122584  1
  Tb  Tb11  1  0.790383  0.587692  0.622584  1
  Tb  Tb12  1  0.912308  0.709617  0.122584  1
  Tb  Tb13  1  0.912308  0.290383  0.622584  1
  Tb  Tb14  1  0.087692  0.709617  0.622584  1
  Tb  Tb15  1  0.087692  0.290383  0.122584  1
  Tm  Tm16  1  0.000000  0.000000  0.500000  1
  Tm  Tm17  1  0.000000  0.000000  0.000000  1
  Tm  Tm18  1  0.500000  0.500000  0.000000  1
  Tm  Tm19  1  0.500000  0.500000  0.500000  1
  Ir  Ir20  1  0.847685  0.152315  0.250000  1
  Ir  Ir21  1  0.847685  0.847685  0.750000  1
  Ir  Ir22  1  0.152315  0.152315  0.750000  1
  Ir  Ir23  1  0.152315  0.847685  0.250000  1
  Ir  Ir24  1  0.652315  0.347685  0.750000  1
  Ir  Ir25  1  0.652315  0.652315  0.250000  1
  Ir  Ir26  1  0.347685  0.347685  0.250000  1
  Ir  Ir27  1  0.347685  0.652315  0.750000  1
  Ir  Ir28  1  0.500000  0.000000  0.121447  1
  Ir  Ir29  1  0.500000  0.000000  0.621447  1
  Ir  Ir30  1  0.000000  0.500000  0.878553  1
  Ir  Ir31  1  0.000000  0.500000  0.378553  1
