# generated using pymatgen
data_HoLu2HfAl14(Ga2Ir3)2
_symmetry_space_group_name_H-M   'P 1'
_cell_length_a   7.49594404
_cell_length_b   7.49473423
_cell_length_c   9.43695400
_cell_angle_alpha   90.00000000
_cell_angle_beta   90.00000000
_cell_angle_gamma   119.58633658
_symmetry_Int_Tables_number   1
_chemical_formula_structural   HoLu2HfAl14(Ga2Ir3)2
_chemical_formula_sum   'Ho1 Lu2 Hf1 Al14 Ga4 Ir6'
_cell_volume   461.04177894
_cell_formula_units_Z   1
loop_
 _symmetry_equiv_pos_site_id
 _symmetry_equiv_pos_as_xyz
  1  'x, y, z'
loop_
 _atom_site_type_symbol
 _atom_site_label
 _atom_site_symmetry_multiplicity
 _atom_site_fract_x
 _atom_site_fract_y
 _atom_site_fract_z
 _atom_site_occupancy
  Ho  Ho0  1  0.004913  0.326141  0.750000  1
  Lu  Lu1  1  0.674878  0.998199  0.250000  1
  Lu  Lu2  1  0.327969  0.006520  0.750000  1
  Hf  Hf3  1  0.999239  0.673947  0.250000  1
  Al  Al4  1  0.999768  0.337550  0.078570  1
  Al  Al5  1  0.997983  0.665057  0.929306  1
  Al  Al6  1  0.997983  0.665057  0.570694  1
  Al  Al7  1  0.333402  0.998533  0.421212  1
  Al  Al8  1  0.999768  0.337550  0.421430  1
  Al  Al9  1  0.663522  0.996482  0.573647  1
  Al  Al10  1  0.663522  0.996482  0.926353  1
  Al  Al11  1  0.333402  0.998533  0.078788  1
  Al  Al12  1  0.335005  0.335005  0.550675  1
  Al  Al13  1  0.669227  0.667259  0.433416  1
  Al  Al14  1  0.669227  0.667259  0.066584  1
  Al  Al15  1  0.335005  0.335005  0.949325  1
  Al  Al16  1  0.333659  0.551329  0.250000  1
  Al  Al17  1  0.556077  0.340196  0.250000  1
  Ga  Ga18  1  0.131839  0.129925  0.250000  1
  Ga  Ga19  1  0.869554  0.867747  0.750000  1
  Ga  Ga20  1  0.658549  0.450879  0.750000  1
  Ga  Ga21  1  0.449633  0.658709  0.750000  1
  Ir  Ir22  1  0.671664  0.327462  0.003101  1
  Ir  Ir23  1  0.327420  0.672308  0.003797  1
  Ir  Ir24  1  0.327420  0.672308  0.496203  1
  Ir  Ir25  1  0.671664  0.327462  0.496899  1
  Ir  Ir26  1  0.998856  0.998547  0.001546  1
  Ir  Ir27  1  0.998856  0.998547  0.498454  1
