# generated using pymatgen
data_Dy2Al20IrRu3
_symmetry_space_group_name_H-M   'P 1'
_cell_length_a   6.85812730
_cell_length_b   6.86226956
_cell_length_c   9.15721318
_cell_angle_alpha   90.07104068
_cell_angle_beta   90.06552543
_cell_angle_gamma   96.71514185
_symmetry_Int_Tables_number   1
_chemical_formula_structural   Dy2Al20IrRu3
_chemical_formula_sum   'Dy2 Al20 Ir1 Ru3'
_cell_volume   428.00251350
_cell_formula_units_Z   1
loop_
 _symmetry_equiv_pos_site_id
 _symmetry_equiv_pos_as_xyz
  1  'x, y, z'
loop_
 _atom_site_type_symbol
 _atom_site_label
 _atom_site_symmetry_multiplicity
 _atom_site_fract_x
 _atom_site_fract_y
 _atom_site_fract_z
 _atom_site_occupancy
  Dy  Dy0  1  0.871168  0.127432  0.750336  1
  Dy  Dy1  1  0.128832  0.872568  0.249664  1
  Al  Al2  1  0.620731  0.375992  0.550946  1
  Al  Al3  1  0.379269  0.624008  0.449054  1
  Al  Al4  1  0.377116  0.623371  0.050132  1
  Al  Al5  1  0.622884  0.376629  0.949868  1
  Al  Al6  1  0.226857  0.223943  0.498880  1
  Al  Al7  1  0.773143  0.776057  0.501120  1
  Al  Al8  1  0.774261  0.774739  0.000485  1
  Al  Al9  1  0.225739  0.225261  0.999515  1
  Al  Al10  1  0.844253  0.156464  0.100079  1
  Al  Al11  1  0.155747  0.843536  0.899921  1
  Al  Al12  1  0.157353  0.845499  0.601553  1
  Al  Al13  1  0.842647  0.154501  0.398447  1
  Al  Al14  1  0.857529  0.587244  0.751536  1
  Al  Al15  1  0.142471  0.412756  0.248464  1
  Al  Al16  1  0.413733  0.141665  0.750323  1
  Al  Al17  1  0.586267  0.858335  0.249677  1
  Al  Al18  1  0.222115  0.480881  0.752209  1
  Al  Al19  1  0.777885  0.519119  0.247791  1
  Al  Al20  1  0.518971  0.778951  0.749768  1
  Al  Al21  1  0.481029  0.221049  0.250232  1
  Ir  Ir22  1  0.000000  0.500000  0.500000  1
  Ru  Ru23  1  0.000000  0.500000  0.000000  1
  Ru  Ru24  1  0.500000  0.000000  0.000000  1
  Ru  Ru25  1  0.500000  0.000000  0.500000  1
