# generated using pymatgen
data_Dy2Ho3Mg3(P3Ir4)4
_symmetry_space_group_name_H-M   'P 1'
_cell_length_a   12.80421100
_cell_length_b   12.80420988
_cell_length_c   3.97978700
_cell_angle_alpha   90.00000000
_cell_angle_beta   90.00000000
_cell_angle_gamma   120.00000030
_symmetry_Int_Tables_number   1
_chemical_formula_structural   Dy2Ho3Mg3(P3Ir4)4
_chemical_formula_sum   'Dy2 Ho3 Mg3 P12 Ir16'
_cell_volume   565.06195282
_cell_formula_units_Z   1
loop_
 _symmetry_equiv_pos_site_id
 _symmetry_equiv_pos_as_xyz
  1  'x, y, z'
loop_
 _atom_site_type_symbol
 _atom_site_label
 _atom_site_symmetry_multiplicity
 _atom_site_fract_x
 _atom_site_fract_y
 _atom_site_fract_z
 _atom_site_occupancy
  Dy  Dy0  1  0.333333  0.666667  0.500000  1
  Dy  Dy1  1  0.666667  0.333333  0.500000  1
  Ho  Ho2  1  0.000000  0.808969  0.000000  1
  Ho  Ho3  1  0.191031  0.191031  0.000000  1
  Ho  Ho4  1  0.808969  0.000000  0.000000  1
  Mg  Mg5  1  0.000000  0.444063  0.500000  1
  Mg  Mg6  1  0.555937  0.555937  0.500000  1
  Mg  Mg7  1  0.444063  0.000000  0.500000  1
  P  P8  1  0.000000  0.640660  0.500000  1
  P  P9  1  0.359340  0.359340  0.500000  1
  P  P10  1  0.640660  0.000000  0.500000  1
  P  P11  1  0.516421  0.688753  0.000000  1
  P  P12  1  0.311247  0.827667  0.000000  1
  P  P13  1  0.172333  0.483579  0.000000  1
  P  P14  1  0.483579  0.172333  0.000000  1
  P  P15  1  0.688753  0.516421  0.000000  1
  P  P16  1  0.827667  0.311247  0.000000  1
  P  P17  1  0.000000  0.176909  0.500000  1
  P  P18  1  0.823091  0.823091  0.500000  1
  P  P19  1  0.176909  0.000000  0.500000  1
  Ir  Ir20  1  0.508628  0.868207  0.000000  1
  Ir  Ir21  1  0.131793  0.640422  0.000000  1
  Ir  Ir22  1  0.359578  0.491372  0.000000  1
  Ir  Ir23  1  0.491372  0.359578  0.000000  1
  Ir  Ir24  1  0.868207  0.508628  0.000000  1
  Ir  Ir25  1  0.640422  0.131793  0.000000  1
  Ir  Ir26  1  0.000000  0.278689  0.000000  1
  Ir  Ir27  1  0.721311  0.721311  0.000000  1
  Ir  Ir28  1  0.278689  0.000000  0.000000  1
  Ir  Ir29  1  0.628198  0.806844  0.500000  1
  Ir  Ir30  1  0.193156  0.821355  0.500000  1
  Ir  Ir31  1  0.178645  0.371802  0.500000  1
  Ir  Ir32  1  0.371802  0.178645  0.500000  1
  Ir  Ir33  1  0.806844  0.628198  0.500000  1
  Ir  Ir34  1  0.821355  0.193156  0.500000  1
  Ir  Ir35  1  0.000000  0.000000  0.500000  1
