# generated using pymatgen
data_Y10Tl2AgRu
_symmetry_space_group_name_H-M   'P 1'
_cell_length_a   9.75784136
_cell_length_b   9.75784092
_cell_length_c   9.71365300
_cell_angle_alpha   90.00000000
_cell_angle_beta   90.00000000
_cell_angle_gamma   120.12581579
_symmetry_Int_Tables_number   1
_chemical_formula_structural   Y10Tl2AgRu
_chemical_formula_sum   'Y20 Tl4 Ag2 Ru2'
_cell_volume   799.96080041
_cell_formula_units_Z   2
loop_
 _symmetry_equiv_pos_site_id
 _symmetry_equiv_pos_as_xyz
  1  'x, y, z'
loop_
 _atom_site_type_symbol
 _atom_site_label
 _atom_site_symmetry_multiplicity
 _atom_site_fract_x
 _atom_site_fract_y
 _atom_site_fract_z
 _atom_site_occupancy
  Y  Y0  1  0.005525  0.994475  0.480697  1
  Y  Y1  1  0.005525  0.994475  0.019303  1
  Y  Y2  1  0.212285  0.787715  0.439281  1
  Y  Y3  1  0.207783  0.418288  0.437833  1
  Y  Y4  1  0.581712  0.792217  0.437833  1
  Y  Y5  1  0.790263  0.209737  0.558429  1
  Y  Y6  1  0.788206  0.579879  0.561137  1
  Y  Y7  1  0.420121  0.211794  0.561137  1
  Y  Y8  1  0.790263  0.209737  0.941571  1
  Y  Y9  1  0.788206  0.579879  0.938863  1
  Y  Y10  1  0.420121  0.211794  0.938863  1
  Y  Y11  1  0.212285  0.787715  0.060719  1
  Y  Y12  1  0.207783  0.418288  0.062167  1
  Y  Y13  1  0.581712  0.792217  0.062167  1
  Y  Y14  1  0.538204  0.461796  0.250000  1
  Y  Y15  1  0.533402  0.086588  0.250000  1
  Y  Y16  1  0.913412  0.466598  0.250000  1
  Y  Y17  1  0.458095  0.541905  0.750000  1
  Y  Y18  1  0.462238  0.922752  0.750000  1
  Y  Y19  1  0.077248  0.537762  0.750000  1
  Tl  Tl20  1  0.878806  0.121194  0.250000  1
  Tl  Tl21  1  0.116420  0.883580  0.750000  1
  Tl  Tl22  1  0.113803  0.229719  0.750000  1
  Tl  Tl23  1  0.770281  0.886197  0.750000  1
  Ag  Ag24  1  0.878816  0.755781  0.250000  1
  Ag  Ag25  1  0.244219  0.121184  0.250000  1
  Ru  Ru26  1  0.335359  0.664641  0.250000  1
  Ru  Ru27  1  0.667909  0.332091  0.750000  1
