# generated using pymatgen
data_Nd7Dy9(ErSi4)4
_symmetry_space_group_name_H-M   'P 1'
_cell_length_a   7.73375975
_cell_length_b   7.73857498
_cell_length_c   14.32481041
_cell_angle_alpha   89.99311827
_cell_angle_beta   89.89235494
_cell_angle_gamma   90.07113019
_symmetry_Int_Tables_number   1
_chemical_formula_structural   Nd7Dy9(ErSi4)4
_chemical_formula_sum   'Nd7 Dy9 Er4 Si16'
_cell_volume   857.31307930
_cell_formula_units_Z   1
loop_
 _symmetry_equiv_pos_site_id
 _symmetry_equiv_pos_as_xyz
  1  'x, y, z'
loop_
 _atom_site_type_symbol
 _atom_site_label
 _atom_site_symmetry_multiplicity
 _atom_site_fract_x
 _atom_site_fract_y
 _atom_site_fract_z
 _atom_site_occupancy
  Nd  Nd0  1  0.358926  0.007149  0.957799  1
  Nd  Nd1  1  0.992709  0.642165  0.541010  1
  Nd  Nd2  1  0.490783  0.858962  0.209126  1
  Nd  Nd3  1  0.509000  0.139235  0.707022  1
  Nd  Nd4  1  0.860183  0.490885  0.791869  1
  Nd  Nd5  1  0.139413  0.508420  0.293146  1
  Nd  Nd6  1  0.007289  0.358694  0.042769  1
  Dy  Dy7  1  0.490797  0.361246  0.124971  1
  Dy  Dy8  1  0.991643  0.136639  0.624275  1
  Dy  Dy9  1  0.862250  0.008446  0.874776  1
  Dy  Dy10  1  0.137196  0.992808  0.375209  1
  Dy  Dy11  1  0.511205  0.639306  0.623189  1
  Dy  Dy12  1  0.361467  0.490863  0.875160  1
  Dy  Dy13  1  0.639276  0.509895  0.376054  1
  Dy  Dy14  1  0.007041  0.861567  0.126392  1
  Dy  Dy15  1  0.636688  0.995893  0.456081  1
  Er  Er16  1  0.317423  0.316572  0.499901  1
  Er  Er17  1  0.184673  0.815966  0.749140  1
  Er  Er18  1  0.814885  0.183390  0.250512  1
  Er  Er19  1  0.683130  0.682252  0.000391  1
  Si  Si20  1  0.294127  0.938101  0.560520  1
  Si  Si21  1  0.708761  0.063557  0.061950  1
  Si  Si22  1  0.933567  0.289031  0.438127  1
  Si  Si23  1  0.437436  0.208834  0.312806  1
  Si  Si24  1  0.564900  0.789175  0.811640  1
  Si  Si25  1  0.210908  0.435929  0.687590  1
  Si  Si26  1  0.789090  0.565111  0.188888  1
  Si  Si27  1  0.064576  0.709522  0.938565  1
  Si  Si28  1  0.799062  0.844207  0.690828  1
  Si  Si29  1  0.202653  0.153880  0.190219  1
  Si  Si30  1  0.843022  0.800912  0.313357  1
  Si  Si31  1  0.349228  0.706866  0.438312  1
  Si  Si32  1  0.653892  0.296074  0.940055  1
  Si  Si33  1  0.701819  0.342366  0.558759  1
  Si  Si34  1  0.296064  0.653925  0.060419  1
  Si  Si35  1  0.154918  0.202159  0.809174  1
