# generated using pymatgen
data_Hf6Al16Cu4Ir2Rh
_symmetry_space_group_name_H-M   'P 1'
_cell_length_a   8.64820668
_cell_length_b   8.64820630
_cell_length_c   8.60555500
_cell_angle_alpha   60.16300546
_cell_angle_beta   60.16300689
_cell_angle_gamma   59.67398100
_symmetry_Int_Tables_number   1
_chemical_formula_structural   Hf6Al16Cu4Ir2Rh
_chemical_formula_sum   'Hf6 Al16 Cu4 Ir2 Rh1'
_cell_volume   455.08753792
_cell_formula_units_Z   1
loop_
 _symmetry_equiv_pos_site_id
 _symmetry_equiv_pos_as_xyz
  1  'x, y, z'
loop_
 _atom_site_type_symbol
 _atom_site_label
 _atom_site_symmetry_multiplicity
 _atom_site_fract_x
 _atom_site_fract_y
 _atom_site_fract_z
 _atom_site_occupancy
  Hf  Hf0  1  0.684775  0.315225  0.315225  1
  Hf  Hf1  1  0.315225  0.684775  0.684775  1
  Hf  Hf2  1  0.315225  0.684775  0.315225  1
  Hf  Hf3  1  0.684775  0.315225  0.684775  1
  Hf  Hf4  1  0.309247  0.309247  0.690753  1
  Hf  Hf5  1  0.690753  0.690753  0.309247  1
  Al  Al6  1  0.332418  0.332418  0.336973  1
  Al  Al7  1  0.667582  0.667582  0.663027  1
  Al  Al8  1  0.332418  0.332418  0.998190  1
  Al  Al9  1  0.336973  0.998190  0.332418  1
  Al  Al10  1  0.667582  0.667582  0.001810  1
  Al  Al11  1  0.663027  0.001810  0.667582  1
  Al  Al12  1  0.998190  0.336973  0.332418  1
  Al  Al13  1  0.001810  0.663027  0.667582  1
  Al  Al14  1  0.116580  0.116580  0.123977  1
  Al  Al15  1  0.883420  0.883420  0.876023  1
  Al  Al16  1  0.116580  0.116580  0.642861  1
  Al  Al17  1  0.123977  0.642861  0.116580  1
  Al  Al18  1  0.883420  0.883420  0.357139  1
  Al  Al19  1  0.876023  0.357139  0.883420  1
  Al  Al20  1  0.642861  0.123977  0.116580  1
  Al  Al21  1  0.357139  0.876023  0.883420  1
  Cu  Cu22  1  0.500000  0.000000  0.000000  1
  Cu  Cu23  1  0.000000  0.500000  0.500000  1
  Cu  Cu24  1  0.000000  0.500000  0.000000  1
  Cu  Cu25  1  0.500000  0.000000  0.500000  1
  Ir  Ir26  1  0.000000  0.000000  0.500000  1
  Ir  Ir27  1  0.500000  0.500000  0.000000  1
  Rh  Rh28  1  0.000000  0.000000  0.000000  1
