# generated using pymatgen
data_Pr3Dy(Sn5Ir3)2
_symmetry_space_group_name_H-M   'P 1'
_cell_length_a   13.60710009
_cell_length_b   13.60710129
_cell_length_c   7.31114502
_cell_angle_alpha   89.92330749
_cell_angle_beta   90.07669273
_cell_angle_gamma   160.89355291
_symmetry_Int_Tables_number   1
_chemical_formula_structural   Pr3Dy(Sn5Ir3)2
_chemical_formula_sum   'Pr3 Dy1 Sn10 Ir6'
_cell_volume   443.09244391
_cell_formula_units_Z   1
loop_
 _symmetry_equiv_pos_site_id
 _symmetry_equiv_pos_as_xyz
  1  'x, y, z'
loop_
 _atom_site_type_symbol
 _atom_site_label
 _atom_site_symmetry_multiplicity
 _atom_site_fract_x
 _atom_site_fract_y
 _atom_site_fract_z
 _atom_site_occupancy
  Pr  Pr0  1  0.172184  0.827816  0.753782  1
  Pr  Pr1  1  0.827695  0.172305  0.254248  1
  Pr  Pr2  1  0.477071  0.522929  0.738410  1
  Dy  Dy3  1  0.524050  0.475950  0.239140  1
  Sn  Sn4  1  0.878982  0.121018  0.731698  1
  Sn  Sn5  1  0.120303  0.879697  0.232454  1
  Sn  Sn6  1  0.704031  0.295969  0.048522  1
  Sn  Sn7  1  0.295224  0.704776  0.548702  1
  Sn  Sn8  1  0.596865  0.403135  0.609746  1
  Sn  Sn9  1  0.403870  0.596130  0.111560  1
  Sn  Sn10  1  0.952979  0.047021  0.399025  1
  Sn  Sn11  1  0.048173  0.951827  0.902747  1
  Sn  Sn12  1  0.290055  0.709945  0.975896  1
  Sn  Sn13  1  0.709692  0.290308  0.475246  1
  Ir  Ir14  1  0.050714  0.949286  0.515760  1
  Ir  Ir15  1  0.949834  0.050166  0.022832  1
  Ir  Ir16  1  0.776692  0.223308  0.764181  1
  Ir  Ir17  1  0.222783  0.777217  0.263991  1
  Ir  Ir18  1  0.394562  0.605438  0.482264  1
  Ir  Ir19  1  0.604240  0.395760  0.985796  1
