# generated using pymatgen
data_Tb4YPa3(ReB6)4
_symmetry_space_group_name_H-M   'P 1'
_cell_length_a   3.71699500
_cell_length_b   9.21500713
_cell_length_c   11.54950504
_cell_angle_alpha   89.82596079
_cell_angle_beta   90.00000000
_cell_angle_gamma   90.00000000
_symmetry_Int_Tables_number   1
_chemical_formula_structural   Tb4YPa3(ReB6)4
_chemical_formula_sum   'Tb4 Y1 Pa3 Re4 B24'
_cell_volume   395.59338564
_cell_formula_units_Z   1
loop_
 _symmetry_equiv_pos_site_id
 _symmetry_equiv_pos_as_xyz
  1  'x, y, z'
loop_
 _atom_site_type_symbol
 _atom_site_label
 _atom_site_symmetry_multiplicity
 _atom_site_fract_x
 _atom_site_fract_y
 _atom_site_fract_z
 _atom_site_occupancy
  Tb  Tb0  1  0.000000  0.677600  0.587386  1
  Tb  Tb1  1  0.000000  0.445774  0.124564  1
  Tb  Tb2  1  0.000000  0.555096  0.873357  1
  Tb  Tb3  1  0.000000  0.943938  0.375444  1
  Y  Y4  1  0.000000  0.053261  0.625373  1
  Pa  Pa5  1  0.000000  0.822838  0.087192  1
  Pa  Pa6  1  0.000000  0.176673  0.912223  1
  Pa  Pa7  1  0.000000  0.324517  0.413484  1
  Re  Re8  1  0.000000  0.138348  0.177517  1
  Re  Re9  1  0.000000  0.864478  0.825623  1
  Re  Re10  1  0.000000  0.637836  0.319448  1
  Re  Re11  1  0.000000  0.359065  0.678404  1
  B  B12  1  0.500000  0.053194  0.067618  1
  B  B13  1  0.500000  0.947644  0.933710  1
  B  B14  1  0.500000  0.552477  0.431653  1
  B  B15  1  0.500000  0.445494  0.566904  1
  B  B16  1  0.500000  0.247097  0.079272  1
  B  B17  1  0.500000  0.753582  0.920404  1
  B  B18  1  0.500000  0.746680  0.420476  1
  B  B19  1  0.500000  0.252968  0.579139  1
  B  B20  1  0.500000  0.292694  0.233566  1
  B  B21  1  0.500000  0.708463  0.767171  1
  B  B22  1  0.500000  0.792561  0.267136  1
  B  B23  1  0.500000  0.206722  0.733344  1
  B  B24  1  0.500000  0.134044  0.314396  1
  B  B25  1  0.500000  0.866820  0.686581  1
  B  B26  1  0.500000  0.634339  0.185640  1
  B  B27  1  0.500000  0.365703  0.813069  1
  B  B28  1  0.500000  0.483371  0.286700  1
  B  B29  1  0.500000  0.516303  0.713161  1
  B  B30  1  0.500000  0.983651  0.213943  1
  B  B31  1  0.500000  0.016351  0.786454  1
  B  B32  1  0.500000  0.114641  0.468182  1
  B  B33  1  0.500000  0.885716  0.532250  1
  B  B34  1  0.500000  0.617211  0.032021  1
  B  B35  1  0.500000  0.382849  0.967189  1
