# generated using pymatgen
data_Y3TmAs3S
_symmetry_space_group_name_H-M   'P 1'
_cell_length_a   4.03705800
_cell_length_b   5.68567700
_cell_length_c   8.08435100
_cell_angle_alpha   90.00000000
_cell_angle_beta   90.00000000
_cell_angle_gamma   90.00000000
_symmetry_Int_Tables_number   1
_chemical_formula_structural   Y3TmAs3S
_chemical_formula_sum   'Y3 Tm1 As3 S1'
_cell_volume   185.56340545
_cell_formula_units_Z   1
loop_
 _symmetry_equiv_pos_site_id
 _symmetry_equiv_pos_as_xyz
  1  'x, y, z'
loop_
 _atom_site_type_symbol
 _atom_site_label
 _atom_site_symmetry_multiplicity
 _atom_site_fract_x
 _atom_site_fract_y
 _atom_site_fract_z
 _atom_site_occupancy
  Y  Y0  1  0.500000  0.500000  0.250291  1
  Y  Y1  1  0.000000  0.000000  0.500000  1
  Y  Y2  1  0.500000  0.500000  0.749709  1
  Tm  Tm3  1  0.000000  0.000000  0.000000  1
  As  As4  1  0.500000  0.000000  0.750760  1
  As  As5  1  0.000000  0.500000  0.000000  1
  As  As6  1  0.500000  0.000000  0.249240  1
  S  S7  1  0.000000  0.500000  0.500000  1
