# generated using pymatgen
data_BaNa(Pa2Te5)2
_symmetry_space_group_name_H-M   'P 1'
_cell_length_a   9.56638428
_cell_length_b   9.56638345
_cell_length_c   9.56638424
_cell_angle_alpha   128.27466432
_cell_angle_beta   128.27466218
_cell_angle_gamma   76.18051281
_symmetry_Int_Tables_number   1
_chemical_formula_structural   BaNa(Pa2Te5)2
_chemical_formula_sum   'Ba1 Na1 Pa4 Te10'
_cell_volume   524.44812619
_cell_formula_units_Z   1
loop_
 _symmetry_equiv_pos_site_id
 _symmetry_equiv_pos_as_xyz
  1  'x, y, z'
loop_
 _atom_site_type_symbol
 _atom_site_label
 _atom_site_symmetry_multiplicity
 _atom_site_fract_x
 _atom_site_fract_y
 _atom_site_fract_z
 _atom_site_occupancy
  Ba  Ba0  1  0.250000  0.250000  0.000000  1
  Na  Na1  1  0.750000  0.750000  0.000000  1
  Pa  Pa2  1  0.650688  0.150688  0.801378  1
  Pa  Pa3  1  0.349312  0.849312  0.198622  1
  Pa  Pa4  1  0.150688  0.349312  0.500000  1
  Pa  Pa5  1  0.849312  0.650688  0.500000  1
  Te  Te6  1  0.012979  0.517412  0.798152  1
  Te  Te7  1  0.719259  0.214826  0.201848  1
  Te  Te8  1  0.517412  0.719259  0.504433  1
  Te  Te9  1  0.214826  0.012979  0.495567  1
  Te  Te10  1  0.982588  0.487021  0.201848  1
  Te  Te11  1  0.285174  0.780741  0.798152  1
  Te  Te12  1  0.487021  0.285174  0.504433  1
  Te  Te13  1  0.780741  0.982588  0.495567  1
  Te  Te14  1  0.002846  0.002846  0.000000  1
  Te  Te15  1  0.497154  0.497154  0.000000  1
