# generated using pymatgen
data_RbTiIrS4
_symmetry_space_group_name_H-M   'P 1'
_cell_length_a   5.88306700
_cell_length_b   7.14638900
_cell_length_c   16.70217500
_cell_angle_alpha   90.00000000
_cell_angle_beta   90.00000000
_cell_angle_gamma   90.00000000
_symmetry_Int_Tables_number   1
_chemical_formula_structural   RbTiIrS4
_chemical_formula_sum   'Rb4 Ti4 Ir4 S16'
_cell_volume   702.20428727
_cell_formula_units_Z   4
loop_
 _symmetry_equiv_pos_site_id
 _symmetry_equiv_pos_as_xyz
  1  'x, y, z'
loop_
 _atom_site_type_symbol
 _atom_site_label
 _atom_site_symmetry_multiplicity
 _atom_site_fract_x
 _atom_site_fract_y
 _atom_site_fract_z
 _atom_site_occupancy
  Rb  Rb0  1  0.390570  0.000000  0.000000  1
  Rb  Rb1  1  0.609430  0.500000  0.500000  1
  Rb  Rb2  1  0.027944  0.000000  0.500000  1
  Rb  Rb3  1  0.972056  0.500000  0.000000  1
  Ti  Ti4  1  0.072017  0.000000  0.243322  1
  Ti  Ti5  1  0.072017  0.000000  0.756678  1
  Ti  Ti6  1  0.927983  0.500000  0.256678  1
  Ti  Ti7  1  0.927983  0.500000  0.743322  1
  Ir  Ir8  1  0.500000  0.250000  0.250000  1
  Ir  Ir9  1  0.500000  0.750000  0.750000  1
  Ir  Ir10  1  0.500000  0.750000  0.250000  1
  Ir  Ir11  1  0.500000  0.250000  0.750000  1
  S  S12  1  0.834002  0.241237  0.334270  1
  S  S13  1  0.834002  0.758763  0.665730  1
  S  S14  1  0.165998  0.741237  0.165730  1
  S  S15  1  0.165998  0.258763  0.834270  1
  S  S16  1  0.165998  0.258763  0.165730  1
  S  S17  1  0.165998  0.741237  0.834270  1
  S  S18  1  0.834002  0.758763  0.334270  1
  S  S19  1  0.834002  0.241237  0.665730  1
  S  S20  1  0.682883  0.000000  0.177052  1
  S  S21  1  0.682883  0.000000  0.822948  1
  S  S22  1  0.317117  0.500000  0.322948  1
  S  S23  1  0.317117  0.500000  0.677052  1
  S  S24  1  0.371412  0.000000  0.335866  1
  S  S25  1  0.371412  0.000000  0.664134  1
  S  S26  1  0.628588  0.500000  0.164134  1
  S  S27  1  0.628588  0.500000  0.835866  1
