# generated using pymatgen
data_PaGeHPt
_symmetry_space_group_name_H-M   'P 1'
_cell_length_a   4.27401600
_cell_length_b   4.27374450
_cell_length_c   8.09857600
_cell_angle_alpha   90.00000211
_cell_angle_beta   90.00201713
_cell_angle_gamma   60.00235115
_symmetry_Int_Tables_number   1
_chemical_formula_structural   PaGeHPt
_chemical_formula_sum   'Pa2 Ge2 H2 Pt2'
_cell_volume   128.11331867
_cell_formula_units_Z   2
loop_
 _symmetry_equiv_pos_site_id
 _symmetry_equiv_pos_as_xyz
  1  'x, y, z'
loop_
 _atom_site_type_symbol
 _atom_site_label
 _atom_site_symmetry_multiplicity
 _atom_site_fract_x
 _atom_site_fract_y
 _atom_site_fract_z
 _atom_site_occupancy
  Pa  Pa0  1  0.000000  0.000000  0.500000  1
  Pa  Pa1  1  0.000000  0.000000  0.000000  1
  Ge  Ge2  1  0.333364  0.333318  0.283009  1
  Ge  Ge3  1  0.666636  0.666682  0.716991  1
  H  H4  1  0.333373  0.333314  0.985421  1
  H  H5  1  0.666627  0.666686  0.014579  1
  Pt  Pt6  1  0.333256  0.333372  0.765983  1
  Pt  Pt7  1  0.666744  0.666628  0.234017  1
