# generated using pymatgen
data_Tb9Ho5(Lu3Pt8)2
_symmetry_space_group_name_H-M   'P 1'
_cell_length_a   7.42128613
_cell_length_b   7.53236142
_cell_length_c   14.70144126
_cell_angle_alpha   89.98869209
_cell_angle_beta   90.17506408
_cell_angle_gamma   90.02916683
_symmetry_Int_Tables_number   1
_chemical_formula_structural   Tb9Ho5(Lu3Pt8)2
_chemical_formula_sum   'Tb9 Ho5 Lu6 Pt16'
_cell_volume   821.80380535
_cell_formula_units_Z   1
loop_
 _symmetry_equiv_pos_site_id
 _symmetry_equiv_pos_as_xyz
  1  'x, y, z'
loop_
 _atom_site_type_symbol
 _atom_site_label
 _atom_site_symmetry_multiplicity
 _atom_site_fract_x
 _atom_site_fract_y
 _atom_site_fract_z
 _atom_site_occupancy
  Tb  Tb0  1  0.139351  0.331049  0.620435  1
  Tb  Tb1  1  0.483656  0.675894  0.595817  1
  Tb  Tb2  1  0.983578  0.826076  0.905390  1
  Tb  Tb3  1  0.516732  0.326516  0.095475  1
  Tb  Tb4  1  0.018107  0.171501  0.401613  1
  Tb  Tb5  1  0.516682  0.325487  0.404100  1
  Tb  Tb6  1  0.015347  0.174272  0.095765  1
  Tb  Tb7  1  0.484156  0.673052  0.905025  1
  Tb  Tb8  1  0.982536  0.826492  0.596324  1
  Ho  Ho9  1  0.639859  0.168182  0.622567  1
  Ho  Ho10  1  0.140605  0.331406  0.878593  1
  Ho  Ho11  1  0.359492  0.831822  0.121511  1
  Ho  Ho12  1  0.859801  0.668789  0.377885  1
  Ho  Ho13  1  0.361959  0.831952  0.377074  1
  Lu  Lu14  1  0.859093  0.668482  0.121797  1
  Lu  Lu15  1  0.640863  0.168196  0.878795  1
  Lu  Lu16  1  0.800781  0.510272  0.751202  1
  Lu  Lu17  1  0.302202  0.989649  0.751374  1
  Lu  Lu18  1  0.197885  0.490282  0.249480  1
  Lu  Lu19  1  0.698928  0.010142  0.248978  1
  Pt  Pt20  1  0.694867  0.971827  0.457428  1
  Pt  Pt21  1  0.190444  0.530594  0.043024  1
  Pt  Pt22  1  0.309535  0.030386  0.957334  1
  Pt  Pt23  1  0.802808  0.472844  0.542721  1
  Pt  Pt24  1  0.308355  0.026213  0.542338  1
  Pt  Pt25  1  0.806996  0.469490  0.958408  1
  Pt  Pt26  1  0.693284  0.970179  0.042585  1
  Pt  Pt27  1  0.193630  0.529873  0.455013  1
  Pt  Pt28  1  0.436905  0.380574  0.751680  1
  Pt  Pt29  1  0.934393  0.117630  0.751744  1
  Pt  Pt30  1  0.565636  0.619013  0.248747  1
  Pt  Pt31  1  0.063220  0.879929  0.248657  1
  Pt  Pt32  1  0.662727  0.857874  0.751598  1
  Pt  Pt33  1  0.163979  0.642638  0.751250  1
  Pt  Pt34  1  0.336098  0.142619  0.249369  1
  Pt  Pt35  1  0.835510  0.358807  0.248904  1
