# generated using pymatgen
data_Yb2YTm(Pt2O7)2
_symmetry_space_group_name_H-M   'P 1'
_cell_length_a   7.24696127
_cell_length_b   7.22512763
_cell_length_c   7.24696035
_cell_angle_alpha   60.15756759
_cell_angle_beta   60.15794254
_cell_angle_gamma   60.15757055
_symmetry_Int_Tables_number   1
_chemical_formula_structural   Yb2YTm(Pt2O7)2
_chemical_formula_sum   'Yb2 Y1 Tm1 Pt4 O14'
_cell_volume   269.27173743
_cell_formula_units_Z   1
loop_
 _symmetry_equiv_pos_site_id
 _symmetry_equiv_pos_as_xyz
  1  'x, y, z'
loop_
 _atom_site_type_symbol
 _atom_site_label
 _atom_site_symmetry_multiplicity
 _atom_site_fract_x
 _atom_site_fract_y
 _atom_site_fract_z
 _atom_site_occupancy
  Yb  Yb0  1  0.625000  0.625000  0.125000  1
  Yb  Yb1  1  0.125000  0.625000  0.625000  1
  Y  Y2  1  0.625000  0.625000  0.625000  1
  Tm  Tm3  1  0.625000  0.125000  0.625000  1
  Pt  Pt4  1  0.125000  0.125000  0.125000  1
  Pt  Pt5  1  0.625000  0.125000  0.125000  1
  Pt  Pt6  1  0.125000  0.625000  0.125000  1
  Pt  Pt7  1  0.125000  0.125000  0.625000  1
  O  O8  1  0.035305  0.459660  0.460734  1
  O  O9  1  0.789266  0.790340  0.214695  1
  O  O10  1  0.788777  0.203036  0.219012  1
  O  O11  1  0.462630  0.040890  0.462630  1
  O  O12  1  0.030988  0.046964  0.461223  1
  O  O13  1  0.040238  0.459396  0.040238  1
  O  O14  1  0.744339  0.759118  0.744339  1
  O  O15  1  0.505661  0.490882  0.505661  1
  O  O16  1  0.787370  0.209110  0.787370  1
  O  O17  1  0.209762  0.790604  0.209762  1
  O  O18  1  0.219012  0.203036  0.788777  1
  O  O19  1  0.461223  0.046964  0.030988  1
  O  O20  1  0.460734  0.459660  0.035305  1
  O  O21  1  0.214695  0.790340  0.789266  1
