# generated using pymatgen
data_CsK5(AlTe3)2
_symmetry_space_group_name_H-M   'P 1'
_cell_length_a   14.59173034
_cell_length_b   8.81924595
_cell_length_c   11.29157521
_cell_angle_alpha   52.83433523
_cell_angle_beta   89.18535333
_cell_angle_gamma   89.05574129
_symmetry_Int_Tables_number   1
_chemical_formula_structural   CsK5(AlTe3)2
_chemical_formula_sum   'Cs2 K10 Al4 Te12'
_cell_volume   1157.78282392
_cell_formula_units_Z   2
loop_
 _symmetry_equiv_pos_site_id
 _symmetry_equiv_pos_as_xyz
  1  'x, y, z'
loop_
 _atom_site_type_symbol
 _atom_site_label
 _atom_site_symmetry_multiplicity
 _atom_site_fract_x
 _atom_site_fract_y
 _atom_site_fract_z
 _atom_site_occupancy
  Cs  Cs0  1  0.309842  0.164498  0.063369  1
  Cs  Cs1  1  0.690158  0.835502  0.936631  1
  K  K2  1  0.814701  0.846856  0.433043  1
  K  K3  1  0.895255  0.315240  0.403578  1
  K  K4  1  0.614309  0.358572  0.474703  1
  K  K5  1  0.109067  0.639080  0.024834  1
  K  K6  1  0.385691  0.641428  0.525297  1
  K  K7  1  0.890933  0.360920  0.975166  1
  K  K8  1  0.611344  0.301652  0.910801  1
  K  K9  1  0.104745  0.684760  0.596422  1
  K  K10  1  0.388656  0.698348  0.089199  1
  K  K11  1  0.185299  0.153144  0.566957  1
  Al  Al12  1  0.065700  0.941923  0.159924  1
  Al  Al13  1  0.566528  0.041553  0.346508  1
  Al  Al14  1  0.433472  0.958447  0.653492  1
  Al  Al15  1  0.934300  0.058077  0.840076  1
  Te  Te16  1  0.410098  0.197755  0.357362  1
  Te  Te17  1  0.903612  0.822587  0.139311  1
  Te  Te18  1  0.589902  0.802245  0.642638  1
  Te  Te19  1  0.096388  0.177413  0.860689  1
  Te  Te20  1  0.699063  0.293650  0.212601  1
  Te  Te21  1  0.189242  0.666850  0.304763  1
  Te  Te22  1  0.300937  0.706350  0.787399  1
  Te  Te23  1  0.810758  0.333150  0.695237  1
  Te  Te24  1  0.548846  0.854601  0.237135  1
  Te  Te25  1  0.054566  0.136394  0.265408  1
  Te  Te26  1  0.451154  0.145399  0.762865  1
  Te  Te27  1  0.945434  0.863606  0.734592  1
