# generated using pymatgen
data_Zr4Nb3Si3MoP
_symmetry_space_group_name_H-M   'P 1'
_cell_length_a   3.60366500
_cell_length_b   7.01323494
_cell_length_c   8.42477005
_cell_angle_alpha   89.76330680
_cell_angle_beta   90.00000000
_cell_angle_gamma   90.00000000
_symmetry_Int_Tables_number   1
_chemical_formula_structural   Zr4Nb3Si3MoP
_chemical_formula_sum   'Zr4 Nb3 Si3 Mo1 P1'
_cell_volume   212.92033933
_cell_formula_units_Z   1
loop_
 _symmetry_equiv_pos_site_id
 _symmetry_equiv_pos_as_xyz
  1  'x, y, z'
loop_
 _atom_site_type_symbol
 _atom_site_label
 _atom_site_symmetry_multiplicity
 _atom_site_fract_x
 _atom_site_fract_y
 _atom_site_fract_z
 _atom_site_occupancy
  Zr  Zr0  1  0.250000  0.041259  0.334804  1
  Zr  Zr1  1  0.250000  0.542633  0.170943  1
  Zr  Zr2  1  0.750000  0.958717  0.667016  1
  Zr  Zr3  1  0.750000  0.457279  0.831703  1
  Nb  Nb4  1  0.250000  0.133501  0.939441  1
  Nb  Nb5  1  0.250000  0.631485  0.556097  1
  Nb  Nb6  1  0.750000  0.867050  0.063788  1
  Si  Si7  1  0.250000  0.257733  0.634703  1
  Si  Si8  1  0.250000  0.754455  0.860353  1
  Si  Si9  1  0.750000  0.246328  0.142125  1
  Mo  Mo10  1  0.750000  0.367703  0.439029  1
  P  P11  1  0.750000  0.741856  0.359997  1
