# generated using pymatgen
data_Zn20(AgPt)3
_symmetry_space_group_name_H-M   'P 1'
_cell_length_a   8.02028736
_cell_length_b   8.02028731
_cell_length_c   7.95692103
_cell_angle_alpha   70.83199492
_cell_angle_beta   70.83198859
_cell_angle_gamma   109.56136282
_symmetry_Int_Tables_number   1
_chemical_formula_structural   Zn20(AgPt)3
_chemical_formula_sum   'Zn20 Ag3 Pt3'
_cell_volume   396.49205996
_cell_formula_units_Z   1
loop_
 _symmetry_equiv_pos_site_id
 _symmetry_equiv_pos_as_xyz
  1  'x, y, z'
loop_
 _atom_site_type_symbol
 _atom_site_label
 _atom_site_symmetry_multiplicity
 _atom_site_fract_x
 _atom_site_fract_y
 _atom_site_fract_z
 _atom_site_occupancy
  Zn  Zn0  1  0.002510  0.002510  0.787817  1
  Zn  Zn1  1  0.774367  0.774367  0.222196  1
  Zn  Zn2  1  0.217327  0.000185  0.993567  1
  Zn  Zn3  1  0.000185  0.217327  0.993567  1
  Zn  Zn4  1  0.278448  0.278448  0.380520  1
  Zn  Zn5  1  0.001863  0.722306  0.653183  1
  Zn  Zn6  1  0.722306  0.001863  0.653183  1
  Zn  Zn7  1  0.650370  0.650370  0.630672  1
  Zn  Zn8  1  0.378474  0.647493  0.352443  1
  Zn  Zn9  1  0.647493  0.378474  0.352443  1
  Zn  Zn10  1  0.349064  0.729027  0.995849  1
  Zn  Zn11  1  0.613108  0.262226  0.736884  1
  Zn  Zn12  1  0.355030  0.004272  0.269946  1
  Zn  Zn13  1  0.729027  0.349064  0.995849  1
  Zn  Zn14  1  0.004272  0.355030  0.269946  1
  Zn  Zn15  1  0.262226  0.613108  0.736884  1
  Zn  Zn16  1  0.648327  0.648327  0.985938  1
  Zn  Zn17  1  0.005195  0.654452  0.348185  1
  Zn  Zn18  1  0.654452  0.005195  0.348185  1
  Zn  Zn19  1  0.357885  0.357885  0.005345  1
  Ag  Ag20  1  0.996204  0.361944  0.627945  1
  Ag  Ag21  1  0.361944  0.996204  0.627945  1
  Ag  Ag22  1  0.001609  0.001609  0.349754  1
  Pt  Pt23  1  0.355056  0.355056  0.658828  1
  Pt  Pt24  1  0.645453  0.987805  0.011460  1
  Pt  Pt25  1  0.987805  0.645453  0.011460  1
