# generated using pymatgen
data_Tb4Si3Rh4
_symmetry_space_group_name_H-M   'P 1'
_cell_length_a   10.73465779
_cell_length_b   10.73465714
_cell_length_c   7.75176986
_cell_angle_alpha   71.41254619
_cell_angle_beta   71.41254785
_cell_angle_gamma   29.83979708
_symmetry_Int_Tables_number   1
_chemical_formula_structural   Tb4Si3Rh4
_chemical_formula_sum   'Tb8 Si6 Rh8'
_cell_volume   419.58586763
_cell_formula_units_Z   2
loop_
 _symmetry_equiv_pos_site_id
 _symmetry_equiv_pos_as_xyz
  1  'x, y, z'
loop_
 _atom_site_type_symbol
 _atom_site_label
 _atom_site_symmetry_multiplicity
 _atom_site_fract_x
 _atom_site_fract_y
 _atom_site_fract_z
 _atom_site_occupancy
  Tb  Tb0  1  0.788841  0.550554  0.599597  1
  Tb  Tb1  1  0.449446  0.211159  0.900403  1
  Tb  Tb2  1  0.211159  0.449446  0.400403  1
  Tb  Tb3  1  0.550554  0.788841  0.099597  1
  Tb  Tb4  1  0.791780  0.072976  0.169491  1
  Tb  Tb5  1  0.927024  0.208220  0.330509  1
  Tb  Tb6  1  0.208220  0.927024  0.830509  1
  Tb  Tb7  1  0.072976  0.791780  0.669491  1
  Si  Si8  1  0.951737  0.703285  0.057416  1
  Si  Si9  1  0.296715  0.048263  0.442584  1
  Si  Si10  1  0.048263  0.296715  0.942584  1
  Si  Si11  1  0.703285  0.951737  0.557416  1
  Si  Si12  1  0.632864  0.367136  0.750000  1
  Si  Si13  1  0.367136  0.632864  0.250000  1
  Rh  Rh14  1  0.576389  0.298366  0.520784  1
  Rh  Rh15  1  0.701634  0.423611  0.979216  1
  Rh  Rh16  1  0.423611  0.701634  0.479216  1
  Rh  Rh17  1  0.298366  0.576389  0.020784  1
  Rh  Rh18  1  0.630244  0.928420  0.310414  1
  Rh  Rh19  1  0.071580  0.369756  0.189586  1
  Rh  Rh20  1  0.369756  0.071580  0.689586  1
  Rh  Rh21  1  0.928420  0.630244  0.810414  1
