# generated using pymatgen
data_Yb2(AlAg2)3
_symmetry_space_group_name_H-M   'P 1'
_cell_length_a   8.75955299
_cell_length_b   8.75955220
_cell_length_c   8.75955344
_cell_angle_alpha   57.84020099
_cell_angle_beta   57.84020301
_cell_angle_gamma   57.84019716
_symmetry_Int_Tables_number   1
_chemical_formula_structural   Yb2(AlAg2)3
_chemical_formula_sum   'Yb4 Al6 Ag12'
_cell_volume   451.69342136
_cell_formula_units_Z   2
loop_
 _symmetry_equiv_pos_site_id
 _symmetry_equiv_pos_as_xyz
  1  'x, y, z'
loop_
 _atom_site_type_symbol
 _atom_site_label
 _atom_site_symmetry_multiplicity
 _atom_site_fract_x
 _atom_site_fract_y
 _atom_site_fract_z
 _atom_site_occupancy
  Yb  Yb0  1  0.906792  0.906792  0.906792  1
  Yb  Yb1  1  0.406792  0.406792  0.406792  1
  Yb  Yb2  1  0.093208  0.093208  0.093208  1
  Yb  Yb3  1  0.593208  0.593208  0.593208  1
  Al  Al4  1  0.563045  0.750000  0.936955  1
  Al  Al5  1  0.936955  0.563045  0.750000  1
  Al  Al6  1  0.750000  0.936955  0.563045  1
  Al  Al7  1  0.436955  0.250000  0.063045  1
  Al  Al8  1  0.063045  0.436955  0.250000  1
  Al  Al9  1  0.250000  0.063045  0.436955  1
  Ag  Ag10  1  0.478807  0.860222  0.205075  1
  Ag  Ag11  1  0.205075  0.478807  0.860222  1
  Ag  Ag12  1  0.860222  0.205075  0.478807  1
  Ag  Ag13  1  0.705075  0.360222  0.978807  1
  Ag  Ag14  1  0.978807  0.705075  0.360222  1
  Ag  Ag15  1  0.360222  0.978807  0.705075  1
  Ag  Ag16  1  0.521193  0.139778  0.794925  1
  Ag  Ag17  1  0.794925  0.521193  0.139778  1
  Ag  Ag18  1  0.139778  0.794925  0.521193  1
  Ag  Ag19  1  0.294925  0.639778  0.021193  1
  Ag  Ag20  1  0.021193  0.294925  0.639778  1
  Ag  Ag21  1  0.639778  0.021193  0.294925  1
