# generated using pymatgen
data_Y3In3HgPdPt
_symmetry_space_group_name_H-M   'P 1'
_cell_length_a   7.95946800
_cell_length_b   7.95946794
_cell_length_c   3.76711800
_cell_angle_alpha   90.00000000
_cell_angle_beta   90.00000000
_cell_angle_gamma   119.99999193
_symmetry_Int_Tables_number   1
_chemical_formula_structural   Y3In3HgPdPt
_chemical_formula_sum   'Y3 In3 Hg1 Pd1 Pt1'
_cell_volume   206.68452930
_cell_formula_units_Z   1
loop_
 _symmetry_equiv_pos_site_id
 _symmetry_equiv_pos_as_xyz
  1  'x, y, z'
loop_
 _atom_site_type_symbol
 _atom_site_label
 _atom_site_symmetry_multiplicity
 _atom_site_fract_x
 _atom_site_fract_y
 _atom_site_fract_z
 _atom_site_occupancy
  Y  Y0  1  0.393661  0.414689  0.500000  1
  Y  Y1  1  0.585311  0.978972  0.500000  1
  Y  Y2  1  0.021028  0.606339  0.500000  1
  In  In3  1  0.741875  0.743117  0.000000  1
  In  In4  1  0.256883  0.998757  0.000000  1
  In  In5  1  0.001243  0.258125  0.000000  1
  Hg  Hg6  1  0.666667  0.333333  0.000000  1
  Pd  Pd7  1  0.000000  0.000000  0.500000  1
  Pt  Pt8  1  0.333333  0.666667  0.000000  1
