# generated using pymatgen
data_Lu3ZrAl16(SiRh3)2
_symmetry_space_group_name_H-M   'P 1'
_cell_length_a   7.48803628
_cell_length_b   7.47377378
_cell_length_c   9.26409900
_cell_angle_alpha   90.00000000
_cell_angle_beta   90.00000000
_cell_angle_gamma   119.46757711
_symmetry_Int_Tables_number   1
_chemical_formula_structural   Lu3ZrAl16(SiRh3)2
_chemical_formula_sum   'Lu3 Zr1 Al16 Si2 Rh6'
_cell_volume   451.38466976
_cell_formula_units_Z   1
loop_
 _symmetry_equiv_pos_site_id
 _symmetry_equiv_pos_as_xyz
  1  'x, y, z'
loop_
 _atom_site_type_symbol
 _atom_site_label
 _atom_site_symmetry_multiplicity
 _atom_site_fract_x
 _atom_site_fract_y
 _atom_site_fract_z
 _atom_site_occupancy
  Lu  Lu0  1  0.006116  0.321676  0.750000  1
  Lu  Lu1  1  0.676568  0.994250  0.250000  1
  Lu  Lu2  1  0.323825  0.006860  0.750000  1
  Zr  Zr3  1  0.993174  0.675579  0.250000  1
  Al  Al4  1  0.000081  0.338702  0.079274  1
  Al  Al5  1  0.000627  0.663773  0.926498  1
  Al  Al6  1  0.000627  0.663773  0.573502  1
  Al  Al7  1  0.334392  0.998767  0.419892  1
  Al  Al8  1  0.000081  0.338702  0.420726  1
  Al  Al9  1  0.662884  0.999006  0.577266  1
  Al  Al10  1  0.662884  0.999006  0.922734  1
  Al  Al11  1  0.334392  0.998767  0.080108  1
  Al  Al12  1  0.335298  0.335344  0.555143  1
  Al  Al13  1  0.668020  0.666069  0.440375  1
  Al  Al14  1  0.668020  0.666069  0.059625  1
  Al  Al15  1  0.335298  0.335344  0.944857  1
  Al  Al16  1  0.332575  0.552246  0.250000  1
  Al  Al17  1  0.665231  0.450831  0.750000  1
  Al  Al18  1  0.555721  0.338485  0.250000  1
  Al  Al19  1  0.447237  0.662640  0.750000  1
  Si  Si20  1  0.124279  0.123003  0.250000  1
  Si  Si21  1  0.870319  0.868846  0.750000  1
  Rh  Rh22  1  0.672704  0.327743  0.000479  1
  Rh  Rh23  1  0.328740  0.673082  0.001047  1
  Rh  Rh24  1  0.328740  0.673082  0.498953  1
  Rh  Rh25  1  0.672704  0.327743  0.499521  1
  Rh  Rh26  1  0.999730  0.000307  0.000426  1
  Rh  Rh27  1  0.999730  0.000307  0.499574  1
