# generated using pymatgen
data_Ho2TmIn3Ag2Au
_symmetry_space_group_name_H-M   'P 1'
_cell_length_a   7.83067200
_cell_length_b   7.84359639
_cell_length_c   3.91548800
_cell_angle_alpha   90.00000000
_cell_angle_beta   90.00000000
_cell_angle_gamma   120.04543516
_symmetry_Int_Tables_number   1
_chemical_formula_structural   Ho2TmIn3Ag2Au
_chemical_formula_sum   'Ho2 Tm1 In3 Ag2 Au1'
_cell_volume   208.17653839
_cell_formula_units_Z   1
loop_
 _symmetry_equiv_pos_site_id
 _symmetry_equiv_pos_as_xyz
  1  'x, y, z'
loop_
 _atom_site_type_symbol
 _atom_site_label
 _atom_site_symmetry_multiplicity
 _atom_site_fract_x
 _atom_site_fract_y
 _atom_site_fract_z
 _atom_site_occupancy
  Ho  Ho0  1  0.590780  0.992814  0.500000  1
  Ho  Ho1  1  0.401974  0.409338  0.500000  1
  Tm  Tm2  1  0.007556  0.598301  0.500000  1
  In  In3  1  0.993982  0.259086  0.000000  1
  In  In4  1  0.741471  0.734577  0.000000  1
  In  In5  1  0.264809  0.005769  0.000000  1
  Ag  Ag6  1  0.667820  0.334165  0.000000  1
  Ag  Ag7  1  0.000006  0.999621  0.500000  1
  Au  Au8  1  0.331605  0.666329  0.000000  1
