# generated using pymatgen
data_Ta5NbCo4(MoN)2
_symmetry_space_group_name_H-M   'P 1'
_cell_length_a   8.12450802
_cell_length_b   8.12450821
_cell_length_c   8.12994400
_cell_angle_alpha   59.97786519
_cell_angle_beta   59.97786439
_cell_angle_gamma   60.04427691
_symmetry_Int_Tables_number   1
_chemical_formula_structural   Ta5NbCo4(MoN)2
_chemical_formula_sum   'Ta10 Nb2 Co8 Mo4 N4'
_cell_volume   379.46029673
_cell_formula_units_Z   2
loop_
 _symmetry_equiv_pos_site_id
 _symmetry_equiv_pos_as_xyz
  1  'x, y, z'
loop_
 _atom_site_type_symbol
 _atom_site_label
 _atom_site_symmetry_multiplicity
 _atom_site_fract_x
 _atom_site_fract_y
 _atom_site_fract_z
 _atom_site_occupancy
  Ta  Ta0  1  0.809231  0.190769  0.809231  1
  Ta  Ta1  1  0.190769  0.809231  0.190769  1
  Ta  Ta2  1  0.190769  0.809231  0.809231  1
  Ta  Ta3  1  0.809231  0.190769  0.190769  1
  Ta  Ta4  1  0.441902  0.441902  0.058098  1
  Ta  Ta5  1  0.058098  0.058098  0.441902  1
  Ta  Ta6  1  0.439315  0.060685  0.439315  1
  Ta  Ta7  1  0.060685  0.439315  0.060685  1
  Ta  Ta8  1  0.060685  0.439315  0.439315  1
  Ta  Ta9  1  0.439315  0.060685  0.060685  1
  Nb  Nb10  1  0.811452  0.811452  0.188548  1
  Nb  Nb11  1  0.188548  0.188548  0.811452  1
  Co  Co12  1  0.734838  0.419933  0.422614  1
  Co  Co13  1  0.419933  0.734838  0.422614  1
  Co  Co14  1  0.422614  0.422614  0.734838  1
  Co  Co15  1  0.422614  0.422614  0.419933  1
  Co  Co16  1  0.516249  0.826145  0.828803  1
  Co  Co17  1  0.826145  0.516249  0.828803  1
  Co  Co18  1  0.828803  0.828803  0.516249  1
  Co  Co19  1  0.828803  0.828803  0.826145  1
  Mo  Mo20  1  0.124930  0.623295  0.625887  1
  Mo  Mo21  1  0.623295  0.124930  0.625887  1
  Mo  Mo22  1  0.625887  0.625887  0.124930  1
  Mo  Mo23  1  0.625887  0.625887  0.623295  1
  N  N24  1  0.623423  0.127685  0.124446  1
  N  N25  1  0.127685  0.623423  0.124446  1
  N  N26  1  0.124446  0.124446  0.623423  1
  N  N27  1  0.124446  0.124446  0.127685  1
