# generated using pymatgen
data_CeY(Si7Ir3)2
_symmetry_space_group_name_H-M   'P 1'
_cell_length_a   8.07537343
_cell_length_b   8.07537430
_cell_length_c   8.07537366
_cell_angle_alpha   56.53353637
_cell_angle_beta   56.53353938
_cell_angle_gamma   56.53353679
_symmetry_Int_Tables_number   1
_chemical_formula_structural   CeY(Si7Ir3)2
_chemical_formula_sum   'Ce1 Y1 Si14 Ir6'
_cell_volume   342.53819153
_cell_formula_units_Z   1
loop_
 _symmetry_equiv_pos_site_id
 _symmetry_equiv_pos_as_xyz
  1  'x, y, z'
loop_
 _atom_site_type_symbol
 _atom_site_label
 _atom_site_symmetry_multiplicity
 _atom_site_fract_x
 _atom_site_fract_y
 _atom_site_fract_z
 _atom_site_occupancy
  Ce  Ce0  1  0.000000  0.000000  0.000000  1
  Y  Y1  1  0.500000  0.500000  0.500000  1
  Si  Si2  1  0.850403  0.063892  0.672308  1
  Si  Si3  1  0.672308  0.850403  0.063892  1
  Si  Si4  1  0.063892  0.672308  0.850403  1
  Si  Si5  1  0.649013  0.827491  0.435752  1
  Si  Si6  1  0.249916  0.249916  0.249916  1
  Si  Si7  1  0.750084  0.750084  0.750084  1
  Si  Si8  1  0.172509  0.564248  0.350987  1
  Si  Si9  1  0.564248  0.350987  0.172509  1
  Si  Si10  1  0.350987  0.172509  0.564248  1
  Si  Si11  1  0.936108  0.327692  0.149597  1
  Si  Si12  1  0.327692  0.149597  0.936108  1
  Si  Si13  1  0.149597  0.936108  0.327692  1
  Si  Si14  1  0.827491  0.435752  0.649013  1
  Si  Si15  1  0.435752  0.649013  0.827491  1
  Ir  Ir16  1  0.749036  0.070172  0.431563  1
  Ir  Ir17  1  0.431563  0.749036  0.070172  1
  Ir  Ir18  1  0.070172  0.431563  0.749036  1
  Ir  Ir19  1  0.250964  0.929828  0.568437  1
  Ir  Ir20  1  0.568437  0.250964  0.929828  1
  Ir  Ir21  1  0.929828  0.568437  0.250964  1
