# generated using pymatgen
data_SmTmRe6(Si2Mo)2
_symmetry_space_group_name_H-M   'P 1'
_cell_length_a   7.79271502
_cell_length_b   7.06051142
_cell_length_c   4.20831800
_cell_angle_alpha   90.00000000
_cell_angle_beta   90.00000000
_cell_angle_gamma   90.58124443
_symmetry_Int_Tables_number   1
_chemical_formula_structural   SmTmRe6(Si2Mo)2
_chemical_formula_sum   'Sm1 Tm1 Re6 Si4 Mo2'
_cell_volume   231.53207082
_cell_formula_units_Z   1
loop_
 _symmetry_equiv_pos_site_id
 _symmetry_equiv_pos_as_xyz
  1  'x, y, z'
loop_
 _atom_site_type_symbol
 _atom_site_label
 _atom_site_symmetry_multiplicity
 _atom_site_fract_x
 _atom_site_fract_y
 _atom_site_fract_z
 _atom_site_occupancy
  Sm  Sm0  1  0.000000  0.000000  0.500000  1
  Tm  Tm1  1  0.500000  0.500000  0.000000  1
  Re  Re2  1  0.607026  0.156233  0.500000  1
  Re  Re3  1  0.392974  0.843767  0.500000  1
  Re  Re4  1  0.165266  0.580080  0.500000  1
  Re  Re5  1  0.834734  0.419920  0.500000  1
  Re  Re6  1  0.344841  0.081868  0.000000  1
  Re  Re7  1  0.655159  0.918132  0.000000  1
  Si  Si8  1  0.688163  0.726400  0.500000  1
  Si  Si9  1  0.311837  0.273600  0.500000  1
  Si  Si10  1  0.193755  0.772207  0.000000  1
  Si  Si11  1  0.806245  0.227793  0.000000  1
  Mo  Mo12  1  0.112367  0.348568  0.000000  1
  Mo  Mo13  1  0.887633  0.651432  0.000000  1
