# generated using pymatgen
data_Dy3YTh6(Ge3C)2
_symmetry_space_group_name_H-M   'P 1'
_cell_length_a   6.40659100
_cell_length_b   8.82385055
_cell_length_c   8.82403100
_cell_angle_alpha   119.99928881
_cell_angle_beta   90.00002193
_cell_angle_gamma   89.99997480
_symmetry_Int_Tables_number   1
_chemical_formula_structural   Dy3YTh6(Ge3C)2
_chemical_formula_sum   'Dy3 Y1 Th6 Ge6 C2'
_cell_volume   432.00215409
_cell_formula_units_Z   1
loop_
 _symmetry_equiv_pos_site_id
 _symmetry_equiv_pos_as_xyz
  1  'x, y, z'
loop_
 _atom_site_type_symbol
 _atom_site_label
 _atom_site_symmetry_multiplicity
 _atom_site_fract_x
 _atom_site_fract_y
 _atom_site_fract_z
 _atom_site_occupancy
  Dy  Dy0  1  0.499999  0.666660  0.333335  1
  Dy  Dy1  1  0.999999  0.666677  0.333335  1
  Dy  Dy2  1  0.999999  0.333340  0.666665  1
  Y  Y3  1  0.499999  0.333323  0.666665  1
  Th  Th4  1  0.749975  0.231274  0.999999  1
  Th  Th5  1  0.750012  0.768680  0.768765  1
  Th  Th6  1  0.750012  0.999918  0.231236  1
  Th  Th7  1  0.249975  0.768724  0.999999  1
  Th  Th8  1  0.250012  0.231318  0.231236  1
  Th  Th9  1  0.250012  0.000085  0.768765  1
  Ge  Ge10  1  0.749807  0.598002  0.000001  1
  Ge  Ge11  1  0.750119  0.401904  0.401929  1
  Ge  Ge12  1  0.750119  0.999972  0.598069  1
  Ge  Ge13  1  0.249780  0.401999  0.000001  1
  Ge  Ge14  1  0.250092  0.598097  0.598069  1
  Ge  Ge15  1  0.250092  0.000025  0.401929  1
  C  C16  1  0.499999  0.999971  0.000000  1
  C  C17  1  0.999999  0.000029  0.000000  1
