# generated using pymatgen
data_Bi3PtO7
_symmetry_space_group_name_H-M   'P 1'
_cell_length_a   6.56408292
_cell_length_b   6.98515063
_cell_length_c   7.53745315
_cell_angle_alpha   105.65839709
_cell_angle_beta   89.88208738
_cell_angle_gamma   102.17659362
_symmetry_Int_Tables_number   1
_chemical_formula_structural   Bi3PtO7
_chemical_formula_sum   'Bi6 Pt2 O14'
_cell_volume   324.73469247
_cell_formula_units_Z   2
loop_
 _symmetry_equiv_pos_site_id
 _symmetry_equiv_pos_as_xyz
  1  'x, y, z'
loop_
 _atom_site_type_symbol
 _atom_site_label
 _atom_site_symmetry_multiplicity
 _atom_site_fract_x
 _atom_site_fract_y
 _atom_site_fract_z
 _atom_site_occupancy
  Bi  Bi0  1  0.531871  0.006466  0.746105  1
  Bi  Bi1  1  0.468129  0.993534  0.253895  1
  Bi  Bi2  1  0.265010  0.507192  0.874921  1
  Bi  Bi3  1  0.734990  0.492808  0.125079  1
  Bi  Bi4  1  0.757847  0.544418  0.635537  1
  Bi  Bi5  1  0.242153  0.455582  0.364463  1
  Pt  Pt6  1  0.000000  0.000000  0.500000  1
  Pt  Pt7  1  0.000000  0.000000  0.000000  1
  O  O8  1  0.464784  0.643048  0.173804  1
  O  O9  1  0.535216  0.356952  0.826196  1
  O  O10  1  0.288092  0.944946  0.960049  1
  O  O11  1  0.711908  0.055054  0.039951  1
  O  O12  1  0.285491  0.941878  0.510800  1
  O  O13  1  0.714509  0.058122  0.489200  1
  O  O14  1  0.526962  0.339472  0.347145  1
  O  O15  1  0.473038  0.660528  0.652855  1
  O  O16  1  0.893826  0.693873  0.951742  1
  O  O17  1  0.106174  0.306127  0.048258  1
  O  O18  1  0.102550  0.306680  0.606797  1
  O  O19  1  0.897450  0.693320  0.393203  1
  O  O20  1  0.896989  0.921148  0.730251  1
  O  O21  1  0.103011  0.078852  0.269749  1
