# generated using pymatgen
data_KTbUSe6
_symmetry_space_group_name_H-M   'P 1'
_cell_length_a   11.59903544
_cell_length_b   11.59903723
_cell_length_c   11.59903675
_cell_angle_alpha   159.55031675
_cell_angle_beta   152.21389007
_cell_angle_gamma   34.74734256
_symmetry_Int_Tables_number   1
_chemical_formula_structural   KTbUSe6
_chemical_formula_sum   'K1 Tb1 U1 Se6'
_cell_volume   253.91202310
_cell_formula_units_Z   1
loop_
 _symmetry_equiv_pos_site_id
 _symmetry_equiv_pos_as_xyz
  1  'x, y, z'
loop_
 _atom_site_type_symbol
 _atom_site_label
 _atom_site_symmetry_multiplicity
 _atom_site_fract_x
 _atom_site_fract_y
 _atom_site_fract_z
 _atom_site_occupancy
  K  K0  1  0.998424  0.998424  0.000000  1
  Tb  Tb1  1  0.317088  0.817088  0.500000  1
  U  U2  1  0.682646  0.182646  0.500000  1
  Se  Se3  1  0.771683  0.771683  0.000000  1
  Se  Se4  1  0.847179  0.608356  0.238823  1
  Se  Se5  1  0.179683  0.395644  0.784039  1
  Se  Se6  1  0.222160  0.222160  0.000000  1
  Se  Se7  1  0.369532  0.608356  0.761177  1
  Se  Se8  1  0.611604  0.395644  0.215961  1
