# generated using pymatgen
data_Sr8Cd3Si12Ru
_symmetry_space_group_name_H-M   'P 1'
_cell_length_a   11.97519394
_cell_length_b   10.35994237
_cell_length_c   8.48339181
_cell_angle_alpha   78.18906870
_cell_angle_beta   57.86691505
_cell_angle_gamma   44.01084764
_symmetry_Int_Tables_number   1
_chemical_formula_structural   Sr8Cd3Si12Ru
_chemical_formula_sum   'Sr8 Cd3 Si12 Ru1'
_cell_volume   590.26341949
_cell_formula_units_Z   1
loop_
 _symmetry_equiv_pos_site_id
 _symmetry_equiv_pos_as_xyz
  1  'x, y, z'
loop_
 _atom_site_type_symbol
 _atom_site_label
 _atom_site_symmetry_multiplicity
 _atom_site_fract_x
 _atom_site_fract_y
 _atom_site_fract_z
 _atom_site_occupancy
  Sr  Sr0  1  0.135744  0.122320  0.859437  1
  Sr  Sr1  1  0.858865  0.883174  0.136191  1
  Sr  Sr2  1  0.139651  0.122347  0.372474  1
  Sr  Sr3  1  0.374209  0.365165  0.137674  1
  Sr  Sr4  1  0.616091  0.637931  0.378104  1
  Sr  Sr5  1  0.378295  0.367042  0.616724  1
  Sr  Sr6  1  0.630063  0.627139  0.870621  1
  Sr  Sr7  1  0.870125  0.872736  0.630682  1
  Cd  Cd8  1  0.083388  0.417192  0.083159  1
  Cd  Cd9  1  0.834447  0.168706  0.830868  1
  Cd  Cd10  1  0.166397  0.833624  0.166665  1
  Si  Si11  1  0.906922  0.597146  0.437026  1
  Si  Si12  1  0.093843  0.402699  0.579654  1
  Si  Si13  1  0.436971  0.059382  0.906733  1
  Si  Si14  1  0.579737  0.923639  0.093538  1
  Si  Si15  1  0.334990  0.653415  0.823599  1
  Si  Si16  1  0.660387  0.341272  0.180878  1
  Si  Si17  1  0.823726  0.186655  0.335542  1
  Si  Si18  1  0.178250  0.816569  0.662185  1
  Si  Si19  1  0.906226  0.592921  0.906992  1
  Si  Si20  1  0.576144  0.923802  0.576665  1
  Si  Si21  1  0.340741  0.659929  0.339840  1
  Si  Si22  1  0.658591  0.340994  0.659473  1
  Ru  Ru23  1  0.416201  0.084207  0.415271  1
