# generated using pymatgen
data_K4HfTe4
_symmetry_space_group_name_H-M   'P 1'
_cell_length_a   9.12280400
_cell_length_b   10.84015100
_cell_length_c   16.01018600
_cell_angle_alpha   90.00000000
_cell_angle_beta   90.00000000
_cell_angle_gamma   90.00000000
_symmetry_Int_Tables_number   1
_chemical_formula_structural   K4HfTe4
_chemical_formula_sum   'K16 Hf4 Te16'
_cell_volume   1583.28848620
_cell_formula_units_Z   4
loop_
 _symmetry_equiv_pos_site_id
 _symmetry_equiv_pos_as_xyz
  1  'x, y, z'
loop_
 _atom_site_type_symbol
 _atom_site_label
 _atom_site_symmetry_multiplicity
 _atom_site_fract_x
 _atom_site_fract_y
 _atom_site_fract_z
 _atom_site_occupancy
  K  K0  1  0.000000  0.000000  0.000000  1
  K  K1  1  0.500000  0.000000  0.500000  1
  K  K2  1  0.000000  0.500000  0.000000  1
  K  K3  1  0.500000  0.500000  0.500000  1
  K  K4  1  0.979968  0.750000  0.430367  1
  K  K5  1  0.479968  0.250000  0.069633  1
  K  K6  1  0.020032  0.250000  0.569633  1
  K  K7  1  0.520032  0.750000  0.930367  1
  K  K8  1  0.849374  0.051467  0.274269  1
  K  K9  1  0.349374  0.948533  0.225731  1
  K  K10  1  0.150626  0.551467  0.725731  1
  K  K11  1  0.650626  0.448533  0.774269  1
  K  K12  1  0.150626  0.948533  0.725731  1
  K  K13  1  0.650626  0.051467  0.774269  1
  K  K14  1  0.849374  0.448533  0.274269  1
  K  K15  1  0.349374  0.551467  0.225731  1
  Hf  Hf16  1  0.752627  0.750000  0.668642  1
  Hf  Hf17  1  0.247373  0.250000  0.331358  1
  Hf  Hf18  1  0.747373  0.750000  0.168642  1
  Hf  Hf19  1  0.252627  0.250000  0.831358  1
  Te  Te20  1  0.952687  0.250000  0.824880  1
  Te  Te21  1  0.547313  0.250000  0.324880  1
  Te  Te22  1  0.452687  0.750000  0.675120  1
  Te  Te23  1  0.047313  0.750000  0.175120  1
  Te  Te24  1  0.654843  0.541486  0.089007  1
  Te  Te25  1  0.154843  0.458514  0.410993  1
  Te  Te26  1  0.345157  0.041486  0.910993  1
  Te  Te27  1  0.845157  0.958514  0.589007  1
  Te  Te28  1  0.345157  0.458514  0.910993  1
  Te  Te29  1  0.845157  0.541486  0.589007  1
  Te  Te30  1  0.654843  0.958514  0.089007  1
  Te  Te31  1  0.154843  0.041486  0.410993  1
  Te  Te32  1  0.627960  0.750000  0.326593  1
  Te  Te33  1  0.127960  0.250000  0.173407  1
  Te  Te34  1  0.372040  0.250000  0.673407  1
  Te  Te35  1  0.872040  0.750000  0.826593  1
