# generated using pymatgen
data_LaNd3(Ga8Pd3)3
_symmetry_space_group_name_H-M   'P 1'
_cell_length_a   7.61303861
_cell_length_b   7.64190300
_cell_length_c   13.47277300
_cell_angle_alpha   84.91027926
_cell_angle_beta   100.42143148
_cell_angle_gamma   119.75391416
_symmetry_Int_Tables_number   1
_chemical_formula_structural   LaNd3(Ga8Pd3)3
_chemical_formula_sum   'La1 Nd3 Ga24 Pd9'
_cell_volume   669.25946450
_cell_formula_units_Z   1
loop_
 _symmetry_equiv_pos_site_id
 _symmetry_equiv_pos_as_xyz
  1  'x, y, z'
loop_
 _atom_site_type_symbol
 _atom_site_label
 _atom_site_symmetry_multiplicity
 _atom_site_fract_x
 _atom_site_fract_y
 _atom_site_fract_z
 _atom_site_occupancy
  La  La0  1  0.437445  0.831131  0.810020  1
  Nd  Nd1  1  0.562173  0.168408  0.189261  1
  Nd  Nd2  1  0.771604  0.502890  0.811122  1
  Nd  Nd3  1  0.228830  0.497459  0.189032  1
  Ga  Ga4  1  0.478761  0.168096  0.942310  1
  Ga  Ga5  1  0.522253  0.833445  0.059333  1
  Ga  Ga6  1  0.022207  0.165970  0.558132  1
  Ga  Ga7  1  0.977765  0.834151  0.441610  1
  Ga  Ga8  1  0.354449  0.833122  0.555500  1
  Ga  Ga9  1  0.645638  0.167172  0.443566  1
  Ga  Ga10  1  0.615989  0.835240  0.328509  1
  Ga  Ga11  1  0.383778  0.166874  0.670589  1
  Ga  Ga12  1  0.056769  0.492569  0.668765  1
  Ga  Ga13  1  0.940655  0.505310  0.329931  1
  Ga  Ga14  1  0.732629  0.838550  0.667481  1
  Ga  Ga15  1  0.269066  0.161579  0.331066  1
  Ga  Ga16  1  0.145373  0.496948  0.943529  1
  Ga  Ga17  1  0.853467  0.501621  0.057541  1
  Ga  Ga18  1  0.818219  0.833938  0.950213  1
  Ga  Ga19  1  0.183450  0.166032  0.051325  1
  Ga  Ga20  1  0.312460  0.500142  0.442527  1
  Ga  Ga21  1  0.687492  0.499772  0.557233  1
  Ga  Ga22  1  0.099382  0.836104  0.182680  1
  Ga  Ga23  1  0.902489  0.165701  0.817590  1
  Ga  Ga24  1  0.305886  0.365336  0.816571  1
  Ga  Ga25  1  0.693964  0.632003  0.183731  1
  Ga  Ga26  1  0.100404  0.962218  0.816660  1
  Ga  Ga27  1  0.897493  0.037948  0.183829  1
  Pd  Pd28  1  0.384854  0.502171  0.636687  1
  Pd  Pd29  1  0.614768  0.498460  0.363173  1
  Pd  Pd30  1  0.171518  0.830130  0.999264  1
  Pd  Pd31  1  0.828877  0.169870  0.001253  1
  Pd  Pd32  1  0.289783  0.832870  0.361992  1
  Pd  Pd33  1  0.709244  0.166106  0.637752  1
  Pd  Pd34  1  0.050498  0.829838  0.636601  1
  Pd  Pd35  1  0.950571  0.170614  0.363444  1
  Pd  Pd36  1  0.499803  0.500211  0.000182  1
