# generated using pymatgen
data_Er8Sc11Si16Tc
_symmetry_space_group_name_H-M   'P 1'
_cell_length_a   6.98366101
_cell_length_b   7.31923818
_cell_length_c   13.82523100
_cell_angle_alpha   90.00000000
_cell_angle_beta   90.00000000
_cell_angle_gamma   90.13675594
_symmetry_Int_Tables_number   1
_chemical_formula_structural   Er8Sc11Si16Tc
_chemical_formula_sum   'Er8 Sc11 Si16 Tc1'
_cell_volume   706.67575152
_cell_formula_units_Z   1
loop_
 _symmetry_equiv_pos_site_id
 _symmetry_equiv_pos_as_xyz
  1  'x, y, z'
loop_
 _atom_site_type_symbol
 _atom_site_label
 _atom_site_symmetry_multiplicity
 _atom_site_fract_x
 _atom_site_fract_y
 _atom_site_fract_z
 _atom_site_occupancy
  Er  Er0  1  0.012877  0.178419  0.093165  1
  Er  Er1  1  0.992046  0.817988  0.900675  1
  Er  Er2  1  0.487320  0.672744  0.902586  1
  Er  Er3  1  0.992046  0.817988  0.599325  1
  Er  Er4  1  0.512490  0.322835  0.095367  1
  Er  Er5  1  0.012877  0.178419  0.406835  1
  Er  Er6  1  0.512490  0.322835  0.404633  1
  Er  Er7  1  0.487320  0.672744  0.597414  1
  Sc  Sc8  1  0.843258  0.496368  0.250000  1
  Sc  Sc9  1  0.343616  0.004654  0.250000  1
  Sc  Sc10  1  0.655326  0.994700  0.750000  1
  Sc  Sc11  1  0.324175  0.177753  0.627556  1
  Sc  Sc12  1  0.673509  0.824234  0.374329  1
  Sc  Sc13  1  0.173316  0.674182  0.376730  1
  Sc  Sc14  1  0.673509  0.824234  0.125671  1
  Sc  Sc15  1  0.826307  0.331114  0.628719  1
  Sc  Sc16  1  0.324175  0.177753  0.872444  1
  Sc  Sc17  1  0.826307  0.331114  0.871281  1
  Sc  Sc18  1  0.173316  0.674182  0.123270  1
  Si  Si19  1  0.026797  0.117000  0.750000  1
  Si  Si20  1  0.974755  0.887339  0.250000  1
  Si  Si21  1  0.470644  0.614804  0.250000  1
  Si  Si22  1  0.516415  0.395824  0.750000  1
  Si  Si23  1  0.284006  0.859755  0.750000  1
  Si  Si24  1  0.718588  0.131351  0.250000  1
  Si  Si25  1  0.216217  0.369820  0.250000  1
  Si  Si26  1  0.792587  0.630708  0.750000  1
  Si  Si27  1  0.155665  0.466774  0.548041  1
  Si  Si28  1  0.842555  0.535390  0.463294  1
  Si  Si29  1  0.345767  0.965206  0.462897  1
  Si  Si30  1  0.842555  0.535390  0.036706  1
  Si  Si31  1  0.657917  0.034405  0.540014  1
  Si  Si32  1  0.155665  0.466774  0.951959  1
  Si  Si33  1  0.657917  0.034405  0.959986  1
  Si  Si34  1  0.345767  0.965206  0.037103  1
  Tc  Tc35  1  0.149901  0.495592  0.750000  1
