# generated using pymatgen
data_Ho8Cd2SnHgAu8
_symmetry_space_group_name_H-M   'P 1'
_cell_length_a   7.99480500
_cell_length_b   7.99480500
_cell_length_c   7.31823900
_cell_angle_alpha   90.00000000
_cell_angle_beta   90.00000000
_cell_angle_gamma   90.00000000
_symmetry_Int_Tables_number   1
_chemical_formula_structural   Ho8Cd2SnHgAu8
_chemical_formula_sum   'Ho8 Cd2 Sn1 Hg1 Au8'
_cell_volume   467.75920148
_cell_formula_units_Z   1
loop_
 _symmetry_equiv_pos_site_id
 _symmetry_equiv_pos_as_xyz
  1  'x, y, z'
loop_
 _atom_site_type_symbol
 _atom_site_label
 _atom_site_symmetry_multiplicity
 _atom_site_fract_x
 _atom_site_fract_y
 _atom_site_fract_z
 _atom_site_occupancy
  Ho  Ho0  1  0.844125  0.163159  0.500270  1
  Ho  Ho1  1  0.155875  0.836841  0.500270  1
  Ho  Ho2  1  0.336841  0.344125  0.999730  1
  Ho  Ho3  1  0.663159  0.655875  0.999730  1
  Ho  Ho4  1  0.685649  0.678434  0.500127  1
  Ho  Ho5  1  0.314351  0.321566  0.500127  1
  Ho  Ho6  1  0.178434  0.814351  0.999873  1
  Ho  Ho7  1  0.821566  0.185649  0.999873  1
  Cd  Cd8  1  0.500000  0.000000  0.250000  1
  Cd  Cd9  1  0.500000  0.000000  0.750000  1
  Sn  Sn10  1  0.000000  0.500000  0.250000  1
  Hg  Hg11  1  0.000000  0.500000  0.750000  1
  Au  Au12  1  0.623400  0.367170  0.273227  1
  Au  Au13  1  0.376600  0.632830  0.273227  1
  Au  Au14  1  0.131735  0.124775  0.772580  1
  Au  Au15  1  0.868265  0.875225  0.772580  1
  Au  Au16  1  0.375225  0.631735  0.727420  1
  Au  Au17  1  0.624775  0.368265  0.727420  1
  Au  Au18  1  0.867170  0.876600  0.226773  1
  Au  Au19  1  0.132830  0.123400  0.226773  1
