# generated using pymatgen
data_Y4ScAl3Ru4
_symmetry_space_group_name_H-M   'P 1'
_cell_length_a   7.10829354
_cell_length_b   4.06197900
_cell_length_c   8.25259728
_cell_angle_alpha   90.00000000
_cell_angle_beta   89.88441135
_cell_angle_gamma   90.00000000
_symmetry_Int_Tables_number   1
_chemical_formula_structural   Y4ScAl3Ru4
_chemical_formula_sum   'Y4 Sc1 Al3 Ru4'
_cell_volume   238.28285597
_cell_formula_units_Z   1
loop_
 _symmetry_equiv_pos_site_id
 _symmetry_equiv_pos_as_xyz
  1  'x, y, z'
loop_
 _atom_site_type_symbol
 _atom_site_label
 _atom_site_symmetry_multiplicity
 _atom_site_fract_x
 _atom_site_fract_y
 _atom_site_fract_z
 _atom_site_occupancy
  Y  Y0  1  0.981562  0.749999  0.185064  1
  Y  Y1  1  0.461642  0.749999  0.333949  1
  Y  Y2  1  0.530061  0.250000  0.675910  1
  Y  Y3  1  0.034609  0.250000  0.817686  1
  Sc  Sc4  1  0.636083  0.250000  0.057325  1
  Al  Al5  1  0.136730  0.250000  0.443684  1
  Al  Al6  1  0.863486  0.749999  0.554084  1
  Al  Al7  1  0.357376  0.749999  0.937072  1
  Ru  Ru8  1  0.272306  0.250000  0.126696  1
  Ru  Ru9  1  0.769614  0.250000  0.380032  1
  Ru  Ru10  1  0.223299  0.749999  0.623180  1
  Ru  Ru11  1  0.733235  0.749999  0.865316  1
