# generated using pymatgen
data_Pr5Sm(SbO7)2
_symmetry_space_group_name_H-M   'P 1'
_cell_length_a   6.73866600
_cell_length_b   6.71793357
_cell_length_c   7.75435500
_cell_angle_alpha   90.00000000
_cell_angle_beta   90.00000000
_cell_angle_gamma   108.61954246
_symmetry_Int_Tables_number   1
_chemical_formula_structural   Pr5Sm(SbO7)2
_chemical_formula_sum   'Pr5 Sm1 Sb2 O14'
_cell_volume   332.66542517
_cell_formula_units_Z   1
loop_
 _symmetry_equiv_pos_site_id
 _symmetry_equiv_pos_as_xyz
  1  'x, y, z'
loop_
 _atom_site_type_symbol
 _atom_site_label
 _atom_site_symmetry_multiplicity
 _atom_site_fract_x
 _atom_site_fract_y
 _atom_site_fract_z
 _atom_site_occupancy
  Pr  Pr0  1  0.475223  0.478222  0.500790  1
  Pr  Pr1  1  0.475223  0.478222  0.999210  1
  Pr  Pr2  1  0.537155  0.994957  0.750000  1
  Pr  Pr3  1  0.992660  0.537365  0.250000  1
  Pr  Pr4  1  0.471283  0.995640  0.250000  1
  Sm  Sm5  1  0.995208  0.471494  0.750000  1
  Sb  Sb6  1  0.002904  0.002293  0.501434  1
  Sb  Sb7  1  0.002904  0.002293  0.998566  1
  O  O8  1  0.692858  0.933669  0.471933  1
  O  O9  1  0.951102  0.695511  0.533048  1
  O  O10  1  0.692858  0.933669  0.028067  1
  O  O11  1  0.951102  0.695511  0.966952  1
  O  O12  1  0.316639  0.077026  0.527991  1
  O  O13  1  0.068172  0.315277  0.474373  1
  O  O14  1  0.316639  0.077026  0.972009  1
  O  O15  1  0.068172  0.315277  0.025627  1
  O  O16  1  0.941034  0.069407  0.750000  1
  O  O17  1  0.065080  0.940957  0.250000  1
  O  O18  1  0.359700  0.625064  0.750000  1
  O  O19  1  0.626761  0.367116  0.250000  1
  O  O20  1  0.638568  0.363593  0.750000  1
  O  O21  1  0.358756  0.630413  0.250000  1
