# generated using pymatgen
data_Li(Ac4Ir3)2
_symmetry_space_group_name_H-M   'P 1'
_cell_length_a   8.01254646
_cell_length_b   8.01254677
_cell_length_c   8.01254739
_cell_angle_alpha   69.55539101
_cell_angle_beta   69.55538627
_cell_angle_gamma   69.55537962
_symmetry_Int_Tables_number   1
_chemical_formula_structural   Li(Ac4Ir3)2
_chemical_formula_sum   'Li1 Ac8 Ir6'
_cell_volume   436.25195491
_cell_formula_units_Z   1
loop_
 _symmetry_equiv_pos_site_id
 _symmetry_equiv_pos_as_xyz
  1  'x, y, z'
loop_
 _atom_site_type_symbol
 _atom_site_label
 _atom_site_symmetry_multiplicity
 _atom_site_fract_x
 _atom_site_fract_y
 _atom_site_fract_z
 _atom_site_occupancy
  Li  Li0  1  0.000000  0.000000  0.000000  1
  Ac  Ac1  1  0.815603  0.815603  0.815603  1
  Ac  Ac2  1  0.184397  0.184397  0.184397  1
  Ac  Ac3  1  0.139779  0.384157  0.685553  1
  Ac  Ac4  1  0.685553  0.139779  0.384157  1
  Ac  Ac5  1  0.384157  0.685553  0.139779  1
  Ac  Ac6  1  0.860221  0.615843  0.314447  1
  Ac  Ac7  1  0.314447  0.860221  0.615843  1
  Ac  Ac8  1  0.615843  0.314447  0.860221  1
  Ir  Ir9  1  0.950335  0.184346  0.573303  1
  Ir  Ir10  1  0.573303  0.950335  0.184346  1
  Ir  Ir11  1  0.184346  0.573303  0.950335  1
  Ir  Ir12  1  0.049665  0.815654  0.426697  1
  Ir  Ir13  1  0.426697  0.049665  0.815654  1
  Ir  Ir14  1  0.815654  0.426697  0.049665  1
