# generated using pymatgen
data_Y3Lu6ScCd3Ni
_symmetry_space_group_name_H-M   'P 1'
_cell_length_a   9.48613800
_cell_length_b   9.48613881
_cell_length_c   9.46247100
_cell_angle_alpha   90.00000000
_cell_angle_beta   90.00000000
_cell_angle_gamma   119.99999021
_symmetry_Int_Tables_number   1
_chemical_formula_structural   Y3Lu6ScCd3Ni
_chemical_formula_sum   'Y6 Lu12 Sc2 Cd6 Ni2'
_cell_volume   737.41870498
_cell_formula_units_Z   2
loop_
 _symmetry_equiv_pos_site_id
 _symmetry_equiv_pos_as_xyz
  1  'x, y, z'
loop_
 _atom_site_type_symbol
 _atom_site_label
 _atom_site_symmetry_multiplicity
 _atom_site_fract_x
 _atom_site_fract_y
 _atom_site_fract_z
 _atom_site_occupancy
  Y  Y0  1  0.542174  0.457826  0.250000  1
  Y  Y1  1  0.542174  0.084347  0.250000  1
  Y  Y2  1  0.915653  0.457826  0.250000  1
  Y  Y3  1  0.457826  0.542174  0.750000  1
  Y  Y4  1  0.457826  0.915653  0.750000  1
  Y  Y5  1  0.084347  0.542174  0.750000  1
  Lu  Lu6  1  0.210419  0.789581  0.437766  1
  Lu  Lu7  1  0.210419  0.420838  0.437766  1
  Lu  Lu8  1  0.579162  0.789581  0.437766  1
  Lu  Lu9  1  0.789581  0.210419  0.562234  1
  Lu  Lu10  1  0.789581  0.579162  0.562234  1
  Lu  Lu11  1  0.420838  0.210419  0.562234  1
  Lu  Lu12  1  0.789581  0.210419  0.937766  1
  Lu  Lu13  1  0.789581  0.579162  0.937766  1
  Lu  Lu14  1  0.420838  0.210419  0.937766  1
  Lu  Lu15  1  0.210419  0.789581  0.062234  1
  Lu  Lu16  1  0.210419  0.420838  0.062234  1
  Lu  Lu17  1  0.579162  0.789581  0.062234  1
  Sc  Sc18  1  0.000000  0.000000  0.500000  1
  Sc  Sc19  1  0.000000  0.000000  0.000000  1
  Cd  Cd20  1  0.888350  0.111650  0.250000  1
  Cd  Cd21  1  0.888350  0.776700  0.250000  1
  Cd  Cd22  1  0.223300  0.111650  0.250000  1
  Cd  Cd23  1  0.111650  0.888350  0.750000  1
  Cd  Cd24  1  0.111650  0.223300  0.750000  1
  Cd  Cd25  1  0.776700  0.888350  0.750000  1
  Ni  Ni26  1  0.333333  0.666667  0.250000  1
  Ni  Ni27  1  0.666667  0.333333  0.750000  1
