# generated using pymatgen
data_Nd16Cd4CuTc3
_symmetry_space_group_name_H-M   'P 1'
_cell_length_a   9.88775015
_cell_length_b   10.01128802
_cell_length_c   10.01128700
_cell_angle_alpha   59.99999344
_cell_angle_beta   59.58582623
_cell_angle_gamma   59.58582899
_symmetry_Int_Tables_number   1
_chemical_formula_structural   Nd16Cd4CuTc3
_chemical_formula_sum   'Nd16 Cd4 Cu1 Tc3'
_cell_volume   696.32982608
_cell_formula_units_Z   1
loop_
 _symmetry_equiv_pos_site_id
 _symmetry_equiv_pos_as_xyz
  1  'x, y, z'
loop_
 _atom_site_type_symbol
 _atom_site_label
 _atom_site_symmetry_multiplicity
 _atom_site_fract_x
 _atom_site_fract_y
 _atom_site_fract_z
 _atom_site_occupancy
  Nd  Nd0  1  0.595054  0.600317  0.600317  1
  Nd  Nd1  1  0.595054  0.600317  0.204314  1
  Nd  Nd2  1  0.595054  0.204314  0.600317  1
  Nd  Nd3  1  0.211264  0.596245  0.596245  1
  Nd  Nd4  1  0.064611  0.440389  0.440389  1
  Nd  Nd5  1  0.440354  0.060109  0.060109  1
  Nd  Nd6  1  0.440354  0.060109  0.439428  1
  Nd  Nd7  1  0.064611  0.440389  0.054611  1
  Nd  Nd8  1  0.440354  0.439428  0.060109  1
  Nd  Nd9  1  0.064611  0.054611  0.440389  1
  Nd  Nd10  1  0.188521  0.810150  0.810150  1
  Nd  Nd11  1  0.806621  0.188399  0.188399  1
  Nd  Nd12  1  0.806621  0.188399  0.816582  1
  Nd  Nd13  1  0.188521  0.810150  0.191180  1
  Nd  Nd14  1  0.806621  0.816582  0.188399  1
  Nd  Nd15  1  0.188521  0.191180  0.810150  1
  Cd  Cd16  1  0.828404  0.829962  0.829962  1
  Cd  Cd17  1  0.828404  0.829962  0.511672  1
  Cd  Cd18  1  0.828404  0.511672  0.829962  1
  Cd  Cd19  1  0.510415  0.829862  0.829862  1
  Cu  Cu20  1  0.827059  0.390980  0.390980  1
  Tc  Tc21  1  0.393524  0.384296  0.384296  1
  Tc  Tc22  1  0.393524  0.384296  0.837886  1
  Tc  Tc23  1  0.393524  0.837886  0.384296  1
