# generated using pymatgen
data_Nd4AlGa3Pt4
_symmetry_space_group_name_H-M   'P 1'
_cell_length_a   4.48995400
_cell_length_b   7.13093895
_cell_length_c   7.91202313
_cell_angle_alpha   90.64897637
_cell_angle_beta   90.00000000
_cell_angle_gamma   90.00000000
_symmetry_Int_Tables_number   1
_chemical_formula_structural   Nd4AlGa3Pt4
_chemical_formula_sum   'Nd4 Al1 Ga3 Pt4'
_cell_volume   253.30764574
_cell_formula_units_Z   1
loop_
 _symmetry_equiv_pos_site_id
 _symmetry_equiv_pos_as_xyz
  1  'x, y, z'
loop_
 _atom_site_type_symbol
 _atom_site_label
 _atom_site_symmetry_multiplicity
 _atom_site_fract_x
 _atom_site_fract_y
 _atom_site_fract_z
 _atom_site_occupancy
  Nd  Nd0  1  0.750000  0.480240  0.196921  1
  Nd  Nd1  1  0.250000  0.020276  0.691532  1
  Nd  Nd2  1  0.750000  0.978831  0.307017  1
  Nd  Nd3  1  0.250000  0.524109  0.805089  1
  Al  Al4  1  0.250000  0.159888  0.070444  1
  Ga  Ga5  1  0.750000  0.837769  0.927344  1
  Ga  Ga6  1  0.250000  0.665894  0.427576  1
  Ga  Ga7  1  0.750000  0.332526  0.574145  1
  Pt  Pt8  1  0.750000  0.719134  0.599885  1
  Pt  Pt9  1  0.750000  0.219623  0.904584  1
  Pt  Pt10  1  0.250000  0.277095  0.393466  1
  Pt  Pt11  1  0.250000  0.784615  0.101997  1
