# generated using pymatgen
data_Tm5Lu15Cd6FeRu
_symmetry_space_group_name_H-M   'P 1'
_cell_length_a   9.36355561
_cell_length_b   9.36370296
_cell_length_c   9.65603600
_cell_angle_alpha   90.00000000
_cell_angle_beta   90.00000000
_cell_angle_gamma   119.93307348
_symmetry_Int_Tables_number   1
_chemical_formula_structural   Tm5Lu15Cd6FeRu
_chemical_formula_sum   'Tm5 Lu15 Cd6 Fe1 Ru1'
_cell_volume   733.68632060
_cell_formula_units_Z   1
loop_
 _symmetry_equiv_pos_site_id
 _symmetry_equiv_pos_as_xyz
  1  'x, y, z'
loop_
 _atom_site_type_symbol
 _atom_site_label
 _atom_site_symmetry_multiplicity
 _atom_site_fract_x
 _atom_site_fract_y
 _atom_site_fract_z
 _atom_site_occupancy
  Tm  Tm0  1  0.539858  0.079993  0.250000  1
  Tm  Tm1  1  0.919992  0.460101  0.250000  1
  Tm  Tm2  1  0.458715  0.541306  0.750000  1
  Tm  Tm3  1  0.458924  0.918330  0.750000  1
  Tm  Tm4  1  0.081605  0.541061  0.750000  1
  Lu  Lu5  1  0.000271  0.999726  0.499262  1
  Lu  Lu6  1  0.000271  0.999726  0.000738  1
  Lu  Lu7  1  0.212405  0.787578  0.437023  1
  Lu  Lu8  1  0.212790  0.424399  0.437049  1
  Lu  Lu9  1  0.575613  0.787220  0.437041  1
  Lu  Lu10  1  0.790451  0.209533  0.558187  1
  Lu  Lu11  1  0.789535  0.580472  0.557922  1
  Lu  Lu12  1  0.419534  0.210479  0.557921  1
  Lu  Lu13  1  0.790451  0.209533  0.941813  1
  Lu  Lu14  1  0.789535  0.580472  0.942078  1
  Lu  Lu15  1  0.419534  0.210479  0.942079  1
  Lu  Lu16  1  0.212405  0.787578  0.062977  1
  Lu  Lu17  1  0.212790  0.424399  0.062951  1
  Lu  Lu18  1  0.575613  0.787220  0.062959  1
  Lu  Lu19  1  0.539272  0.460748  0.250000  1
  Cd  Cd20  1  0.886131  0.113834  0.250000  1
  Cd  Cd21  1  0.884772  0.771697  0.250000  1
  Cd  Cd22  1  0.228288  0.115257  0.250000  1
  Cd  Cd23  1  0.113912  0.886101  0.750000  1
  Cd  Cd24  1  0.114352  0.227728  0.750000  1
  Cd  Cd25  1  0.772268  0.885655  0.750000  1
  Fe  Fe26  1  0.333842  0.666206  0.250000  1
  Ru  Ru27  1  0.666873  0.333170  0.750000  1
