# generated using pymatgen
data_Ta4CrGa3B
_symmetry_space_group_name_H-M   'P 1'
_cell_length_a   7.70713900
_cell_length_b   7.70713861
_cell_length_c   5.18747200
_cell_angle_alpha   90.00000000
_cell_angle_beta   90.00000000
_cell_angle_gamma   119.99999739
_symmetry_Int_Tables_number   1
_chemical_formula_structural   Ta4CrGa3B
_chemical_formula_sum   'Ta8 Cr2 Ga6 B2'
_cell_volume   266.85341802
_cell_formula_units_Z   2
loop_
 _symmetry_equiv_pos_site_id
 _symmetry_equiv_pos_as_xyz
  1  'x, y, z'
loop_
 _atom_site_type_symbol
 _atom_site_label
 _atom_site_symmetry_multiplicity
 _atom_site_fract_x
 _atom_site_fract_y
 _atom_site_fract_z
 _atom_site_occupancy
  Ta  Ta0  1  0.242912  0.000000  0.256737  1
  Ta  Ta1  1  0.757088  0.000000  0.743263  1
  Ta  Ta2  1  0.000000  0.242912  0.256737  1
  Ta  Ta3  1  0.000000  0.757088  0.743263  1
  Ta  Ta4  1  0.757088  0.757088  0.256737  1
  Ta  Ta5  1  0.242912  0.242912  0.743263  1
  Ta  Ta6  1  0.666667  0.333333  0.500000  1
  Ta  Ta7  1  0.333333  0.666667  0.500000  1
  Cr  Cr8  1  0.333333  0.666667  0.000000  1
  Cr  Cr9  1  0.666667  0.333333  0.000000  1
  Ga  Ga10  1  0.594588  0.000000  0.230618  1
  Ga  Ga11  1  0.405412  0.000000  0.769382  1
  Ga  Ga12  1  0.000000  0.594588  0.230618  1
  Ga  Ga13  1  0.000000  0.405412  0.769382  1
  Ga  Ga14  1  0.405412  0.405412  0.230618  1
  Ga  Ga15  1  0.594588  0.594588  0.769382  1
  B  B16  1  0.000000  0.000000  0.000000  1
  B  B17  1  0.000000  0.000000  0.500000  1
