# generated using pymatgen
data_SrNd2Er(Ir2O7)2
_symmetry_space_group_name_H-M   'P 1'
_cell_length_a   7.36425054
_cell_length_b   7.34090050
_cell_length_c   7.36425161
_cell_angle_alpha   60.16509287
_cell_angle_beta   60.40902038
_cell_angle_gamma   60.16509327
_symmetry_Int_Tables_number   1
_chemical_formula_structural   SrNd2Er(Ir2O7)2
_chemical_formula_sum   'Sr1 Nd2 Er1 Ir4 O14'
_cell_volume   283.07530031
_cell_formula_units_Z   1
loop_
 _symmetry_equiv_pos_site_id
 _symmetry_equiv_pos_as_xyz
  1  'x, y, z'
loop_
 _atom_site_type_symbol
 _atom_site_label
 _atom_site_symmetry_multiplicity
 _atom_site_fract_x
 _atom_site_fract_y
 _atom_site_fract_z
 _atom_site_occupancy
  Sr  Sr0  1  0.125000  0.625000  0.125000  1
  Nd  Nd1  1  0.625000  0.125000  0.125000  1
  Nd  Nd2  1  0.125000  0.125000  0.625000  1
  Er  Er3  1  0.125000  0.125000  0.125000  1
  Ir  Ir4  1  0.125000  0.625000  0.625000  1
  Ir  Ir5  1  0.625000  0.125000  0.625000  1
  Ir  Ir6  1  0.625000  0.625000  0.125000  1
  Ir  Ir7  1  0.625000  0.625000  0.625000  1
  O  O8  1  0.696763  0.709144  0.296712  1
  O  O9  1  0.294957  0.292960  0.715345  1
  O  O10  1  0.706679  0.291969  0.706679  1
  O  O11  1  0.296645  0.720271  0.296645  1
  O  O12  1  0.296712  0.709144  0.696763  1
  O  O13  1  0.715345  0.292960  0.294957  1
  O  O14  1  0.553237  0.540856  0.953288  1
  O  O15  1  0.955043  0.957040  0.534655  1
  O  O16  1  0.543321  0.958031  0.543321  1
  O  O17  1  0.953355  0.529729  0.953355  1
  O  O18  1  0.953288  0.540856  0.553237  1
  O  O19  1  0.534655  0.957040  0.955043  1
  O  O20  1  0.249950  0.232890  0.249950  1
  O  O21  1  0.000050  0.017110  0.000050  1
