# generated using pymatgen
data_Pr2YSc(AsPt)4
_symmetry_space_group_name_H-M   'P 1'
_cell_length_a   4.27551100
_cell_length_b   4.27551013
_cell_length_c   15.84808700
_cell_angle_alpha   90.00000000
_cell_angle_beta   90.00000000
_cell_angle_gamma   119.99998353
_symmetry_Int_Tables_number   1
_chemical_formula_structural   Pr2YSc(AsPt)4
_chemical_formula_sum   'Pr2 Y1 Sc1 As4 Pt4'
_cell_volume   250.89009627
_cell_formula_units_Z   1
loop_
 _symmetry_equiv_pos_site_id
 _symmetry_equiv_pos_as_xyz
  1  'x, y, z'
loop_
 _atom_site_type_symbol
 _atom_site_label
 _atom_site_symmetry_multiplicity
 _atom_site_fract_x
 _atom_site_fract_y
 _atom_site_fract_z
 _atom_site_occupancy
  Pr  Pr0  1  0.000000  0.000000  0.007279  1
  Pr  Pr1  1  0.000000  0.000000  0.492721  1
  Y  Y2  1  0.000000  0.000000  0.750000  1
  Sc  Sc3  1  0.000000  0.000000  0.250000  1
  As  As4  1  0.333333  0.666667  0.882452  1
  As  As5  1  0.666667  0.333333  0.376010  1
  As  As6  1  0.666667  0.333333  0.123990  1
  As  As7  1  0.333333  0.666667  0.617548  1
  Pt  Pt8  1  0.333333  0.666667  0.342502  1
  Pt  Pt9  1  0.666667  0.333333  0.863175  1
  Pt  Pt10  1  0.666667  0.333333  0.636825  1
  Pt  Pt11  1  0.333333  0.666667  0.157498  1
