# generated using pymatgen
data_Tb8Er12AlBi11
_symmetry_space_group_name_H-M   'P 1'
_cell_length_a   8.20044413
_cell_length_b   9.43815600
_cell_length_c   12.05200000
_cell_angle_alpha   90.00000000
_cell_angle_beta   90.28874234
_cell_angle_gamma   90.00000000
_symmetry_Int_Tables_number   1
_chemical_formula_structural   Tb8Er12AlBi11
_chemical_formula_sum   'Tb8 Er12 Al1 Bi11'
_cell_volume   932.77765466
_cell_formula_units_Z   1
loop_
 _symmetry_equiv_pos_site_id
 _symmetry_equiv_pos_as_xyz
  1  'x, y, z'
loop_
 _atom_site_type_symbol
 _atom_site_label
 _atom_site_symmetry_multiplicity
 _atom_site_fract_x
 _atom_site_fract_y
 _atom_site_fract_z
 _atom_site_occupancy
  Tb  Tb0  1  0.190475  0.750000  0.722426  1
  Tb  Tb1  1  0.675166  0.750000  0.786922  1
  Tb  Tb2  1  0.811671  0.250000  0.280802  1
  Tb  Tb3  1  0.313855  0.250000  0.220096  1
  Tb  Tb4  1  0.354310  0.750000  0.207168  1
  Tb  Tb5  1  0.851643  0.750000  0.285305  1
  Tb  Tb6  1  0.650024  0.250000  0.784888  1
  Tb  Tb7  1  0.149204  0.250000  0.716142  1
  Er  Er8  1  0.034648  0.750000  0.990374  1
  Er  Er9  1  0.526090  0.750000  0.511529  1
  Er  Er10  1  0.978921  0.250000  0.009844  1
  Er  Er11  1  0.475042  0.250000  0.488987  1
  Er  Er12  1  0.308643  0.448717  0.940902  1
  Er  Er13  1  0.806593  0.064208  0.559230  1
  Er  Er14  1  0.685333  0.930105  0.055126  1
  Er  Er15  1  0.193721  0.564474  0.439267  1
  Er  Er16  1  0.685333  0.569895  0.055126  1
  Er  Er17  1  0.193721  0.935526  0.439267  1
  Er  Er18  1  0.308643  0.051283  0.940902  1
  Er  Er19  1  0.806593  0.435792  0.559230  1
  Al  Al20  1  0.407809  0.750000  0.959823  1
  Bi  Bi21  1  0.435801  0.004240  0.673464  1
  Bi  Bi22  1  0.935687  0.497534  0.826317  1
  Bi  Bi23  1  0.564394  0.504495  0.327274  1
  Bi  Bi24  1  0.062978  0.996874  0.173965  1
  Bi  Bi25  1  0.564394  0.995505  0.327274  1
  Bi  Bi26  1  0.062978  0.503126  0.173965  1
  Bi  Bi27  1  0.435801  0.495760  0.673464  1
  Bi  Bi28  1  0.935687  0.002466  0.826317  1
  Bi  Bi29  1  0.909281  0.750000  0.544212  1
  Bi  Bi30  1  0.593027  0.250000  0.042581  1
  Bi  Bi31  1  0.092539  0.250000  0.457814  1
