# generated using pymatgen
data_Dy2Er4Lu6Co5Pb
_symmetry_space_group_name_H-M   'P 1'
_cell_length_a   8.17500833
_cell_length_b   8.17500770
_cell_length_c   8.15598076
_cell_angle_alpha   110.80709849
_cell_angle_beta   110.88350897
_cell_angle_gamma   106.85582563
_symmetry_Int_Tables_number   1
_chemical_formula_structural   Dy2Er4Lu6Co5Pb
_chemical_formula_sum   'Dy2 Er4 Lu6 Co5 Pb1'
_cell_volume   418.40431746
_cell_formula_units_Z   1
loop_
 _symmetry_equiv_pos_site_id
 _symmetry_equiv_pos_as_xyz
  1  'x, y, z'
loop_
 _atom_site_type_symbol
 _atom_site_label
 _atom_site_symmetry_multiplicity
 _atom_site_fract_x
 _atom_site_fract_y
 _atom_site_fract_z
 _atom_site_occupancy
  Dy  Dy0  1  0.287834  0.183569  0.471403  1
  Dy  Dy1  1  0.712166  0.816431  0.528597  1
  Er  Er2  1  0.210016  0.405724  0.192539  1
  Er  Er3  1  0.789984  0.594276  0.807461  1
  Er  Er4  1  0.213185  0.017477  0.807461  1
  Er  Er5  1  0.786815  0.982523  0.192539  1
  Lu  Lu6  1  0.286901  0.814932  0.101833  1
  Lu  Lu7  1  0.713099  0.185068  0.898167  1
  Lu  Lu8  1  0.622519  0.312502  0.307148  1
  Lu  Lu9  1  0.377481  0.687498  0.692852  1
  Lu  Lu10  1  0.005355  0.315372  0.692852  1
  Lu  Lu11  1  0.994645  0.684628  0.307148  1
  Co  Co12  1  0.998998  0.376058  0.375056  1
  Co  Co13  1  0.001002  0.623942  0.624944  1
  Co  Co14  1  0.387303  0.887303  0.500000  1
  Co  Co15  1  0.612697  0.112697  0.500000  1
  Co  Co16  1  0.000000  0.000000  0.000000  1
  Pb  Pb17  1  0.500000  0.500000  0.000000  1
