# generated using pymatgen
data_NaLaHf2O6
_symmetry_space_group_name_H-M   'P 1'
_cell_length_a   5.67766500
_cell_length_b   5.76314000
_cell_length_c   8.18216000
_cell_angle_alpha   90.00000000
_cell_angle_beta   90.00000000
_cell_angle_gamma   90.00000000
_symmetry_Int_Tables_number   1
_chemical_formula_structural   NaLaHf2O6
_chemical_formula_sum   'Na2 La2 Hf4 O12'
_cell_volume   267.72991598
_cell_formula_units_Z   2
loop_
 _symmetry_equiv_pos_site_id
 _symmetry_equiv_pos_as_xyz
  1  'x, y, z'
loop_
 _atom_site_type_symbol
 _atom_site_label
 _atom_site_symmetry_multiplicity
 _atom_site_fract_x
 _atom_site_fract_y
 _atom_site_fract_z
 _atom_site_occupancy
  Na  Na0  1  0.256688  0.522115  0.000000  1
  Na  Na1  1  0.743312  0.022115  0.000000  1
  La  La2  1  0.244784  0.458544  0.500000  1
  La  La3  1  0.755216  0.958544  0.500000  1
  Hf  Hf4  1  0.747971  0.496451  0.761779  1
  Hf  Hf5  1  0.252029  0.996451  0.238221  1
  Hf  Hf6  1  0.747971  0.496451  0.238221  1
  Hf  Hf7  1  0.252029  0.996451  0.761779  1
  O  O8  1  0.165112  0.968873  0.000000  1
  O  O9  1  0.834888  0.468873  0.000000  1
  O  O10  1  0.335041  0.019956  0.500000  1
  O  O11  1  0.664959  0.519956  0.500000  1
  O  O12  1  0.550562  0.799366  0.777199  1
  O  O13  1  0.449438  0.299366  0.222801  1
  O  O14  1  0.968070  0.219440  0.309089  1
  O  O15  1  0.031930  0.719440  0.690911  1
  O  O16  1  0.968070  0.219440  0.690911  1
  O  O17  1  0.031930  0.719440  0.309089  1
  O  O18  1  0.550562  0.799366  0.222801  1
  O  O19  1  0.449438  0.299366  0.777199  1
