# generated using pymatgen
data_RbNd5Dy(CBr6)2
_symmetry_space_group_name_H-M   'P 1'
_cell_length_a   9.13762686
_cell_length_b   9.14014682
_cell_length_c   9.63005910
_cell_angle_alpha   72.12871277
_cell_angle_beta   70.81238410
_cell_angle_gamma   72.71826596
_symmetry_Int_Tables_number   1
_chemical_formula_structural   RbNd5Dy(CBr6)2
_chemical_formula_sum   'Rb1 Nd5 Dy1 C2 Br12'
_cell_volume   705.52788452
_cell_formula_units_Z   1
loop_
 _symmetry_equiv_pos_site_id
 _symmetry_equiv_pos_as_xyz
  1  'x, y, z'
loop_
 _atom_site_type_symbol
 _atom_site_label
 _atom_site_symmetry_multiplicity
 _atom_site_fract_x
 _atom_site_fract_y
 _atom_site_fract_z
 _atom_site_occupancy
  Rb  Rb0  1  0.997970  0.500598  0.000406  1
  Nd  Nd1  1  0.475851  0.116626  0.179991  1
  Nd  Nd2  1  0.783157  0.032610  0.406036  1
  Nd  Nd3  1  0.595001  0.719500  0.473454  1
  Nd  Nd4  1  0.404407  0.280138  0.525564  1
  Nd  Nd5  1  0.216903  0.966600  0.596293  1
  Dy  Dy6  1  0.525666  0.884848  0.812883  1
  C  C7  1  0.493670  0.024982  0.426025  1
  C  C8  1  0.506630  0.973021  0.576599  1
  Br  Br9  1  0.800377  0.163083  0.080671  1
  Br  Br10  1  0.585449  0.785000  0.134585  1
  Br  Br11  1  0.349256  0.434579  0.223333  1
  Br  Br12  1  0.135651  0.072512  0.293744  1
  Br  Br13  1  0.926907  0.720644  0.351994  1
  Br  Br14  1  0.717631  0.367369  0.428837  1
  Br  Br15  1  0.281466  0.632643  0.573113  1
  Br  Br16  1  0.072039  0.278958  0.648196  1
  Br  Br17  1  0.856613  0.926168  0.712368  1
  Br  Br18  1  0.646799  0.574574  0.779886  1
  Br  Br19  1  0.416759  0.206718  0.856566  1
  Br  Br20  1  0.211799  0.838826  0.919457  1
