# generated using pymatgen
data_La2Sb4PdRh2
_symmetry_space_group_name_H-M   'P 1'
_cell_length_a   4.60820500
_cell_length_b   11.26121400
_cell_length_c   16.40991900
_cell_angle_alpha   90.00000000
_cell_angle_beta   90.00000000
_cell_angle_gamma   90.00000000
_symmetry_Int_Tables_number   1
_chemical_formula_structural   La2Sb4PdRh2
_chemical_formula_sum   'La8 Sb16 Pd4 Rh8'
_cell_volume   851.57605205
_cell_formula_units_Z   4
loop_
 _symmetry_equiv_pos_site_id
 _symmetry_equiv_pos_as_xyz
  1  'x, y, z'
loop_
 _atom_site_type_symbol
 _atom_site_label
 _atom_site_symmetry_multiplicity
 _atom_site_fract_x
 _atom_site_fract_y
 _atom_site_fract_z
 _atom_site_occupancy
  La  La0  1  0.250000  0.749826  0.503279  1
  La  La1  1  0.250000  0.750174  0.003279  1
  La  La2  1  0.750000  0.250174  0.496721  1
  La  La3  1  0.750000  0.249826  0.996721  1
  La  La4  1  0.250000  0.586962  0.750818  1
  La  La5  1  0.250000  0.913038  0.250818  1
  La  La6  1  0.750000  0.413038  0.249182  1
  La  La7  1  0.750000  0.086962  0.749182  1
  Sb  Sb8  1  0.250000  0.269379  0.652255  1
  Sb  Sb9  1  0.250000  0.230621  0.152255  1
  Sb  Sb10  1  0.750000  0.730621  0.347745  1
  Sb  Sb11  1  0.750000  0.769379  0.847745  1
  Sb  Sb12  1  0.250000  0.886561  0.709869  1
  Sb  Sb13  1  0.250000  0.613439  0.209869  1
  Sb  Sb14  1  0.750000  0.113439  0.290131  1
  Sb  Sb15  1  0.750000  0.386561  0.790131  1
  Sb  Sb16  1  0.250000  0.075016  0.896126  1
  Sb  Sb17  1  0.250000  0.424984  0.396126  1
  Sb  Sb18  1  0.750000  0.924984  0.103874  1
  Sb  Sb19  1  0.750000  0.575016  0.603874  1
  Sb  Sb20  1  0.250000  0.446852  0.932646  1
  Sb  Sb21  1  0.250000  0.053148  0.432646  1
  Sb  Sb22  1  0.750000  0.553148  0.067354  1
  Sb  Sb23  1  0.750000  0.946852  0.567354  1
  Pd  Pd24  1  0.250000  0.464841  0.558304  1
  Pd  Pd25  1  0.250000  0.035159  0.058304  1
  Pd  Pd26  1  0.750000  0.535159  0.441696  1
  Pd  Pd27  1  0.750000  0.964841  0.941696  1
  Rh  Rh28  1  0.250000  0.052988  0.593117  1
  Rh  Rh29  1  0.250000  0.447012  0.093117  1
  Rh  Rh30  1  0.750000  0.947012  0.406883  1
  Rh  Rh31  1  0.750000  0.552988  0.906883  1
  Rh  Rh32  1  0.250000  0.280598  0.817354  1
  Rh  Rh33  1  0.250000  0.219402  0.317354  1
  Rh  Rh34  1  0.750000  0.719402  0.182646  1
  Rh  Rh35  1  0.750000  0.780598  0.682646  1
