# generated using pymatgen
data_DyUGa5Fe6
_symmetry_space_group_name_H-M   'P 1'
_cell_length_a   5.02594106
_cell_length_b   6.66776746
_cell_length_c   6.66776821
_cell_angle_alpha   85.34840218
_cell_angle_beta   67.85923914
_cell_angle_gamma   67.85924109
_symmetry_Int_Tables_number   1
_chemical_formula_structural   DyUGa5Fe6
_chemical_formula_sum   'Dy1 U1 Ga5 Fe6'
_cell_volume   191.22575576
_cell_formula_units_Z   1
loop_
 _symmetry_equiv_pos_site_id
 _symmetry_equiv_pos_as_xyz
  1  'x, y, z'
loop_
 _atom_site_type_symbol
 _atom_site_label
 _atom_site_symmetry_multiplicity
 _atom_site_fract_x
 _atom_site_fract_y
 _atom_site_fract_z
 _atom_site_occupancy
  Dy  Dy0  1  0.000000  0.991321  0.008679  1
  U  U1  1  0.000000  0.355734  0.644266  1
  Ga  Ga2  1  0.000000  0.674457  0.325543  1
  Ga  Ga3  1  0.500000  0.164122  0.835878  1
  Ga  Ga4  1  0.500000  0.821540  0.178460  1
  Ga  Ga5  1  0.343964  0.659014  0.653057  1
  Ga  Ga6  1  0.656036  0.346943  0.340986  1
  Fe  Fe7  1  0.246975  0.252174  0.253875  1
  Fe  Fe8  1  0.753025  0.746125  0.747826  1
  Fe  Fe9  1  0.491849  0.002136  0.507850  1
  Fe  Fe10  1  0.508151  0.492150  0.997864  1
  Fe  Fe11  1  0.001836  0.492150  0.997864  1
  Fe  Fe12  1  0.998164  0.002136  0.507850  1
