# generated using pymatgen
data_DyNb3(Co4P3)2
_symmetry_space_group_name_H-M   'P 1'
_cell_length_a   11.99456200
_cell_length_b   11.99456165
_cell_length_c   3.65130900
_cell_angle_alpha   90.00000000
_cell_angle_beta   90.00000000
_cell_angle_gamma   120.00000095
_symmetry_Int_Tables_number   1
_chemical_formula_structural   DyNb3(Co4P3)2
_chemical_formula_sum   'Dy2 Nb6 Co16 P12'
_cell_volume   454.93357514
_cell_formula_units_Z   2
loop_
 _symmetry_equiv_pos_site_id
 _symmetry_equiv_pos_as_xyz
  1  'x, y, z'
loop_
 _atom_site_type_symbol
 _atom_site_label
 _atom_site_symmetry_multiplicity
 _atom_site_fract_x
 _atom_site_fract_y
 _atom_site_fract_z
 _atom_site_occupancy
  Dy  Dy0  1  0.333333  0.666667  0.000000  1
  Dy  Dy1  1  0.666667  0.333333  0.000000  1
  Nb  Nb2  1  0.820669  0.000000  0.500000  1
  Nb  Nb3  1  0.000000  0.820669  0.500000  1
  Nb  Nb4  1  0.179331  0.179331  0.500000  1
  Nb  Nb5  1  0.444223  0.000000  0.000000  1
  Nb  Nb6  1  0.000000  0.444223  0.000000  1
  Nb  Nb7  1  0.555777  0.555777  0.000000  1
  Co  Co8  1  0.271497  0.000000  0.500000  1
  Co  Co9  1  0.000000  0.271497  0.500000  1
  Co  Co10  1  0.728503  0.728503  0.500000  1
  Co  Co11  1  0.634365  0.811132  0.000000  1
  Co  Co12  1  0.188868  0.823233  0.000000  1
  Co  Co13  1  0.176767  0.365635  0.000000  1
  Co  Co14  1  0.365635  0.176767  0.000000  1
  Co  Co15  1  0.811132  0.634365  0.000000  1
  Co  Co16  1  0.823233  0.188868  0.000000  1
  Co  Co17  1  0.520764  0.875008  0.500000  1
  Co  Co18  1  0.124992  0.645756  0.500000  1
  Co  Co19  1  0.354244  0.479236  0.500000  1
  Co  Co20  1  0.479236  0.354244  0.500000  1
  Co  Co21  1  0.875008  0.520764  0.500000  1
  Co  Co22  1  0.645756  0.124992  0.500000  1
  Co  Co23  1  0.000000  0.000000  0.000000  1
  P  P24  1  0.172486  0.000000  0.000000  1
  P  P25  1  0.000000  0.172486  0.000000  1
  P  P26  1  0.827514  0.827514  0.000000  1
  P  P27  1  0.523993  0.691532  0.500000  1
  P  P28  1  0.308468  0.832461  0.500000  1
  P  P29  1  0.167539  0.476007  0.500000  1
  P  P30  1  0.476007  0.167539  0.500000  1
  P  P31  1  0.691532  0.523993  0.500000  1
  P  P32  1  0.832461  0.308468  0.500000  1
  P  P33  1  0.647360  0.000000  0.000000  1
  P  P34  1  0.000000  0.647360  0.000000  1
  P  P35  1  0.352640  0.352640  0.000000  1
