# generated using pymatgen
data_Eu4Sn4IrPd2Rh
_symmetry_space_group_name_H-M   'P 1'
_cell_length_a   4.64298600
_cell_length_b   7.48476305
_cell_length_c   8.11865705
_cell_angle_alpha   90.01296943
_cell_angle_beta   90.00000000
_cell_angle_gamma   90.00000000
_symmetry_Int_Tables_number   1
_chemical_formula_structural   Eu4Sn4IrPd2Rh
_chemical_formula_sum   'Eu4 Sn4 Ir1 Pd2 Rh1'
_cell_volume   282.13672148
_cell_formula_units_Z   1
loop_
 _symmetry_equiv_pos_site_id
 _symmetry_equiv_pos_as_xyz
  1  'x, y, z'
loop_
 _atom_site_type_symbol
 _atom_site_label
 _atom_site_symmetry_multiplicity
 _atom_site_fract_x
 _atom_site_fract_y
 _atom_site_fract_z
 _atom_site_occupancy
  Eu  Eu0  1  0.250000  0.519700  0.182679  1
  Eu  Eu1  1  0.750000  0.470466  0.817303  1
  Eu  Eu2  1  0.250000  0.029757  0.315903  1
  Eu  Eu3  1  0.750000  0.978303  0.683221  1
  Sn  Sn4  1  0.250000  0.164534  0.927438  1
  Sn  Sn5  1  0.750000  0.335391  0.427499  1
  Sn  Sn6  1  0.250000  0.654781  0.572042  1
  Sn  Sn7  1  0.750000  0.844776  0.072377  1
  Ir  Ir8  1  0.750000  0.215816  0.110753  1
  Pd  Pd9  1  0.750000  0.712392  0.390810  1
  Pd  Pd10  1  0.250000  0.787962  0.890483  1
  Rh  Rh11  1  0.250000  0.286122  0.609491  1
