# generated using pymatgen
data_Rb3BiSbAu3
_symmetry_space_group_name_H-M   'P 1'
_cell_length_a   8.34378027
_cell_length_b   8.34378018
_cell_length_c   8.34378067
_cell_angle_alpha   46.86744616
_cell_angle_beta   46.86744947
_cell_angle_gamma   46.86744242
_symmetry_Int_Tables_number   1
_chemical_formula_structural   Rb3BiSbAu3
_chemical_formula_sum   'Rb3 Bi1 Sb1 Au3'
_cell_volume   282.70745333
_cell_formula_units_Z   1
loop_
 _symmetry_equiv_pos_site_id
 _symmetry_equiv_pos_as_xyz
  1  'x, y, z'
loop_
 _atom_site_type_symbol
 _atom_site_label
 _atom_site_symmetry_multiplicity
 _atom_site_fract_x
 _atom_site_fract_y
 _atom_site_fract_z
 _atom_site_occupancy
  Rb  Rb0  1  0.499675  0.499675  0.499675  1
  Rb  Rb1  1  0.918755  0.918755  0.918755  1
  Rb  Rb2  1  0.080387  0.080387  0.080387  1
  Bi  Bi3  1  0.244116  0.244116  0.244116  1
  Sb  Sb4  1  0.753526  0.753526  0.753526  1
  Au  Au5  1  0.998892  0.502324  0.502324  1
  Au  Au6  1  0.502324  0.998892  0.502324  1
  Au  Au7  1  0.502324  0.502324  0.998892  1
