# generated using pymatgen
data_ErHfFe2(Co4P3)2
_symmetry_space_group_name_H-M   'P 1'
_cell_length_a   3.62676600
_cell_length_b   10.16304300
_cell_length_c   11.69034700
_cell_angle_alpha   90.00000000
_cell_angle_beta   90.00000000
_cell_angle_gamma   90.00000000
_symmetry_Int_Tables_number   1
_chemical_formula_structural   ErHfFe2(Co4P3)2
_chemical_formula_sum   'Er2 Hf2 Fe4 Co16 P12'
_cell_volume   430.89425234
_cell_formula_units_Z   2
loop_
 _symmetry_equiv_pos_site_id
 _symmetry_equiv_pos_as_xyz
  1  'x, y, z'
loop_
 _atom_site_type_symbol
 _atom_site_label
 _atom_site_symmetry_multiplicity
 _atom_site_fract_x
 _atom_site_fract_y
 _atom_site_fract_z
 _atom_site_occupancy
  Er  Er0  1  0.750000  0.419119  0.296308  1
  Er  Er1  1  0.750000  0.080881  0.796308  1
  Hf  Hf2  1  0.250000  0.580241  0.702642  1
  Hf  Hf3  1  0.250000  0.919759  0.202642  1
  Fe  Fe4  1  0.250000  0.712194  0.988561  1
  Fe  Fe5  1  0.250000  0.787806  0.488561  1
  Fe  Fe6  1  0.750000  0.289252  0.012159  1
  Fe  Fe7  1  0.750000  0.210748  0.512159  1
  Co  Co8  1  0.250000  0.408894  0.489227  1
  Co  Co9  1  0.250000  0.091106  0.989227  1
  Co  Co10  1  0.750000  0.593756  0.517544  1
  Co  Co11  1  0.750000  0.906244  0.017544  1
  Co  Co12  1  0.250000  0.222398  0.177697  1
  Co  Co13  1  0.250000  0.277602  0.677697  1
  Co  Co14  1  0.750000  0.775870  0.822779  1
  Co  Co15  1  0.750000  0.724130  0.322779  1
  Co  Co16  1  0.250000  0.878862  0.698604  1
  Co  Co17  1  0.250000  0.621138  0.198604  1
  Co  Co18  1  0.750000  0.114498  0.298748  1
  Co  Co19  1  0.750000  0.385502  0.798748  1
  Co  Co20  1  0.250000  0.468114  0.930120  1
  Co  Co21  1  0.250000  0.031886  0.430120  1
  Co  Co22  1  0.750000  0.536446  0.065831  1
  Co  Co23  1  0.750000  0.963554  0.565831  1
  P  P24  1  0.250000  0.420978  0.112660  1
  P  P25  1  0.250000  0.079022  0.612660  1
  P  P26  1  0.750000  0.580343  0.883129  1
  P  P27  1  0.750000  0.919657  0.383129  1
  P  P28  1  0.250000  0.267571  0.869256  1
  P  P29  1  0.250000  0.232429  0.369256  1
  P  P30  1  0.750000  0.735026  0.133606  1
  P  P31  1  0.750000  0.764974  0.633606  1
  P  P32  1  0.250000  0.601680  0.391368  1
  P  P33  1  0.250000  0.898320  0.891368  1
  P  P34  1  0.750000  0.400068  0.609763  1
  P  P35  1  0.750000  0.099932  0.109763  1
