# generated using pymatgen
data_Li3La3PdAu2
_symmetry_space_group_name_H-M   'P 1'
_cell_length_a   7.83973500
_cell_length_b   7.83973554
_cell_length_c   3.95868200
_cell_angle_alpha   90.00000000
_cell_angle_beta   90.00000000
_cell_angle_gamma   120.00000195
_symmetry_Int_Tables_number   1
_chemical_formula_structural   Li3La3PdAu2
_chemical_formula_sum   'Li3 La3 Pd1 Au2'
_cell_volume   210.70946040
_cell_formula_units_Z   1
loop_
 _symmetry_equiv_pos_site_id
 _symmetry_equiv_pos_as_xyz
  1  'x, y, z'
loop_
 _atom_site_type_symbol
 _atom_site_label
 _atom_site_symmetry_multiplicity
 _atom_site_fract_x
 _atom_site_fract_y
 _atom_site_fract_z
 _atom_site_occupancy
  Li  Li0  1  0.766121  0.760842  0.000000  1
  Li  Li1  1  0.239158  0.005280  0.000000  1
  Li  Li2  1  0.994720  0.233879  0.000000  1
  La  La3  1  0.401687  0.411642  0.500000  1
  La  La4  1  0.588358  0.990046  0.500000  1
  La  La5  1  0.009954  0.598313  0.500000  1
  Pd  Pd6  1  0.333333  0.666667  0.000000  1
  Au  Au7  1  0.666667  0.333333  0.000000  1
  Au  Au8  1  0.000000  0.000000  0.500000  1
