# generated using pymatgen
data_Ta12Ga7Sb(RhC)4
_symmetry_space_group_name_H-M   'P 1'
_cell_length_a   8.37916960
_cell_length_b   8.37917051
_cell_length_c   8.37916875
_cell_angle_alpha   59.78504821
_cell_angle_beta   59.78504214
_cell_angle_gamma   59.78505057
_symmetry_Int_Tables_number   1
_chemical_formula_structural   Ta12Ga7Sb(RhC)4
_chemical_formula_sum   'Ta12 Ga7 Sb1 Rh4 C4'
_cell_volume   413.96475999
_cell_formula_units_Z   1
loop_
 _symmetry_equiv_pos_site_id
 _symmetry_equiv_pos_as_xyz
  1  'x, y, z'
loop_
 _atom_site_type_symbol
 _atom_site_label
 _atom_site_symmetry_multiplicity
 _atom_site_fract_x
 _atom_site_fract_y
 _atom_site_fract_z
 _atom_site_occupancy
  Ta  Ta0  1  0.569291  0.930829  0.569291  1
  Ta  Ta1  1  0.316073  0.684686  0.684686  1
  Ta  Ta2  1  0.689208  0.315433  0.315433  1
  Ta  Ta3  1  0.315433  0.689208  0.315433  1
  Ta  Ta4  1  0.684686  0.684686  0.316073  1
  Ta  Ta5  1  0.315433  0.315433  0.689208  1
  Ta  Ta6  1  0.569291  0.569291  0.930829  1
  Ta  Ta7  1  0.930829  0.569291  0.569291  1
  Ta  Ta8  1  0.565420  0.934705  0.934705  1
  Ta  Ta9  1  0.934705  0.934705  0.565420  1
  Ta  Ta10  1  0.684686  0.316073  0.684686  1
  Ta  Ta11  1  0.934705  0.565420  0.934705  1
  Ga  Ga12  1  0.914174  0.914174  0.914174  1
  Ga  Ga13  1  0.988432  0.334941  0.334941  1
  Ga  Ga14  1  0.334941  0.988432  0.334941  1
  Ga  Ga15  1  0.334941  0.334941  0.988432  1
  Ga  Ga16  1  0.915217  0.255212  0.915217  1
  Ga  Ga17  1  0.915217  0.915217  0.255212  1
  Ga  Ga18  1  0.255212  0.915217  0.915217  1
  Sb  Sb19  1  0.334968  0.334968  0.334968  1
  Rh  Rh20  1  0.125301  0.125301  0.125301  1
  Rh  Rh21  1  0.626083  0.122068  0.122068  1
  Rh  Rh22  1  0.122068  0.626083  0.122068  1
  Rh  Rh23  1  0.122068  0.122068  0.626083  1
  C  C24  1  0.624682  0.624682  0.624682  1
  C  C25  1  0.124999  0.625970  0.625970  1
  C  C26  1  0.625970  0.124999  0.625970  1
  C  C27  1  0.625970  0.625970  0.124999  1
