# generated using pymatgen
data_Lu3Zr(UTc3)2
_symmetry_space_group_name_H-M   'P 1'
_cell_length_a   5.68645600
_cell_length_b   5.68645693
_cell_length_c   8.20207200
_cell_angle_alpha   90.00000000
_cell_angle_beta   90.00000000
_cell_angle_gamma   119.99998298
_symmetry_Int_Tables_number   1
_chemical_formula_structural   Lu3Zr(UTc3)2
_chemical_formula_sum   'Lu3 Zr1 U2 Tc6'
_cell_volume   229.68769017
_cell_formula_units_Z   1
loop_
 _symmetry_equiv_pos_site_id
 _symmetry_equiv_pos_as_xyz
  1  'x, y, z'
loop_
 _atom_site_type_symbol
 _atom_site_label
 _atom_site_symmetry_multiplicity
 _atom_site_fract_x
 _atom_site_fract_y
 _atom_site_fract_z
 _atom_site_occupancy
  Lu  Lu0  1  0.666667  0.333333  0.559133  1
  Lu  Lu1  1  0.666667  0.333333  0.940831  1
  Lu  Lu2  1  0.333333  0.666667  0.061177  1
  Zr  Zr3  1  0.333333  0.666667  0.445681  1
  U  U4  1  0.000000  0.000000  0.498192  1
  U  U5  1  0.000000  0.000000  0.998090  1
  Tc  Tc6  1  0.834343  0.165657  0.252067  1
  Tc  Tc7  1  0.834343  0.668685  0.252067  1
  Tc  Tc8  1  0.331315  0.165657  0.252067  1
  Tc  Tc9  1  0.166551  0.833449  0.746898  1
  Tc  Tc10  1  0.166551  0.333102  0.746898  1
  Tc  Tc11  1  0.666898  0.833449  0.746898  1
