# generated using pymatgen
data_Na4TmMoO6
_symmetry_space_group_name_H-M   'P 1'
_cell_length_a   5.67868441
_cell_length_b   5.67868349
_cell_length_c   5.80428376
_cell_angle_alpha   99.34996003
_cell_angle_beta   99.34979971
_cell_angle_gamma   120.23658122
_symmetry_Int_Tables_number   1
_chemical_formula_structural   Na4TmMoO6
_chemical_formula_sum   'Na4 Tm1 Mo1 O6'
_cell_volume   152.86970641
_cell_formula_units_Z   1
loop_
 _symmetry_equiv_pos_site_id
 _symmetry_equiv_pos_as_xyz
  1  'x, y, z'
loop_
 _atom_site_type_symbol
 _atom_site_label
 _atom_site_symmetry_multiplicity
 _atom_site_fract_x
 _atom_site_fract_y
 _atom_site_fract_z
 _atom_site_occupancy
  Na  Na0  1  0.502096  0.497905  0.000001  1
  Na  Na1  1  0.999196  0.000802  0.499999  1
  Na  Na2  1  0.659788  0.340212  0.500001  1
  Na  Na3  1  0.341067  0.658931  0.500001  1
  Tm  Tm4  1  0.163013  0.837007  0.999999  1
  Mo  Mo5  1  0.833172  0.166835  0.000001  1
  O  O6  1  0.604204  0.957777  0.202058  1
  O  O7  1  0.928570  0.551394  0.214554  1
  O  O8  1  0.195465  0.217385  0.216655  1
  O  O9  1  0.782618  0.804537  0.783355  1
  O  O10  1  0.448603  0.071420  0.785436  1
  O  O11  1  0.042217  0.395797  0.797942  1
