# generated using pymatgen
data_DyTh3Al24Ir2Pt7
_symmetry_space_group_name_H-M   'P 1'
_cell_length_a   7.58564070
_cell_length_b   7.58509218
_cell_length_c   13.23601907
_cell_angle_alpha   84.51418628
_cell_angle_beta   101.03936789
_cell_angle_gamma   119.82789669
_symmetry_Int_Tables_number   1
_chemical_formula_structural   DyTh3Al24Ir2Pt7
_chemical_formula_sum   'Dy1 Th3 Al24 Ir2 Pt7'
_cell_volume   648.45543088
_cell_formula_units_Z   1
loop_
 _symmetry_equiv_pos_site_id
 _symmetry_equiv_pos_as_xyz
  1  'x, y, z'
loop_
 _atom_site_type_symbol
 _atom_site_label
 _atom_site_symmetry_multiplicity
 _atom_site_fract_x
 _atom_site_fract_y
 _atom_site_fract_z
 _atom_site_occupancy
  Dy  Dy0  1  0.732600  0.998422  0.192138  1
  Th  Th1  1  0.267860  0.001959  0.808695  1
  Th  Th2  1  0.061769  0.668179  0.192139  1
  Th  Th3  1  0.938989  0.331610  0.808986  1
  Al  Al4  1  0.804760  0.865669  0.817438  1
  Al  Al5  1  0.191470  0.133120  0.182679  1
  Al  Al6  1  0.982060  0.669068  0.948059  1
  Al  Al7  1  0.019536  0.330722  0.054693  1
  Al  Al8  1  0.401800  0.663010  0.819312  1
  Al  Al9  1  0.597847  0.333278  0.183065  1
  Al  Al10  1  0.877468  0.665441  0.665777  1
  Al  Al11  1  0.118400  0.330870  0.330697  1
  Al  Al12  1  0.602199  0.462857  0.816815  1
  Al  Al13  1  0.401522  0.543740  0.181255  1
  Al  Al14  1  0.233102  0.344823  0.664310  1
  Al  Al15  1  0.766134  0.659174  0.332666  1
  Al  Al16  1  0.851169  0.332315  0.556981  1
  Al  Al17  1  0.185582  0.999815  0.556686  1
  Al  Al18  1  0.814298  0.000626  0.440889  1
  Al  Al19  1  0.352131  0.998872  0.054745  1
  Al  Al20  1  0.649414  0.995075  0.950460  1
  Al  Al21  1  0.554722  0.988596  0.666875  1
  Al  Al22  1  0.448194  0.010353  0.331000  1
  Al  Al23  1  0.520957  0.667773  0.559195  1
  Al  Al24  1  0.479241  0.332674  0.438552  1
  Al  Al25  1  0.680186  0.671882  0.043227  1
  Al  Al26  1  0.319497  0.335130  0.962058  1
  Al  Al27  1  0.147905  0.666097  0.442502  1
  Ir  Ir28  1  0.326317  0.670925  0.999600  1
  Ir  Ir29  1  0.000608  0.000139  0.999659  1
  Pt  Pt30  1  0.546093  0.324346  0.637183  1
  Pt  Pt31  1  0.452963  0.674529  0.361985  1
  Pt  Pt32  1  0.888117  0.008480  0.638516  1
  Pt  Pt33  1  0.112771  0.990914  0.361008  1
  Pt  Pt34  1  0.671862  0.328695  0.999736  1
  Pt  Pt35  1  0.203865  0.666890  0.638797  1
  Pt  Pt36  1  0.796589  0.333931  0.361621  1
