# generated using pymatgen
data_Be5RuRh
_symmetry_space_group_name_H-M   'P 1'
_cell_length_a   5.67402765
_cell_length_b   5.67402650
_cell_length_c   5.88651310
_cell_angle_alpha   96.30785690
_cell_angle_beta   96.30785244
_cell_angle_gamma   44.91725804
_symmetry_Int_Tables_number   1
_chemical_formula_structural   Be5RuRh
_chemical_formula_sum   'Be10 Ru2 Rh2'
_cell_volume   132.86382047
_cell_formula_units_Z   2
loop_
 _symmetry_equiv_pos_site_id
 _symmetry_equiv_pos_as_xyz
  1  'x, y, z'
loop_
 _atom_site_type_symbol
 _atom_site_label
 _atom_site_symmetry_multiplicity
 _atom_site_fract_x
 _atom_site_fract_y
 _atom_site_fract_z
 _atom_site_occupancy
  Be  Be0  1  0.060808  0.771074  0.908382  1
  Be  Be1  1  0.228926  0.939192  0.591618  1
  Be  Be2  1  0.945505  0.230129  0.086872  1
  Be  Be3  1  0.769871  0.054495  0.413128  1
  Be  Be4  1  0.070215  0.366455  0.811385  1
  Be  Be5  1  0.633545  0.929785  0.688615  1
  Be  Be6  1  0.935004  0.631498  0.185946  1
  Be  Be7  1  0.368502  0.064996  0.314054  1
  Be  Be8  1  0.748786  0.251214  0.750000  1
  Be  Be9  1  0.232225  0.767775  0.250000  1
  Ru  Ru10  1  0.760834  0.478032  0.446941  1
  Ru  Ru11  1  0.521968  0.239166  0.053059  1
  Rh  Rh12  1  0.237402  0.513591  0.547966  1
  Rh  Rh13  1  0.486409  0.762598  0.952034  1
