# generated using pymatgen
data_NaLiTeBr6
_symmetry_space_group_name_H-M   'P 1'
_cell_length_a   7.05884600
_cell_length_b   7.05884604
_cell_length_c   7.01809300
_cell_angle_alpha   90.00000000
_cell_angle_beta   90.00000000
_cell_angle_gamma   119.99999983
_symmetry_Int_Tables_number   1
_chemical_formula_structural   NaLiTeBr6
_chemical_formula_sum   'Na1 Li1 Te1 Br6'
_cell_volume   302.84274081
_cell_formula_units_Z   1
loop_
 _symmetry_equiv_pos_site_id
 _symmetry_equiv_pos_as_xyz
  1  'x, y, z'
loop_
 _atom_site_type_symbol
 _atom_site_label
 _atom_site_symmetry_multiplicity
 _atom_site_fract_x
 _atom_site_fract_y
 _atom_site_fract_z
 _atom_site_occupancy
  Na  Na0  1  0.333333  0.666667  0.500000  1
  Li  Li1  1  0.666667  0.333333  0.500000  1
  Te  Te2  1  0.000000  0.000000  0.500000  1
  Br  Br3  1  0.691553  0.672877  0.724749  1
  Br  Br4  1  0.981325  0.308447  0.724749  1
  Br  Br5  1  0.327123  0.018675  0.724749  1
  Br  Br6  1  0.327123  0.308447  0.275251  1
  Br  Br7  1  0.981325  0.672877  0.275251  1
  Br  Br8  1  0.691553  0.018675  0.275251  1
