# generated using pymatgen
data_ThCrF7
_symmetry_space_group_name_H-M   'P 1'
_cell_length_a   5.81257600
_cell_length_b   5.98733504
_cell_length_c   8.23598638
_cell_angle_alpha   100.30340893
_cell_angle_beta   90.00000000
_cell_angle_gamma   90.00000000
_symmetry_Int_Tables_number   1
_chemical_formula_structural   ThCrF7
_chemical_formula_sum   'Th2 Cr2 F14'
_cell_volume   282.00543946
_cell_formula_units_Z   2
loop_
 _symmetry_equiv_pos_site_id
 _symmetry_equiv_pos_as_xyz
  1  'x, y, z'
loop_
 _atom_site_type_symbol
 _atom_site_label
 _atom_site_symmetry_multiplicity
 _atom_site_fract_x
 _atom_site_fract_y
 _atom_site_fract_z
 _atom_site_occupancy
  Th  Th0  1  0.702961  0.668017  0.700660  1
  Th  Th1  1  0.202961  0.331983  0.299340  1
  Cr  Cr2  1  0.709040  0.810911  0.226767  1
  Cr  Cr3  1  0.209040  0.189089  0.773233  1
  F  F4  1  0.895949  0.453469  0.481737  1
  F  F5  1  0.395949  0.546531  0.518263  1
  F  F6  1  0.419482  0.934616  0.769679  1
  F  F7  1  0.919482  0.065384  0.230321  1
  F  F8  1  0.956781  0.969367  0.761104  1
  F  F9  1  0.456781  0.030633  0.238896  1
  F  F10  1  0.996532  0.444642  0.789917  1
  F  F11  1  0.496532  0.555358  0.210083  1
  F  F12  1  0.703212  0.766265  0.987221  1
  F  F13  1  0.203212  0.233735  0.012779  1
  F  F14  1  0.712878  0.859673  0.466980  1
  F  F15  1  0.212878  0.140327  0.533020  1
  F  F16  1  0.479525  0.386059  0.787524  1
  F  F17  1  0.979525  0.613941  0.212476  1
