# generated using pymatgen
data_Ho10(GaSb)3
_symmetry_space_group_name_H-M   'P 1'
_cell_length_a   8.73936800
_cell_length_b   8.74667903
_cell_length_c   6.45464900
_cell_angle_alpha   90.00000000
_cell_angle_beta   90.00000000
_cell_angle_gamma   119.97236126
_symmetry_Int_Tables_number   1
_chemical_formula_structural   Ho10(GaSb)3
_chemical_formula_sum   'Ho10 Ga3 Sb3'
_cell_volume   427.41264406
_cell_formula_units_Z   1
loop_
 _symmetry_equiv_pos_site_id
 _symmetry_equiv_pos_as_xyz
  1  'x, y, z'
loop_
 _atom_site_type_symbol
 _atom_site_label
 _atom_site_symmetry_multiplicity
 _atom_site_fract_x
 _atom_site_fract_y
 _atom_site_fract_z
 _atom_site_occupancy
  Ho  Ho0  1  0.327261  0.666426  0.003196  1
  Ho  Ho1  1  0.660836  0.333574  0.496804  1
  Ho  Ho2  1  0.660836  0.333574  0.003196  1
  Ho  Ho3  1  0.327261  0.666426  0.496804  1
  Ho  Ho4  1  0.754540  0.000000  0.750000  1
  Ho  Ho5  1  0.763588  0.751690  0.250000  1
  Ho  Ho6  1  0.011897  0.248310  0.250000  1
  Ho  Ho7  1  0.011551  0.768009  0.750000  1
  Ho  Ho8  1  0.243542  0.231991  0.750000  1
  Ho  Ho9  1  0.235699  0.000000  0.250000  1
  Ga  Ga10  1  0.395981  0.000000  0.750000  1
  Ga  Ga11  1  0.394073  0.395254  0.250000  1
  Ga  Ga12  1  0.998820  0.604746  0.250000  1
  Sb  Sb13  1  0.997979  0.391778  0.750000  1
  Sb  Sb14  1  0.606201  0.608222  0.750000  1
  Sb  Sb15  1  0.609935  0.000000  0.250000  1
