# generated using pymatgen
data_Cs3K4Rb(ZrTe3)4
_symmetry_space_group_name_H-M   'P 1'
_cell_length_a   14.73772045
_cell_length_b   6.95385828
_cell_length_c   9.82733021
_cell_angle_alpha   70.59283911
_cell_angle_beta   90.40435532
_cell_angle_gamma   90.60533467
_symmetry_Int_Tables_number   1
_chemical_formula_structural   Cs3K4Rb(ZrTe3)4
_chemical_formula_sum   'Cs3 K4 Rb1 Zr4 Te12'
_cell_volume   949.85977391
_cell_formula_units_Z   1
loop_
 _symmetry_equiv_pos_site_id
 _symmetry_equiv_pos_as_xyz
  1  'x, y, z'
loop_
 _atom_site_type_symbol
 _atom_site_label
 _atom_site_symmetry_multiplicity
 _atom_site_fract_x
 _atom_site_fract_y
 _atom_site_fract_z
 _atom_site_occupancy
  Cs  Cs0  1  0.451779  0.831671  0.340783  1
  Cs  Cs1  1  0.050241  0.334885  0.336843  1
  Cs  Cs2  1  0.549280  0.168121  0.661392  1
  K  K3  1  0.865621  0.065448  0.901679  1
  K  K4  1  0.360732  0.435917  0.101216  1
  K  K5  1  0.134778  0.936213  0.099344  1
  K  K6  1  0.636663  0.562331  0.900617  1
  Rb  Rb7  1  0.955822  0.670758  0.649022  1
  Zr  Zr8  1  0.750275  0.665660  0.285694  1
  Zr  Zr9  1  0.247014  0.833269  0.716260  1
  Zr  Zr10  1  0.248675  0.333428  0.715660  1
  Zr  Zr11  1  0.752540  0.166373  0.285517  1
  Te  Te12  1  0.913263  0.904660  0.261998  1
  Te  Te13  1  0.409849  0.601209  0.741706  1
  Te  Te14  1  0.086037  0.093782  0.739064  1
  Te  Te15  1  0.588943  0.396815  0.261235  1
  Te  Te16  1  0.813589  0.282042  0.521626  1
  Te  Te17  1  0.308909  0.221005  0.479428  1
  Te  Te18  1  0.188344  0.719383  0.478272  1
  Te  Te19  1  0.691708  0.777724  0.523245  1
  Te  Te20  1  0.845865  0.494302  0.075445  1
  Te  Te21  1  0.343647  0.009741  0.925224  1
  Te  Te22  1  0.150580  0.506438  0.922271  1
  Te  Te23  1  0.655847  0.988823  0.076460  1
