# generated using pymatgen
data_Y6Al24Ir3Os3Ru2
_symmetry_space_group_name_H-M   'P 1'
_cell_length_a   8.79713229
_cell_length_b   8.80946382
_cell_length_c   9.56971504
_cell_angle_alpha   90.14246534
_cell_angle_beta   90.02760679
_cell_angle_gamma   119.71512681
_symmetry_Int_Tables_number   1
_chemical_formula_structural   Y6Al24Ir3Os3Ru2
_chemical_formula_sum   'Y6 Al24 Ir3 Os3 Ru2'
_cell_volume   644.10634545
_cell_formula_units_Z   1
loop_
 _symmetry_equiv_pos_site_id
 _symmetry_equiv_pos_as_xyz
  1  'x, y, z'
loop_
 _atom_site_type_symbol
 _atom_site_label
 _atom_site_symmetry_multiplicity
 _atom_site_fract_x
 _atom_site_fract_y
 _atom_site_fract_z
 _atom_site_occupancy
  Y  Y0  1  0.194341  0.385195  0.250318  1
  Y  Y1  1  0.805659  0.614805  0.749682  1
  Y  Y2  1  0.613358  0.806307  0.251235  1
  Y  Y3  1  0.386642  0.193693  0.748765  1
  Y  Y4  1  0.194140  0.808815  0.250748  1
  Y  Y5  1  0.805860  0.191185  0.749252  1
  Al  Al6  1  0.333613  0.666346  0.019700  1
  Al  Al7  1  0.666387  0.333654  0.980300  1
  Al  Al8  1  0.665753  0.332217  0.519591  1
  Al  Al9  1  0.334247  0.667783  0.480409  1
  Al  Al10  1  0.164700  0.326095  0.576932  1
  Al  Al11  1  0.835300  0.673905  0.423068  1
  Al  Al12  1  0.673372  0.836282  0.576938  1
  Al  Al13  1  0.835422  0.674640  0.077506  1
  Al  Al14  1  0.326628  0.163718  0.423062  1
  Al  Al15  1  0.164578  0.325360  0.922494  1
  Al  Al16  1  0.164109  0.838102  0.576719  1
  Al  Al17  1  0.326008  0.165218  0.077059  1
  Al  Al18  1  0.835891  0.161898  0.423281  1
  Al  Al19  1  0.673992  0.834782  0.922941  1
  Al  Al20  1  0.837671  0.163145  0.076902  1
  Al  Al21  1  0.162329  0.836855  0.923098  1
  Al  Al22  1  0.561803  0.123455  0.250575  1
  Al  Al23  1  0.438197  0.876545  0.749425  1
  Al  Al24  1  0.877382  0.438635  0.249695  1
  Al  Al25  1  0.122618  0.561365  0.750305  1
  Al  Al26  1  0.562115  0.438260  0.249676  1
  Al  Al27  1  0.437885  0.561740  0.750324  1
  Al  Al28  1  0.000344  0.000539  0.250006  1
  Al  Al29  1  0.999656  0.999461  0.749994  1
  Ir  Ir30  1  0.500000  0.000000  0.000000  1
  Ir  Ir31  1  0.000000  0.500000  0.000000  1
  Ir  Ir32  1  0.000000  0.500000  0.500000  1
  Os  Os33  1  0.500000  0.000000  0.500000  1
  Os  Os34  1  0.500000  0.500000  0.000000  1
  Os  Os35  1  0.500000  0.500000  0.500000  1
  Ru  Ru36  1  0.000000  0.000000  0.000000  1
  Ru  Ru37  1  0.000000  0.000000  0.500000  1
