# generated using pymatgen
data_YbPa(CuGe)2
_symmetry_space_group_name_H-M   'P 1'
_cell_length_a   4.20766300
_cell_length_b   4.20766407
_cell_length_c   7.60609200
_cell_angle_alpha   90.00000000
_cell_angle_beta   90.00000000
_cell_angle_gamma   119.99999942
_symmetry_Int_Tables_number   1
_chemical_formula_structural   YbPa(CuGe)2
_chemical_formula_sum   'Yb1 Pa1 Cu2 Ge2'
_cell_volume   116.62031692
_cell_formula_units_Z   1
loop_
 _symmetry_equiv_pos_site_id
 _symmetry_equiv_pos_as_xyz
  1  'x, y, z'
loop_
 _atom_site_type_symbol
 _atom_site_label
 _atom_site_symmetry_multiplicity
 _atom_site_fract_x
 _atom_site_fract_y
 _atom_site_fract_z
 _atom_site_occupancy
  Yb  Yb0  1  0.000000  0.000000  0.495838  1
  Pa  Pa1  1  0.000000  0.000000  0.995833  1
  Cu  Cu2  1  0.666667  0.333333  0.237662  1
  Cu  Cu3  1  0.333333  0.666667  0.752109  1
  Ge  Ge4  1  0.666667  0.333333  0.761622  1
  Ge  Ge5  1  0.333333  0.666667  0.231136  1
