# generated using pymatgen
data_Rb2LaY5F20
_symmetry_space_group_name_H-M   'P 1'
_cell_length_a   8.42825071
_cell_length_b   8.42825118
_cell_length_c   8.33253900
_cell_angle_alpha   60.37495547
_cell_angle_beta   60.37495366
_cell_angle_gamma   59.25009116
_symmetry_Int_Tables_number   1
_chemical_formula_structural   Rb2LaY5F20
_chemical_formula_sum   'Rb2 La1 Y5 F20'
_cell_volume   418.43354889
_cell_formula_units_Z   1
loop_
 _symmetry_equiv_pos_site_id
 _symmetry_equiv_pos_as_xyz
  1  'x, y, z'
loop_
 _atom_site_type_symbol
 _atom_site_label
 _atom_site_symmetry_multiplicity
 _atom_site_fract_x
 _atom_site_fract_y
 _atom_site_fract_z
 _atom_site_occupancy
  Rb  Rb0  1  0.248712  0.248712  0.251288  1
  Rb  Rb1  1  0.748712  0.748712  0.751288  1
  La  La2  1  0.756740  0.756740  0.243260  1
  Y  Y3  1  0.759056  0.238635  0.240944  1
  Y  Y4  1  0.238635  0.759056  0.761365  1
  Y  Y5  1  0.238635  0.759056  0.240944  1
  Y  Y6  1  0.759056  0.238635  0.761365  1
  Y  Y7  1  0.240286  0.240286  0.759714  1
  F  F8  1  0.834707  0.489031  0.510969  1
  F  F9  1  0.171592  0.500458  0.499542  1
  F  F10  1  0.489031  0.834707  0.165293  1
  F  F11  1  0.500458  0.171592  0.828408  1
  F  F12  1  0.489031  0.834707  0.510969  1
  F  F13  1  0.171592  0.500458  0.828408  1
  F  F14  1  0.500458  0.171592  0.499542  1
  F  F15  1  0.834707  0.489031  0.165293  1
  F  F16  1  0.500267  0.500267  0.825297  1
  F  F17  1  0.500267  0.500267  0.174168  1
  F  F18  1  0.174703  0.825832  0.499733  1
  F  F19  1  0.825832  0.174703  0.499733  1
  F  F20  1  0.110093  0.110093  0.109714  1
  F  F21  1  0.894287  0.894287  0.877505  1
  F  F22  1  0.110093  0.110093  0.670101  1
  F  F23  1  0.122495  0.666079  0.105713  1
  F  F24  1  0.894287  0.894287  0.333921  1
  F  F25  1  0.890286  0.329899  0.889907  1
  F  F26  1  0.666079  0.122495  0.105713  1
  F  F27  1  0.329899  0.890286  0.889907  1
