# generated using pymatgen
data_TbEu7P6
_symmetry_space_group_name_H-M   'P 1'
_cell_length_a   7.68997130
_cell_length_b   7.68997183
_cell_length_c   7.65503400
_cell_angle_alpha   109.37922049
_cell_angle_beta   109.37922190
_cell_angle_gamma   109.56306479
_symmetry_Int_Tables_number   1
_chemical_formula_structural   TbEu7P6
_chemical_formula_sum   'Tb1 Eu7 P6'
_cell_volume   348.87233315
_cell_formula_units_Z   1
loop_
 _symmetry_equiv_pos_site_id
 _symmetry_equiv_pos_as_xyz
  1  'x, y, z'
loop_
 _atom_site_type_symbol
 _atom_site_label
 _atom_site_symmetry_multiplicity
 _atom_site_fract_x
 _atom_site_fract_y
 _atom_site_fract_z
 _atom_site_occupancy
  Tb  Tb0  1  0.500000  0.000000  0.371072  1
  Eu  Eu1  1  0.633873  0.634327  0.633371  1
  Eu  Eu2  1  0.003984  0.370527  0.501124  1
  Eu  Eu3  1  0.366542  0.496016  0.997139  1
  Eu  Eu4  1  0.000454  0.866127  0.499497  1
  Eu  Eu5  1  0.865673  0.499546  0.999044  1
  Eu  Eu6  1  0.500000  0.000000  0.867976  1
  Eu  Eu7  1  0.129473  0.133458  0.130597  1
  P  P8  1  0.865500  0.122644  0.739252  1
  P  P9  1  0.377356  0.242856  0.616608  1
  P  P10  1  0.132857  0.755199  0.886208  1
  P  P11  1  0.744801  0.877658  0.131009  1
  P  P12  1  0.257144  0.634500  0.373752  1
  P  P13  1  0.622342  0.367143  0.253351  1
