# generated using pymatgen
data_LaEr2AuO7
_symmetry_space_group_name_H-M   'P 1'
_cell_length_a   6.49698452
_cell_length_b   6.49698468
_cell_length_c   7.53355600
_cell_angle_alpha   90.00000000
_cell_angle_beta   90.00000000
_cell_angle_gamma   108.64561746
_symmetry_Int_Tables_number   1
_chemical_formula_structural   LaEr2AuO7
_chemical_formula_sum   'La2 Er4 Au2 O14'
_cell_volume   301.30712779
_cell_formula_units_Z   2
loop_
 _symmetry_equiv_pos_site_id
 _symmetry_equiv_pos_as_xyz
  1  'x, y, z'
loop_
 _atom_site_type_symbol
 _atom_site_label
 _atom_site_symmetry_multiplicity
 _atom_site_fract_x
 _atom_site_fract_y
 _atom_site_fract_z
 _atom_site_occupancy
  La  La0  1  0.000000  0.000000  0.500000  1
  La  La1  1  0.000000  0.000000  0.000000  1
  Er  Er2  1  0.511743  0.054025  0.250000  1
  Er  Er3  1  0.945975  0.488257  0.750000  1
  Er  Er4  1  0.488257  0.945975  0.750000  1
  Er  Er5  1  0.054025  0.511743  0.250000  1
  Au  Au6  1  0.500000  0.500000  0.500000  1
  Au  Au7  1  0.500000  0.500000  0.000000  1
  O  O8  1  0.438796  0.172330  0.529875  1
  O  O9  1  0.827670  0.561204  0.470125  1
  O  O10  1  0.438796  0.172330  0.970125  1
  O  O11  1  0.827670  0.561204  0.029875  1
  O  O12  1  0.561204  0.827670  0.470125  1
  O  O13  1  0.172330  0.438796  0.529875  1
  O  O14  1  0.561204  0.827670  0.029875  1
  O  O15  1  0.172330  0.438796  0.970125  1
  O  O16  1  0.161634  0.872669  0.250000  1
  O  O17  1  0.127331  0.838366  0.750000  1
  O  O18  1  0.838366  0.127331  0.750000  1
  O  O19  1  0.872669  0.161634  0.250000  1
  O  O20  1  0.393849  0.393849  0.250000  1
  O  O21  1  0.606151  0.606151  0.750000  1
