# generated using pymatgen
data_TbHo2Co8MoP6
_symmetry_space_group_name_H-M   'P 1'
_cell_length_a   3.71401300
_cell_length_b   10.53898500
_cell_length_c   12.22481000
_cell_angle_alpha   90.00000000
_cell_angle_beta   90.00000000
_cell_angle_gamma   90.00000000
_symmetry_Int_Tables_number   1
_chemical_formula_structural   TbHo2Co8MoP6
_chemical_formula_sum   'Tb2 Ho4 Co16 Mo2 P12'
_cell_volume   478.50262424
_cell_formula_units_Z   2
loop_
 _symmetry_equiv_pos_site_id
 _symmetry_equiv_pos_as_xyz
  1  'x, y, z'
loop_
 _atom_site_type_symbol
 _atom_site_label
 _atom_site_symmetry_multiplicity
 _atom_site_fract_x
 _atom_site_fract_y
 _atom_site_fract_z
 _atom_site_occupancy
  Tb  Tb0  1  0.000000  0.500000  0.524847  1
  Tb  Tb1  1  0.500000  0.000000  0.475153  1
  Ho  Ho2  1  0.500000  0.819014  0.204982  1
  Ho  Ho3  1  0.500000  0.180986  0.204982  1
  Ho  Ho4  1  0.000000  0.680986  0.795018  1
  Ho  Ho5  1  0.000000  0.319014  0.795018  1
  Co  Co6  1  0.000000  0.500000  0.986363  1
  Co  Co7  1  0.500000  0.000000  0.013637  1
  Co  Co8  1  0.500000  0.295664  0.431265  1
  Co  Co9  1  0.500000  0.704336  0.431265  1
  Co  Co10  1  0.000000  0.204336  0.568735  1
  Co  Co11  1  0.000000  0.795664  0.568735  1
  Co  Co12  1  0.500000  0.877984  0.706931  1
  Co  Co13  1  0.500000  0.122016  0.706931  1
  Co  Co14  1  0.000000  0.622016  0.293069  1
  Co  Co15  1  0.000000  0.377984  0.293069  1
  Co  Co16  1  0.500000  0.332421  0.990124  1
  Co  Co17  1  0.500000  0.667579  0.990124  1
  Co  Co18  1  0.000000  0.167579  0.009876  1
  Co  Co19  1  0.000000  0.832421  0.009876  1
  Co  Co20  1  0.500000  0.500000  0.701837  1
  Co  Co21  1  0.000000  0.000000  0.298163  1
  Mo  Mo22  1  0.500000  0.500000  0.156227  1
  Mo  Mo23  1  0.000000  0.000000  0.843773  1
  P  P24  1  0.500000  0.311026  0.616191  1
  P  P25  1  0.500000  0.688974  0.616191  1
  P  P26  1  0.000000  0.188974  0.383809  1
  P  P27  1  0.000000  0.811026  0.383809  1
  P  P28  1  0.500000  0.500000  0.880698  1
  P  P29  1  0.000000  0.000000  0.119302  1
  P  P30  1  0.500000  0.844510  0.892772  1
  P  P31  1  0.500000  0.155490  0.892772  1
  P  P32  1  0.000000  0.655490  0.107228  1
  P  P33  1  0.000000  0.344510  0.107228  1
  P  P34  1  0.500000  0.500000  0.349088  1
  P  P35  1  0.000000  0.000000  0.650912  1
