# generated using pymatgen
data_Na4PrAs12Rh19
_symmetry_space_group_name_H-M   'P 1'
_cell_length_a   13.16654452
_cell_length_b   13.18063993
_cell_length_c   3.99984600
_cell_angle_alpha   90.00000000
_cell_angle_beta   90.00000000
_cell_angle_gamma   120.03541800
_symmetry_Int_Tables_number   1
_chemical_formula_structural   Na4PrAs12Rh19
_chemical_formula_sum   'Na4 Pr1 As12 Rh19'
_cell_volume   600.93445051
_cell_formula_units_Z   1
loop_
 _symmetry_equiv_pos_site_id
 _symmetry_equiv_pos_as_xyz
  1  'x, y, z'
loop_
 _atom_site_type_symbol
 _atom_site_label
 _atom_site_symmetry_multiplicity
 _atom_site_fract_x
 _atom_site_fract_y
 _atom_site_fract_z
 _atom_site_occupancy
  Na  Na0  1  0.816976  0.815417  0.500000  1
  Na  Na1  1  0.183024  0.998441  0.500000  1
  Na  Na2  1  0.668313  0.334401  0.000000  1
  Na  Na3  1  0.331687  0.666089  0.000000  1
  Pr  Pr4  1  0.000000  0.177838  0.500000  1
  As  As5  1  0.488541  0.319648  0.500000  1
  As  As6  1  0.814291  0.993307  0.000000  1
  As  As7  1  0.185709  0.179016  0.000000  1
  As  As8  1  0.000000  0.820352  0.000000  1
  As  As9  1  0.362586  0.000432  0.000000  1
  As  As10  1  0.681146  0.167174  0.500000  1
  As  As11  1  0.833378  0.515384  0.500000  1
  As  As12  1  0.511459  0.831107  0.500000  1
  As  As13  1  0.166622  0.682007  0.500000  1
  As  As14  1  0.318854  0.486028  0.500000  1
  As  As15  1  0.000000  0.364760  0.000000  1
  As  As16  1  0.637414  0.637846  0.000000  1
  Rh  Rh17  1  0.802214  0.177041  0.000000  1
  Rh  Rh18  1  0.380946  0.199574  0.000000  1
  Rh  Rh19  1  0.645674  0.519631  0.500000  1
  Rh  Rh20  1  0.872724  0.354438  0.500000  1
  Rh  Rh21  1  0.354326  0.873957  0.500000  1
  Rh  Rh22  1  0.517226  0.644694  0.500000  1
  Rh  Rh23  1  0.127276  0.481714  0.500000  1
  Rh  Rh24  1  0.820611  0.623782  0.000000  1
  Rh  Rh25  1  0.619054  0.818627  0.000000  1
  Rh  Rh26  1  0.179389  0.803170  0.000000  1
  Rh  Rh27  1  0.197786  0.374826  0.000000  1
  Rh  Rh28  1  0.000000  0.714707  0.500000  1
  Rh  Rh29  1  0.288237  0.287265  0.500000  1
  Rh  Rh30  1  0.711763  0.999028  0.500000  1
  Rh  Rh31  1  0.000000  0.548280  0.000000  1
  Rh  Rh32  1  0.451918  0.455742  0.000000  1
  Rh  Rh33  1  0.548082  0.003824  0.000000  1
  Rh  Rh34  1  0.000000  0.002983  0.000000  1
  Rh  Rh35  1  0.482774  0.127468  0.500000  1
