# generated using pymatgen
data_BaIr2AuO8
_symmetry_space_group_name_H-M   'P 1'
_cell_length_a   7.85366854
_cell_length_b   7.85209618
_cell_length_c   7.34267900
_cell_angle_alpha   117.81873201
_cell_angle_beta   62.20964062
_cell_angle_gamma   90.54960057
_symmetry_Int_Tables_number   1
_chemical_formula_structural   BaIr2AuO8
_chemical_formula_sum   'Ba2 Ir4 Au2 O16'
_cell_volume   341.53689250
_cell_formula_units_Z   2
loop_
 _symmetry_equiv_pos_site_id
 _symmetry_equiv_pos_as_xyz
  1  'x, y, z'
loop_
 _atom_site_type_symbol
 _atom_site_label
 _atom_site_symmetry_multiplicity
 _atom_site_fract_x
 _atom_site_fract_y
 _atom_site_fract_z
 _atom_site_occupancy
  Ba  Ba0  1  0.727665  0.727772  0.249997  1
  Ba  Ba1  1  0.272224  0.272346  0.750107  1
  Ir  Ir2  1  0.813275  0.187098  0.188237  1
  Ir  Ir3  1  0.187063  0.813248  0.311776  1
  Ir  Ir4  1  0.812876  0.186813  0.688283  1
  Ir  Ir5  1  0.186749  0.812883  0.811741  1
  Au  Au6  1  0.378526  0.378294  0.249943  1
  Au  Au7  1  0.621532  0.621644  0.750003  1
  O  O8  1  0.102844  0.101024  0.047243  1
  O  O9  1  0.131021  0.727648  0.047161  1
  O  O10  1  0.461748  0.793247  0.113848  1
  O  O11  1  0.212159  0.536314  0.209471  1
  O  O12  1  0.536516  0.211888  0.290316  1
  O  O13  1  0.793247  0.461919  0.386274  1
  O  O14  1  0.727668  0.131161  0.452866  1
  O  O15  1  0.100873  0.102941  0.452890  1
  O  O16  1  0.899032  0.897147  0.547196  1
  O  O17  1  0.272277  0.868986  0.547247  1
  O  O18  1  0.207054  0.537987  0.613710  1
  O  O19  1  0.463576  0.787780  0.709296  1
  O  O20  1  0.787787  0.463740  0.790719  1
  O  O21  1  0.538206  0.206804  0.886070  1
  O  O22  1  0.868848  0.272396  0.952915  1
  O  O23  1  0.897227  0.898919  0.952687  1
