# generated using pymatgen
data_La2TbPt2
_symmetry_space_group_name_H-M   'P 1'
_cell_length_a   7.75781804
_cell_length_b   7.75781827
_cell_length_c   7.75781881
_cell_angle_alpha   71.00911880
_cell_angle_beta   71.00912066
_cell_angle_gamma   71.00911465
_symmetry_Int_Tables_number   1
_chemical_formula_structural   La2TbPt2
_chemical_formula_sum   'La6 Tb3 Pt6'
_cell_volume   404.67433202
_cell_formula_units_Z   3
loop_
 _symmetry_equiv_pos_site_id
 _symmetry_equiv_pos_as_xyz
  1  'x, y, z'
loop_
 _atom_site_type_symbol
 _atom_site_label
 _atom_site_symmetry_multiplicity
 _atom_site_fract_x
 _atom_site_fract_y
 _atom_site_fract_z
 _atom_site_occupancy
  La  La0  1  0.327975  0.607861  0.838365  1
  La  La1  1  0.838365  0.327975  0.607861  1
  La  La2  1  0.607861  0.838365  0.327975  1
  La  La3  1  0.672025  0.392139  0.161635  1
  La  La4  1  0.161635  0.672025  0.392139  1
  La  La5  1  0.392139  0.161635  0.672025  1
  Tb  Tb6  1  0.000000  0.000000  0.000000  1
  Tb  Tb7  1  0.803366  0.803366  0.803366  1
  Tb  Tb8  1  0.196634  0.196634  0.196634  1
  Pt  Pt9  1  0.159650  0.962825  0.591270  1
  Pt  Pt10  1  0.591270  0.159650  0.962825  1
  Pt  Pt11  1  0.962825  0.591270  0.159650  1
  Pt  Pt12  1  0.840350  0.037175  0.408730  1
  Pt  Pt13  1  0.408730  0.840350  0.037175  1
  Pt  Pt14  1  0.037175  0.408730  0.840350  1
