# generated using pymatgen
data_YHo5Sc2Re11Si16W
_symmetry_space_group_name_H-M   'P 1'
_cell_length_a   6.74552165
_cell_length_b   6.74232945
_cell_length_c   12.73275422
_cell_angle_alpha   90.45415897
_cell_angle_beta   90.09058890
_cell_angle_gamma   90.16730577
_symmetry_Int_Tables_number   1
_chemical_formula_structural   YHo5Sc2Re11Si16W
_chemical_formula_sum   'Y1 Ho5 Sc2 Re11 Si16 W1'
_cell_volume   579.07099500
_cell_formula_units_Z   1
loop_
 _symmetry_equiv_pos_site_id
 _symmetry_equiv_pos_as_xyz
  1  'x, y, z'
loop_
 _atom_site_type_symbol
 _atom_site_label
 _atom_site_symmetry_multiplicity
 _atom_site_fract_x
 _atom_site_fract_y
 _atom_site_fract_z
 _atom_site_occupancy
  Y  Y0  1  0.491388  0.161718  0.218129  1
  Ho  Ho1  1  0.007955  0.664112  0.029478  1
  Ho  Ho2  1  0.991915  0.333587  0.532756  1
  Ho  Ho3  1  0.335760  0.991845  0.469124  1
  Ho  Ho4  1  0.165229  0.493923  0.782540  1
  Ho  Ho5  1  0.837586  0.507309  0.278707  1
  Sc  Sc6  1  0.510560  0.840102  0.720675  1
  Sc  Sc7  1  0.659507  0.012247  0.968931  1
  Re  Re8  1  0.162041  0.834923  0.249839  1
  Re  Re9  1  0.339481  0.332143  0.997416  1
  Re  Re10  1  0.017466  0.814708  0.633057  1
  Re  Re11  1  0.983520  0.189128  0.128038  1
  Re  Re12  1  0.808911  0.002870  0.372885  1
  Re  Re13  1  0.311649  0.479808  0.382711  1
  Re  Re14  1  0.682697  0.521111  0.879809  1
  Re  Re15  1  0.489070  0.319713  0.622311  1
  Re  Re16  1  0.521923  0.696105  0.113189  1
  Re  Re17  1  0.190096  0.978450  0.864424  1
  Re  Re18  1  0.829626  0.160946  0.752987  1
  Si  Si19  1  0.024157  0.717900  0.439251  1
  Si  Si20  1  0.616033  0.300268  0.433337  1
  Si  Si21  1  0.388946  0.702516  0.930675  1
  Si  Si22  1  0.202300  0.114500  0.683547  1
  Si  Si23  1  0.303884  0.619617  0.569678  1
  Si  Si24  1  0.695716  0.385153  0.064219  1
  Si  Si25  1  0.805169  0.890443  0.181296  1
  Si  Si26  1  0.108539  0.193179  0.316490  1
  Si  Si27  1  0.977472  0.269317  0.937138  1
  Si  Si28  1  0.717953  0.021104  0.568657  1
  Si  Si29  1  0.233371  0.484698  0.187565  1
  Si  Si30  1  0.778022  0.527091  0.690929  1
  Si  Si31  1  0.479910  0.217198  0.814446  1
  Si  Si32  1  0.514432  0.767186  0.308156  1
  Si  Si33  1  0.277796  0.982020  0.056724  1
  Si  Si34  1  0.877689  0.809551  0.818417  1
  W  W35  1  0.662233  0.663511  0.502466  1
