# generated using pymatgen
data_La6Tb2Cd2RuPt
_symmetry_space_group_name_H-M   'P 1'
_cell_length_a   10.00740763
_cell_length_b   10.00599538
_cell_length_c   10.00668774
_cell_angle_alpha   60.04907062
_cell_angle_beta   59.78753044
_cell_angle_gamma   60.67690973
_symmetry_Int_Tables_number   1
_chemical_formula_structural   La6Tb2Cd2RuPt
_chemical_formula_sum   'La12 Tb4 Cd4 Ru2 Pt2'
_cell_volume   711.18469393
_cell_formula_units_Z   2
loop_
 _symmetry_equiv_pos_site_id
 _symmetry_equiv_pos_as_xyz
  1  'x, y, z'
loop_
 _atom_site_type_symbol
 _atom_site_label
 _atom_site_symmetry_multiplicity
 _atom_site_fract_x
 _atom_site_fract_y
 _atom_site_fract_z
 _atom_site_occupancy
  La  La0  1  0.309989  0.690240  0.310131  1
  La  La1  1  0.688867  0.692561  0.305574  1
  La  La2  1  0.688731  0.309668  0.310520  1
  La  La3  1  0.299596  0.890514  0.905049  1
  La  La4  1  0.889611  0.298615  0.905189  1
  La  La5  1  0.306100  0.690377  0.693015  1
  La  La6  1  0.900780  0.900889  0.294351  1
  La  La7  1  0.066172  0.444812  0.060639  1
  La  La8  1  0.311112  0.306134  0.693857  1
  La  La9  1  0.063805  0.444971  0.430988  1
  La  La10  1  0.444985  0.064357  0.425064  1
  La  La11  1  0.687300  0.306502  0.693221  1
  Tb  Tb12  1  0.897156  0.905624  0.905407  1
  Tb  Tb13  1  0.442601  0.437154  0.058756  1
  Tb  Tb14  1  0.059780  0.055098  0.441791  1
  Tb  Tb15  1  0.444895  0.060958  0.059447  1
  Cd  Cd16  1  0.669861  0.673543  0.988639  1
  Cd  Cd17  1  0.986966  0.676242  0.670334  1
  Cd  Cd18  1  0.673837  0.987456  0.673453  1
  Cd  Cd19  1  0.669869  0.669338  0.672896  1
  Ru  Ru20  1  0.107456  0.669619  0.108029  1
  Ru  Ru21  1  0.672145  0.110426  0.109763  1
  Pt  Pt22  1  0.105797  0.105429  0.675194  1
  Pt  Pt23  1  0.112587  0.109469  0.108694  1
