# generated using pymatgen
data_YTaSnB2Ru5
_symmetry_space_group_name_H-M   'P 1'
_cell_length_a   9.64006084
_cell_length_b   9.64006158
_cell_length_c   3.09233000
_cell_angle_alpha   90.00000000
_cell_angle_beta   90.00000000
_cell_angle_gamma   91.97824624
_symmetry_Int_Tables_number   1
_chemical_formula_structural   YTaSnB2Ru5
_chemical_formula_sum   'Y2 Ta2 Sn2 B4 Ru10'
_cell_volume   287.20136684
_cell_formula_units_Z   2
loop_
 _symmetry_equiv_pos_site_id
 _symmetry_equiv_pos_as_xyz
  1  'x, y, z'
loop_
 _atom_site_type_symbol
 _atom_site_label
 _atom_site_symmetry_multiplicity
 _atom_site_fract_x
 _atom_site_fract_y
 _atom_site_fract_z
 _atom_site_occupancy
  Y  Y0  1  0.822446  0.677554  0.000000  1
  Y  Y1  1  0.177554  0.322446  0.000000  1
  Ta  Ta2  1  0.325953  0.825953  0.000000  1
  Ta  Ta3  1  0.674047  0.174047  0.000000  1
  Sn  Sn4  1  0.500000  0.500000  0.000000  1
  Sn  Sn5  1  0.000000  0.000000  0.000000  1
  B  B6  1  0.618852  0.881148  0.000000  1
  B  B7  1  0.381148  0.118852  0.000000  1
  B  B8  1  0.122424  0.622424  0.000000  1
  B  B9  1  0.877576  0.377576  0.000000  1
  Ru  Ru10  1  0.553500  0.729241  0.500000  1
  Ru  Ru11  1  0.446500  0.270759  0.500000  1
  Ru  Ru12  1  0.087701  0.783294  0.500000  1
  Ru  Ru13  1  0.912299  0.216706  0.500000  1
  Ru  Ru14  1  0.283294  0.587701  0.500000  1
  Ru  Ru15  1  0.716706  0.412299  0.500000  1
  Ru  Ru16  1  0.229241  0.053500  0.500000  1
  Ru  Ru17  1  0.770759  0.946500  0.500000  1
  Ru  Ru18  1  0.500000  0.000000  0.500000  1
  Ru  Ru19  1  0.000000  0.500000  0.500000  1
