# generated using pymatgen
data_Ce3Zn2HgPt3
_symmetry_space_group_name_H-M   'P 1'
_cell_length_a   7.59740200
_cell_length_b   7.50264424
_cell_length_c   3.93213300
_cell_angle_alpha   90.00000000
_cell_angle_beta   90.00000000
_cell_angle_gamma   120.41868114
_symmetry_Int_Tables_number   1
_chemical_formula_structural   Ce3Zn2HgPt3
_chemical_formula_sum   'Ce3 Zn2 Hg1 Pt3'
_cell_volume   193.28161165
_cell_formula_units_Z   1
loop_
 _symmetry_equiv_pos_site_id
 _symmetry_equiv_pos_as_xyz
  1  'x, y, z'
loop_
 _atom_site_type_symbol
 _atom_site_label
 _atom_site_symmetry_multiplicity
 _atom_site_fract_x
 _atom_site_fract_y
 _atom_site_fract_z
 _atom_site_occupancy
  Ce  Ce0  1  0.410968  0.412355  0.000000  1
  Ce  Ce1  1  0.595635  0.000000  0.000000  1
  Ce  Ce2  1  0.998613  0.587645  0.000000  1
  Zn  Zn3  1  0.001379  0.250247  0.500000  1
  Zn  Zn4  1  0.751132  0.749753  0.500000  1
  Hg  Hg5  1  0.250477  0.000000  0.500000  1
  Pt  Pt6  1  0.337420  0.654613  0.500000  1
  Pt  Pt7  1  0.971570  0.000000  0.000000  1
  Pt  Pt8  1  0.682807  0.345387  0.500000  1
