# generated using pymatgen
data_Ho16InNi4Hg3
_symmetry_space_group_name_H-M   'P 1'
_cell_length_a   9.49068870
_cell_length_b   9.46955638
_cell_length_c   9.46955800
_cell_angle_alpha   60.00000131
_cell_angle_beta   60.07363061
_cell_angle_gamma   60.07362349
_symmetry_Int_Tables_number   1
_chemical_formula_structural   Ho16InNi4Hg3
_chemical_formula_sum   'Ho16 In1 Ni4 Hg3'
_cell_volume   602.45483816
_cell_formula_units_Z   1
loop_
 _symmetry_equiv_pos_site_id
 _symmetry_equiv_pos_as_xyz
  1  'x, y, z'
loop_
 _atom_site_type_symbol
 _atom_site_label
 _atom_site_symmetry_multiplicity
 _atom_site_fract_x
 _atom_site_fract_y
 _atom_site_fract_z
 _atom_site_occupancy
  Ho  Ho0  1  0.350186  0.349973  0.349973  1
  Ho  Ho1  1  0.350186  0.349973  0.949867  1
  Ho  Ho2  1  0.350186  0.949867  0.349973  1
  Ho  Ho3  1  0.946695  0.351101  0.351101  1
  Ho  Ho4  1  0.811813  0.187954  0.187954  1
  Ho  Ho5  1  0.187017  0.811997  0.811997  1
  Ho  Ho6  1  0.187017  0.811997  0.188987  1
  Ho  Ho7  1  0.811813  0.187954  0.812280  1
  Ho  Ho8  1  0.187017  0.188987  0.811997  1
  Ho  Ho9  1  0.811813  0.812280  0.187954  1
  Ho  Ho10  1  0.934213  0.564201  0.564200  1
  Ho  Ho11  1  0.561558  0.937120  0.937119  1
  Ho  Ho12  1  0.561559  0.937120  0.564203  1
  Ho  Ho13  1  0.934213  0.564201  0.937385  1
  Ho  Ho14  1  0.561558  0.564204  0.937119  1
  Ho  Ho15  1  0.934213  0.937386  0.564200  1
  In  In16  1  0.259528  0.580158  0.580158  1
  Ni  Ni17  1  0.142808  0.142426  0.142426  1
  Ni  Ni18  1  0.142808  0.142426  0.572338  1
  Ni  Ni19  1  0.142808  0.572338  0.142426  1
  Ni  Ni20  1  0.570951  0.143016  0.143016  1
  Hg  Hg21  1  0.586679  0.585674  0.585674  1
  Hg  Hg22  1  0.586679  0.585674  0.241973  1
  Hg  Hg23  1  0.586679  0.241973  0.585674  1
