# generated using pymatgen
data_Dy2Er6Ti3Si16Mo9
_symmetry_space_group_name_H-M   'P 1'
_cell_length_a   6.90149821
_cell_length_b   6.90150885
_cell_length_c   12.77890724
_cell_angle_alpha   89.98681817
_cell_angle_beta   89.98233729
_cell_angle_gamma   89.78598345
_symmetry_Int_Tables_number   1
_chemical_formula_structural   Dy2Er6Ti3Si16Mo9
_chemical_formula_sum   'Dy2 Er6 Ti3 Si16 Mo9'
_cell_volume   608.66465662
_cell_formula_units_Z   1
loop_
 _symmetry_equiv_pos_site_id
 _symmetry_equiv_pos_as_xyz
  1  'x, y, z'
loop_
 _atom_site_type_symbol
 _atom_site_label
 _atom_site_symmetry_multiplicity
 _atom_site_fract_x
 _atom_site_fract_y
 _atom_site_fract_z
 _atom_site_occupancy
  Dy  Dy0  1  0.339275  0.002056  0.468483  1
  Dy  Dy1  1  0.497029  0.838834  0.719372  1
  Er  Er2  1  0.499158  0.161617  0.217461  1
  Er  Er3  1  0.839121  0.497432  0.280715  1
  Er  Er4  1  0.161533  0.499060  0.782499  1
  Er  Er5  1  0.659446  0.000275  0.968992  1
  Er  Er6  1  0.001442  0.339816  0.531355  1
  Er  Er7  1  0.000176  0.659359  0.031134  1
  Ti  Ti8  1  0.169856  0.831475  0.248499  1
  Ti  Ti9  1  0.831641  0.169980  0.751393  1
  Ti  Ti10  1  0.669061  0.668673  0.499904  1
  Si  Si11  1  0.200519  0.129901  0.683470  1
  Si  Si12  1  0.373283  0.697211  0.933999  1
  Si  Si13  1  0.629512  0.299327  0.433251  1
  Si  Si14  1  0.697332  0.373362  0.066226  1
  Si  Si15  1  0.298623  0.628156  0.566550  1
  Si  Si16  1  0.796710  0.871399  0.183820  1
  Si  Si17  1  0.129134  0.201320  0.316441  1
  Si  Si18  1  0.872056  0.796682  0.816305  1
  Si  Si19  1  0.288102  0.963691  0.061669  1
  Si  Si20  1  0.539612  0.791294  0.313293  1
  Si  Si21  1  0.458269  0.211159  0.815276  1
  Si  Si22  1  0.791893  0.538981  0.686444  1
  Si  Si23  1  0.210513  0.458319  0.184885  1
  Si  Si24  1  0.710441  0.041409  0.563792  1
  Si  Si25  1  0.963697  0.288085  0.938356  1
  Si  Si26  1  0.040685  0.709163  0.436095  1
  Mo  Mo27  1  0.331410  0.331386  0.000001  1
  Mo  Mo28  1  0.155441  0.001574  0.873229  1
  Mo  Mo29  1  0.496636  0.666503  0.124368  1
  Mo  Mo30  1  0.505793  0.340703  0.624650  1
  Mo  Mo31  1  0.666735  0.496457  0.875742  1
  Mo  Mo32  1  0.340478  0.505550  0.375377  1
  Mo  Mo33  1  0.840606  0.993621  0.374136  1
  Mo  Mo34  1  0.001344  0.155652  0.126944  1
  Mo  Mo35  1  0.993438  0.840517  0.625875  1
