# generated using pymatgen
data_Th8CuNiRu6
_symmetry_space_group_name_H-M   'P 1'
_cell_length_a   4.08702800
_cell_length_b   6.02525487
_cell_length_c   14.81326138
_cell_angle_alpha   90.45842667
_cell_angle_beta   90.00000000
_cell_angle_gamma   90.00000000
_symmetry_Int_Tables_number   1
_chemical_formula_structural   Th8CuNiRu6
_chemical_formula_sum   'Th8 Cu1 Ni1 Ru6'
_cell_volume   364.77059407
_cell_formula_units_Z   1
loop_
 _symmetry_equiv_pos_site_id
 _symmetry_equiv_pos_as_xyz
  1  'x, y, z'
loop_
 _atom_site_type_symbol
 _atom_site_label
 _atom_site_symmetry_multiplicity
 _atom_site_fract_x
 _atom_site_fract_y
 _atom_site_fract_z
 _atom_site_occupancy
  Th  Th0  1  0.250000  0.546247  0.286840  1
  Th  Th1  1  0.750000  0.451473  0.713476  1
  Th  Th2  1  0.250000  0.949761  0.784058  1
  Th  Th3  1  0.250000  0.758119  0.535187  1
  Th  Th4  1  0.250000  0.740949  0.033628  1
  Th  Th5  1  0.750000  0.256209  0.955875  1
  Th  Th6  1  0.750000  0.034928  0.220451  1
  Th  Th7  1  0.750000  0.245193  0.463605  1
  Cu  Cu8  1  0.250000  0.255906  0.104914  1
  Ni  Ni9  1  0.250000  0.262543  0.600758  1
  Ru  Ru10  1  0.250000  0.061708  0.348566  1
  Ru  Ru11  1  0.750000  0.546641  0.146515  1
  Ru  Ru12  1  0.750000  0.717212  0.405577  1
  Ru  Ru13  1  0.250000  0.437471  0.848019  1
  Ru  Ru14  1  0.750000  0.949242  0.647067  1
  Ru  Ru15  1  0.750000  0.786397  0.905463  1
