# generated using pymatgen
data_Tb2SnGe2(PRh3)4
_symmetry_space_group_name_H-M   'P 1'
_cell_length_a   3.87119465
_cell_length_b   9.91487102
_cell_length_c   9.90976959
_cell_angle_alpha   120.31709371
_cell_angle_beta   90.17480709
_cell_angle_gamma   89.84287771
_symmetry_Int_Tables_number   1
_chemical_formula_structural   Tb2SnGe2(PRh3)4
_chemical_formula_sum   'Tb2 Sn1 Ge2 P4 Rh12'
_cell_volume   328.34262005
_cell_formula_units_Z   1
loop_
 _symmetry_equiv_pos_site_id
 _symmetry_equiv_pos_as_xyz
  1  'x, y, z'
loop_
 _atom_site_type_symbol
 _atom_site_label
 _atom_site_symmetry_multiplicity
 _atom_site_fract_x
 _atom_site_fract_y
 _atom_site_fract_z
 _atom_site_occupancy
  Tb  Tb0  1  0.237864  0.666186  0.329150  1
  Tb  Tb1  1  0.735705  0.334799  0.666254  1
  Sn  Sn2  1  0.760652  0.003254  0.996719  1
  Ge  Ge3  1  0.738636  0.881924  0.595971  1
  Ge  Ge4  1  0.737981  0.404576  0.289119  1
  P  P5  1  0.735946  0.712360  0.116606  1
  P  P6  1  0.235457  0.111483  0.402646  1
  P  P7  1  0.236703  0.597689  0.710298  1
  P  P8  1  0.236494  0.292966  0.883727  1
  Rh  Rh9  1  0.736508  0.143875  0.838429  1
  Rh  Rh10  1  0.734674  0.156164  0.295285  1
  Rh  Rh11  1  0.735641  0.704726  0.875299  1
  Rh  Rh12  1  0.235653  0.877533  0.149079  1
  Rh  Rh13  1  0.240885  0.852232  0.745061  1
  Rh  Rh14  1  0.239056  0.263128  0.106346  1
  Rh  Rh15  1  0.738423  0.616312  0.563319  1
  Rh  Rh16  1  0.737599  0.455426  0.064582  1
  Rh  Rh17  1  0.735914  0.929588  0.374723  1
  Rh  Rh18  1  0.236932  0.382926  0.453976  1
  Rh  Rh19  1  0.236458  0.548004  0.933932  1
  Rh  Rh20  1  0.236817  0.064849  0.609479  1
