# generated using pymatgen
data_Dy13Tm7Co3Bi8Os
_symmetry_space_group_name_H-M   'P 1'
_cell_length_a   7.93389847
_cell_length_b   8.91143450
_cell_length_c   12.42117477
_cell_angle_alpha   89.97198676
_cell_angle_beta   90.30107251
_cell_angle_gamma   90.02636996
_symmetry_Int_Tables_number   1
_chemical_formula_structural   Dy13Tm7Co3Bi8Os
_chemical_formula_sum   'Dy13 Tm7 Co3 Bi8 Os1'
_cell_volume   878.19475088
_cell_formula_units_Z   1
loop_
 _symmetry_equiv_pos_site_id
 _symmetry_equiv_pos_as_xyz
  1  'x, y, z'
loop_
 _atom_site_type_symbol
 _atom_site_label
 _atom_site_symmetry_multiplicity
 _atom_site_fract_x
 _atom_site_fract_y
 _atom_site_fract_z
 _atom_site_occupancy
  Dy  Dy0  1  0.847136  0.750318  0.800245  1
  Dy  Dy1  1  0.151746  0.249876  0.198393  1
  Dy  Dy2  1  0.348698  0.249941  0.698730  1
  Dy  Dy3  1  0.654012  0.750025  0.294417  1
  Dy  Dy4  1  0.377588  0.749889  0.692496  1
  Dy  Dy5  1  0.619034  0.250056  0.312428  1
  Dy  Dy6  1  0.879929  0.249592  0.812712  1
  Dy  Dy7  1  0.118683  0.750622  0.185729  1
  Dy  Dy8  1  0.944438  0.750081  0.504122  1
  Dy  Dy9  1  0.052076  0.249962  0.496379  1
  Dy  Dy10  1  0.450889  0.249524  0.997144  1
  Dy  Dy11  1  0.550599  0.750318  0.002638  1
  Dy  Dy12  1  0.175410  0.533785  0.936821  1
  Tm  Tm13  1  0.673993  0.041363  0.564990  1
  Tm  Tm14  1  0.326801  0.964564  0.436540  1
  Tm  Tm15  1  0.172825  0.965830  0.937046  1
  Tm  Tm16  1  0.326722  0.535423  0.436629  1
  Tm  Tm17  1  0.826463  0.036589  0.063118  1
  Tm  Tm18  1  0.674050  0.458693  0.564954  1
  Tm  Tm19  1  0.826072  0.463682  0.063135  1
  Co  Co20  1  0.435038  0.249990  0.491814  1
  Co  Co21  1  0.058816  0.249329  0.992948  1
  Co  Co22  1  0.937471  0.750841  0.006839  1
  Bi  Bi23  1  0.570362  0.491943  0.827179  1
  Bi  Bi24  1  0.430082  0.506911  0.172918  1
  Bi  Bi25  1  0.068725  0.506794  0.674049  1
  Bi  Bi26  1  0.430275  0.993094  0.172986  1
  Bi  Bi27  1  0.932702  0.492852  0.325883  1
  Bi  Bi28  1  0.569088  0.007772  0.827384  1
  Bi  Bi29  1  0.932661  0.007210  0.326007  1
  Bi  Bi30  1  0.068983  0.993108  0.674414  1
  Os  Os31  1  0.568633  0.750022  0.508909  1
