# generated using pymatgen
data_YHo7Re2(B12Ir)2
_symmetry_space_group_name_H-M   'P 1'
_cell_length_a   3.66153400
_cell_length_b   9.14366047
_cell_length_c   11.52959400
_cell_angle_alpha   90.33436723
_cell_angle_beta   90.00000000
_cell_angle_gamma   90.00000000
_symmetry_Int_Tables_number   1
_chemical_formula_structural   YHo7Re2(B12Ir)2
_chemical_formula_sum   'Y1 Ho7 Re2 B24 Ir2'
_cell_volume   386.00220137
_cell_formula_units_Z   1
loop_
 _symmetry_equiv_pos_site_id
 _symmetry_equiv_pos_as_xyz
  1  'x, y, z'
loop_
 _atom_site_type_symbol
 _atom_site_label
 _atom_site_symmetry_multiplicity
 _atom_site_fract_x
 _atom_site_fract_y
 _atom_site_fract_z
 _atom_site_occupancy
  Y  Y0  1  0.000000  0.317110  0.409941  1
  Ho  Ho1  1  0.000000  0.682927  0.590148  1
  Ho  Ho2  1  0.000000  0.826551  0.082199  1
  Ho  Ho3  1  0.000000  0.173457  0.917787  1
  Ho  Ho4  1  0.000000  0.945994  0.372211  1
  Ho  Ho5  1  0.000000  0.053806  0.627849  1
  Ho  Ho6  1  0.000000  0.441786  0.125810  1
  Ho  Ho7  1  0.000000  0.558271  0.874146  1
  Re  Re8  1  0.000000  0.138079  0.179472  1
  Re  Re9  1  0.000000  0.861703  0.820313  1
  B  B10  1  0.500000  0.554403  0.433996  1
  B  B11  1  0.500000  0.446073  0.566257  1
  B  B12  1  0.500000  0.053256  0.067107  1
  B  B13  1  0.500000  0.946722  0.932850  1
  B  B14  1  0.500000  0.749380  0.421249  1
  B  B15  1  0.500000  0.250554  0.579113  1
  B  B16  1  0.500000  0.247790  0.080555  1
  B  B17  1  0.500000  0.752240  0.919378  1
  B  B18  1  0.500000  0.790935  0.265956  1
  B  B19  1  0.500000  0.209084  0.734083  1
  B  B20  1  0.500000  0.292208  0.234000  1
  B  B21  1  0.500000  0.707679  0.765702  1
  B  B22  1  0.500000  0.631916  0.183958  1
  B  B23  1  0.500000  0.368152  0.816038  1
  B  B24  1  0.500000  0.131417  0.314516  1
  B  B25  1  0.500000  0.868263  0.685281  1
  B  B26  1  0.500000  0.982790  0.212920  1
  B  B27  1  0.500000  0.017121  0.787061  1
  B  B28  1  0.500000  0.482793  0.287112  1
  B  B29  1  0.500000  0.517567  0.712733  1
  B  B30  1  0.500000  0.607294  0.030032  1
  B  B31  1  0.500000  0.392736  0.969956  1
  B  B32  1  0.500000  0.107483  0.470828  1
  B  B33  1  0.500000  0.892102  0.529293  1
  Ir  Ir34  1  0.000000  0.636893  0.322158  1
  Ir  Ir35  1  0.000000  0.363465  0.677993  1
