# generated using pymatgen
data_Sc2Al7Ga2Ir3
_symmetry_space_group_name_H-M   'P 1'
_cell_length_a   7.44913877
_cell_length_b   7.45413433
_cell_length_c   9.39742100
_cell_angle_alpha   90.00000000
_cell_angle_beta   90.00000000
_cell_angle_gamma   119.66488156
_symmetry_Int_Tables_number   1
_chemical_formula_structural   Sc2Al7Ga2Ir3
_chemical_formula_sum   'Sc4 Al14 Ga4 Ir6'
_cell_volume   453.41853639
_cell_formula_units_Z   2
loop_
 _symmetry_equiv_pos_site_id
 _symmetry_equiv_pos_as_xyz
  1  'x, y, z'
loop_
 _atom_site_type_symbol
 _atom_site_label
 _atom_site_symmetry_multiplicity
 _atom_site_fract_x
 _atom_site_fract_y
 _atom_site_fract_z
 _atom_site_occupancy
  Sc  Sc0  1  0.997167  0.674080  0.250000  1
  Sc  Sc1  1  0.002833  0.325920  0.750000  1
  Sc  Sc2  1  0.670591  0.993645  0.250000  1
  Sc  Sc3  1  0.329409  0.006355  0.750000  1
  Al  Al4  1  0.998684  0.334618  0.075479  1
  Al  Al5  1  0.001316  0.665382  0.924521  1
  Al  Al6  1  0.001316  0.665382  0.575479  1
  Al  Al7  1  0.335071  0.999087  0.424426  1
  Al  Al8  1  0.998684  0.334618  0.424521  1
  Al  Al9  1  0.664929  0.000913  0.575574  1
  Al  Al10  1  0.664929  0.000913  0.924426  1
  Al  Al11  1  0.335071  0.999087  0.075574  1
  Al  Al12  1  0.331587  0.331712  0.559778  1
  Al  Al13  1  0.668413  0.668288  0.440222  1
  Al  Al14  1  0.668413  0.668288  0.059778  1
  Al  Al15  1  0.331587  0.331712  0.940222  1
  Al  Al16  1  0.555107  0.339755  0.250000  1
  Al  Al17  1  0.444893  0.660245  0.750000  1
  Ga  Ga18  1  0.126880  0.127415  0.250000  1
  Ga  Ga19  1  0.873120  0.872585  0.750000  1
  Ga  Ga20  1  0.340035  0.550998  0.250000  1
  Ga  Ga21  1  0.659965  0.449002  0.750000  1
  Ir  Ir22  1  0.671625  0.328000  0.002084  1
  Ir  Ir23  1  0.328375  0.672000  0.997916  1
  Ir  Ir24  1  0.328375  0.672000  0.502084  1
  Ir  Ir25  1  0.671625  0.328000  0.497916  1
  Ir  Ir26  1  0.000000  0.000000  0.000000  1
  Ir  Ir27  1  0.000000  0.000000  0.500000  1
