# generated using pymatgen
data_SrTbPr5PtI12
_symmetry_space_group_name_H-M   'P 1'
_cell_length_a   10.09771939
_cell_length_b   10.07693128
_cell_length_c   10.11218657
_cell_angle_alpha   106.24048603
_cell_angle_beta   106.58170043
_cell_angle_gamma   106.47830586
_symmetry_Int_Tables_number   1
_chemical_formula_structural   SrTbPr5PtI12
_chemical_formula_sum   'Sr1 Tb1 Pr5 Pt1 I12'
_cell_volume   869.82068427
_cell_formula_units_Z   1
loop_
 _symmetry_equiv_pos_site_id
 _symmetry_equiv_pos_as_xyz
  1  'x, y, z'
loop_
 _atom_site_type_symbol
 _atom_site_label
 _atom_site_symmetry_multiplicity
 _atom_site_fract_x
 _atom_site_fract_y
 _atom_site_fract_z
 _atom_site_occupancy
  Sr  Sr0  1  0.500207  0.499579  0.499939  1
  Tb  Tb1  1  0.976498  0.703674  0.903845  1
  Pr  Pr2  1  0.098838  0.021539  0.304710  1
  Pr  Pr3  1  0.304839  0.096614  0.022547  1
  Pr  Pr4  1  0.023046  0.305239  0.098018  1
  Pr  Pr5  1  0.901218  0.977742  0.694937  1
  Pr  Pr6  1  0.693868  0.899264  0.976407  1
  Pt  Pt7  1  0.999136  0.998679  0.999405  1
  I  I8  1  0.071165  0.676280  0.214428  1
  I  I9  1  0.226482  0.075034  0.678392  1
  I  I10  1  0.678302  0.225461  0.074697  1
  I  I11  1  0.926867  0.328307  0.776400  1
  I  I12  1  0.773462  0.924871  0.321733  1
  I  I13  1  0.312127  0.768025  0.923214  1
  I  I14  1  0.456042  0.145490  0.375410  1
  I  I15  1  0.375377  0.455148  0.145735  1
  I  I16  1  0.145933  0.374911  0.455306  1
  I  I17  1  0.543911  0.854098  0.624744  1
  I  I18  1  0.633870  0.545051  0.855022  1
  I  I19  1  0.858812  0.624995  0.555110  1
