# generated using pymatgen
data_Yb3Y4LuHg8
_symmetry_space_group_name_H-M   'P 1'
_cell_length_a   7.39428634
_cell_length_b   7.40663100
_cell_length_c   7.45195100
_cell_angle_alpha   90.00000000
_cell_angle_beta   90.09106224
_cell_angle_gamma   90.00000000
_symmetry_Int_Tables_number   1
_chemical_formula_structural   Yb3Y4LuHg8
_chemical_formula_sum   'Yb3 Y4 Lu1 Hg8'
_cell_volume   408.11862511
_cell_formula_units_Z   1
loop_
 _symmetry_equiv_pos_site_id
 _symmetry_equiv_pos_as_xyz
  1  'x, y, z'
loop_
 _atom_site_type_symbol
 _atom_site_label
 _atom_site_symmetry_multiplicity
 _atom_site_fract_x
 _atom_site_fract_y
 _atom_site_fract_z
 _atom_site_occupancy
  Yb  Yb0  1  0.250104  0.250000  0.000045  1
  Yb  Yb1  1  0.750067  0.750000  0.499942  1
  Yb  Yb2  1  0.249912  0.250000  0.500065  1
  Y  Y3  1  0.750326  0.250000  0.000004  1
  Y  Y4  1  0.249548  0.750000  0.000003  1
  Y  Y5  1  0.749605  0.250000  0.500000  1
  Y  Y6  1  0.250358  0.750000  0.500000  1
  Lu  Lu7  1  0.749752  0.750000  0.999907  1
  Hg  Hg8  1  0.502538  0.997433  0.247496  1
  Hg  Hg9  1  0.502538  0.502563  0.247496  1
  Hg  Hg10  1  0.997524  0.997559  0.248039  1
  Hg  Hg11  1  0.997524  0.502444  0.248039  1
  Hg  Hg12  1  0.997526  0.997484  0.751958  1
  Hg  Hg13  1  0.997526  0.502513  0.751958  1
  Hg  Hg14  1  0.502577  0.997485  0.752525  1
  Hg  Hg15  1  0.502577  0.502519  0.752525  1
