# generated using pymatgen
data_LaNd14Th(CdIr)4
_symmetry_space_group_name_H-M   'P 1'
_cell_length_a   9.97681285
_cell_length_b   9.97681366
_cell_length_c   9.99105204
_cell_angle_alpha   60.10389400
_cell_angle_beta   60.10389408
_cell_angle_gamma   60.08407770
_symmetry_Int_Tables_number   1
_chemical_formula_structural   LaNd14Th(CdIr)4
_chemical_formula_sum   'La1 Nd14 Th1 Cd4 Ir4'
_cell_volume   704.75179070
_cell_formula_units_Z   1
loop_
 _symmetry_equiv_pos_site_id
 _symmetry_equiv_pos_as_xyz
  1  'x, y, z'
loop_
 _atom_site_type_symbol
 _atom_site_label
 _atom_site_symmetry_multiplicity
 _atom_site_fract_x
 _atom_site_fract_y
 _atom_site_fract_z
 _atom_site_occupancy
  La  La0  1  0.347816  0.347816  0.956143  1
  Nd  Nd1  1  0.348926  0.952559  0.349668  1
  Nd  Nd2  1  0.952559  0.348926  0.349668  1
  Nd  Nd3  1  0.810605  0.189660  0.189620  1
  Nd  Nd4  1  0.189502  0.810190  0.809263  1
  Nd  Nd5  1  0.189660  0.810605  0.189620  1
  Nd  Nd6  1  0.810190  0.189502  0.809263  1
  Nd  Nd7  1  0.189392  0.189392  0.810340  1
  Nd  Nd8  1  0.809627  0.809627  0.189529  1
  Nd  Nd9  1  0.940013  0.562256  0.562077  1
  Nd  Nd10  1  0.560587  0.938389  0.938867  1
  Nd  Nd11  1  0.562256  0.940013  0.562077  1
  Nd  Nd12  1  0.938389  0.560587  0.938867  1
  Nd  Nd13  1  0.562753  0.562753  0.939637  1
  Nd  Nd14  1  0.939159  0.939159  0.560159  1
  Th  Th15  1  0.344538  0.344538  0.345370  1
  Cd  Cd16  1  0.580290  0.580290  0.578669  1
  Cd  Cd17  1  0.579320  0.579320  0.259181  1
  Cd  Cd18  1  0.579871  0.258918  0.578410  1
  Cd  Cd19  1  0.258918  0.579871  0.578410  1
  Ir  Ir20  1  0.142157  0.142157  0.141836  1
  Ir  Ir21  1  0.146068  0.146068  0.571108  1
  Ir  Ir22  1  0.146262  0.571140  0.146109  1
  Ir  Ir23  1  0.571140  0.146262  0.146109  1
