# generated using pymatgen
data_CaHo3MgAl17Pd6
_symmetry_space_group_name_H-M   'P 1'
_cell_length_a   7.66057817
_cell_length_b   7.67291489
_cell_length_c   9.50255597
_cell_angle_alpha   90.18584277
_cell_angle_beta   89.85764135
_cell_angle_gamma   119.51326612
_symmetry_Int_Tables_number   1
_chemical_formula_structural   CaHo3MgAl17Pd6
_chemical_formula_sum   'Ca1 Ho3 Mg1 Al17 Pd6'
_cell_volume   486.07101565
_cell_formula_units_Z   1
loop_
 _symmetry_equiv_pos_site_id
 _symmetry_equiv_pos_as_xyz
  1  'x, y, z'
loop_
 _atom_site_type_symbol
 _atom_site_label
 _atom_site_symmetry_multiplicity
 _atom_site_fract_x
 _atom_site_fract_y
 _atom_site_fract_z
 _atom_site_occupancy
  Ca  Ca0  1  0.996650  0.676292  0.251161  1
  Ho  Ho1  1  0.004615  0.331307  0.747715  1
  Ho  Ho2  1  0.665276  0.988408  0.252087  1
  Ho  Ho3  1  0.329934  0.004817  0.749846  1
  Mg  Mg4  1  0.995673  0.335700  0.079274  1
  Al  Al5  1  0.130983  0.132119  0.250916  1
  Al  Al6  1  0.870654  0.870803  0.751278  1
  Al  Al7  1  0.000052  0.663754  0.922102  1
  Al  Al8  1  0.999448  0.664897  0.578091  1
  Al  Al9  1  0.335799  0.001475  0.425312  1
  Al  Al10  1  0.000371  0.334155  0.420648  1
  Al  Al11  1  0.665437  0.999695  0.577534  1
  Al  Al12  1  0.667677  0.002340  0.924012  1
  Al  Al13  1  0.335530  0.001069  0.074329  1
  Al  Al14  1  0.332436  0.332600  0.558428  1
  Al  Al15  1  0.666343  0.665922  0.445066  1
  Al  Al16  1  0.666670  0.666090  0.053332  1
  Al  Al17  1  0.329583  0.332493  0.940922  1
  Al  Al18  1  0.346479  0.548281  0.250518  1
  Al  Al19  1  0.659054  0.452484  0.749014  1
  Al  Al20  1  0.548956  0.334147  0.249017  1
  Al  Al21  1  0.453578  0.662455  0.750740  1
  Pd  Pd22  1  0.660859  0.325912  0.994815  1
  Pd  Pd23  1  0.335233  0.679006  0.999005  1
  Pd  Pd24  1  0.328641  0.672311  0.501989  1
  Pd  Pd25  1  0.671732  0.327338  0.501201  1
  Pd  Pd26  1  0.001540  0.994459  0.999078  1
  Pd  Pd27  1  0.000799  0.999675  0.502569  1
