# generated using pymatgen
data_Pr2SiRhBr
_symmetry_space_group_name_H-M   'P 1'
_cell_length_a   4.30678400
_cell_length_b   4.30678456
_cell_length_c   16.37016600
_cell_angle_alpha   90.00000000
_cell_angle_beta   90.00000000
_cell_angle_gamma   119.99999569
_symmetry_Int_Tables_number   1
_chemical_formula_structural   Pr2SiRhBr
_chemical_formula_sum   'Pr4 Si2 Rh2 Br2'
_cell_volume   262.96017030
_cell_formula_units_Z   2
loop_
 _symmetry_equiv_pos_site_id
 _symmetry_equiv_pos_as_xyz
  1  'x, y, z'
loop_
 _atom_site_type_symbol
 _atom_site_label
 _atom_site_symmetry_multiplicity
 _atom_site_fract_x
 _atom_site_fract_y
 _atom_site_fract_z
 _atom_site_occupancy
  Pr  Pr0  1  0.000000  0.000000  0.609974  1
  Pr  Pr1  1  0.000000  0.000000  0.393469  1
  Pr  Pr2  1  0.000000  0.000000  0.109974  1
  Pr  Pr3  1  0.000000  0.000000  0.893469  1
  Si  Si4  1  0.666667  0.333333  0.506328  1
  Si  Si5  1  0.333333  0.666667  0.006328  1
  Rh  Rh6  1  0.666667  0.333333  0.993418  1
  Rh  Rh7  1  0.333333  0.666667  0.493418  1
  Br  Br8  1  0.666667  0.333333  0.246811  1
  Br  Br9  1  0.333333  0.666667  0.746811  1
