# generated using pymatgen
data_ErScU(InPt)3
_symmetry_space_group_name_H-M   'P 1'
_cell_length_a   7.55059635
_cell_length_b   7.54112508
_cell_length_c   3.86325500
_cell_angle_alpha   90.00000000
_cell_angle_beta   90.00000000
_cell_angle_gamma   120.21137818
_symmetry_Int_Tables_number   1
_chemical_formula_structural   ErScU(InPt)3
_chemical_formula_sum   'Er1 Sc1 U1 In3 Pt3'
_cell_volume   190.09575451
_cell_formula_units_Z   1
loop_
 _symmetry_equiv_pos_site_id
 _symmetry_equiv_pos_as_xyz
  1  'x, y, z'
loop_
 _atom_site_type_symbol
 _atom_site_label
 _atom_site_symmetry_multiplicity
 _atom_site_fract_x
 _atom_site_fract_y
 _atom_site_fract_z
 _atom_site_occupancy
  Er  Er0  1  0.594244  0.595374  0.500000  1
  Sc  Sc1  1  0.999424  0.404115  0.500000  1
  U  U2  1  0.409944  0.000032  0.500000  1
  In  In3  1  0.988201  0.724346  0.000000  1
  In  In4  1  0.256160  0.272705  0.000000  1
  In  In5  1  0.753627  0.004388  0.000000  1
  Pt  Pt6  1  0.333079  0.683056  0.000000  1
  Pt  Pt7  1  0.651731  0.315295  0.000000  1
  Pt  Pt8  1  0.013588  0.000690  0.500000  1
