# generated using pymatgen
data_Nd10Zn4(IrRu)3
_symmetry_space_group_name_H-M   'P 1'
_cell_length_a   8.60654830
_cell_length_b   8.57266187
_cell_length_c   8.60654800
_cell_angle_alpha   109.25108722
_cell_angle_beta   109.97150257
_cell_angle_gamma   109.35021052
_symmetry_Int_Tables_number   1
_chemical_formula_structural   Nd10Zn4(IrRu)3
_chemical_formula_sum   'Nd10 Zn4 Ir3 Ru3'
_cell_volume   487.84378580
_cell_formula_units_Z   1
loop_
 _symmetry_equiv_pos_site_id
 _symmetry_equiv_pos_as_xyz
  1  'x, y, z'
loop_
 _atom_site_type_symbol
 _atom_site_label
 _atom_site_symmetry_multiplicity
 _atom_site_fract_x
 _atom_site_fract_y
 _atom_site_fract_z
 _atom_site_occupancy
  Nd  Nd0  1  0.248813  0.682899  0.433611  1
  Nd  Nd1  1  0.750713  0.817101  0.065914  1
  Nd  Nd2  1  0.433257  0.250000  0.683257  1
  Nd  Nd3  1  0.681866  0.435540  0.251528  1
  Nd  Nd4  1  0.065901  0.750000  0.815901  1
  Nd  Nd5  1  0.815987  0.064460  0.746326  1
  Nd  Nd6  1  0.222465  0.221813  0.224240  1
  Nd  Nd7  1  0.499234  0.996787  0.276897  1
  Nd  Nd8  1  0.280109  0.503213  0.002447  1
  Nd  Nd9  1  0.002427  0.278187  0.500652  1
  Zn  Zn10  1  0.589674  0.592262  0.592396  1
  Zn  Zn11  1  0.498931  0.998633  0.907412  1
  Zn  Zn12  1  0.908779  0.501367  0.000299  1
  Zn  Zn13  1  0.000134  0.907738  0.497413  1
  Ir  Ir14  1  0.250892  0.129780  0.879903  1
  Ir  Ir15  1  0.750124  0.370220  0.621113  1
  Ir  Ir16  1  0.876061  0.250000  0.126062  1
  Ru  Ru17  1  0.128974  0.878852  0.249927  1
  Ru  Ru18  1  0.624582  0.750000  0.374582  1
  Ru  Ru19  1  0.371074  0.621147  0.750121  1
