# generated using pymatgen
data_Y2Er8InPb5
_symmetry_space_group_name_H-M   'P 1'
_cell_length_a   8.98910526
_cell_length_b   8.99463483
_cell_length_c   6.62545500
_cell_angle_alpha   90.00000000
_cell_angle_beta   90.00000000
_cell_angle_gamma   120.08752807
_symmetry_Int_Tables_number   1
_chemical_formula_structural   Y2Er8InPb5
_chemical_formula_sum   'Y2 Er8 In1 Pb5'
_cell_volume   463.51375058
_cell_formula_units_Z   1
loop_
 _symmetry_equiv_pos_site_id
 _symmetry_equiv_pos_as_xyz
  1  'x, y, z'
loop_
 _atom_site_type_symbol
 _atom_site_label
 _atom_site_symmetry_multiplicity
 _atom_site_fract_x
 _atom_site_fract_y
 _atom_site_fract_z
 _atom_site_occupancy
  Y  Y0  1  0.237957  0.237761  0.250000  1
  Y  Y1  1  0.762001  0.999387  0.250000  1
  Er  Er2  1  0.663800  0.333843  0.997997  1
  Er  Er3  1  0.333550  0.663739  0.998027  1
  Er  Er4  1  0.333550  0.663739  0.501973  1
  Er  Er5  1  0.663800  0.333843  0.502003  1
  Er  Er6  1  0.760892  0.760600  0.750000  1
  Er  Er7  1  0.238741  0.004713  0.750000  1
  Er  Er8  1  0.005001  0.239336  0.750000  1
  Er  Er9  1  0.999553  0.761811  0.250000  1
  In  In10  1  0.396598  0.396570  0.750000  1
  Pb  Pb11  1  0.606570  0.000424  0.750000  1
  Pb  Pb12  1  0.000478  0.606533  0.750000  1
  Pb  Pb13  1  0.604821  0.604354  0.250000  1
  Pb  Pb14  1  0.394129  0.998019  0.250000  1
  Pb  Pb15  1  0.998558  0.395326  0.250000  1
