# generated using pymatgen
data_Pr3Ho5Cd2IrPd
_symmetry_space_group_name_H-M   'P 1'
_cell_length_a   9.76545856
_cell_length_b   9.76545880
_cell_length_c   9.76317400
_cell_angle_alpha   60.00773930
_cell_angle_beta   60.00773848
_cell_angle_gamma   60.25962103
_symmetry_Int_Tables_number   1
_chemical_formula_structural   Pr3Ho5Cd2IrPd
_chemical_formula_sum   'Pr6 Ho10 Cd4 Ir2 Pd2'
_cell_volume   659.71627821
_cell_formula_units_Z   2
loop_
 _symmetry_equiv_pos_site_id
 _symmetry_equiv_pos_as_xyz
  1  'x, y, z'
loop_
 _atom_site_type_symbol
 _atom_site_label
 _atom_site_symmetry_multiplicity
 _atom_site_fract_x
 _atom_site_fract_y
 _atom_site_fract_z
 _atom_site_occupancy
  Pr  Pr0  1  0.940983  0.561944  0.558212  1
  Pr  Pr1  1  0.561944  0.940983  0.938861  1
  Pr  Pr2  1  0.561944  0.940983  0.558212  1
  Pr  Pr3  1  0.940983  0.561944  0.938861  1
  Pr  Pr4  1  0.560296  0.560296  0.939704  1
  Pr  Pr5  1  0.940449  0.940449  0.559551  1
  Ho  Ho6  1  0.350006  0.350006  0.343350  1
  Ho  Ho7  1  0.350006  0.350006  0.956637  1
  Ho  Ho8  1  0.357452  0.946919  0.347814  1
  Ho  Ho9  1  0.946919  0.357452  0.347814  1
  Ho  Ho10  1  0.807295  0.187432  0.187633  1
  Ho  Ho11  1  0.187432  0.807295  0.817639  1
  Ho  Ho12  1  0.187432  0.807295  0.187633  1
  Ho  Ho13  1  0.807295  0.187432  0.817639  1
  Ho  Ho14  1  0.188103  0.188103  0.811897  1
  Ho  Ho15  1  0.813651  0.813651  0.186349  1
  Cd  Cd16  1  0.579591  0.579591  0.579700  1
  Cd  Cd17  1  0.579591  0.579591  0.261118  1
  Cd  Cd18  1  0.578465  0.262905  0.579315  1
  Cd  Cd19  1  0.262905  0.578465  0.579315  1
  Ir  Ir20  1  0.140560  0.573165  0.143138  1
  Ir  Ir21  1  0.573165  0.140560  0.143138  1
  Pd  Pd22  1  0.141767  0.141767  0.145224  1
  Pd  Pd23  1  0.141767  0.141767  0.571242  1
