# generated using pymatgen
data_Re22Tc2Mo5
_symmetry_space_group_name_H-M   'P 1'
_cell_length_a   8.35966855
_cell_length_b   8.34826369
_cell_length_c   8.35966860
_cell_angle_alpha   109.48786909
_cell_angle_beta   109.51306092
_cell_angle_gamma   109.46803302
_symmetry_Int_Tables_number   1
_chemical_formula_structural   Re22Tc2Mo5
_chemical_formula_sum   'Re22 Tc2 Mo5'
_cell_volume   448.80282394
_cell_formula_units_Z   1
loop_
 _symmetry_equiv_pos_site_id
 _symmetry_equiv_pos_as_xyz
  1  'x, y, z'
loop_
 _atom_site_type_symbol
 _atom_site_label
 _atom_site_symmetry_multiplicity
 _atom_site_fract_x
 _atom_site_fract_y
 _atom_site_fract_z
 _atom_site_occupancy
  Re  Re0  1  0.684859  0.402169  0.000920  1
  Re  Re1  1  0.597786  0.281619  0.597836  1
  Re  Re2  1  0.401561  0.000703  0.685599  1
  Re  Re3  1  0.001931  0.401855  0.684984  1
  Re  Re4  1  0.283129  0.598145  0.600076  1
  Re  Re5  1  0.717478  0.314136  0.315370  1
  Re  Re6  1  0.316217  0.718381  0.316167  1
  Re  Re7  1  0.684896  0.999297  0.400859  1
  Re  Re8  1  0.001234  0.685864  0.403342  1
  Re  Re9  1  0.598752  0.597831  0.282690  1
  Re  Re10  1  0.805836  0.805395  0.180769  1
  Re  Re11  1  0.375375  0.194605  0.000441  1
  Re  Re12  1  0.193610  0.377739  0.000213  1
  Re  Re13  1  0.623646  0.817233  0.623736  1
  Re  Re14  1  0.375658  0.999722  0.193116  1
  Re  Re15  1  0.000418  0.376733  0.193331  1
  Re  Re16  1  0.816599  0.623267  0.623685  1
  Re  Re17  1  0.181717  0.805941  0.806736  1
  Re  Re18  1  0.806505  0.182767  0.806415  1
  Re  Re19  1  0.193394  0.000278  0.375936  1
  Re  Re20  1  0.000795  0.194059  0.375777  1
  Re  Re21  1  0.622475  0.622261  0.815873  1
  Tc  Tc22  1  0.315515  0.314761  0.716770  1
  Tc  Tc23  1  0.402009  0.685239  0.000753  1
  Mo  Mo24  1  0.000370  0.000000  0.000370  1
  Mo  Mo25  1  0.999207  0.000255  0.641693  1
  Mo  Mo26  1  0.641439  0.999745  0.998952  1
  Mo  Mo27  1  0.999818  0.641211  0.998982  1
  Mo  Mo28  1  0.357772  0.358789  0.358607  1
