# generated using pymatgen
data_Ho16In2Ag2Ir3Rh
_symmetry_space_group_name_H-M   'P 1'
_cell_length_a   9.57948617
_cell_length_b   9.57948553
_cell_length_c   9.56010550
_cell_angle_alpha   59.73483080
_cell_angle_beta   59.73483371
_cell_angle_gamma   60.05183657
_symmetry_Int_Tables_number   1
_chemical_formula_structural   Ho16In2Ag2Ir3Rh
_chemical_formula_sum   'Ho16 In2 Ag2 Ir3 Rh1'
_cell_volume   618.08502508
_cell_formula_units_Z   1
loop_
 _symmetry_equiv_pos_site_id
 _symmetry_equiv_pos_as_xyz
  1  'x, y, z'
loop_
 _atom_site_type_symbol
 _atom_site_label
 _atom_site_symmetry_multiplicity
 _atom_site_fract_x
 _atom_site_fract_y
 _atom_site_fract_z
 _atom_site_occupancy
  Ho  Ho0  1  0.186729  0.186729  0.813163  1
  Ho  Ho1  1  0.600377  0.600377  0.198724  1
  Ho  Ho2  1  0.440392  0.058903  0.440690  1
  Ho  Ho3  1  0.441921  0.441921  0.057331  1
  Ho  Ho4  1  0.812672  0.184546  0.813049  1
  Ho  Ho5  1  0.183971  0.810021  0.192427  1
  Ho  Ho6  1  0.438694  0.059970  0.059003  1
  Ho  Ho7  1  0.184546  0.812672  0.813049  1
  Ho  Ho8  1  0.059970  0.438694  0.059003  1
  Ho  Ho9  1  0.809269  0.809269  0.191188  1
  Ho  Ho10  1  0.197955  0.602334  0.600767  1
  Ho  Ho11  1  0.058903  0.440392  0.440690  1
  Ho  Ho12  1  0.060619  0.060619  0.436785  1
  Ho  Ho13  1  0.810021  0.183971  0.192427  1
  Ho  Ho14  1  0.602334  0.197955  0.600767  1
  Ho  Ho15  1  0.600092  0.600092  0.600632  1
  In  In16  1  0.508026  0.833427  0.829004  1
  In  In17  1  0.833427  0.508026  0.829004  1
  Ag  Ag18  1  0.833604  0.833604  0.831647  1
  Ag  Ag19  1  0.833809  0.833809  0.500472  1
  Ir  Ir20  1  0.393168  0.824003  0.392844  1
  Ir  Ir21  1  0.392731  0.392731  0.391350  1
  Ir  Ir22  1  0.824003  0.393168  0.392844  1
  Rh  Rh23  1  0.392768  0.392768  0.823144  1
