# generated using pymatgen
data_Ti9Co8Rh3
_symmetry_space_group_name_H-M   'P 1'
_cell_length_a   7.19738718
_cell_length_b   7.19738784
_cell_length_c   7.19738646
_cell_angle_alpha   101.25289393
_cell_angle_beta   101.25289201
_cell_angle_gamma   127.56928492
_symmetry_Int_Tables_number   1
_chemical_formula_structural   Ti9Co8Rh3
_chemical_formula_sum   'Ti9 Co8 Rh3'
_cell_volume   265.12334860
_cell_formula_units_Z   1
loop_
 _symmetry_equiv_pos_site_id
 _symmetry_equiv_pos_as_xyz
  1  'x, y, z'
loop_
 _atom_site_type_symbol
 _atom_site_label
 _atom_site_symmetry_multiplicity
 _atom_site_fract_x
 _atom_site_fract_y
 _atom_site_fract_z
 _atom_site_occupancy
  Ti  Ti0  1  0.000000  0.000000  0.000000  1
  Ti  Ti1  1  0.237240  0.592603  0.829843  1
  Ti  Ti2  1  0.407397  0.237240  0.644639  1
  Ti  Ti3  1  0.592603  0.762760  0.355361  1
  Ti  Ti4  1  0.762760  0.407397  0.170157  1
  Ti  Ti5  1  0.303468  0.900789  0.204256  1
  Ti  Ti6  1  0.099211  0.303468  0.402679  1
  Ti  Ti7  1  0.900789  0.696532  0.597321  1
  Ti  Ti8  1  0.696532  0.099211  0.795744  1
  Co  Co9  1  0.324067  0.010893  0.899937  1
  Co  Co10  1  0.424130  0.324067  0.313174  1
  Co  Co11  1  0.010893  0.110956  0.686826  1
  Co  Co12  1  0.110956  0.424130  0.100063  1
  Co  Co13  1  0.675933  0.989107  0.100063  1
  Co  Co14  1  0.575870  0.675933  0.686826  1
  Co  Co15  1  0.989107  0.889044  0.313174  1
  Co  Co16  1  0.889044  0.575870  0.899937  1
  Rh  Rh17  1  0.500000  0.500000  0.000000  1
  Rh  Rh18  1  0.750000  0.250000  0.500000  1
  Rh  Rh19  1  0.250000  0.750000  0.500000  1
