# generated using pymatgen
data_Sc6FeTc
_symmetry_space_group_name_H-M   'P 1'
_cell_length_a   5.85943700
_cell_length_b   8.52950800
_cell_length_c   13.33681000
_cell_angle_alpha   90.00000000
_cell_angle_beta   90.00000000
_cell_angle_gamma   90.00000000
_symmetry_Int_Tables_number   1
_chemical_formula_structural   Sc6FeTc
_chemical_formula_sum   'Sc24 Fe4 Tc4'
_cell_volume   666.54862081
_cell_formula_units_Z   4
loop_
 _symmetry_equiv_pos_site_id
 _symmetry_equiv_pos_as_xyz
  1  'x, y, z'
loop_
 _atom_site_type_symbol
 _atom_site_label
 _atom_site_symmetry_multiplicity
 _atom_site_fract_x
 _atom_site_fract_y
 _atom_site_fract_z
 _atom_site_occupancy
  Sc  Sc0  1  0.525981  0.750000  0.349686  1
  Sc  Sc1  1  0.025981  0.250000  0.150314  1
  Sc  Sc2  1  0.474019  0.250000  0.650314  1
  Sc  Sc3  1  0.974019  0.750000  0.849686  1
  Sc  Sc4  1  0.784389  0.750000  0.111376  1
  Sc  Sc5  1  0.284389  0.250000  0.388624  1
  Sc  Sc6  1  0.215611  0.250000  0.888624  1
  Sc  Sc7  1  0.715611  0.750000  0.611376  1
  Sc  Sc8  1  0.421515  0.936334  0.785963  1
  Sc  Sc9  1  0.921515  0.063666  0.714037  1
  Sc  Sc10  1  0.578485  0.436334  0.214037  1
  Sc  Sc11  1  0.078485  0.563666  0.285963  1
  Sc  Sc12  1  0.578485  0.063666  0.214037  1
  Sc  Sc13  1  0.078485  0.936334  0.285963  1
  Sc  Sc14  1  0.421515  0.563666  0.785963  1
  Sc  Sc15  1  0.921515  0.436334  0.714037  1
  Sc  Sc16  1  0.245394  0.938842  0.538145  1
  Sc  Sc17  1  0.745394  0.061158  0.961855  1
  Sc  Sc18  1  0.754606  0.438842  0.461855  1
  Sc  Sc19  1  0.254606  0.561158  0.038145  1
  Sc  Sc20  1  0.754606  0.061158  0.461855  1
  Sc  Sc21  1  0.254606  0.938842  0.038145  1
  Sc  Sc22  1  0.245394  0.561158  0.538145  1
  Sc  Sc23  1  0.745394  0.438842  0.961855  1
  Fe  Fe24  1  0.361426  0.750000  0.181075  1
  Fe  Fe25  1  0.861426  0.250000  0.318925  1
  Fe  Fe26  1  0.638574  0.250000  0.818925  1
  Fe  Fe27  1  0.138574  0.750000  0.681075  1
  Tc  Tc28  1  0.928704  0.750000  0.439885  1
  Tc  Tc29  1  0.428704  0.250000  0.060115  1
  Tc  Tc30  1  0.071296  0.250000  0.560115  1
  Tc  Tc31  1  0.571296  0.750000  0.939885  1
