# generated using pymatgen
data_HoTm2In3BiIr2
_symmetry_space_group_name_H-M   'P 1'
_cell_length_a   7.72797197
_cell_length_b   7.72483092
_cell_length_c   4.03100000
_cell_angle_alpha   90.00000000
_cell_angle_beta   90.00000000
_cell_angle_gamma   119.91289088
_symmetry_Int_Tables_number   1
_chemical_formula_structural   HoTm2In3BiIr2
_chemical_formula_sum   'Ho1 Tm2 In3 Bi1 Ir2'
_cell_volume   208.58279959
_cell_formula_units_Z   1
loop_
 _symmetry_equiv_pos_site_id
 _symmetry_equiv_pos_as_xyz
  1  'x, y, z'
loop_
 _atom_site_type_symbol
 _atom_site_label
 _atom_site_symmetry_multiplicity
 _atom_site_fract_x
 _atom_site_fract_y
 _atom_site_fract_z
 _atom_site_occupancy
  Ho  Ho0  1  0.031777  0.418189  0.000000  1
  Tm  Tm1  1  0.581917  0.615508  0.000000  1
  Tm  Tm2  1  0.384876  0.966620  0.000000  1
  In  In3  1  0.021188  0.763584  0.500000  1
  In  In4  1  0.237449  0.257425  0.500000  1
  In  In5  1  0.742090  0.978852  0.500000  1
  Bi  Bi6  1  0.665686  0.332974  0.500000  1
  Ir  Ir7  1  0.999993  0.998840  0.000000  1
  Ir  Ir8  1  0.335025  0.668009  0.500000  1
