# generated using pymatgen
data_SmHo7(Tm3Pt4)4
_symmetry_space_group_name_H-M   'P 1'
_cell_length_a   7.42998500
_cell_length_b   7.50163960
_cell_length_c   14.62061687
_cell_angle_alpha   89.99224843
_cell_angle_beta   90.03871965
_cell_angle_gamma   90.04504201
_symmetry_Int_Tables_number   1
_chemical_formula_structural   SmHo7(Tm3Pt4)4
_chemical_formula_sum   'Sm1 Ho7 Tm12 Pt16'
_cell_volume   814.90989561
_cell_formula_units_Z   1
loop_
 _symmetry_equiv_pos_site_id
 _symmetry_equiv_pos_as_xyz
  1  'x, y, z'
loop_
 _atom_site_type_symbol
 _atom_site_label
 _atom_site_symmetry_multiplicity
 _atom_site_fract_x
 _atom_site_fract_y
 _atom_site_fract_z
 _atom_site_occupancy
  Sm  Sm0  1  0.499692  0.677401  0.592438  1
  Ho  Ho1  1  0.001370  0.820987  0.907373  1
  Ho  Ho2  1  0.498749  0.320916  0.093025  1
  Ho  Ho3  1  0.998899  0.179214  0.407009  1
  Ho  Ho4  1  0.498300  0.319218  0.406168  1
  Ho  Ho5  1  0.998934  0.179350  0.092903  1
  Ho  Ho6  1  0.501518  0.678867  0.907038  1
  Ho  Ho7  1  0.001192  0.821781  0.593267  1
  Tm  Tm8  1  0.656120  0.167523  0.622517  1
  Tm  Tm9  1  0.155936  0.332520  0.877948  1
  Tm  Tm10  1  0.344107  0.832447  0.122305  1
  Tm  Tm11  1  0.844430  0.667946  0.377351  1
  Tm  Tm12  1  0.342709  0.833376  0.376888  1
  Tm  Tm13  1  0.843890  0.667243  0.122512  1
  Tm  Tm14  1  0.656246  0.167299  0.877989  1
  Tm  Tm15  1  0.154429  0.331624  0.622861  1
  Tm  Tm16  1  0.819389  0.510115  0.750798  1
  Tm  Tm17  1  0.319224  0.990170  0.750720  1
  Tm  Tm18  1  0.180912  0.489884  0.249774  1
  Tm  Tm19  1  0.680901  0.009930  0.249714  1
  Pt  Pt20  1  0.683846  0.968233  0.457501  1
  Pt  Pt21  1  0.183524  0.533398  0.041924  1
  Pt  Pt22  1  0.316331  0.033689  0.958366  1
  Pt  Pt23  1  0.820214  0.464220  0.541042  1
  Pt  Pt24  1  0.315633  0.036516  0.540580  1
  Pt  Pt25  1  0.816606  0.466792  0.958264  1
  Pt  Pt26  1  0.683397  0.966412  0.041918  1
  Pt  Pt27  1  0.182809  0.532167  0.457086  1
  Pt  Pt28  1  0.453241  0.384204  0.750840  1
  Pt  Pt29  1  0.954147  0.114921  0.750184  1
  Pt  Pt30  1  0.546331  0.614154  0.249908  1
  Pt  Pt31  1  0.046303  0.885949  0.249788  1
  Pt  Pt32  1  0.684002  0.857980  0.751618  1
  Pt  Pt33  1  0.181106  0.643429  0.750804  1
  Pt  Pt34  1  0.317801  0.143298  0.249742  1
  Pt  Pt35  1  0.817762  0.356826  0.249839  1
