# generated using pymatgen
data_Tb8Sc12Si15Rh
_symmetry_space_group_name_H-M   'P 1'
_cell_length_a   7.12738226
_cell_length_b   7.40532859
_cell_length_c   14.03829200
_cell_angle_alpha   90.00627479
_cell_angle_beta   89.89813195
_cell_angle_gamma   90.02203091
_symmetry_Int_Tables_number   1
_chemical_formula_structural   Tb8Sc12Si15Rh
_chemical_formula_sum   'Tb8 Sc12 Si15 Rh1'
_cell_volume   740.94835213
_cell_formula_units_Z   1
loop_
 _symmetry_equiv_pos_site_id
 _symmetry_equiv_pos_as_xyz
  1  'x, y, z'
loop_
 _atom_site_type_symbol
 _atom_site_label
 _atom_site_symmetry_multiplicity
 _atom_site_fract_x
 _atom_site_fract_y
 _atom_site_fract_z
 _atom_site_occupancy
  Tb  Tb0  1  0.012582  0.175284  0.097181  1
  Tb  Tb1  1  0.987557  0.824748  0.902797  1
  Tb  Tb2  1  0.486551  0.676170  0.902596  1
  Tb  Tb3  1  0.989412  0.821281  0.596420  1
  Tb  Tb4  1  0.512253  0.324724  0.096499  1
  Tb  Tb5  1  0.011478  0.179492  0.403233  1
  Tb  Tb6  1  0.509214  0.325345  0.403204  1
  Tb  Tb7  1  0.485466  0.670750  0.598230  1
  Sc  Sc8  1  0.162731  0.501028  0.745393  1
  Sc  Sc9  1  0.838270  0.498365  0.251737  1
  Sc  Sc10  1  0.338852  0.000312  0.250170  1
  Sc  Sc11  1  0.662616  0.997020  0.749456  1
  Sc  Sc12  1  0.330825  0.184847  0.622090  1
  Sc  Sc13  1  0.669078  0.823719  0.373997  1
  Sc  Sc14  1  0.169974  0.667436  0.377630  1
  Sc  Sc15  1  0.670756  0.823958  0.126064  1
  Sc  Sc16  1  0.834833  0.327350  0.623333  1
  Sc  Sc17  1  0.328525  0.176882  0.875527  1
  Sc  Sc18  1  0.830755  0.321878  0.875488  1
  Sc  Sc19  1  0.170035  0.677228  0.125113  1
  Si  Si20  1  0.033832  0.115659  0.749920  1
  Si  Si21  1  0.969231  0.882363  0.251295  1
  Si  Si22  1  0.466834  0.616592  0.248596  1
  Si  Si23  1  0.537504  0.382515  0.752791  1
  Si  Si24  1  0.286072  0.878027  0.750438  1
  Si  Si25  1  0.713329  0.127159  0.249427  1
  Si  Si26  1  0.215580  0.372424  0.248221  1
  Si  Si27  1  0.784331  0.625161  0.752438  1
  Si  Si28  1  0.837815  0.537255  0.459941  1
  Si  Si29  1  0.345095  0.963451  0.460700  1
  Si  Si30  1  0.844272  0.536378  0.038790  1
  Si  Si31  1  0.655377  0.034338  0.539062  1
  Si  Si32  1  0.154693  0.464978  0.961028  1
  Si  Si33  1  0.656348  0.034868  0.961615  1
  Si  Si34  1  0.344522  0.964171  0.038998  1
  Rh  Rh35  1  0.153397  0.466842  0.540580  1
