# generated using pymatgen
data_LuV6Sn5Sb
_symmetry_space_group_name_H-M   'P 1'
_cell_length_a   5.47660101
_cell_length_b   5.47660054
_cell_length_c   9.23276600
_cell_angle_alpha   89.99997734
_cell_angle_beta   89.99997092
_cell_angle_gamma   119.98225784
_symmetry_Int_Tables_number   1
_chemical_formula_structural   LuV6Sn5Sb
_chemical_formula_sum   'Lu1 V6 Sn5 Sb1'
_cell_volume   239.86243825
_cell_formula_units_Z   1
loop_
 _symmetry_equiv_pos_site_id
 _symmetry_equiv_pos_as_xyz
  1  'x, y, z'
loop_
 _atom_site_type_symbol
 _atom_site_label
 _atom_site_symmetry_multiplicity
 _atom_site_fract_x
 _atom_site_fract_y
 _atom_site_fract_z
 _atom_site_occupancy
  Lu  Lu0  1  0.000009  0.000009  0.001159  1
  V  V1  1  0.500003  0.000007  0.247267  1
  V  V2  1  0.000007  0.500002  0.247267  1
  V  V3  1  0.500003  0.500004  0.247270  1
  V  V4  1  0.499997  0.499998  0.751930  1
  V  V5  1  0.499998  0.000004  0.751959  1
  V  V6  1  0.000004  0.499997  0.751959  1
  Sn  Sn7  1  0.666632  0.333415  0.999191  1
  Sn  Sn8  1  0.333414  0.666631  0.999191  1
  Sn  Sn9  1  0.666638  0.333430  0.500585  1
  Sn  Sn10  1  0.333430  0.666639  0.500585  1
  Sn  Sn11  1  0.000008  0.000008  0.668721  1
  Sb  Sb12  1  0.000005  0.000005  0.332916  1
