# generated using pymatgen
data_EuMn2(Sb6Pt)2
_symmetry_space_group_name_H-M   'P 1'
_cell_length_a   8.11878466
_cell_length_b   8.11878373
_cell_length_c   8.10713182
_cell_angle_alpha   109.44615821
_cell_angle_beta   109.38812008
_cell_angle_gamma   109.63748941
_symmetry_Int_Tables_number   1
_chemical_formula_structural   EuMn2(Sb6Pt)2
_chemical_formula_sum   'Eu1 Mn2 Sb12 Pt2'
_cell_volume   411.06814590
_cell_formula_units_Z   1
loop_
 _symmetry_equiv_pos_site_id
 _symmetry_equiv_pos_as_xyz
  1  'x, y, z'
loop_
 _atom_site_type_symbol
 _atom_site_label
 _atom_site_symmetry_multiplicity
 _atom_site_fract_x
 _atom_site_fract_y
 _atom_site_fract_z
 _atom_site_occupancy
  Eu  Eu0  1  0.000000  0.000000  0.000000  1
  Mn  Mn1  1  0.000000  0.500000  0.000000  1
  Mn  Mn2  1  0.500000  0.000000  0.000000  1
  Sb  Sb3  1  0.348127  0.150596  0.498723  1
  Sb  Sb4  1  0.327758  0.834913  0.162672  1
  Sb  Sb5  1  0.672242  0.165087  0.837328  1
  Sb  Sb6  1  0.819038  0.651953  0.147847  1
  Sb  Sb7  1  0.147365  0.497489  0.328235  1
  Sb  Sb8  1  0.504106  0.671192  0.852153  1
  Sb  Sb9  1  0.830745  0.180870  0.328235  1
  Sb  Sb10  1  0.651873  0.849404  0.501277  1
  Sb  Sb11  1  0.180962  0.348047  0.852153  1
  Sb  Sb12  1  0.169255  0.819130  0.671765  1
  Sb  Sb13  1  0.495894  0.328808  0.147847  1
  Sb  Sb14  1  0.852635  0.502511  0.671765  1
  Pt  Pt15  1  0.500000  0.500000  0.500000  1
  Pt  Pt16  1  0.000000  0.000000  0.500000  1
