# generated using pymatgen
data_PrMoN2
_symmetry_space_group_name_H-M   'P 1'
_cell_length_a   4.06043100
_cell_length_b   4.06043100
_cell_length_c   3.43952300
_cell_angle_alpha   90.00000000
_cell_angle_beta   90.00000000
_cell_angle_gamma   90.00000000
_symmetry_Int_Tables_number   1
_chemical_formula_structural   PrMoN2
_chemical_formula_sum   'Pr1 Mo1 N2'
_cell_volume   56.70775933
_cell_formula_units_Z   1
loop_
 _symmetry_equiv_pos_site_id
 _symmetry_equiv_pos_as_xyz
  1  'x, y, z'
loop_
 _atom_site_type_symbol
 _atom_site_label
 _atom_site_symmetry_multiplicity
 _atom_site_fract_x
 _atom_site_fract_y
 _atom_site_fract_z
 _atom_site_occupancy
  Pr  Pr0  1  0.500000  0.500000  0.500000  1
  Mo  Mo1  1  0.000000  0.000000  0.000000  1
  N  N2  1  0.000000  0.500000  0.000000  1
  N  N3  1  0.500000  0.000000  0.000000  1
