# generated using pymatgen
data_Cs6HgS4
_symmetry_space_group_name_H-M   'P 1'
_cell_length_a   10.92581400
_cell_length_b   10.92581532
_cell_length_c   8.46985100
_cell_angle_alpha   90.00000000
_cell_angle_beta   90.00000000
_cell_angle_gamma   119.99999602
_symmetry_Int_Tables_number   1
_chemical_formula_structural   Cs6HgS4
_chemical_formula_sum   'Cs12 Hg2 S8'
_cell_volume   875.61678375
_cell_formula_units_Z   2
loop_
 _symmetry_equiv_pos_site_id
 _symmetry_equiv_pos_as_xyz
  1  'x, y, z'
loop_
 _atom_site_type_symbol
 _atom_site_label
 _atom_site_symmetry_multiplicity
 _atom_site_fract_x
 _atom_site_fract_y
 _atom_site_fract_z
 _atom_site_occupancy
  Cs  Cs0  1  0.294326  0.147164  0.956069  1
  Cs  Cs1  1  0.852836  0.705674  0.956069  1
  Cs  Cs2  1  0.852836  0.147164  0.956069  1
  Cs  Cs3  1  0.705674  0.852836  0.456069  1
  Cs  Cs4  1  0.147164  0.294326  0.456069  1
  Cs  Cs5  1  0.147164  0.852836  0.456069  1
  Cs  Cs6  1  0.058144  0.529072  0.133966  1
  Cs  Cs7  1  0.470928  0.941856  0.133966  1
  Cs  Cs8  1  0.470928  0.529072  0.133966  1
  Cs  Cs9  1  0.941856  0.470928  0.633966  1
  Cs  Cs10  1  0.529072  0.058144  0.633966  1
  Cs  Cs11  1  0.529072  0.470928  0.633966  1
  Hg  Hg12  1  0.666667  0.333333  0.250921  1
  Hg  Hg13  1  0.333333  0.666667  0.750921  1
  S  S14  1  0.666667  0.333333  0.932113  1
  S  S15  1  0.333333  0.666667  0.432113  1
  S  S16  1  0.395251  0.197626  0.346589  1
  S  S17  1  0.802374  0.604749  0.346589  1
  S  S18  1  0.802374  0.197626  0.346589  1
  S  S19  1  0.604749  0.802374  0.846589  1
  S  S20  1  0.197626  0.395251  0.846589  1
  S  S21  1  0.197626  0.802374  0.846589  1
