# generated using pymatgen
data_Tb7Th(Si4Mo3)4
_symmetry_space_group_name_H-M   'P 1'
_cell_length_a   6.81939619
_cell_length_b   6.98222713
_cell_length_c   13.00133318
_cell_angle_alpha   90.10857233
_cell_angle_beta   90.03536534
_cell_angle_gamma   89.88845110
_symmetry_Int_Tables_number   1
_chemical_formula_structural   Tb7Th(Si4Mo3)4
_chemical_formula_sum   'Tb7 Th1 Si16 Mo12'
_cell_volume   619.05052857
_cell_formula_units_Z   1
loop_
 _symmetry_equiv_pos_site_id
 _symmetry_equiv_pos_as_xyz
  1  'x, y, z'
loop_
 _atom_site_type_symbol
 _atom_site_label
 _atom_site_symmetry_multiplicity
 _atom_site_fract_x
 _atom_site_fract_y
 _atom_site_fract_z
 _atom_site_occupancy
  Tb  Tb0  1  0.496057  0.333543  0.094057  1
  Tb  Tb1  1  0.997282  0.165952  0.406238  1
  Tb  Tb2  1  0.502834  0.666533  0.594667  1
  Tb  Tb3  1  0.002658  0.834064  0.903932  1
  Tb  Tb4  1  0.503328  0.666546  0.904093  1
  Tb  Tb5  1  0.002162  0.833494  0.594537  1
  Tb  Tb6  1  0.497064  0.334277  0.407451  1
  Th  Th7  1  0.997534  0.166010  0.093730  1
  Si  Si8  1  0.656950  0.043463  0.547964  1
  Si  Si9  1  0.160187  0.460758  0.950693  1
  Si  Si10  1  0.347638  0.952231  0.046394  1
  Si  Si11  1  0.843129  0.542200  0.452156  1
  Si  Si12  1  0.342749  0.956671  0.452570  1
  Si  Si13  1  0.838884  0.549469  0.046174  1
  Si  Si14  1  0.655725  0.043285  0.950198  1
  Si  Si15  1  0.157560  0.457488  0.548088  1
  Si  Si16  1  0.535325  0.362878  0.749639  1
  Si  Si17  1  0.036047  0.136620  0.749483  1
  Si  Si18  1  0.465062  0.636953  0.249944  1
  Si  Si19  1  0.963800  0.858836  0.252475  1
  Si  Si20  1  0.803099  0.626486  0.749417  1
  Si  Si21  1  0.303836  0.872863  0.749517  1
  Si  Si22  1  0.199547  0.376853  0.252714  1
  Si  Si23  1  0.690848  0.126485  0.252673  1
  Mo  Mo24  1  0.832606  0.334459  0.625330  1
  Mo  Mo25  1  0.330605  0.163863  0.874364  1
  Mo  Mo26  1  0.168192  0.663719  0.125994  1
  Mo  Mo27  1  0.668435  0.834256  0.375590  1
  Mo  Mo28  1  0.169151  0.665291  0.375670  1
  Mo  Mo29  1  0.670235  0.837700  0.126546  1
  Mo  Mo30  1  0.832894  0.334867  0.874377  1
  Mo  Mo31  1  0.330064  0.164504  0.625151  1
  Mo  Mo32  1  0.665511  0.999838  0.749491  1
  Mo  Mo33  1  0.164974  0.500830  0.750107  1
  Mo  Mo34  1  0.333062  0.000177  0.249645  1
  Mo  Mo35  1  0.834968  0.496534  0.248932  1
