# generated using pymatgen
data_Ho10Ru3Rh
_symmetry_space_group_name_H-M   'P 1'
_cell_length_a   6.31386869
_cell_length_b   7.27446917
_cell_length_c   8.44572116
_cell_angle_alpha   96.73145030
_cell_angle_beta   111.98002441
_cell_angle_gamma   90.06820840
_symmetry_Int_Tables_number   1
_chemical_formula_structural   Ho10Ru3Rh
_chemical_formula_sum   'Ho10 Ru3 Rh1'
_cell_volume   356.80904764
_cell_formula_units_Z   1
loop_
 _symmetry_equiv_pos_site_id
 _symmetry_equiv_pos_as_xyz
  1  'x, y, z'
loop_
 _atom_site_type_symbol
 _atom_site_label
 _atom_site_symmetry_multiplicity
 _atom_site_fract_x
 _atom_site_fract_y
 _atom_site_fract_z
 _atom_site_occupancy
  Ho  Ho0  1  0.978790  0.917542  0.185816  1
  Ho  Ho1  1  0.791380  0.584861  0.811691  1
  Ho  Ho2  1  0.021835  0.084595  0.813697  1
  Ho  Ho3  1  0.209424  0.414154  0.185778  1
  Ho  Ho4  1  0.640304  0.816119  0.436135  1
  Ho  Ho5  1  0.208989  0.685711  0.567197  1
  Ho  Ho6  1  0.358187  0.185316  0.565154  1
  Ho  Ho7  1  0.793594  0.313226  0.436049  1
  Ho  Ho8  1  0.418510  0.750700  0.999349  1
  Ho  Ho9  1  0.579069  0.248149  0.998652  1
  Ru  Ru10  1  0.603576  0.923107  0.779823  1
  Ru  Ru11  1  0.176006  0.424844  0.779135  1
  Ru  Ru12  1  0.397696  0.075940  0.220514  1
  Rh  Rh13  1  0.822639  0.575734  0.221011  1
