# generated using pymatgen
data_ErGa3NiAu
_symmetry_space_group_name_H-M   'P 1'
_cell_length_a   7.94973063
_cell_length_b   7.94973048
_cell_length_c   6.63830400
_cell_angle_alpha   90.00000000
_cell_angle_beta   90.00000000
_cell_angle_gamma   150.81565941
_symmetry_Int_Tables_number   1
_chemical_formula_structural   ErGa3NiAu
_chemical_formula_sum   'Er2 Ga6 Ni2 Au2'
_cell_volume   204.57116239
_cell_formula_units_Z   2
loop_
 _symmetry_equiv_pos_site_id
 _symmetry_equiv_pos_as_xyz
  1  'x, y, z'
loop_
 _atom_site_type_symbol
 _atom_site_label
 _atom_site_symmetry_multiplicity
 _atom_site_fract_x
 _atom_site_fract_y
 _atom_site_fract_z
 _atom_site_occupancy
  Er  Er0  1  0.874874  0.125126  0.750000  1
  Er  Er1  1  0.125126  0.874874  0.250000  1
  Ga  Ga2  1  0.069418  0.930582  0.750000  1
  Ga  Ga3  1  0.930582  0.069418  0.250000  1
  Ga  Ga4  1  0.685881  0.314119  0.950292  1
  Ga  Ga5  1  0.314119  0.685881  0.049708  1
  Ga  Ga6  1  0.685881  0.314119  0.549708  1
  Ga  Ga7  1  0.314119  0.685881  0.450292  1
  Ni  Ni8  1  0.224413  0.775587  0.750000  1
  Ni  Ni9  1  0.775587  0.224413  0.250000  1
  Au  Au10  1  0.500000  0.500000  0.000000  1
  Au  Au11  1  0.500000  0.500000  0.500000  1
