# generated using pymatgen
data_Sm13Pa7Rh16
_symmetry_space_group_name_H-M   'P 1'
_cell_length_a   7.57252710
_cell_length_b   7.58697151
_cell_length_c   14.44404877
_cell_angle_alpha   90.01306491
_cell_angle_beta   89.62477072
_cell_angle_gamma   90.23413656
_symmetry_Int_Tables_number   1
_chemical_formula_structural   Sm13Pa7Rh16
_chemical_formula_sum   'Sm13 Pa7 Rh16'
_cell_volume   829.82265585
_cell_formula_units_Z   1
loop_
 _symmetry_equiv_pos_site_id
 _symmetry_equiv_pos_as_xyz
  1  'x, y, z'
loop_
 _atom_site_type_symbol
 _atom_site_label
 _atom_site_symmetry_multiplicity
 _atom_site_fract_x
 _atom_site_fract_y
 _atom_site_fract_z
 _atom_site_occupancy
  Sm  Sm0  1  0.163184  0.338865  0.619480  1
  Sm  Sm1  1  0.509482  0.679106  0.593836  1
  Sm  Sm2  1  0.008246  0.823255  0.907469  1
  Sm  Sm3  1  0.493823  0.323139  0.092394  1
  Sm  Sm4  1  0.990168  0.180291  0.406711  1
  Sm  Sm5  1  0.489158  0.322967  0.408019  1
  Sm  Sm6  1  0.991971  0.177864  0.092928  1
  Sm  Sm7  1  0.509059  0.678358  0.905971  1
  Sm  Sm8  1  0.010275  0.820914  0.590264  1
  Sm  Sm9  1  0.819904  0.519632  0.748311  1
  Sm  Sm10  1  0.309909  0.979979  0.750130  1
  Sm  Sm11  1  0.187439  0.477543  0.248716  1
  Sm  Sm12  1  0.686448  0.023594  0.249494  1
  Pa  Pa13  1  0.662170  0.153210  0.621979  1
  Pa  Pa14  1  0.159429  0.346491  0.879496  1
  Pa  Pa15  1  0.340389  0.843775  0.119725  1
  Pa  Pa16  1  0.838823  0.657397  0.377405  1
  Pa  Pa17  1  0.338873  0.844270  0.376890  1
  Pa  Pa18  1  0.841146  0.655811  0.120318  1
  Pa  Pa19  1  0.658019  0.156201  0.879894  1
  Rh  Rh20  1  0.690762  0.948677  0.464328  1
  Rh  Rh21  1  0.181469  0.549158  0.038800  1
  Rh  Rh22  1  0.320487  0.050417  0.963406  1
  Rh  Rh23  1  0.801086  0.448941  0.533748  1
  Rh  Rh24  1  0.329976  0.027195  0.533417  1
  Rh  Rh25  1  0.820187  0.455742  0.965115  1
  Rh  Rh26  1  0.679585  0.951802  0.036687  1
  Rh  Rh27  1  0.167625  0.561873  0.452096  1
  Rh  Rh28  1  0.467103  0.350907  0.756008  1
  Rh  Rh29  1  0.953067  0.145676  0.764207  1
  Rh  Rh30  1  0.540539  0.652328  0.249775  1
  Rh  Rh31  1  0.037978  0.852178  0.245544  1
  Rh  Rh32  1  0.689361  0.889803  0.747635  1
  Rh  Rh33  1  0.201840  0.611933  0.760573  1
  Rh  Rh34  1  0.307119  0.107288  0.249154  1
  Rh  Rh35  1  0.803904  0.393420  0.250078  1
