# generated using pymatgen
data_Ho8Lu2Ga3NiBi2
_symmetry_space_group_name_H-M   'P 1'
_cell_length_a   8.50956490
_cell_length_b   8.50956348
_cell_length_c   8.70224163
_cell_angle_alpha   124.33616893
_cell_angle_beta   124.33616894
_cell_angle_gamma   81.16220772
_symmetry_Int_Tables_number   1
_chemical_formula_structural   Ho8Lu2Ga3NiBi2
_chemical_formula_sum   'Ho8 Lu2 Ga3 Ni1 Bi2'
_cell_volume   416.97633297
_cell_formula_units_Z   1
loop_
 _symmetry_equiv_pos_site_id
 _symmetry_equiv_pos_as_xyz
  1  'x, y, z'
loop_
 _atom_site_type_symbol
 _atom_site_label
 _atom_site_symmetry_multiplicity
 _atom_site_fract_x
 _atom_site_fract_y
 _atom_site_fract_z
 _atom_site_occupancy
  Ho  Ho0  1  0.015905  0.498218  0.794599  1
  Ho  Ho1  1  0.721305  0.203618  0.205401  1
  Ho  Ho2  1  0.515556  0.706817  0.500000  1
  Ho  Ho3  1  0.195978  0.040946  0.500000  1
  Ho  Ho4  1  0.001782  0.484095  0.205401  1
  Ho  Ho5  1  0.296382  0.778695  0.794599  1
  Ho  Ho6  1  0.459054  0.304022  0.500000  1
  Ho  Ho7  1  0.793183  0.984444  0.500000  1
  Lu  Lu8  1  0.996882  0.994349  0.991231  1
  Lu  Lu9  1  0.505651  0.503118  0.008769  1
  Ga  Ga10  1  0.351771  0.854993  0.206764  1
  Ga  Ga11  1  0.645007  0.148229  0.793236  1
  Ga  Ga12  1  0.865061  0.634939  0.500000  1
  Ni  Ni13  1  0.124317  0.375683  0.500000  1
  Bi  Bi14  1  0.756083  0.743917  0.000000  1
  Bi  Bi15  1  0.256083  0.243917  0.000000  1
