# generated using pymatgen
data_TbTm4Co19Si11P
_symmetry_space_group_name_H-M   'P 1'
_cell_length_a   12.11404054
_cell_length_b   12.14553632
_cell_length_c   3.71556900
_cell_angle_alpha   90.00000000
_cell_angle_beta   90.00000000
_cell_angle_gamma   120.08822594
_symmetry_Int_Tables_number   1
_chemical_formula_structural   TbTm4Co19Si11P
_chemical_formula_sum   'Tb1 Tm4 Co19 Si11 P1'
_cell_volume   473.01498302
_cell_formula_units_Z   1
loop_
 _symmetry_equiv_pos_site_id
 _symmetry_equiv_pos_as_xyz
  1  'x, y, z'
loop_
 _atom_site_type_symbol
 _atom_site_label
 _atom_site_symmetry_multiplicity
 _atom_site_fract_x
 _atom_site_fract_y
 _atom_site_fract_z
 _atom_site_occupancy
  Tb  Tb0  1  0.667316  0.333512  0.000000  1
  Tm  Tm1  1  0.332680  0.666204  0.000000  1
  Tm  Tm2  1  0.184917  0.185751  0.500000  1
  Tm  Tm3  1  0.815162  0.000988  0.500000  1
  Tm  Tm4  1  0.999904  0.813854  0.500000  1
  Co  Co5  1  0.824185  0.196808  0.000000  1
  Co  Co6  1  0.803135  0.623554  0.000000  1
  Co  Co7  1  0.376275  0.179665  0.000000  1
  Co  Co8  1  0.197315  0.819690  0.000000  1
  Co  Co9  1  0.622499  0.802844  0.000000  1
  Co  Co10  1  0.176484  0.373739  0.000000  1
  Co  Co11  1  0.558327  0.558826  0.000000  1
  Co  Co12  1  0.441633  0.000482  0.000000  1
  Co  Co13  1  0.000038  0.441653  0.000000  1
  Co  Co14  1  0.645313  0.123238  0.500000  1
  Co  Co15  1  0.877545  0.520993  0.500000  1
  Co  Co16  1  0.478302  0.356157  0.500000  1
  Co  Co17  1  0.123501  0.643508  0.500000  1
  Co  Co18  1  0.520812  0.876888  0.500000  1
  Co  Co19  1  0.354704  0.478907  0.500000  1
  Co  Co20  1  0.718753  0.719437  0.500000  1
  Co  Co21  1  0.280495  0.999294  0.500000  1
  Co  Co22  1  0.000646  0.277868  0.500000  1
  Co  Co23  1  0.000005  0.004784  0.000000  1
  Si  Si24  1  0.370161  0.370643  0.000000  1
  Si  Si25  1  0.629767  0.000196  0.000000  1
  Si  Si26  1  0.000123  0.629347  0.000000  1
  Si  Si27  1  0.841354  0.318418  0.500000  1
  Si  Si28  1  0.682212  0.522683  0.500000  1
  Si  Si29  1  0.477804  0.160053  0.500000  1
  Si  Si30  1  0.317809  0.838964  0.500000  1
  Si  Si31  1  0.520772  0.682251  0.500000  1
  Si  Si32  1  0.160089  0.478474  0.500000  1
  Si  Si33  1  0.817568  0.817710  0.000000  1
  Si  Si34  1  0.182029  0.999430  0.000000  1
  P  P35  1  0.000365  0.183184  0.000000  1
