# generated using pymatgen
data_VNiBi2(TeO6)2
_symmetry_space_group_name_H-M   'P 1'
_cell_length_a   5.23545842
_cell_length_b   9.14494612
_cell_length_c   10.03521275
_cell_angle_alpha   89.99924567
_cell_angle_beta   90.35551987
_cell_angle_gamma   90.01329643
_symmetry_Int_Tables_number   1
_chemical_formula_structural   VNiBi2(TeO6)2
_chemical_formula_sum   'V2 Ni2 Bi4 Te4 O24'
_cell_volume   480.45650487
_cell_formula_units_Z   2
loop_
 _symmetry_equiv_pos_site_id
 _symmetry_equiv_pos_as_xyz
  1  'x, y, z'
loop_
 _atom_site_type_symbol
 _atom_site_label
 _atom_site_symmetry_multiplicity
 _atom_site_fract_x
 _atom_site_fract_y
 _atom_site_fract_z
 _atom_site_occupancy
  V  V0  1  0.500027  0.839163  0.750010  1
  V  V1  1  0.499973  0.160837  0.249990  1
  Ni  Ni2  1  0.000117  0.330865  0.749962  1
  Ni  Ni3  1  0.999883  0.669135  0.250038  1
  Bi  Bi4  1  0.000000  0.000000  0.500000  1
  Bi  Bi5  1  0.500000  0.500000  0.500000  1
  Bi  Bi6  1  0.000000  0.000000  0.000000  1
  Bi  Bi7  1  0.500000  0.500000  0.000000  1
  Te  Te8  1  0.500136  0.173200  0.749995  1
  Te  Te9  1  0.000016  0.660016  0.750004  1
  Te  Te10  1  0.999984  0.339984  0.249996  1
  Te  Te11  1  0.499864  0.826800  0.250005  1
  O  O12  1  0.623688  0.999455  0.642573  1
  O  O13  1  0.135299  0.509043  0.639288  1
  O  O14  1  0.671552  0.311650  0.636765  1
  O  O15  1  0.185734  0.813949  0.646370  1
  O  O16  1  0.192505  0.173031  0.641952  1
  O  O17  1  0.692206  0.689670  0.640908  1
  O  O18  1  0.185668  0.186052  0.146378  1
  O  O19  1  0.671184  0.688415  0.136705  1
  O  O20  1  0.135188  0.490983  0.139280  1
  O  O21  1  0.623590  0.000538  0.142592  1
  O  O22  1  0.692132  0.310339  0.140924  1
  O  O23  1  0.192276  0.826939  0.141937  1
  O  O24  1  0.864701  0.490957  0.360712  1
  O  O25  1  0.376312  0.000545  0.357427  1
  O  O26  1  0.814266  0.186051  0.353630  1
  O  O27  1  0.328448  0.688350  0.363235  1
  O  O28  1  0.307794  0.310330  0.359092  1
  O  O29  1  0.807495  0.826969  0.358048  1
  O  O30  1  0.328816  0.311585  0.863295  1
  O  O31  1  0.814332  0.813948  0.853622  1
  O  O32  1  0.376410  0.999462  0.857408  1
  O  O33  1  0.864812  0.509017  0.860720  1
  O  O34  1  0.807724  0.173061  0.858063  1
  O  O35  1  0.307868  0.689661  0.859076  1
