# generated using pymatgen
data_Y3Ho2Er3Pt4
_symmetry_space_group_name_H-M   'P 1'
_cell_length_a   4.75718300
_cell_length_b   7.14879402
_cell_length_c   8.75458404
_cell_angle_alpha   89.90366074
_cell_angle_beta   90.00000000
_cell_angle_gamma   90.00000000
_symmetry_Int_Tables_number   1
_chemical_formula_structural   Y3Ho2Er3Pt4
_chemical_formula_sum   'Y3 Ho2 Er3 Pt4'
_cell_volume   297.72653585
_cell_formula_units_Z   1
loop_
 _symmetry_equiv_pos_site_id
 _symmetry_equiv_pos_as_xyz
  1  'x, y, z'
loop_
 _atom_site_type_symbol
 _atom_site_label
 _atom_site_symmetry_multiplicity
 _atom_site_fract_x
 _atom_site_fract_y
 _atom_site_fract_z
 _atom_site_occupancy
  Y  Y0  1  0.250000  0.990407  0.330785  1
  Y  Y1  1  0.250000  0.489700  0.168931  1
  Y  Y2  1  0.750000  0.510288  0.829745  1
  Ho  Ho3  1  0.750000  0.644873  0.420737  1
  Ho  Ho4  1  0.750000  0.010309  0.668976  1
  Er  Er5  1  0.250000  0.856537  0.920615  1
  Er  Er6  1  0.250000  0.354896  0.579509  1
  Er  Er7  1  0.750000  0.144095  0.078937  1
  Pt  Pt8  1  0.250000  0.254856  0.906129  1
  Pt  Pt9  1  0.250000  0.756359  0.595592  1
  Pt  Pt10  1  0.750000  0.744951  0.092423  1
  Pt  Pt11  1  0.750000  0.242729  0.407623  1
