# generated using pymatgen
data_Tm2Zr2Al17SiRh6
_symmetry_space_group_name_H-M   'P 1'
_cell_length_a   7.50039006
_cell_length_b   7.48243236
_cell_length_c   9.30037300
_cell_angle_alpha   90.00000000
_cell_angle_beta   90.00000000
_cell_angle_gamma   119.64267984
_symmetry_Int_Tables_number   1
_chemical_formula_structural   Tm2Zr2Al17SiRh6
_chemical_formula_sum   'Tm2 Zr2 Al17 Si1 Rh6'
_cell_volume   453.63873672
_cell_formula_units_Z   1
loop_
 _symmetry_equiv_pos_site_id
 _symmetry_equiv_pos_as_xyz
  1  'x, y, z'
loop_
 _atom_site_type_symbol
 _atom_site_label
 _atom_site_symmetry_multiplicity
 _atom_site_fract_x
 _atom_site_fract_y
 _atom_site_fract_z
 _atom_site_occupancy
  Tm  Tm0  1  0.675678  0.992197  0.250000  1
  Tm  Tm1  1  0.329963  0.005978  0.750000  1
  Zr  Zr2  1  0.992967  0.675972  0.250000  1
  Zr  Zr3  1  0.005430  0.328903  0.750000  1
  Al  Al4  1  0.876241  0.877454  0.750000  1
  Al  Al5  1  0.998775  0.338157  0.074457  1
  Al  Al6  1  0.000969  0.663523  0.925849  1
  Al  Al7  1  0.000969  0.663523  0.574151  1
  Al  Al8  1  0.334475  0.998813  0.420952  1
  Al  Al9  1  0.998775  0.338157  0.425543  1
  Al  Al10  1  0.667635  0.001682  0.577270  1
  Al  Al11  1  0.667635  0.001682  0.922730  1
  Al  Al12  1  0.334475  0.998813  0.079048  1
  Al  Al13  1  0.330608  0.332982  0.559260  1
  Al  Al14  1  0.666431  0.664220  0.445175  1
  Al  Al15  1  0.666431  0.664220  0.054825  1
  Al  Al16  1  0.330608  0.332982  0.940740  1
  Al  Al17  1  0.330162  0.548220  0.250000  1
  Al  Al18  1  0.667063  0.452053  0.750000  1
  Al  Al19  1  0.555328  0.339397  0.250000  1
  Al  Al20  1  0.445602  0.658241  0.750000  1
  Si  Si21  1  0.127755  0.126719  0.250000  1
  Rh  Rh22  1  0.670146  0.325655  0.999998  1
  Rh  Rh23  1  0.327077  0.671702  0.001113  1
  Rh  Rh24  1  0.327077  0.671702  0.498887  1
  Rh  Rh25  1  0.670146  0.325655  0.500002  1
  Rh  Rh26  1  0.000789  0.000699  0.006848  1
  Rh  Rh27  1  0.000789  0.000699  0.493152  1
