# generated using pymatgen
data_TbYNi2Hg
_symmetry_space_group_name_H-M   'P 1'
_cell_length_a   7.30963094
_cell_length_b   7.30963065
_cell_length_c   3.69577700
_cell_angle_alpha   90.00000000
_cell_angle_beta   90.00000000
_cell_angle_gamma   148.74357881
_symmetry_Int_Tables_number   1
_chemical_formula_structural   TbYNi2Hg
_chemical_formula_sum   'Tb1 Y1 Ni2 Hg1'
_cell_volume   102.46001649
_cell_formula_units_Z   1
loop_
 _symmetry_equiv_pos_site_id
 _symmetry_equiv_pos_as_xyz
  1  'x, y, z'
loop_
 _atom_site_type_symbol
 _atom_site_label
 _atom_site_symmetry_multiplicity
 _atom_site_fract_x
 _atom_site_fract_y
 _atom_site_fract_z
 _atom_site_occupancy
  Tb  Tb0  1  0.363270  0.636730  0.500000  1
  Y  Y1  1  0.635686  0.364314  0.500000  1
  Ni  Ni2  1  0.800400  0.199600  0.000000  1
  Ni  Ni3  1  0.200557  0.799443  0.000000  1
  Hg  Hg4  1  0.000087  0.999913  0.000000  1
