# generated using pymatgen
data_CaPtBr6
_symmetry_space_group_name_H-M   'P 1'
_cell_length_a   6.99938540
_cell_length_b   7.00806043
_cell_length_c   7.71651152
_cell_angle_alpha   89.96505091
_cell_angle_beta   116.33440445
_cell_angle_gamma   119.88420497
_symmetry_Int_Tables_number   1
_chemical_formula_structural   CaPtBr6
_chemical_formula_sum   'Ca1 Pt1 Br6'
_cell_volume   282.04245768
_cell_formula_units_Z   1
loop_
 _symmetry_equiv_pos_site_id
 _symmetry_equiv_pos_as_xyz
  1  'x, y, z'
loop_
 _atom_site_type_symbol
 _atom_site_label
 _atom_site_symmetry_multiplicity
 _atom_site_fract_x
 _atom_site_fract_y
 _atom_site_fract_z
 _atom_site_occupancy
  Ca  Ca0  1  0.239091  0.620619  0.859254  1
  Pt  Pt1  1  0.580082  0.289827  0.869954  1
  Br  Br2  1  0.444020  0.070896  0.096318  1
  Br  Br3  1  0.139422  0.208066  0.645830  1
  Br  Br4  1  0.715830  0.507940  0.642788  1
  Br  Br5  1  0.442704  0.932356  0.644999  1
  Br  Br6  1  0.717732  0.647630  0.094053  1
  Br  Br7  1  0.020120  0.372167  0.095305  1
