# generated using pymatgen
data_Y17Lu3(SnPb3)4
_symmetry_space_group_name_H-M   'P 1'
_cell_length_a   8.15880400
_cell_length_b   8.26014896
_cell_length_c   15.66687600
_cell_angle_alpha   90.00000000
_cell_angle_beta   90.00000000
_cell_angle_gamma   89.93116305
_symmetry_Int_Tables_number   1
_chemical_formula_structural   Y17Lu3(SnPb3)4
_chemical_formula_sum   'Y17 Lu3 Sn4 Pb12'
_cell_volume   1055.83601565
_cell_formula_units_Z   1
loop_
 _symmetry_equiv_pos_site_id
 _symmetry_equiv_pos_as_xyz
  1  'x, y, z'
loop_
 _atom_site_type_symbol
 _atom_site_label
 _atom_site_symmetry_multiplicity
 _atom_site_fract_x
 _atom_site_fract_y
 _atom_site_fract_z
 _atom_site_occupancy
  Y  Y0  1  0.376632  0.839728  0.877323  1
  Y  Y1  1  0.876663  0.660286  0.622268  1
  Y  Y2  1  0.624071  0.160841  0.378041  1
  Y  Y3  1  0.122753  0.339888  0.122014  1
  Y  Y4  1  0.624071  0.160841  0.121959  1
  Y  Y5  1  0.122753  0.339888  0.377986  1
  Y  Y6  1  0.376632  0.839728  0.622677  1
  Y  Y7  1  0.876663  0.660286  0.877732  1
  Y  Y8  1  0.533822  0.324499  0.899608  1
  Y  Y9  1  0.033924  0.175435  0.600744  1
  Y  Y10  1  0.466604  0.675032  0.399725  1
  Y  Y11  1  0.965806  0.824093  0.100257  1
  Y  Y12  1  0.466604  0.675032  0.100275  1
  Y  Y13  1  0.965806  0.824093  0.399743  1
  Y  Y14  1  0.533822  0.324499  0.600392  1
  Y  Y15  1  0.033924  0.175435  0.899256  1
  Y  Y16  1  0.290508  0.006530  0.250000  1
  Lu  Lu17  1  0.209897  0.507488  0.750000  1
  Lu  Lu18  1  0.709896  0.992409  0.750000  1
  Lu  Lu19  1  0.789824  0.492310  0.250000  1
  Sn  Sn20  1  0.572144  0.624444  0.750000  1
  Sn  Sn21  1  0.071631  0.875039  0.750000  1
  Sn  Sn22  1  0.428299  0.376568  0.250000  1
  Sn  Sn23  1  0.925992  0.125738  0.250000  1
  Pb  Pb24  1  0.283061  0.033273  0.042186  1
  Pb  Pb25  1  0.783012  0.467359  0.456860  1
  Pb  Pb26  1  0.716889  0.967433  0.543455  1
  Pb  Pb27  1  0.217250  0.532943  0.956605  1
  Pb  Pb28  1  0.716889  0.967433  0.956545  1
  Pb  Pb29  1  0.217250  0.532943  0.543395  1
  Pb  Pb30  1  0.283061  0.033273  0.457814  1
  Pb  Pb31  1  0.783012  0.467359  0.043140  1
  Pb  Pb32  1  0.344541  0.153724  0.750000  1
  Pb  Pb33  1  0.844130  0.346844  0.750000  1
  Pb  Pb34  1  0.656889  0.846501  0.250000  1
  Pb  Pb35  1  0.155280  0.650785  0.250000  1
