# generated using pymatgen
data_Rb3Ho(PO4)2
_symmetry_space_group_name_H-M   'P 1'
_cell_length_a   5.73969500
_cell_length_b   5.73969466
_cell_length_c   8.20490300
_cell_angle_alpha   90.00000000
_cell_angle_beta   90.00000000
_cell_angle_gamma   120.00000772
_symmetry_Int_Tables_number   1
_chemical_formula_structural   Rb3Ho(PO4)2
_chemical_formula_sum   'Rb3 Ho1 P2 O8'
_cell_volume   234.08934892
_cell_formula_units_Z   1
loop_
 _symmetry_equiv_pos_site_id
 _symmetry_equiv_pos_as_xyz
  1  'x, y, z'
loop_
 _atom_site_type_symbol
 _atom_site_label
 _atom_site_symmetry_multiplicity
 _atom_site_fract_x
 _atom_site_fract_y
 _atom_site_fract_z
 _atom_site_occupancy
  Rb  Rb0  1  0.333333  0.666667  0.750802  1
  Rb  Rb1  1  0.666667  0.333333  0.249198  1
  Rb  Rb2  1  0.000000  0.000000  0.000000  1
  Ho  Ho3  1  0.000000  0.000000  0.500000  1
  P  P4  1  0.333333  0.666667  0.276438  1
  P  P5  1  0.666667  0.333333  0.723562  1
  O  O6  1  0.333333  0.666667  0.090307  1
  O  O7  1  0.666667  0.333333  0.909693  1
  O  O8  1  0.185187  0.814813  0.342440  1
  O  O9  1  0.814813  0.185187  0.657560  1
  O  O10  1  0.185187  0.370375  0.342440  1
  O  O11  1  0.814813  0.629625  0.657560  1
  O  O12  1  0.629625  0.814813  0.342440  1
  O  O13  1  0.370375  0.185187  0.657560  1
