# generated using pymatgen
data_NdDy7Sc11Si16Tc
_symmetry_space_group_name_H-M   'P 1'
_cell_length_a   7.05080805
_cell_length_b   7.37483238
_cell_length_c   13.94308337
_cell_angle_alpha   90.04907765
_cell_angle_beta   90.01317881
_cell_angle_gamma   90.17042253
_symmetry_Int_Tables_number   1
_chemical_formula_structural   NdDy7Sc11Si16Tc
_chemical_formula_sum   'Nd1 Dy7 Sc11 Si16 Tc1'
_cell_volume   725.01631146
_cell_formula_units_Z   1
loop_
 _symmetry_equiv_pos_site_id
 _symmetry_equiv_pos_as_xyz
  1  'x, y, z'
loop_
 _atom_site_type_symbol
 _atom_site_label
 _atom_site_symmetry_multiplicity
 _atom_site_fract_x
 _atom_site_fract_y
 _atom_site_fract_z
 _atom_site_occupancy
  Nd  Nd0  1  0.011768  0.174802  0.092516  1
  Dy  Dy1  1  0.992930  0.818954  0.899461  1
  Dy  Dy2  1  0.487853  0.672509  0.900643  1
  Dy  Dy3  1  0.992539  0.818246  0.599746  1
  Dy  Dy4  1  0.511465  0.324445  0.095317  1
  Dy  Dy5  1  0.012300  0.177708  0.405889  1
  Dy  Dy6  1  0.512027  0.323962  0.405488  1
  Dy  Dy7  1  0.487343  0.672123  0.598367  1
  Sc  Sc8  1  0.841228  0.496494  0.250679  1
  Sc  Sc9  1  0.341487  0.002790  0.250623  1
  Sc  Sc10  1  0.657545  0.995839  0.749947  1
  Sc  Sc11  1  0.325784  0.178655  0.627603  1
  Sc  Sc12  1  0.671474  0.823977  0.375321  1
  Sc  Sc13  1  0.172501  0.674376  0.377597  1
  Sc  Sc14  1  0.671967  0.823480  0.125816  1
  Sc  Sc15  1  0.828469  0.330884  0.628469  1
  Sc  Sc16  1  0.326806  0.178618  0.872004  1
  Sc  Sc17  1  0.827401  0.332027  0.871341  1
  Sc  Sc18  1  0.172645  0.673791  0.123149  1
  Si  Si19  1  0.029398  0.120954  0.749870  1
  Si  Si20  1  0.971310  0.881537  0.251421  1
  Si  Si21  1  0.468556  0.616798  0.250328  1
  Si  Si22  1  0.519439  0.393714  0.749718  1
  Si  Si23  1  0.285334  0.864058  0.749786  1
  Si  Si24  1  0.713958  0.127529  0.252068  1
  Si  Si25  1  0.216519  0.374338  0.251723  1
  Si  Si26  1  0.794057  0.628538  0.749662  1
  Si  Si27  1  0.155645  0.465547  0.547729  1
  Si  Si28  1  0.842986  0.535843  0.463260  1
  Si  Si29  1  0.345958  0.965107  0.463254  1
  Si  Si30  1  0.841756  0.539355  0.035638  1
  Si  Si31  1  0.657059  0.034249  0.540413  1
  Si  Si32  1  0.156002  0.468412  0.950754  1
  Si  Si33  1  0.656331  0.033772  0.958874  1
  Si  Si34  1  0.350089  0.962364  0.035861  1
  Tc  Tc35  1  0.150070  0.494206  0.749667  1
