# generated using pymatgen
data_RbIn(AsO3)2
_symmetry_space_group_name_H-M   'P 1'
_cell_length_a   7.46362853
_cell_length_b   7.10620628
_cell_length_c   6.95221390
_cell_angle_alpha   85.72007774
_cell_angle_beta   93.08016222
_cell_angle_gamma   64.64925564
_symmetry_Int_Tables_number   1
_chemical_formula_structural   RbIn(AsO3)2
_chemical_formula_sum   'Rb2 In2 As4 O12'
_cell_volume   330.78984081
_cell_formula_units_Z   2
loop_
 _symmetry_equiv_pos_site_id
 _symmetry_equiv_pos_as_xyz
  1  'x, y, z'
loop_
 _atom_site_type_symbol
 _atom_site_label
 _atom_site_symmetry_multiplicity
 _atom_site_fract_x
 _atom_site_fract_y
 _atom_site_fract_z
 _atom_site_occupancy
  Rb  Rb0  1  0.208226  0.275539  0.348503  1
  Rb  Rb1  1  0.791796  0.724431  0.651493  1
  In  In2  1  0.799007  0.091949  0.141223  1
  In  In3  1  0.200999  0.907961  0.858820  1
  As  As4  1  0.666119  0.652733  0.141359  1
  As  As5  1  0.250056  0.745651  0.375165  1
  As  As6  1  0.749959  0.254357  0.624820  1
  As  As7  1  0.333893  0.347273  0.858632  1
  O  O8  1  0.518824  0.764797  0.928499  1
  O  O9  1  0.819368  0.394108  0.130604  1
  O  O10  1  0.132385  0.945024  0.167703  1
  O  O11  1  0.521841  0.676276  0.339583  1
  O  O12  1  0.818496  0.768900  0.197918  1
  O  O13  1  0.761364  0.091998  0.445751  1
  O  O14  1  0.238570  0.908007  0.554228  1
  O  O15  1  0.181539  0.231095  0.802060  1
  O  O16  1  0.478155  0.323800  0.660424  1
  O  O17  1  0.867607  0.054987  0.832291  1
  O  O18  1  0.180618  0.605915  0.869437  1
  O  O19  1  0.481177  0.235200  0.071483  1
