# generated using pymatgen
data_Pr3Sn6Ru
_symmetry_space_group_name_H-M   'P 1'
_cell_length_a   8.76861735
_cell_length_b   8.76861679
_cell_length_c   13.45708000
_cell_angle_alpha   90.00000000
_cell_angle_beta   90.00000000
_cell_angle_gamma   148.60689989
_symmetry_Int_Tables_number   1
_chemical_formula_structural   Pr3Sn6Ru
_chemical_formula_sum   'Pr6 Sn12 Ru2'
_cell_volume   538.98056148
_cell_formula_units_Z   2
loop_
 _symmetry_equiv_pos_site_id
 _symmetry_equiv_pos_as_xyz
  1  'x, y, z'
loop_
 _atom_site_type_symbol
 _atom_site_label
 _atom_site_symmetry_multiplicity
 _atom_site_fract_x
 _atom_site_fract_y
 _atom_site_fract_z
 _atom_site_occupancy
  Pr  Pr0  1  0.601994  0.398006  0.250000  1
  Pr  Pr1  1  0.398006  0.601994  0.750000  1
  Pr  Pr2  1  0.399165  0.600835  0.404891  1
  Pr  Pr3  1  0.600835  0.399165  0.595109  1
  Pr  Pr4  1  0.399165  0.600835  0.095109  1
  Pr  Pr5  1  0.600835  0.399165  0.904891  1
  Sn  Sn6  1  0.927136  0.072864  0.923966  1
  Sn  Sn7  1  0.072864  0.927136  0.076034  1
  Sn  Sn8  1  0.927136  0.072864  0.576034  1
  Sn  Sn9  1  0.072864  0.927136  0.423966  1
  Sn  Sn10  1  0.959061  0.040939  0.250000  1
  Sn  Sn11  1  0.040939  0.959061  0.750000  1
  Sn  Sn12  1  0.745094  0.254907  0.432642  1
  Sn  Sn13  1  0.254907  0.745093  0.567358  1
  Sn  Sn14  1  0.745094  0.254907  0.067358  1
  Sn  Sn15  1  0.254907  0.745093  0.932642  1
  Sn  Sn16  1  0.234370  0.765630  0.250000  1
  Sn  Sn17  1  0.765630  0.234370  0.750000  1
  Ru  Ru18  1  0.801531  0.198469  0.250000  1
  Ru  Ru19  1  0.198469  0.801531  0.750000  1
