# generated using pymatgen
data_TbTh4Zr3(ReB6)4
_symmetry_space_group_name_H-M   'P 1'
_cell_length_a   3.72081800
_cell_length_b   9.18167622
_cell_length_c   11.62334128
_cell_angle_alpha   90.02510621
_cell_angle_beta   90.00000000
_cell_angle_gamma   90.00000000
_symmetry_Int_Tables_number   1
_chemical_formula_structural   TbTh4Zr3(ReB6)4
_chemical_formula_sum   'Tb1 Th4 Zr3 Re4 B24'
_cell_volume   397.09219342
_cell_formula_units_Z   1
loop_
 _symmetry_equiv_pos_site_id
 _symmetry_equiv_pos_as_xyz
  1  'x, y, z'
loop_
 _atom_site_type_symbol
 _atom_site_label
 _atom_site_symmetry_multiplicity
 _atom_site_fract_x
 _atom_site_fract_y
 _atom_site_fract_z
 _atom_site_occupancy
  Tb  Tb0  1  0.000000  0.554651  0.874215  1
  Th  Th1  1  0.000000  0.321492  0.413443  1
  Th  Th2  1  0.000000  0.678257  0.586093  1
  Th  Th3  1  0.000000  0.822402  0.086720  1
  Th  Th4  1  0.000000  0.178096  0.913881  1
  Zr  Zr5  1  0.000000  0.945023  0.374935  1
  Zr  Zr6  1  0.000000  0.054520  0.624314  1
  Zr  Zr7  1  0.000000  0.444393  0.127556  1
  Re  Re8  1  0.000000  0.641734  0.318272  1
  Re  Re9  1  0.000000  0.355617  0.679865  1
  Re  Re10  1  0.000000  0.141262  0.183399  1
  Re  Re11  1  0.000000  0.862486  0.816625  1
  B  B12  1  0.500000  0.556462  0.430143  1
  B  B13  1  0.500000  0.442874  0.569074  1
  B  B14  1  0.500000  0.056872  0.070368  1
  B  B15  1  0.500000  0.945570  0.929949  1
  B  B16  1  0.500000  0.752841  0.416758  1
  B  B17  1  0.500000  0.246400  0.582499  1
  B  B18  1  0.500000  0.252255  0.083807  1
  B  B19  1  0.500000  0.751828  0.916017  1
  B  B20  1  0.500000  0.794030  0.266178  1
  B  B21  1  0.500000  0.205152  0.732975  1
  B  B22  1  0.500000  0.293601  0.234464  1
  B  B23  1  0.500000  0.709212  0.765540  1
  B  B24  1  0.500000  0.629657  0.184772  1
  B  B25  1  0.500000  0.367601  0.813196  1
  B  B26  1  0.500000  0.129152  0.315965  1
  B  B27  1  0.500000  0.871554  0.683785  1
  B  B28  1  0.500000  0.983763  0.215134  1
  B  B29  1  0.500000  0.016923  0.784483  1
  B  B30  1  0.500000  0.484274  0.285386  1
  B  B31  1  0.500000  0.513581  0.713185  1
  B  B32  1  0.500000  0.599651  0.031330  1
  B  B33  1  0.500000  0.397017  0.976651  1
  B  B34  1  0.500000  0.099220  0.472582  1
  B  B35  1  0.500000  0.900575  0.526439  1
