# generated using pymatgen
data_Ti8Tl3Se16
_symmetry_space_group_name_H-M   'P 1'
_cell_length_a   7.21371057
_cell_length_b   7.21380274
_cell_length_c   16.55958000
_cell_angle_alpha   89.26656758
_cell_angle_beta   89.26684417
_cell_angle_gamma   60.51358251
_symmetry_Int_Tables_number   1
_chemical_formula_structural   Ti8Tl3Se16
_chemical_formula_sum   'Ti8 Tl3 Se16'
_cell_volume   750.03171300
_cell_formula_units_Z   1
loop_
 _symmetry_equiv_pos_site_id
 _symmetry_equiv_pos_as_xyz
  1  'x, y, z'
loop_
 _atom_site_type_symbol
 _atom_site_label
 _atom_site_symmetry_multiplicity
 _atom_site_fract_x
 _atom_site_fract_y
 _atom_site_fract_z
 _atom_site_occupancy
  Ti  Ti0  1  0.997789  0.997790  0.752120  1
  Ti  Ti1  1  0.002211  0.002210  0.247880  1
  Ti  Ti2  1  0.498553  0.498560  0.751077  1
  Ti  Ti3  1  0.501447  0.501440  0.248923  1
  Ti  Ti4  1  0.504388  0.999819  0.753220  1
  Ti  Ti5  1  0.495612  0.000181  0.246780  1
  Ti  Ti6  1  0.999833  0.504392  0.753225  1
  Ti  Ti7  1  0.000167  0.495608  0.246775  1
  Tl  Tl8  1  0.500000  0.500000  0.000000  1
  Tl  Tl9  1  0.500000  0.000000  0.500000  1
  Tl  Tl10  1  0.000000  0.500000  0.500000  1
  Se  Se11  1  0.831059  0.831009  0.339542  1
  Se  Se12  1  0.831618  0.831558  0.845899  1
  Se  Se13  1  0.330663  0.330724  0.340848  1
  Se  Se14  1  0.331497  0.331536  0.845236  1
  Se  Se15  1  0.330663  0.831323  0.341796  1
  Se  Se16  1  0.330657  0.831805  0.843657  1
  Se  Se17  1  0.831348  0.330671  0.341783  1
  Se  Se18  1  0.831818  0.330669  0.843656  1
  Se  Se19  1  0.168652  0.669329  0.658217  1
  Se  Se20  1  0.168182  0.669331  0.156344  1
  Se  Se21  1  0.669337  0.168677  0.658204  1
  Se  Se22  1  0.669343  0.168195  0.156343  1
  Se  Se23  1  0.669337  0.669276  0.659152  1
  Se  Se24  1  0.668503  0.668464  0.154764  1
  Se  Se25  1  0.168941  0.168991  0.660458  1
  Se  Se26  1  0.168382  0.168442  0.154101  1
