# generated using pymatgen
data_Rb4MgMnTe4
_symmetry_space_group_name_H-M   'P 1'
_cell_length_a   9.14386447
_cell_length_b   9.14386444
_cell_length_c   9.14386361
_cell_angle_alpha   133.85412632
_cell_angle_beta   129.41576947
_cell_angle_gamma   70.86665128
_symmetry_Int_Tables_number   1
_chemical_formula_structural   Rb4MgMnTe4
_chemical_formula_sum   'Rb4 Mg1 Mn1 Te4'
_cell_volume   417.19467496
_cell_formula_units_Z   1
loop_
 _symmetry_equiv_pos_site_id
 _symmetry_equiv_pos_as_xyz
  1  'x, y, z'
loop_
 _atom_site_type_symbol
 _atom_site_label
 _atom_site_symmetry_multiplicity
 _atom_site_fract_x
 _atom_site_fract_y
 _atom_site_fract_z
 _atom_site_occupancy
  Rb  Rb0  1  0.468614  0.144557  0.325301  1
  Rb  Rb1  1  0.819256  0.643313  0.174699  1
  Rb  Rb2  1  0.531386  0.856687  0.675943  1
  Rb  Rb3  1  0.180744  0.355443  0.824057  1
  Mg  Mg4  1  0.000000  0.750000  0.750000  1
  Mn  Mn5  1  0.000000  0.250000  0.250000  1
  Te  Te6  1  0.086209  0.901319  0.196333  1
  Te  Te7  1  0.913791  0.110122  0.815108  1
  Te  Te8  1  0.295014  0.598681  0.684892  1
  Te  Te9  1  0.704986  0.389878  0.303667  1
