# generated using pymatgen
data_Ca5NdPb18
_symmetry_space_group_name_H-M   'P 1'
_cell_length_a   7.01870600
_cell_length_b   7.01870540
_cell_length_c   17.37326500
_cell_angle_alpha   90.00000000
_cell_angle_beta   90.00000000
_cell_angle_gamma   120.00000285
_symmetry_Int_Tables_number   1
_chemical_formula_structural   Ca5NdPb18
_chemical_formula_sum   'Ca5 Nd1 Pb18'
_cell_volume   741.18415780
_cell_formula_units_Z   1
loop_
 _symmetry_equiv_pos_site_id
 _symmetry_equiv_pos_as_xyz
  1  'x, y, z'
loop_
 _atom_site_type_symbol
 _atom_site_label
 _atom_site_symmetry_multiplicity
 _atom_site_fract_x
 _atom_site_fract_y
 _atom_site_fract_z
 _atom_site_occupancy
  Ca  Ca0  1  0.666667  0.333333  0.579003  1
  Ca  Ca1  1  0.666667  0.333333  0.919763  1
  Ca  Ca2  1  0.000000  0.000000  0.080220  1
  Ca  Ca3  1  0.333333  0.666667  0.251695  1
  Ca  Ca4  1  0.333333  0.666667  0.749484  1
  Nd  Nd5  1  0.000000  0.000000  0.422631  1
  Pb  Pb6  1  0.000496  0.500247  0.417145  1
  Pb  Pb7  1  0.499753  0.500247  0.417145  1
  Pb  Pb8  1  0.499753  0.999504  0.417145  1
  Pb  Pb9  1  0.659383  0.829691  0.583102  1
  Pb  Pb10  1  0.170309  0.829691  0.583102  1
  Pb  Pb11  1  0.170309  0.340617  0.583102  1
  Pb  Pb12  1  0.667059  0.833529  0.917415  1
  Pb  Pb13  1  0.166471  0.833529  0.917415  1
  Pb  Pb14  1  0.166471  0.332941  0.917415  1
  Pb  Pb15  1  0.002437  0.501219  0.081775  1
  Pb  Pb16  1  0.498781  0.501219  0.081775  1
  Pb  Pb17  1  0.498781  0.997563  0.081775  1
  Pb  Pb18  1  0.338538  0.169270  0.249402  1
  Pb  Pb19  1  0.830730  0.169270  0.249402  1
  Pb  Pb20  1  0.830730  0.661462  0.249402  1
  Pb  Pb21  1  0.326413  0.163206  0.750048  1
  Pb  Pb22  1  0.836794  0.163206  0.750048  1
  Pb  Pb23  1  0.836794  0.673587  0.750048  1
