# generated using pymatgen
data_Ca7Pr(Sc3Sn4)4
_symmetry_space_group_name_H-M   'P 1'
_cell_length_a   7.67483633
_cell_length_b   8.09227998
_cell_length_c   15.15057400
_cell_angle_alpha   89.93282209
_cell_angle_beta   89.90597315
_cell_angle_gamma   90.18758154
_symmetry_Int_Tables_number   1
_chemical_formula_structural   Ca7Pr(Sc3Sn4)4
_chemical_formula_sum   'Ca7 Pr1 Sc12 Sn16'
_cell_volume   940.94859199
_cell_formula_units_Z   1
loop_
 _symmetry_equiv_pos_site_id
 _symmetry_equiv_pos_as_xyz
  1  'x, y, z'
loop_
 _atom_site_type_symbol
 _atom_site_label
 _atom_site_symmetry_multiplicity
 _atom_site_fract_x
 _atom_site_fract_y
 _atom_site_fract_z
 _atom_site_occupancy
  Ca  Ca0  1  0.994821  0.177760  0.091427  1
  Ca  Ca1  1  0.005591  0.822942  0.907341  1
  Ca  Ca2  1  0.506221  0.677229  0.907300  1
  Ca  Ca3  1  0.006263  0.823041  0.591845  1
  Ca  Ca4  1  0.494836  0.322320  0.091194  1
  Ca  Ca5  1  0.994700  0.178934  0.408952  1
  Ca  Ca6  1  0.495210  0.321741  0.408562  1
  Pr  Pr7  1  0.502264  0.676870  0.593210  1
  Sc  Sc8  1  0.163867  0.499019  0.750868  1
  Sc  Sc9  1  0.835465  0.499647  0.250049  1
  Sc  Sc10  1  0.335760  0.000206  0.249779  1
  Sc  Sc11  1  0.666042  0.000753  0.750072  1
  Sc  Sc12  1  0.330221  0.158661  0.626188  1
  Sc  Sc13  1  0.668854  0.841582  0.373583  1
  Sc  Sc14  1  0.169127  0.658398  0.374102  1
  Sc  Sc15  1  0.669220  0.841291  0.125835  1
  Sc  Sc16  1  0.831641  0.340445  0.626508  1
  Sc  Sc17  1  0.329325  0.158971  0.873108  1
  Sc  Sc18  1  0.830655  0.340190  0.873226  1
  Sc  Sc19  1  0.169101  0.658861  0.125773  1
  Sn  Sn20  1  0.025598  0.131096  0.749335  1
  Sn  Sn21  1  0.974415  0.868882  0.250222  1
  Sn  Sn22  1  0.473607  0.629547  0.249898  1
  Sn  Sn23  1  0.524964  0.371526  0.749005  1
  Sn  Sn24  1  0.305166  0.855807  0.750673  1
  Sn  Sn25  1  0.697658  0.143069  0.250259  1
  Sn  Sn26  1  0.197140  0.357215  0.250369  1
  Sn  Sn27  1  0.804240  0.643358  0.749191  1
  Sn  Sn28  1  0.170779  0.456905  0.544572  1
  Sn  Sn29  1  0.826893  0.545206  0.457139  1
  Sn  Sn30  1  0.329380  0.956326  0.457259  1
  Sn  Sn31  1  0.829592  0.543391  0.043782  1
  Sn  Sn32  1  0.671391  0.041334  0.544738  1
  Sn  Sn33  1  0.170846  0.457499  0.955543  1
  Sn  Sn34  1  0.669884  0.042489  0.955266  1
  Sn  Sn35  1  0.329265  0.957487  0.043824  1
