# generated using pymatgen
data_AcAuS2
_symmetry_space_group_name_H-M   'P 1'
_cell_length_a   7.41983906
_cell_length_b   7.50519400
_cell_length_c   7.43582412
_cell_angle_alpha   89.99970861
_cell_angle_beta   90.00336757
_cell_angle_gamma   90.00013046
_symmetry_Int_Tables_number   1
_chemical_formula_structural   AcAuS2
_chemical_formula_sum   'Ac4 Au4 S8'
_cell_volume   414.08120261
_cell_formula_units_Z   4
loop_
 _symmetry_equiv_pos_site_id
 _symmetry_equiv_pos_as_xyz
  1  'x, y, z'
loop_
 _atom_site_type_symbol
 _atom_site_label
 _atom_site_symmetry_multiplicity
 _atom_site_fract_x
 _atom_site_fract_y
 _atom_site_fract_z
 _atom_site_occupancy
  Ac  Ac0  1  0.534469  0.972669  0.234710  1
  Ac  Ac1  1  0.034471  0.527331  0.234703  1
  Ac  Ac2  1  0.034541  0.027290  0.765252  1
  Ac  Ac3  1  0.534541  0.472707  0.765263  1
  Au  Au4  1  0.553819  0.475242  0.249801  1
  Au  Au5  1  0.053820  0.024756  0.249794  1
  Au  Au6  1  0.553881  0.975257  0.750217  1
  Au  Au7  1  0.053884  0.524741  0.750213  1
  S  S8  1  0.374366  0.655880  0.430901  1
  S  S9  1  0.874369  0.844117  0.430897  1
  S  S10  1  0.374414  0.155883  0.569108  1
  S  S11  1  0.874411  0.344117  0.569107  1
  S  S12  1  0.739620  0.293003  0.070958  1
  S  S13  1  0.239621  0.206995  0.070951  1
  S  S14  1  0.739685  0.793019  0.929071  1
  S  S15  1  0.239685  0.706982  0.929065  1
