# generated using pymatgen
data_Zr5(Hg2Rh)2
_symmetry_space_group_name_H-M   'P 1'
_cell_length_a   17.66717600
_cell_length_b   7.62748400
_cell_length_c   3.36699300
_cell_angle_alpha   90.00000000
_cell_angle_beta   90.00000000
_cell_angle_gamma   90.00000000
_symmetry_Int_Tables_number   1
_chemical_formula_structural   Zr5(Hg2Rh)2
_chemical_formula_sum   'Zr10 Hg8 Rh4'
_cell_volume   453.72285303
_cell_formula_units_Z   2
loop_
 _symmetry_equiv_pos_site_id
 _symmetry_equiv_pos_as_xyz
  1  'x, y, z'
loop_
 _atom_site_type_symbol
 _atom_site_label
 _atom_site_symmetry_multiplicity
 _atom_site_fract_x
 _atom_site_fract_y
 _atom_site_fract_z
 _atom_site_occupancy
  Zr  Zr0  1  0.000000  0.000000  0.000000  1
  Zr  Zr1  1  0.418717  0.133308  0.000000  1
  Zr  Zr2  1  0.720166  0.240956  0.000000  1
  Zr  Zr3  1  0.220166  0.259045  0.000000  1
  Zr  Zr4  1  0.918717  0.366693  0.000000  1
  Zr  Zr5  1  0.500000  0.500000  0.000000  1
  Zr  Zr6  1  0.081283  0.633308  0.000000  1
  Zr  Zr7  1  0.779833  0.740954  0.000000  1
  Zr  Zr8  1  0.279833  0.759044  0.000000  1
  Zr  Zr9  1  0.581283  0.866692  0.000000  1
  Hg  Hg10  1  0.851084  0.060520  0.500001  1
  Hg  Hg11  1  0.567301  0.203161  0.500001  1
  Hg  Hg12  1  0.067301  0.296839  0.500001  1
  Hg  Hg13  1  0.351084  0.439480  0.500001  1
  Hg  Hg14  1  0.648916  0.560519  0.500001  1
  Hg  Hg15  1  0.932699  0.703162  0.500001  1
  Hg  Hg16  1  0.432699  0.796838  0.500001  1
  Hg  Hg17  1  0.148916  0.939480  0.500001  1
  Rh  Rh18  1  0.306753  0.048046  0.500001  1
  Rh  Rh19  1  0.806753  0.451955  0.500001  1
  Rh  Rh20  1  0.193247  0.548044  0.500001  1
  Rh  Rh21  1  0.693247  0.951955  0.500001  1
