# generated using pymatgen
data_Sr3U8TlS20
_symmetry_space_group_name_H-M   'P 1'
_cell_length_a   7.42386305
_cell_length_b   8.27635633
_cell_length_c   11.64665300
_cell_angle_alpha   89.83554111
_cell_angle_beta   90.00676078
_cell_angle_gamma   90.10627793
_symmetry_Int_Tables_number   1
_chemical_formula_structural   Sr3U8TlS20
_chemical_formula_sum   'Sr3 U8 Tl1 S20'
_cell_volume   715.59571203
_cell_formula_units_Z   1
loop_
 _symmetry_equiv_pos_site_id
 _symmetry_equiv_pos_as_xyz
  1  'x, y, z'
loop_
 _atom_site_type_symbol
 _atom_site_label
 _atom_site_symmetry_multiplicity
 _atom_site_fract_x
 _atom_site_fract_y
 _atom_site_fract_z
 _atom_site_occupancy
  Sr  Sr0  1  0.050201  0.491801  0.333445  1
  Sr  Sr1  1  0.548564  0.508595  0.164118  1
  Sr  Sr2  1  0.952707  0.508388  0.673352  1
  U  U3  1  0.018996  0.999658  0.319520  1
  U  U4  1  0.520079  0.999758  0.182114  1
  U  U5  1  0.976400  0.000445  0.679431  1
  U  U6  1  0.479061  0.000770  0.819586  1
  U  U7  1  0.073730  0.749897  0.007806  1
  U  U8  1  0.569736  0.248388  0.489736  1
  U  U9  1  0.931592  0.244710  0.993827  1
  U  U10  1  0.429960  0.753869  0.510023  1
  Tl  Tl11  1  0.449143  0.489616  0.828701  1
  S  S12  1  0.663002  0.955211  0.402398  1
  S  S13  1  0.161309  0.043117  0.099323  1
  S  S14  1  0.337071  0.045775  0.595736  1
  S  S15  1  0.837545  0.954409  0.903838  1
  S  S16  1  0.452447  0.791056  0.004447  1
  S  S17  1  0.952655  0.214834  0.497534  1
  S  S18  1  0.552500  0.210255  0.001306  1
  S  S19  1  0.046590  0.786644  0.501682  1
  S  S20  1  0.837923  0.776751  0.188599  1
  S  S21  1  0.336854  0.222062  0.310223  1
  S  S22  1  0.158377  0.216737  0.813118  1
  S  S23  1  0.668886  0.785378  0.685400  1
  S  S24  1  0.309670  0.766679  0.285495  1
  S  S25  1  0.808672  0.232869  0.218104  1
  S  S26  1  0.693259  0.227390  0.713099  1
  S  S27  1  0.189568  0.777209  0.782820  1
  S  S28  1  0.170001  0.460040  0.085941  1
  S  S29  1  0.677104  0.541132  0.423240  1
  S  S30  1  0.832960  0.536232  0.922553  1
  S  S31  1  0.313436  0.460327  0.563483  1
