# generated using pymatgen
data_Ho2U(SnRh)3
_symmetry_space_group_name_H-M   'P 1'
_cell_length_a   7.50321085
_cell_length_b   7.60709926
_cell_length_c   3.86501000
_cell_angle_alpha   90.00000000
_cell_angle_beta   90.00000000
_cell_angle_gamma   120.45908690
_symmetry_Int_Tables_number   1
_chemical_formula_structural   Ho2U(SnRh)3
_chemical_formula_sum   'Ho2 U1 Sn3 Rh3'
_cell_volume   190.16026242
_cell_formula_units_Z   1
loop_
 _symmetry_equiv_pos_site_id
 _symmetry_equiv_pos_as_xyz
  1  'x, y, z'
loop_
 _atom_site_type_symbol
 _atom_site_label
 _atom_site_symmetry_multiplicity
 _atom_site_fract_x
 _atom_site_fract_y
 _atom_site_fract_z
 _atom_site_occupancy
  Ho  Ho0  1  0.593564  0.593402  0.000000  1
  Ho  Ho1  1  0.406436  0.999838  0.000000  1
  U  U2  1  0.000000  0.414939  0.000000  1
  Sn  Sn3  1  0.271206  0.258575  0.500000  1
  Sn  Sn4  1  0.000000  0.754979  0.500000  1
  Sn  Sn5  1  0.728794  0.987369  0.500000  1
  Rh  Rh6  1  0.697532  0.336098  0.500000  1
  Rh  Rh7  1  0.302468  0.638566  0.500000  1
  Rh  Rh8  1  0.000000  0.016233  0.000000  1
