# generated using pymatgen
data_Mg2In10Ir3Rh
_symmetry_space_group_name_H-M   'P 1'
_cell_length_a   7.03217247
_cell_length_b   7.17755050
_cell_length_c   7.21341000
_cell_angle_alpha   90.00000000
_cell_angle_beta   90.00000000
_cell_angle_gamma   89.92599378
_symmetry_Int_Tables_number   1
_chemical_formula_structural   Mg2In10Ir3Rh
_chemical_formula_sum   'Mg2 In10 Ir3 Rh1'
_cell_volume   364.08771504
_cell_formula_units_Z   1
loop_
 _symmetry_equiv_pos_site_id
 _symmetry_equiv_pos_as_xyz
  1  'x, y, z'
loop_
 _atom_site_type_symbol
 _atom_site_label
 _atom_site_symmetry_multiplicity
 _atom_site_fract_x
 _atom_site_fract_y
 _atom_site_fract_z
 _atom_site_occupancy
  Mg  Mg0  1  0.998355  0.501297  0.500000  1
  Mg  Mg1  1  0.500752  0.999669  0.000000  1
  In  In2  1  0.501656  0.998514  0.500000  1
  In  In3  1  0.998603  0.500549  0.000000  1
  In  In4  1  0.343731  0.658441  0.236405  1
  In  In5  1  0.657404  0.342425  0.236515  1
  In  In6  1  0.156635  0.157912  0.738178  1
  In  In7  1  0.842254  0.840870  0.738422  1
  In  In8  1  0.657404  0.342425  0.763485  1
  In  In9  1  0.343731  0.658441  0.763595  1
  In  In10  1  0.842254  0.840870  0.261578  1
  In  In11  1  0.156635  0.157912  0.261822  1
  Ir  Ir12  1  0.151573  0.844985  0.500000  1
  Ir  Ir13  1  0.849101  0.156507  0.500000  1
  Ir  Ir14  1  0.348315  0.344792  0.000000  1
  Rh  Rh15  1  0.651597  0.654390  0.000000  1
