# generated using pymatgen
data_TbEr5Ni12(B2Ru)2
_symmetry_space_group_name_H-M   'P 1'
_cell_length_a   5.06556300
_cell_length_b   5.06556167
_cell_length_c   14.60784200
_cell_angle_alpha   90.00000000
_cell_angle_beta   90.00000000
_cell_angle_gamma   120.00000213
_symmetry_Int_Tables_number   1
_chemical_formula_structural   TbEr5Ni12(B2Ru)2
_chemical_formula_sum   'Tb1 Er5 Ni12 B4 Ru2'
_cell_volume   324.61756338
_cell_formula_units_Z   1
loop_
 _symmetry_equiv_pos_site_id
 _symmetry_equiv_pos_as_xyz
  1  'x, y, z'
loop_
 _atom_site_type_symbol
 _atom_site_label
 _atom_site_symmetry_multiplicity
 _atom_site_fract_x
 _atom_site_fract_y
 _atom_site_fract_z
 _atom_site_occupancy
  Tb  Tb0  1  0.333333  0.666667  0.470157  1
  Er  Er1  1  0.666667  0.333333  0.970203  1
  Er  Er2  1  0.666667  0.333333  0.530214  1
  Er  Er3  1  0.333333  0.666667  0.029777  1
  Er  Er4  1  0.666667  0.333333  0.750104  1
  Er  Er5  1  0.333333  0.666667  0.249394  1
  Ni  Ni6  1  0.835283  0.164717  0.346347  1
  Ni  Ni7  1  0.835283  0.670565  0.346347  1
  Ni  Ni8  1  0.835316  0.670631  0.152964  1
  Ni  Ni9  1  0.164625  0.835375  0.653486  1
  Ni  Ni10  1  0.670749  0.835375  0.653486  1
  Ni  Ni11  1  0.329369  0.164684  0.152964  1
  Ni  Ni12  1  0.835316  0.164684  0.152964  1
  Ni  Ni13  1  0.164782  0.329565  0.847121  1
  Ni  Ni14  1  0.164782  0.835218  0.847121  1
  Ni  Ni15  1  0.164625  0.329251  0.653486  1
  Ni  Ni16  1  0.670435  0.835218  0.847121  1
  Ni  Ni17  1  0.329435  0.164717  0.346347  1
  B  B18  1  0.666667  0.333333  0.249841  1
  B  B19  1  0.333333  0.666667  0.750196  1
  B  B20  1  0.000000  0.000000  0.750429  1
  B  B21  1  0.000000  0.000000  0.249709  1
  Ru  Ru22  1  0.000000  0.000000  0.000032  1
  Ru  Ru23  1  0.000000  0.000000  0.500192  1
