# generated using pymatgen
data_TbY3OsRu7
_symmetry_space_group_name_H-M   'P 1'
_cell_length_a   5.26242909
_cell_length_b   5.26242711
_cell_length_c   8.96552006
_cell_angle_alpha   90.01185616
_cell_angle_beta   89.98814601
_cell_angle_gamma   119.11105351
_symmetry_Int_Tables_number   1
_chemical_formula_structural   TbY3OsRu7
_chemical_formula_sum   'Tb1 Y3 Os1 Ru7'
_cell_volume   216.91990943
_cell_formula_units_Z   1
loop_
 _symmetry_equiv_pos_site_id
 _symmetry_equiv_pos_as_xyz
  1  'x, y, z'
loop_
 _atom_site_type_symbol
 _atom_site_label
 _atom_site_symmetry_multiplicity
 _atom_site_fract_x
 _atom_site_fract_y
 _atom_site_fract_z
 _atom_site_occupancy
  Tb  Tb0  1  0.332012  0.667988  0.066482  1
  Y  Y1  1  0.332027  0.667973  0.433251  1
  Y  Y2  1  0.666457  0.333543  0.567426  1
  Y  Y3  1  0.666394  0.333606  0.932633  1
  Os  Os4  1  0.833876  0.166124  0.250176  1
  Ru  Ru5  1  0.996518  0.003482  0.500292  1
  Ru  Ru6  1  0.996500  0.003500  0.999860  1
  Ru  Ru7  1  0.830312  0.653217  0.250148  1
  Ru  Ru8  1  0.346783  0.169688  0.250148  1
  Ru  Ru9  1  0.170957  0.829043  0.749868  1
  Ru  Ru10  1  0.170667  0.342500  0.749857  1
  Ru  Ru11  1  0.657500  0.829333  0.749857  1
