# generated using pymatgen
data_La4Ga5Ir9
_symmetry_space_group_name_H-M   'P 1'
_cell_length_a   12.37187121
_cell_length_b   12.37187124
_cell_length_c   12.37187138
_cell_angle_alpha   26.55680704
_cell_angle_beta   26.55680850
_cell_angle_gamma   26.55680320
_symmetry_Int_Tables_number   1
_chemical_formula_structural   La4Ga5Ir9
_chemical_formula_sum   'La4 Ga5 Ir9'
_cell_volume   333.66942814
_cell_formula_units_Z   1
loop_
 _symmetry_equiv_pos_site_id
 _symmetry_equiv_pos_as_xyz
  1  'x, y, z'
loop_
 _atom_site_type_symbol
 _atom_site_label
 _atom_site_symmetry_multiplicity
 _atom_site_fract_x
 _atom_site_fract_y
 _atom_site_fract_z
 _atom_site_occupancy
  La  La0  1  0.950387  0.950387  0.950387  1
  La  La1  1  0.049613  0.049613  0.049613  1
  La  La2  1  0.853269  0.853269  0.853269  1
  La  La3  1  0.146731  0.146731  0.146731  1
  Ga  Ga4  1  0.500000  0.500000  0.500000  1
  Ga  Ga5  1  0.721239  0.721239  0.721239  1
  Ga  Ga6  1  0.278761  0.278761  0.278761  1
  Ga  Ga7  1  0.611949  0.611949  0.611949  1
  Ga  Ga8  1  0.388051  0.388051  0.388051  1
  Ir  Ir9  1  0.500000  0.500000  0.000000  1
  Ir  Ir10  1  0.000000  0.500000  0.500000  1
  Ir  Ir11  1  0.500000  0.000000  0.500000  1
  Ir  Ir12  1  0.389148  0.894167  0.389148  1
  Ir  Ir13  1  0.389148  0.389148  0.894167  1
  Ir  Ir14  1  0.894167  0.389148  0.389148  1
  Ir  Ir15  1  0.610852  0.105833  0.610852  1
  Ir  Ir16  1  0.610852  0.610852  0.105833  1
  Ir  Ir17  1  0.105833  0.610852  0.610852  1
