# generated using pymatgen
data_Ce2Dy3Lu3Si12Pd3Rh
_symmetry_space_group_name_H-M   'P 1'
_cell_length_a   8.15161800
_cell_length_b   8.15165680
_cell_length_c   7.92574000
_cell_angle_alpha   90.00000000
_cell_angle_beta   90.00000000
_cell_angle_gamma   119.99974516
_symmetry_Int_Tables_number   1
_chemical_formula_structural   Ce2Dy3Lu3Si12Pd3Rh
_chemical_formula_sum   'Ce2 Dy3 Lu3 Si12 Pd3 Rh1'
_cell_volume   456.10126288
_cell_formula_units_Z   1
loop_
 _symmetry_equiv_pos_site_id
 _symmetry_equiv_pos_as_xyz
  1  'x, y, z'
loop_
 _atom_site_type_symbol
 _atom_site_label
 _atom_site_symmetry_multiplicity
 _atom_site_fract_x
 _atom_site_fract_y
 _atom_site_fract_z
 _atom_site_occupancy
  Ce  Ce0  1  0.999963  0.999995  0.250383  1
  Ce  Ce1  1  0.999976  0.999995  0.750878  1
  Dy  Dy2  1  0.491954  0.508050  0.751859  1
  Dy  Dy3  1  0.491960  0.983912  0.751853  1
  Dy  Dy4  1  0.016124  0.508060  0.751863  1
  Lu  Lu5  1  0.505590  0.494378  0.247188  1
  Lu  Lu6  1  0.505691  0.011287  0.247228  1
  Lu  Lu7  1  0.988767  0.494334  0.247158  1
  Si  Si8  1  0.165996  0.833988  0.500932  1
  Si  Si9  1  0.165977  0.331924  0.500970  1
  Si  Si10  1  0.667968  0.833963  0.500928  1
  Si  Si11  1  0.834203  0.165736  0.497769  1
  Si  Si12  1  0.834241  0.668468  0.497755  1
  Si  Si13  1  0.331565  0.165744  0.497765  1
  Si  Si14  1  0.834874  0.165132  0.000155  1
  Si  Si15  1  0.834844  0.669723  0.000184  1
  Si  Si16  1  0.330297  0.165173  0.000165  1
  Si  Si17  1  0.167938  0.832075  0.003276  1
  Si  Si18  1  0.167970  0.335931  0.003291  1
  Si  Si19  1  0.664038  0.832019  0.003300  1
  Pd  Pd20  1  0.333282  0.666592  0.462130  1
  Pd  Pd21  1  0.666703  0.333356  0.507760  1
  Pd  Pd22  1  0.666732  0.333373  0.991135  1
  Rh  Rh23  1  0.333348  0.666791  0.034073  1
