# generated using pymatgen
data_LaNd(Al5Re)4
_symmetry_space_group_name_H-M   'P 1'
_cell_length_a   6.95657557
_cell_length_b   6.95657552
_cell_length_c   9.28088500
_cell_angle_alpha   90.00000000
_cell_angle_beta   90.00000000
_cell_angle_gamma   96.71897965
_symmetry_Int_Tables_number   1
_chemical_formula_structural   LaNd(Al5Re)4
_chemical_formula_sum   'La1 Nd1 Al20 Re4'
_cell_volume   446.05391472
_cell_formula_units_Z   1
loop_
 _symmetry_equiv_pos_site_id
 _symmetry_equiv_pos_as_xyz
  1  'x, y, z'
loop_
 _atom_site_type_symbol
 _atom_site_label
 _atom_site_symmetry_multiplicity
 _atom_site_fract_x
 _atom_site_fract_y
 _atom_site_fract_z
 _atom_site_occupancy
  La  La0  1  0.874372  0.125628  0.750000  1
  Nd  Nd1  1  0.124963  0.875037  0.250000  1
  Al  Al2  1  0.622433  0.377567  0.536243  1
  Al  Al3  1  0.377296  0.622704  0.461275  1
  Al  Al4  1  0.377296  0.622704  0.038725  1
  Al  Al5  1  0.622433  0.377567  0.963757  1
  Al  Al6  1  0.227088  0.227383  0.498378  1
  Al  Al7  1  0.772617  0.772912  0.498378  1
  Al  Al8  1  0.772617  0.772912  0.001622  1
  Al  Al9  1  0.227088  0.227383  0.001622  1
  Al  Al10  1  0.844052  0.155948  0.099035  1
  Al  Al11  1  0.157104  0.842896  0.902660  1
  Al  Al12  1  0.157104  0.842896  0.597340  1
  Al  Al13  1  0.844052  0.155948  0.400965  1
  Al  Al14  1  0.865156  0.597514  0.750000  1
  Al  Al15  1  0.135588  0.404990  0.250000  1
  Al  Al16  1  0.402486  0.134844  0.750000  1
  Al  Al17  1  0.595010  0.864412  0.250000  1
  Al  Al18  1  0.217329  0.473301  0.750000  1
  Al  Al19  1  0.784418  0.526685  0.250000  1
  Al  Al20  1  0.526699  0.782671  0.750000  1
  Al  Al21  1  0.473315  0.215582  0.250000  1
  Re  Re22  1  0.000176  0.500435  0.500109  1
  Re  Re23  1  0.000176  0.500435  0.999891  1
  Re  Re24  1  0.499565  0.999824  0.999891  1
  Re  Re25  1  0.499565  0.999824  0.500109  1
