# generated using pymatgen
data_Ce4TaNb3N8
_symmetry_space_group_name_H-M   'P 1'
_cell_length_a   3.35800500
_cell_length_b   5.76725514
_cell_length_c   11.03417704
_cell_angle_alpha   89.94476592
_cell_angle_beta   90.00000000
_cell_angle_gamma   90.00000000
_symmetry_Int_Tables_number   1
_chemical_formula_structural   Ce4TaNb3N8
_chemical_formula_sum   'Ce4 Ta1 Nb3 N8'
_cell_volume   213.69297702
_cell_formula_units_Z   1
loop_
 _symmetry_equiv_pos_site_id
 _symmetry_equiv_pos_as_xyz
  1  'x, y, z'
loop_
 _atom_site_type_symbol
 _atom_site_label
 _atom_site_symmetry_multiplicity
 _atom_site_fract_x
 _atom_site_fract_y
 _atom_site_fract_z
 _atom_site_occupancy
  Ce  Ce0  1  0.250000  0.578543  0.859356  1
  Ce  Ce1  1  0.750000  0.419149  0.140792  1
  Ce  Ce2  1  0.750000  0.922064  0.360101  1
  Ce  Ce3  1  0.250000  0.078194  0.640534  1
  Ta  Ta4  1  0.250000  0.919778  0.103343  1
  Nb  Nb5  1  0.750000  0.080494  0.896841  1
  Nb  Nb6  1  0.750000  0.577720  0.601298  1
  Nb  Nb7  1  0.250000  0.422549  0.397901  1
  N  N8  1  0.250000  0.663715  0.243970  1
  N  N9  1  0.750000  0.340095  0.753524  1
  N  N10  1  0.750000  0.838971  0.747154  1
  N  N11  1  0.250000  0.158676  0.251367  1
  N  N12  1  0.250000  0.745805  0.508301  1
  N  N13  1  0.750000  0.254436  0.490842  1
  N  N14  1  0.750000  0.758940  0.012255  1
  N  N15  1  0.250000  0.240870  0.992418  1
