# generated using pymatgen
data_Lu9Al(SiB4)4
_symmetry_space_group_name_H-M   'P 1'
_cell_length_a   7.05875700
_cell_length_b   7.05875700
_cell_length_c   7.75466800
_cell_angle_alpha   90.00000000
_cell_angle_beta   90.00000000
_cell_angle_gamma   90.00000000
_symmetry_Int_Tables_number   1
_chemical_formula_structural   Lu9Al(SiB4)4
_chemical_formula_sum   'Lu9 Al1 Si4 B16'
_cell_volume   386.38447849
_cell_formula_units_Z   1
loop_
 _symmetry_equiv_pos_site_id
 _symmetry_equiv_pos_as_xyz
  1  'x, y, z'
loop_
 _atom_site_type_symbol
 _atom_site_label
 _atom_site_symmetry_multiplicity
 _atom_site_fract_x
 _atom_site_fract_y
 _atom_site_fract_z
 _atom_site_occupancy
  Lu  Lu0  1  0.681615  0.179294  0.226637  1
  Lu  Lu1  1  0.318385  0.820706  0.773363  1
  Lu  Lu2  1  0.318385  0.820706  0.226637  1
  Lu  Lu3  1  0.820706  0.681615  0.226637  1
  Lu  Lu4  1  0.820706  0.681615  0.773363  1
  Lu  Lu5  1  0.681615  0.179294  0.773363  1
  Lu  Lu6  1  0.179294  0.318385  0.773363  1
  Lu  Lu7  1  0.179294  0.318385  0.226637  1
  Lu  Lu8  1  0.500000  0.500000  0.500000  1
  Al  Al9  1  0.000000  0.000000  0.500000  1
  Si  Si10  1  0.115436  0.621555  0.500000  1
  Si  Si11  1  0.884564  0.378445  0.500000  1
  Si  Si12  1  0.378445  0.115436  0.500000  1
  Si  Si13  1  0.621555  0.884564  0.500000  1
  B  B14  1  0.174914  0.039692  0.000000  1
  B  B15  1  0.825086  0.960308  0.000000  1
  B  B16  1  0.960308  0.174914  0.000000  1
  B  B17  1  0.326531  0.539404  0.000000  1
  B  B18  1  0.039692  0.825086  0.000000  1
  B  B19  1  0.673469  0.460596  0.000000  1
  B  B20  1  0.539404  0.673469  0.000000  1
  B  B21  1  0.460596  0.326531  0.000000  1
  B  B22  1  0.089402  0.588133  0.000000  1
  B  B23  1  0.910598  0.411867  0.000000  1
  B  B24  1  0.411867  0.089402  0.000000  1
  B  B25  1  0.588133  0.910598  0.000000  1
  B  B26  1  0.000000  0.000000  0.167900  1
  B  B27  1  0.000000  0.000000  0.832100  1
  B  B28  1  0.500000  0.500000  0.830737  1
  B  B29  1  0.500000  0.500000  0.169263  1
