# generated using pymatgen
data_Tm8Zr9Si16Mo3
_symmetry_space_group_name_H-M   'P 1'
_cell_length_a   6.95259620
_cell_length_b   7.16108444
_cell_length_c   13.74455400
_cell_angle_alpha   90.00000000
_cell_angle_beta   90.00000000
_cell_angle_gamma   90.06538434
_symmetry_Int_Tables_number   1
_chemical_formula_structural   Tm8Zr9Si16Mo3
_chemical_formula_sum   'Tm8 Zr9 Si16 Mo3'
_cell_volume   684.31517479
_cell_formula_units_Z   1
loop_
 _symmetry_equiv_pos_site_id
 _symmetry_equiv_pos_as_xyz
  1  'x, y, z'
loop_
 _atom_site_type_symbol
 _atom_site_label
 _atom_site_symmetry_multiplicity
 _atom_site_fract_x
 _atom_site_fract_y
 _atom_site_fract_z
 _atom_site_occupancy
  Tm  Tm0  1  0.011251  0.178149  0.099021  1
  Tm  Tm1  1  0.988541  0.821306  0.903768  1
  Tm  Tm2  1  0.486042  0.675415  0.904573  1
  Tm  Tm3  1  0.988541  0.821306  0.596232  1
  Tm  Tm4  1  0.511895  0.322442  0.099792  1
  Tm  Tm5  1  0.011251  0.178149  0.400979  1
  Tm  Tm6  1  0.511895  0.322442  0.400208  1
  Tm  Tm7  1  0.486042  0.675415  0.595427  1
  Zr  Zr8  1  0.654261  0.001949  0.750000  1
  Zr  Zr9  1  0.325456  0.177420  0.623991  1
  Zr  Zr10  1  0.673542  0.825076  0.372659  1
  Zr  Zr11  1  0.174848  0.674411  0.373549  1
  Zr  Zr12  1  0.673542  0.825076  0.127341  1
  Zr  Zr13  1  0.828229  0.327482  0.624808  1
  Zr  Zr14  1  0.325456  0.177420  0.876009  1
  Zr  Zr15  1  0.828229  0.327482  0.875192  1
  Zr  Zr16  1  0.174848  0.674411  0.126451  1
  Si  Si17  1  0.031402  0.116361  0.750000  1
  Si  Si18  1  0.976263  0.889312  0.250000  1
  Si  Si19  1  0.475925  0.608051  0.250000  1
  Si  Si20  1  0.522604  0.392260  0.750000  1
  Si  Si21  1  0.278133  0.861436  0.750000  1
  Si  Si22  1  0.713998  0.134817  0.250000  1
  Si  Si23  1  0.212507  0.363946  0.250000  1
  Si  Si24  1  0.788455  0.630858  0.750000  1
  Si  Si25  1  0.156386  0.468439  0.541515  1
  Si  Si26  1  0.841787  0.531521  0.456394  1
  Si  Si27  1  0.343691  0.970560  0.455174  1
  Si  Si28  1  0.841787  0.531521  0.043606  1
  Si  Si29  1  0.658583  0.032505  0.538352  1
  Si  Si30  1  0.156386  0.468439  0.958485  1
  Si  Si31  1  0.658583  0.032505  0.961648  1
  Si  Si32  1  0.343691  0.970560  0.044826  1
  Mo  Mo33  1  0.152242  0.493536  0.750000  1
  Mo  Mo34  1  0.847357  0.505502  0.250000  1
  Mo  Mo35  1  0.346351  0.992519  0.250000  1
