# generated using pymatgen
data_PrEuFe3P7Ru9
_symmetry_space_group_name_H-M   'P 1'
_cell_length_a   9.37062600
_cell_length_b   9.37062585
_cell_length_c   3.88709800
_cell_angle_alpha   90.00000000
_cell_angle_beta   90.00000000
_cell_angle_gamma   119.99998817
_symmetry_Int_Tables_number   1
_chemical_formula_structural   PrEuFe3P7Ru9
_chemical_formula_sum   'Pr1 Eu1 Fe3 P7 Ru9'
_cell_volume   295.59247628
_cell_formula_units_Z   1
loop_
 _symmetry_equiv_pos_site_id
 _symmetry_equiv_pos_as_xyz
  1  'x, y, z'
loop_
 _atom_site_type_symbol
 _atom_site_label
 _atom_site_symmetry_multiplicity
 _atom_site_fract_x
 _atom_site_fract_y
 _atom_site_fract_z
 _atom_site_occupancy
  Pr  Pr0  1  0.666667  0.333333  0.500000  1
  Eu  Eu1  1  0.333333  0.666667  0.000000  1
  Fe  Fe2  1  0.154640  0.889467  0.000000  1
  Fe  Fe3  1  0.110533  0.265173  0.000000  1
  Fe  Fe4  1  0.734827  0.845360  0.000000  1
  P  P5  1  0.407530  0.103495  0.000000  1
  P  P6  1  0.896505  0.304037  0.000000  1
  P  P7  1  0.695963  0.592470  0.000000  1
  P  P8  1  0.112616  0.719165  0.500000  1
  P  P9  1  0.280835  0.393451  0.500000  1
  P  P10  1  0.606549  0.887384  0.500000  1
  P  P11  1  0.000000  0.000000  0.000000  1
  Ru  Ru12  1  0.418346  0.361002  0.000000  1
  Ru  Ru13  1  0.638998  0.057341  0.000000  1
  Ru  Ru14  1  0.942659  0.581654  0.000000  1
  Ru  Ru15  1  0.384453  0.949167  0.500000  1
  Ru  Ru16  1  0.050833  0.435284  0.500000  1
  Ru  Ru17  1  0.564716  0.615547  0.500000  1
  Ru  Ru18  1  0.203354  0.115674  0.500000  1
  Ru  Ru19  1  0.884326  0.087682  0.500000  1
  Ru  Ru20  1  0.912318  0.796646  0.500000  1
