# generated using pymatgen
data_Nb6GaSiC2
_symmetry_space_group_name_H-M   'P 1'
_cell_length_a   5.57570733
_cell_length_b   5.57570676
_cell_length_c   8.40381400
_cell_angle_alpha   90.00000000
_cell_angle_beta   90.00000000
_cell_angle_gamma   145.22267342
_symmetry_Int_Tables_number   1
_chemical_formula_structural   Nb6GaSiC2
_chemical_formula_sum   'Nb6 Ga1 Si1 C2'
_cell_volume   149.02088659
_cell_formula_units_Z   1
loop_
 _symmetry_equiv_pos_site_id
 _symmetry_equiv_pos_as_xyz
  1  'x, y, z'
loop_
 _atom_site_type_symbol
 _atom_site_label
 _atom_site_symmetry_multiplicity
 _atom_site_fract_x
 _atom_site_fract_y
 _atom_site_fract_z
 _atom_site_occupancy
  Nb  Nb0  1  0.631299  0.368703  0.047327  1
  Nb  Nb1  1  0.950198  0.049804  0.250000  1
  Nb  Nb2  1  0.631299  0.368703  0.452673  1
  Nb  Nb3  1  0.365613  0.634389  0.558846  1
  Nb  Nb4  1  0.058657  0.941345  0.750000  1
  Nb  Nb5  1  0.365613  0.634389  0.941155  1
  Ga  Ga6  1  0.253176  0.746826  0.250000  1
  Si  Si7  1  0.745301  0.254701  0.750000  1
  C  C8  1  0.999426  0.000574  0.998566  1
  C  C9  1  0.999426  0.000574  0.501434  1
