# generated using pymatgen
data_SmTh(CoC2)2
_symmetry_space_group_name_H-M   'P 1'
_cell_length_a   3.76004583
_cell_length_b   3.78483190
_cell_length_c   7.43235644
_cell_angle_alpha   81.95471613
_cell_angle_beta   82.05901717
_cell_angle_gamma   90.11595246
_symmetry_Int_Tables_number   1
_chemical_formula_structural   SmTh(CoC2)2
_chemical_formula_sum   'Sm1 Th1 Co2 C4'
_cell_volume   103.70102185
_cell_formula_units_Z   1
loop_
 _symmetry_equiv_pos_site_id
 _symmetry_equiv_pos_as_xyz
  1  'x, y, z'
loop_
 _atom_site_type_symbol
 _atom_site_label
 _atom_site_symmetry_multiplicity
 _atom_site_fract_x
 _atom_site_fract_y
 _atom_site_fract_z
 _atom_site_occupancy
  Sm  Sm0  1  0.486448  0.629854  0.806496  1
  Th  Th1  1  0.627402  0.487348  0.304465  1
  Co  Co2  1  0.071925  0.928400  0.502085  1
  Co  Co3  1  0.931365  0.071105  0.000539  1
  C  C4  1  0.412699  0.049292  0.077219  1
  C  C5  1  0.047365  0.411045  0.582857  1
  C  C6  1  0.150767  0.999516  0.233534  1
  C  C7  1  0.000029  0.151440  0.734805  1
