# generated using pymatgen
data_NaTa8CdS16
_symmetry_space_group_name_H-M   'P 1'
_cell_length_a   6.73239492
_cell_length_b   6.73297293
_cell_length_c   14.41368361
_cell_angle_alpha   90.01699437
_cell_angle_beta   90.02895463
_cell_angle_gamma   119.98708655
_symmetry_Int_Tables_number   1
_chemical_formula_structural   NaTa8CdS16
_chemical_formula_sum   'Na1 Ta8 Cd1 S16'
_cell_volume   565.89834428
_cell_formula_units_Z   1
loop_
 _symmetry_equiv_pos_site_id
 _symmetry_equiv_pos_as_xyz
  1  'x, y, z'
loop_
 _atom_site_type_symbol
 _atom_site_label
 _atom_site_symmetry_multiplicity
 _atom_site_fract_x
 _atom_site_fract_y
 _atom_site_fract_z
 _atom_site_occupancy
  Na  Na0  1  0.000000  0.000000  0.500000  1
  Ta  Ta1  1  0.505857  0.494449  0.765715  1
  Ta  Ta2  1  0.011645  0.505604  0.234293  1
  Ta  Ta3  1  0.494157  0.988190  0.234281  1
  Ta  Ta4  1  0.505843  0.011810  0.765719  1
  Ta  Ta5  1  0.988355  0.494396  0.765707  1
  Ta  Ta6  1  0.494143  0.505551  0.234285  1
  Ta  Ta7  1  0.999947  0.000193  0.764913  1
  Ta  Ta8  1  0.000053  0.999807  0.235087  1
  Cd  Cd9  1  0.000000  0.000000  0.000000  1
  S  S10  1  0.832471  0.167691  0.340571  1
  S  S11  1  0.832522  0.664739  0.340558  1
  S  S12  1  0.335525  0.167701  0.340563  1
  S  S13  1  0.660453  0.830538  0.872547  1
  S  S14  1  0.167478  0.335261  0.659442  1
  S  S15  1  0.170013  0.830545  0.872552  1
  S  S16  1  0.169963  0.340008  0.872549  1
  S  S17  1  0.829987  0.169455  0.127448  1
  S  S18  1  0.339547  0.169462  0.127453  1
  S  S19  1  0.664475  0.832299  0.659437  1
  S  S20  1  0.333169  0.666241  0.123627  1
  S  S21  1  0.666462  0.333307  0.654922  1
  S  S22  1  0.666831  0.333759  0.876373  1
  S  S23  1  0.333538  0.666693  0.345078  1
  S  S24  1  0.830037  0.659992  0.127451  1
  S  S25  1  0.167529  0.832309  0.659429  1
