# generated using pymatgen
data_Eu2Zn2Cu5Ni2Sn
_symmetry_space_group_name_H-M   'P 1'
_cell_length_a   4.16512900
_cell_length_b   5.09441907
_cell_length_c   9.24597174
_cell_angle_alpha   92.48890496
_cell_angle_beta   90.00000000
_cell_angle_gamma   90.00000000
_symmetry_Int_Tables_number   1
_chemical_formula_structural   Eu2Zn2Cu5Ni2Sn
_chemical_formula_sum   'Eu2 Zn2 Cu5 Ni2 Sn1'
_cell_volume   196.00439077
_cell_formula_units_Z   1
loop_
 _symmetry_equiv_pos_site_id
 _symmetry_equiv_pos_as_xyz
  1  'x, y, z'
loop_
 _atom_site_type_symbol
 _atom_site_label
 _atom_site_symmetry_multiplicity
 _atom_site_fract_x
 _atom_site_fract_y
 _atom_site_fract_z
 _atom_site_occupancy
  Eu  Eu0  1  0.000000  0.500000  0.000000  1
  Eu  Eu1  1  0.000000  0.000000  0.500000  1
  Zn  Zn2  1  0.500000  0.759343  0.236813  1
  Zn  Zn3  1  0.500000  0.240657  0.763187  1
  Cu  Cu4  1  0.000000  0.489047  0.311581  1
  Cu  Cu5  1  0.000000  0.985191  0.831968  1
  Cu  Cu6  1  0.000000  0.014809  0.168032  1
  Cu  Cu7  1  0.000000  0.510953  0.688419  1
  Cu  Cu8  1  0.500000  0.000000  0.000000  1
  Ni  Ni9  1  0.500000  0.250422  0.240150  1
  Ni  Ni10  1  0.500000  0.749578  0.759850  1
  Sn  Sn11  1  0.500000  0.500000  0.500000  1
