# generated using pymatgen
data_Dy2Hf(SnRh)3
_symmetry_space_group_name_H-M   'P 1'
_cell_length_a   7.53096436
_cell_length_b   7.46160150
_cell_length_c   7.58767200
_cell_angle_alpha   90.00000000
_cell_angle_beta   90.00000000
_cell_angle_gamma   119.73027723
_symmetry_Int_Tables_number   1
_chemical_formula_structural   Dy2Hf(SnRh)3
_chemical_formula_sum   'Dy4 Hf2 Sn6 Rh6'
_cell_volume   370.25061715
_cell_formula_units_Z   2
loop_
 _symmetry_equiv_pos_site_id
 _symmetry_equiv_pos_as_xyz
  1  'x, y, z'
loop_
 _atom_site_type_symbol
 _atom_site_label
 _atom_site_symmetry_multiplicity
 _atom_site_fract_x
 _atom_site_fract_y
 _atom_site_fract_z
 _atom_site_occupancy
  Dy  Dy0  1  0.002767  0.405304  0.750000  1
  Dy  Dy1  1  0.000163  0.403459  0.250000  1
  Dy  Dy2  1  0.589698  0.592977  0.250000  1
  Dy  Dy3  1  0.410808  0.002963  0.250000  1
  Hf  Hf4  1  0.604068  0.601302  0.750000  1
  Hf  Hf5  1  0.394195  0.994561  0.750000  1
  Sn  Sn6  1  0.262902  0.262100  0.508357  1
  Sn  Sn7  1  0.998937  0.734258  0.497007  1
  Sn  Sn8  1  0.998937  0.734258  0.002993  1
  Sn  Sn9  1  0.737994  0.001367  0.509458  1
  Sn  Sn10  1  0.737994  0.001367  0.990542  1
  Sn  Sn11  1  0.262902  0.262100  0.991643  1
  Rh  Rh12  1  0.343451  0.675428  0.526879  1
  Rh  Rh13  1  0.656034  0.331507  0.532280  1
  Rh  Rh14  1  0.343451  0.675428  0.973121  1
  Rh  Rh15  1  0.000294  0.987003  0.750000  1
  Rh  Rh16  1  0.999376  0.003112  0.250000  1
  Rh  Rh17  1  0.656034  0.331507  0.967720  1
