# generated using pymatgen
data_Ce12Mn3Al2Si4Ru3
_symmetry_space_group_name_H-M   'P 1'
_cell_length_a   7.61479000
_cell_length_b   7.61478986
_cell_length_c   9.78526500
_cell_angle_alpha   90.00000000
_cell_angle_beta   90.00000000
_cell_angle_gamma   119.99999192
_symmetry_Int_Tables_number   1
_chemical_formula_structural   Ce12Mn3Al2Si4Ru3
_chemical_formula_sum   'Ce12 Mn3 Al2 Si4 Ru3'
_cell_volume   491.38185150
_cell_formula_units_Z   1
loop_
 _symmetry_equiv_pos_site_id
 _symmetry_equiv_pos_as_xyz
  1  'x, y, z'
loop_
 _atom_site_type_symbol
 _atom_site_label
 _atom_site_symmetry_multiplicity
 _atom_site_fract_x
 _atom_site_fract_y
 _atom_site_fract_z
 _atom_site_occupancy
  Ce  Ce0  1  0.000000  0.565378  0.490726  1
  Ce  Ce1  1  0.565378  0.000000  0.490726  1
  Ce  Ce2  1  0.434622  0.434622  0.490726  1
  Ce  Ce3  1  0.000000  0.414320  0.009028  1
  Ce  Ce4  1  0.414320  0.000000  0.009028  1
  Ce  Ce5  1  0.585680  0.585680  0.009028  1
  Ce  Ce6  1  0.000000  0.743340  0.182049  1
  Ce  Ce7  1  0.743340  0.000000  0.182049  1
  Ce  Ce8  1  0.256660  0.256660  0.182049  1
  Ce  Ce9  1  0.000000  0.263237  0.675121  1
  Ce  Ce10  1  0.263237  0.000000  0.675121  1
  Ce  Ce11  1  0.736763  0.736763  0.675121  1
  Mn  Mn12  1  0.000000  0.357499  0.338836  1
  Mn  Mn13  1  0.357499  0.000000  0.338836  1
  Mn  Mn14  1  0.642501  0.642501  0.338836  1
  Al  Al15  1  0.000000  0.000000  0.424475  1
  Al  Al16  1  0.000000  0.000000  0.922574  1
  Si  Si17  1  0.666667  0.333333  0.267372  1
  Si  Si18  1  0.333333  0.666667  0.267372  1
  Si  Si19  1  0.333333  0.666667  0.771662  1
  Si  Si20  1  0.666667  0.333333  0.771662  1
  Ru  Ru21  1  0.000000  0.653800  0.838951  1
  Ru  Ru22  1  0.653800  0.000000  0.838951  1
  Ru  Ru23  1  0.346200  0.346200  0.838951  1
