# generated using pymatgen
data_Lu10Tl6S
_symmetry_space_group_name_H-M   'P 1'
_cell_length_a   8.87044500
_cell_length_b   8.87044673
_cell_length_c   6.54383000
_cell_angle_alpha   90.00000000
_cell_angle_beta   90.00000000
_cell_angle_gamma   119.99998982
_symmetry_Int_Tables_number   1
_chemical_formula_structural   Lu10Tl6S
_chemical_formula_sum   'Lu10 Tl6 S1'
_cell_volume   445.91654283
_cell_formula_units_Z   1
loop_
 _symmetry_equiv_pos_site_id
 _symmetry_equiv_pos_as_xyz
  1  'x, y, z'
loop_
 _atom_site_type_symbol
 _atom_site_label
 _atom_site_symmetry_multiplicity
 _atom_site_fract_x
 _atom_site_fract_y
 _atom_site_fract_z
 _atom_site_occupancy
  Lu  Lu0  1  0.666667  0.333333  0.500000  1
  Lu  Lu1  1  0.333333  0.666667  0.500000  1
  Lu  Lu2  1  0.333333  0.666667  0.000000  1
  Lu  Lu3  1  0.666667  0.333333  0.000000  1
  Lu  Lu4  1  0.757335  0.757335  0.247612  1
  Lu  Lu5  1  0.242665  0.000000  0.247612  1
  Lu  Lu6  1  0.000000  0.242665  0.247612  1
  Lu  Lu7  1  0.242665  0.242665  0.752388  1
  Lu  Lu8  1  0.757335  0.000000  0.752388  1
  Lu  Lu9  1  0.000000  0.757335  0.752388  1
  Tl  Tl10  1  0.396842  0.396842  0.248845  1
  Tl  Tl11  1  0.603158  0.000000  0.248845  1
  Tl  Tl12  1  0.000000  0.603158  0.248845  1
  Tl  Tl13  1  0.603158  0.603158  0.751155  1
  Tl  Tl14  1  0.396842  0.000000  0.751155  1
  Tl  Tl15  1  0.000000  0.396842  0.751155  1
  S  S16  1  0.000000  0.000000  0.500000  1
