# generated using pymatgen
data_Er4Al4IrPdRh2
_symmetry_space_group_name_H-M   'P 1'
_cell_length_a   4.21464500
_cell_length_b   6.87689717
_cell_length_c   7.91785055
_cell_angle_alpha   89.90834603
_cell_angle_beta   90.00000000
_cell_angle_gamma   90.00000000
_symmetry_Int_Tables_number   1
_chemical_formula_structural   Er4Al4IrPdRh2
_chemical_formula_sum   'Er4 Al4 Ir1 Pd1 Rh2'
_cell_volume   229.48815513
_cell_formula_units_Z   1
loop_
 _symmetry_equiv_pos_site_id
 _symmetry_equiv_pos_as_xyz
  1  'x, y, z'
loop_
 _atom_site_type_symbol
 _atom_site_label
 _atom_site_symmetry_multiplicity
 _atom_site_fract_x
 _atom_site_fract_y
 _atom_site_fract_z
 _atom_site_occupancy
  Er  Er0  1  0.250000  0.029534  0.323941  1
  Er  Er1  1  0.250000  0.540418  0.181458  1
  Er  Er2  1  0.750000  0.966794  0.678948  1
  Er  Er3  1  0.750000  0.468453  0.816995  1
  Al  Al4  1  0.250000  0.135208  0.936324  1
  Al  Al5  1  0.250000  0.637507  0.560838  1
  Al  Al6  1  0.750000  0.858510  0.061394  1
  Al  Al7  1  0.750000  0.365470  0.440939  1
  Ir  Ir8  1  0.750000  0.736523  0.377349  1
  Pd  Pd9  1  0.750000  0.231992  0.121453  1
  Rh  Rh10  1  0.250000  0.265536  0.620346  1
  Rh  Rh11  1  0.250000  0.764058  0.880015  1
