# generated using pymatgen
data_Ho3Mg3SiGePd
_symmetry_space_group_name_H-M   'P 1'
_cell_length_a   7.24536500
_cell_length_b   7.24536512
_cell_length_c   4.26611400
_cell_angle_alpha   90.00000000
_cell_angle_beta   90.00000000
_cell_angle_gamma   120.00000402
_symmetry_Int_Tables_number   1
_chemical_formula_structural   Ho3Mg3SiGePd
_chemical_formula_sum   'Ho3 Mg3 Si1 Ge1 Pd1'
_cell_volume   193.94724531
_cell_formula_units_Z   1
loop_
 _symmetry_equiv_pos_site_id
 _symmetry_equiv_pos_as_xyz
  1  'x, y, z'
loop_
 _atom_site_type_symbol
 _atom_site_label
 _atom_site_symmetry_multiplicity
 _atom_site_fract_x
 _atom_site_fract_y
 _atom_site_fract_z
 _atom_site_occupancy
  Ho  Ho0  1  0.583399  0.001729  0.000000  1
  Ho  Ho1  1  0.998271  0.581670  0.000000  1
  Ho  Ho2  1  0.418330  0.416601  0.000000  1
  Mg  Mg3  1  0.244191  0.001128  0.500000  1
  Mg  Mg4  1  0.998872  0.243062  0.500000  1
  Mg  Mg5  1  0.756938  0.755809  0.500000  1
  Si  Si6  1  0.666667  0.333333  0.500000  1
  Ge  Ge7  1  0.333333  0.666667  0.500000  1
  Pd  Pd8  1  0.000000  0.000000  0.000000  1
