# generated using pymatgen
data_Y2Er6Be3Si12Au
_symmetry_space_group_name_H-M   'P 1'
_cell_length_a   7.93319100
_cell_length_b   7.93318944
_cell_length_c   8.00421200
_cell_angle_alpha   90.00000000
_cell_angle_beta   90.00000000
_cell_angle_gamma   119.99999401
_symmetry_Int_Tables_number   1
_chemical_formula_structural   Y2Er6Be3Si12Au
_chemical_formula_sum   'Y2 Er6 Be3 Si12 Au1'
_cell_volume   436.25957930
_cell_formula_units_Z   1
loop_
 _symmetry_equiv_pos_site_id
 _symmetry_equiv_pos_as_xyz
  1  'x, y, z'
loop_
 _atom_site_type_symbol
 _atom_site_label
 _atom_site_symmetry_multiplicity
 _atom_site_fract_x
 _atom_site_fract_y
 _atom_site_fract_z
 _atom_site_occupancy
  Y  Y0  1  0.000000  0.000000  0.252289  1
  Y  Y1  1  0.000000  0.000000  0.747484  1
  Er  Er2  1  0.503436  0.006874  0.253545  1
  Er  Er3  1  0.502680  0.005359  0.746613  1
  Er  Er4  1  0.993126  0.496564  0.253545  1
  Er  Er5  1  0.994641  0.497320  0.746613  1
  Er  Er6  1  0.503436  0.496564  0.253545  1
  Er  Er7  1  0.502680  0.497320  0.746613  1
  Be  Be8  1  0.666667  0.333333  0.999576  1
  Be  Be9  1  0.666667  0.333333  0.500817  1
  Be  Be10  1  0.333333  0.666667  0.499009  1
  Si  Si11  1  0.162008  0.324015  0.999470  1
  Si  Si12  1  0.825641  0.651282  0.000225  1
  Si  Si13  1  0.675985  0.837992  0.999470  1
  Si  Si14  1  0.826157  0.652314  0.500875  1
  Si  Si15  1  0.348718  0.174359  0.000225  1
  Si  Si16  1  0.172424  0.344849  0.499080  1
  Si  Si17  1  0.162008  0.837992  0.999470  1
  Si  Si18  1  0.347686  0.173843  0.500875  1
  Si  Si19  1  0.825641  0.174359  0.000225  1
  Si  Si20  1  0.655151  0.827576  0.499080  1
  Si  Si21  1  0.826157  0.173843  0.500875  1
  Si  Si22  1  0.172424  0.827576  0.499080  1
  Au  Au23  1  0.333333  0.666667  0.001403  1
