# generated using pymatgen
data_YbFe(CO3)2
_symmetry_space_group_name_H-M   'P 1'
_cell_length_a   6.12966518
_cell_length_b   6.10688960
_cell_length_c   6.10003051
_cell_angle_alpha   46.83576154
_cell_angle_beta   47.24938113
_cell_angle_gamma   46.78013935
_symmetry_Int_Tables_number   1
_chemical_formula_structural   YbFe(CO3)2
_chemical_formula_sum   'Yb1 Fe1 C2 O6'
_cell_volume   111.46438459
_cell_formula_units_Z   1
loop_
 _symmetry_equiv_pos_site_id
 _symmetry_equiv_pos_as_xyz
  1  'x, y, z'
loop_
 _atom_site_type_symbol
 _atom_site_label
 _atom_site_symmetry_multiplicity
 _atom_site_fract_x
 _atom_site_fract_y
 _atom_site_fract_z
 _atom_site_occupancy
  Yb  Yb0  1  0.000000  0.000000  0.000000  1
  Fe  Fe1  1  0.500000  0.500000  0.500000  1
  C  C2  1  0.246004  0.244837  0.244553  1
  C  C3  1  0.753996  0.755163  0.755447  1
  O  O4  1  0.498289  0.734523  0.028430  1
  O  O5  1  0.972016  0.502932  0.264317  1
  O  O6  1  0.731926  0.033209  0.497437  1
  O  O7  1  0.268074  0.966791  0.502564  1
  O  O8  1  0.027984  0.497069  0.735683  1
  O  O9  1  0.501712  0.265477  0.971570  1
