# generated using pymatgen
data_Tb5Sn3Bi
_symmetry_space_group_name_H-M   'P 1'
_cell_length_a   8.19288300
_cell_length_b   8.24258800
_cell_length_c   15.56127800
_cell_angle_alpha   90.00000000
_cell_angle_beta   90.00000000
_cell_angle_gamma   90.00000000
_symmetry_Int_Tables_number   1
_chemical_formula_structural   Tb5Sn3Bi
_chemical_formula_sum   'Tb20 Sn12 Bi4'
_cell_volume   1050.86180367
_cell_formula_units_Z   4
loop_
 _symmetry_equiv_pos_site_id
 _symmetry_equiv_pos_as_xyz
  1  'x, y, z'
loop_
 _atom_site_type_symbol
 _atom_site_label
 _atom_site_symmetry_multiplicity
 _atom_site_fract_x
 _atom_site_fract_y
 _atom_site_fract_z
 _atom_site_occupancy
  Tb  Tb0  1  0.376948  0.839397  0.876146  1
  Tb  Tb1  1  0.876948  0.660603  0.623854  1
  Tb  Tb2  1  0.623052  0.160603  0.376146  1
  Tb  Tb3  1  0.123052  0.339397  0.123854  1
  Tb  Tb4  1  0.631405  0.162504  0.122495  1
  Tb  Tb5  1  0.131405  0.337496  0.377505  1
  Tb  Tb6  1  0.368595  0.837496  0.622495  1
  Tb  Tb7  1  0.868595  0.662504  0.877505  1
  Tb  Tb8  1  0.542246  0.326656  0.895098  1
  Tb  Tb9  1  0.042246  0.173344  0.604902  1
  Tb  Tb10  1  0.457754  0.673344  0.395098  1
  Tb  Tb11  1  0.957754  0.826656  0.104902  1
  Tb  Tb12  1  0.476490  0.675024  0.102826  1
  Tb  Tb13  1  0.976490  0.824976  0.397174  1
  Tb  Tb14  1  0.523510  0.324976  0.602826  1
  Tb  Tb15  1  0.023510  0.175024  0.897174  1
  Tb  Tb16  1  0.201626  0.500552  0.747128  1
  Tb  Tb17  1  0.701626  0.999448  0.752872  1
  Tb  Tb18  1  0.798374  0.499448  0.247128  1
  Tb  Tb19  1  0.298374  0.000552  0.252872  1
  Sn  Sn20  1  0.714384  0.967020  0.957407  1
  Sn  Sn21  1  0.214384  0.532980  0.542593  1
  Sn  Sn22  1  0.285616  0.032980  0.457407  1
  Sn  Sn23  1  0.785616  0.467020  0.042593  1
  Sn  Sn24  1  0.568123  0.621736  0.748314  1
  Sn  Sn25  1  0.068123  0.878264  0.751686  1
  Sn  Sn26  1  0.431877  0.378264  0.248314  1
  Sn  Sn27  1  0.931877  0.121736  0.251686  1
  Sn  Sn28  1  0.337750  0.147020  0.751606  1
  Sn  Sn29  1  0.837750  0.352980  0.748394  1
  Sn  Sn30  1  0.662250  0.852980  0.251606  1
  Sn  Sn31  1  0.162250  0.647020  0.248394  1
  Bi  Bi32  1  0.280989  0.030260  0.042968  1
  Bi  Bi33  1  0.780989  0.469740  0.457032  1
  Bi  Bi34  1  0.719011  0.969740  0.542968  1
  Bi  Bi35  1  0.219011  0.530260  0.957032  1
