# generated using pymatgen
data_Hf2Be8ReOs
_symmetry_space_group_name_H-M   'P 1'
_cell_length_a   4.53618600
_cell_length_b   4.53618623
_cell_length_c   7.46102900
_cell_angle_alpha   90.00000000
_cell_angle_beta   90.00000000
_cell_angle_gamma   120.00001291
_symmetry_Int_Tables_number   1
_chemical_formula_structural   Hf2Be8ReOs
_chemical_formula_sum   'Hf2 Be8 Re1 Os1'
_cell_volume   132.95694665
_cell_formula_units_Z   1
loop_
 _symmetry_equiv_pos_site_id
 _symmetry_equiv_pos_as_xyz
  1  'x, y, z'
loop_
 _atom_site_type_symbol
 _atom_site_label
 _atom_site_symmetry_multiplicity
 _atom_site_fract_x
 _atom_site_fract_y
 _atom_site_fract_z
 _atom_site_occupancy
  Hf  Hf0  1  0.333333  0.666667  0.062970  1
  Hf  Hf1  1  0.666667  0.333333  0.565960  1
  Be  Be2  1  0.000000  0.000000  0.994781  1
  Be  Be3  1  0.000000  0.000000  0.496821  1
  Be  Be4  1  0.831633  0.663266  0.252862  1
  Be  Be5  1  0.168777  0.831223  0.750125  1
  Be  Be6  1  0.662446  0.831223  0.750125  1
  Be  Be7  1  0.336734  0.168367  0.252862  1
  Be  Be8  1  0.831633  0.168367  0.252862  1
  Be  Be9  1  0.168777  0.337554  0.750125  1
  Re  Re10  1  0.333333  0.666667  0.435785  1
  Os  Os11  1  0.666667  0.333333  0.934720  1
