# generated using pymatgen
data_La12Ni6Sn
_symmetry_space_group_name_H-M   'P 1'
_cell_length_a   8.82242611
_cell_length_b   8.82242662
_cell_length_c   8.82242600
_cell_angle_alpha   109.47122151
_cell_angle_beta   109.47122268
_cell_angle_gamma   109.47122066
_symmetry_Int_Tables_number   1
_chemical_formula_structural   La12Ni6Sn
_chemical_formula_sum   'La12 Ni6 Sn1'
_cell_volume   528.61831050
_cell_formula_units_Z   1
loop_
 _symmetry_equiv_pos_site_id
 _symmetry_equiv_pos_as_xyz
  1  'x, y, z'
loop_
 _atom_site_type_symbol
 _atom_site_label
 _atom_site_symmetry_multiplicity
 _atom_site_fract_x
 _atom_site_fract_y
 _atom_site_fract_z
 _atom_site_occupancy
  La  La0  1  0.690432  0.183869  0.874301  1
  La  La1  1  0.816131  0.506563  0.690432  1
  La  La2  1  0.493437  0.309568  0.183869  1
  La  La3  1  0.816131  0.125699  0.309568  1
  La  La4  1  0.506563  0.690432  0.816131  1
  La  La5  1  0.183869  0.493437  0.309568  1
  La  La6  1  0.125699  0.309568  0.816131  1
  La  La7  1  0.874301  0.690432  0.183869  1
  La  La8  1  0.183869  0.874301  0.690432  1
  La  La9  1  0.690432  0.816131  0.506563  1
  La  La10  1  0.309568  0.183869  0.493437  1
  La  La11  1  0.309568  0.816131  0.125699  1
  Ni  Ni12  1  0.624265  0.124265  0.500000  1
  Ni  Ni13  1  0.875735  0.500000  0.375735  1
  Ni  Ni14  1  0.500000  0.375735  0.875735  1
  Ni  Ni15  1  0.124265  0.500000  0.624265  1
  Ni  Ni16  1  0.500000  0.624265  0.124265  1
  Ni  Ni17  1  0.375735  0.875735  0.500000  1
  Sn  Sn18  1  0.000000  0.000000  0.000000  1
