# generated using pymatgen
data_Li(MnN)2
_symmetry_space_group_name_H-M   'P 1'
_cell_length_a   2.86339352
_cell_length_b   2.86322599
_cell_length_c   6.70392690
_cell_angle_alpha   89.99999887
_cell_angle_beta   89.93675170
_cell_angle_gamma   119.99806271
_symmetry_Int_Tables_number   1
_chemical_formula_structural   Li(MnN)2
_chemical_formula_sum   'Li1 Mn2 N2'
_cell_volume   47.59975226
_cell_formula_units_Z   1
loop_
 _symmetry_equiv_pos_site_id
 _symmetry_equiv_pos_as_xyz
  1  'x, y, z'
loop_
 _atom_site_type_symbol
 _atom_site_label
 _atom_site_symmetry_multiplicity
 _atom_site_fract_x
 _atom_site_fract_y
 _atom_site_fract_z
 _atom_site_occupancy
  Li  Li0  1  0.000000  0.000000  0.500000  1
  Mn  Mn1  1  0.666295  0.333147  0.162670  1
  Mn  Mn2  1  0.333705  0.666853  0.837330  1
  N  N3  1  0.667321  0.333660  0.714716  1
  N  N4  1  0.332679  0.666340  0.285284  1
