# generated using pymatgen
data_CdSe23
_symmetry_space_group_name_H-M   'P 1'
_cell_length_a   5.65670443
_cell_length_b   10.23373796
_cell_length_c   16.63650800
_cell_angle_alpha   95.07158697
_cell_angle_beta   79.47072745
_cell_angle_gamma   86.83067715
_symmetry_Int_Tables_number   1
_chemical_formula_structural   CdSe23
_chemical_formula_sum   'Cd1 Se23'
_cell_volume   940.63822003
_cell_formula_units_Z   1
loop_
 _symmetry_equiv_pos_site_id
 _symmetry_equiv_pos_as_xyz
  1  'x, y, z'
loop_
 _atom_site_type_symbol
 _atom_site_label
 _atom_site_symmetry_multiplicity
 _atom_site_fract_x
 _atom_site_fract_y
 _atom_site_fract_z
 _atom_site_occupancy
  Cd  Cd0  1  0.560030  0.271869  0.371140  1
  Se  Se1  1  0.432425  0.846474  0.396812  1
  Se  Se2  1  0.041176  0.317389  0.145057  1
  Se  Se3  1  0.829469  0.182945  0.463899  1
  Se  Se4  1  0.246335  0.790314  0.527009  1
  Se  Se5  1  0.220693  0.229966  0.010637  1
  Se  Se6  1  0.788917  0.728386  0.015090  1
  Se  Se7  1  0.172821  0.405354  0.361011  1
  Se  Se8  1  0.646197  0.651929  0.327187  1
  Se  Se9  1  0.776793  0.158751  0.200329  1
  Se  Se10  1  0.239559  0.872785  0.136726  1
  Se  Se11  1  0.733588  0.599690  0.608888  1
  Se  Se12  1  0.275047  0.349856  0.613242  1
  Se  Se13  1  0.249950  0.852709  0.852178  1
  Se  Se14  1  0.768161  0.130056  0.880161  1
  Se  Se15  1  0.030566  0.683635  0.112162  1
  Se  Se16  1  0.529917  0.809776  0.614528  1
  Se  Se17  1  0.506859  0.149952  0.573544  1
  Se  Se18  1  0.031185  0.668543  0.883474  1
  Se  Se19  1  0.996438  0.305403  0.914600  1
  Se  Se20  1  0.388304  0.528878  0.259203  1
  Se  Se21  1  0.020229  0.001773  0.254632  1
  Se  Se22  1  0.485172  0.477251  0.699774  1
  Se  Se23  1  0.030167  0.986315  0.778718  1
