# generated using pymatgen
data_CeTm5AuO12
_symmetry_space_group_name_H-M   'P 1'
_cell_length_a   6.45047788
_cell_length_b   6.41611109
_cell_length_c   6.43662292
_cell_angle_alpha   98.82635385
_cell_angle_beta   99.04311432
_cell_angle_gamma   98.84106051
_symmetry_Int_Tables_number   1
_chemical_formula_structural   CeTm5AuO12
_chemical_formula_sum   'Ce1 Tm5 Au1 O12'
_cell_volume   255.61402376
_cell_formula_units_Z   1
loop_
 _symmetry_equiv_pos_site_id
 _symmetry_equiv_pos_as_xyz
  1  'x, y, z'
loop_
 _atom_site_type_symbol
 _atom_site_label
 _atom_site_symmetry_multiplicity
 _atom_site_fract_x
 _atom_site_fract_y
 _atom_site_fract_z
 _atom_site_occupancy
  Ce  Ce0  1  0.690415  0.857542  0.394676  1
  Tm  Tm1  1  0.385930  0.688270  0.855834  1
  Tm  Tm2  1  0.861025  0.392228  0.698965  1
  Tm  Tm3  1  0.308071  0.146320  0.612785  1
  Tm  Tm4  1  0.608770  0.305510  0.135307  1
  Tm  Tm5  1  0.141952  0.606243  0.307302  1
  Au  Au6  1  0.002303  0.000460  0.001430  1
  O  O7  1  0.433332  0.587427  0.177105  1
  O  O8  1  0.174797  0.435081  0.588194  1
  O  O9  1  0.590327  0.176442  0.433535  1
  O  O10  1  0.565276  0.410772  0.820697  1
  O  O11  1  0.819971  0.566183  0.410170  1
  O  O12  1  0.408338  0.822870  0.565258  1
  O  O13  1  0.942258  0.052742  0.692804  1
  O  O14  1  0.951847  0.312073  0.062667  1
  O  O15  1  0.312285  0.061870  0.952571  1
  O  O16  1  0.066490  0.950393  0.310714  1
  O  O17  1  0.048379  0.688194  0.937778  1
  O  O18  1  0.688234  0.939382  0.042207  1
