# generated using pymatgen
data_ReAs5(PbO3)8
_symmetry_space_group_name_H-M   'P 1'
_cell_length_a   9.46633921
_cell_length_b   9.46633826
_cell_length_c   9.46633800
_cell_angle_alpha   109.39657578
_cell_angle_beta   109.39656732
_cell_angle_gamma   109.62061225
_symmetry_Int_Tables_number   1
_chemical_formula_structural   ReAs5(PbO3)8
_chemical_formula_sum   'Re1 As5 Pb8 O24'
_cell_volume   653.01331393
_cell_formula_units_Z   1
loop_
 _symmetry_equiv_pos_site_id
 _symmetry_equiv_pos_as_xyz
  1  'x, y, z'
loop_
 _atom_site_type_symbol
 _atom_site_label
 _atom_site_symmetry_multiplicity
 _atom_site_fract_x
 _atom_site_fract_y
 _atom_site_fract_z
 _atom_site_occupancy
  Re  Re0  1  0.125000  0.875000  0.250000  1
  As  As1  1  0.375000  0.625000  0.750000  1
  As  As2  1  0.879871  0.257744  0.127504  1
  As  As3  1  0.630239  0.752366  0.372496  1
  As  As4  1  0.247634  0.120129  0.877873  1
  As  As5  1  0.742256  0.369761  0.622127  1
  Pb  Pb6  1  0.359349  0.372307  0.345951  1
  Pb  Pb7  1  0.155538  0.487845  0.988156  1
  Pb  Pb8  1  0.999689  0.167382  0.511844  1
  Pb  Pb9  1  0.832618  0.844462  0.832307  1
  Pb  Pb10  1  0.526356  0.013398  0.154049  1
  Pb  Pb11  1  0.627693  0.473644  0.987042  1
  Pb  Pb12  1  0.512155  0.000311  0.667693  1
  Pb  Pb13  1  0.986602  0.640651  0.512958  1
  O  O14  1  0.308069  0.153523  0.083568  1
  O  O15  1  0.190980  0.265207  0.839019  1
  O  O16  1  0.926187  0.351961  0.660981  1
  O  O17  1  0.151171  0.081286  0.303135  1
  O  O18  1  0.803772  0.574347  0.646750  1
  O  O19  1  0.569955  0.224501  0.416432  1
  O  O20  1  0.278151  0.848037  0.196865  1
  O  O21  1  0.686144  0.339893  0.768977  1
  O  O22  1  0.349491  0.658313  0.928299  1
  O  O23  1  0.427596  0.157021  0.853250  1
  O  O24  1  0.230012  0.421191  0.571701  1
  O  O25  1  0.070916  0.917167  0.731023  1
  O  O26  1  0.082833  0.313856  0.153748  1
  O  O27  1  0.648039  0.809020  0.574226  1
  O  O28  1  0.660107  0.929084  0.346252  1
  O  O29  1  0.846477  0.430045  0.154546  1
  O  O30  1  0.425653  0.572404  0.229424  1
  O  O31  1  0.734793  0.073813  0.925774  1
  O  O32  1  0.842979  0.196228  0.270576  1
  O  O33  1  0.775499  0.691931  0.345454  1
  O  O34  1  0.578809  0.650509  0.808822  1
  O  O35  1  0.341687  0.769988  0.691178  1
  O  O36  1  0.918714  0.721849  0.069885  1
  O  O37  1  0.151963  0.848829  0.430115  1
