# generated using pymatgen
data_Tb3Tm5Sc12(GaSi3)4
_symmetry_space_group_name_H-M   'P 1'
_cell_length_a   7.11628663
_cell_length_b   7.39516342
_cell_length_c   14.11165958
_cell_angle_alpha   90.05118981
_cell_angle_beta   89.86206981
_cell_angle_gamma   90.16652776
_symmetry_Int_Tables_number   1
_chemical_formula_structural   Tb3Tm5Sc12(GaSi3)4
_chemical_formula_sum   'Tb3 Tm5 Sc12 Ga4 Si12'
_cell_volume   742.63606344
_cell_formula_units_Z   1
loop_
 _symmetry_equiv_pos_site_id
 _symmetry_equiv_pos_as_xyz
  1  'x, y, z'
loop_
 _atom_site_type_symbol
 _atom_site_label
 _atom_site_symmetry_multiplicity
 _atom_site_fract_x
 _atom_site_fract_y
 _atom_site_fract_z
 _atom_site_occupancy
  Tb  Tb0  1  0.013268  0.174900  0.096939  1
  Tb  Tb1  1  0.988256  0.825190  0.902294  1
  Tb  Tb2  1  0.487371  0.676866  0.902071  1
  Tm  Tm3  1  0.988029  0.826878  0.600206  1
  Tm  Tm4  1  0.510553  0.320605  0.097722  1
  Tm  Tm5  1  0.009512  0.175586  0.400270  1
  Tm  Tm6  1  0.510940  0.323851  0.400657  1
  Tm  Tm7  1  0.490532  0.676441  0.600519  1
  Sc  Sc8  1  0.162738  0.500896  0.750887  1
  Sc  Sc9  1  0.836312  0.498016  0.250322  1
  Sc  Sc10  1  0.336450  0.002441  0.248662  1
  Sc  Sc11  1  0.663519  0.998359  0.749510  1
  Sc  Sc12  1  0.333759  0.174530  0.627620  1
  Sc  Sc13  1  0.668856  0.826384  0.373730  1
  Sc  Sc14  1  0.170027  0.673254  0.373056  1
  Sc  Sc15  1  0.668475  0.826361  0.125977  1
  Sc  Sc16  1  0.829182  0.324797  0.626434  1
  Sc  Sc17  1  0.330831  0.175797  0.874381  1
  Sc  Sc18  1  0.829121  0.323705  0.874037  1
  Sc  Sc19  1  0.173437  0.674798  0.124770  1
  Ga  Ga20  1  0.162633  0.462013  0.539660  1
  Ga  Ga21  1  0.838323  0.537414  0.461306  1
  Ga  Ga22  1  0.338366  0.962317  0.461376  1
  Ga  Ga23  1  0.838591  0.537810  0.038860  1
  Si  Si24  1  0.033313  0.115503  0.750682  1
  Si  Si25  1  0.967293  0.884354  0.249607  1
  Si  Si26  1  0.467733  0.612790  0.248653  1
  Si  Si27  1  0.533300  0.386091  0.750682  1
  Si  Si28  1  0.285910  0.871318  0.749928  1
  Si  Si29  1  0.713694  0.129487  0.249287  1
  Si  Si30  1  0.214575  0.370966  0.249256  1
  Si  Si31  1  0.786709  0.629373  0.750365  1
  Si  Si32  1  0.659134  0.035640  0.539194  1
  Si  Si33  1  0.158000  0.462897  0.961141  1
  Si  Si34  1  0.656176  0.037523  0.961918  1
  Si  Si35  1  0.345086  0.964849  0.038023  1
