# generated using pymatgen
data_Nb2Hg3Sb2PbO14
_symmetry_space_group_name_H-M   'P 1'
_cell_length_a   7.57153314
_cell_length_b   7.51037382
_cell_length_c   7.45055100
_cell_angle_alpha   60.26314836
_cell_angle_beta   60.52717785
_cell_angle_gamma   60.67579871
_symmetry_Int_Tables_number   1
_chemical_formula_structural   Nb2Hg3Sb2PbO14
_chemical_formula_sum   'Nb2 Hg3 Sb2 Pb1 O14'
_cell_volume   302.88525353
_cell_formula_units_Z   1
loop_
 _symmetry_equiv_pos_site_id
 _symmetry_equiv_pos_as_xyz
  1  'x, y, z'
loop_
 _atom_site_type_symbol
 _atom_site_label
 _atom_site_symmetry_multiplicity
 _atom_site_fract_x
 _atom_site_fract_y
 _atom_site_fract_z
 _atom_site_occupancy
  Nb  Nb0  1  0.125000  0.625000  0.125000  1
  Nb  Nb1  1  0.625000  0.125000  0.125000  1
  Hg  Hg2  1  0.625000  0.625000  0.625000  1
  Hg  Hg3  1  0.625000  0.125000  0.625000  1
  Hg  Hg4  1  0.625000  0.625000  0.125000  1
  Sb  Sb5  1  0.125000  0.125000  0.625000  1
  Sb  Sb6  1  0.125000  0.125000  0.125000  1
  Pb  Pb7  1  0.125000  0.625000  0.625000  1
  O  O8  1  0.713089  0.759367  0.763771  1
  O  O9  1  0.186502  0.810360  0.806396  1
  O  O10  1  0.186502  0.810360  0.196741  1
  O  O11  1  0.816056  0.813568  0.185188  1
  O  O12  1  0.813826  0.187758  0.808028  1
  O  O13  1  0.193639  0.199330  0.803516  1
  O  O14  1  0.436174  0.062242  0.059612  1
  O  O15  1  0.813826  0.187758  0.190388  1
  O  O16  1  0.063498  0.439640  0.053259  1
  O  O17  1  0.056361  0.050670  0.446484  1
  O  O18  1  0.433944  0.436432  0.064812  1
  O  O19  1  0.436174  0.062242  0.441972  1
  O  O20  1  0.063498  0.439640  0.443604  1
  O  O21  1  0.536911  0.490633  0.486229  1
