# generated using pymatgen
data_SrCdHgBi(Ir2O7)2
_symmetry_space_group_name_H-M   'P 1'
_cell_length_a   7.24380148
_cell_length_b   7.28672392
_cell_length_c   7.34843200
_cell_angle_alpha   60.27739889
_cell_angle_beta   59.97148862
_cell_angle_gamma   59.80380372
_symmetry_Int_Tables_number   1
_chemical_formula_structural   SrCdHgBi(Ir2O7)2
_chemical_formula_sum   'Sr1 Cd1 Hg1 Bi1 Ir4 O14'
_cell_volume   274.36970404
_cell_formula_units_Z   1
loop_
 _symmetry_equiv_pos_site_id
 _symmetry_equiv_pos_as_xyz
  1  'x, y, z'
loop_
 _atom_site_type_symbol
 _atom_site_label
 _atom_site_symmetry_multiplicity
 _atom_site_fract_x
 _atom_site_fract_y
 _atom_site_fract_z
 _atom_site_occupancy
  Sr  Sr0  1  0.125000  0.625000  0.125000  1
  Cd  Cd1  1  0.125000  0.125000  0.125000  1
  Hg  Hg2  1  0.625000  0.125000  0.125000  1
  Bi  Bi3  1  0.125000  0.125000  0.625000  1
  Ir  Ir4  1  0.125000  0.625000  0.625000  1
  Ir  Ir5  1  0.625000  0.125000  0.625000  1
  Ir  Ir6  1  0.625000  0.625000  0.125000  1
  Ir  Ir7  1  0.625000  0.625000  0.625000  1
  O  O8  1  0.694568  0.695766  0.305757  1
  O  O9  1  0.296591  0.296986  0.694799  1
  O  O10  1  0.711559  0.299254  0.689372  1
  O  O11  1  0.297669  0.706824  0.301908  1
  O  O12  1  0.294862  0.712285  0.696020  1
  O  O13  1  0.699889  0.303038  0.307422  1
  O  O14  1  0.555432  0.554234  0.944243  1
  O  O15  1  0.953409  0.953014  0.555201  1
  O  O16  1  0.538441  0.950746  0.560628  1
  O  O17  1  0.952331  0.543176  0.948092  1
  O  O18  1  0.955138  0.537715  0.553980  1
  O  O19  1  0.550111  0.946962  0.942578  1
  O  O20  1  0.268323  0.218902  0.252170  1
  O  O21  1  0.981677  0.031098  0.997830  1
