# generated using pymatgen
data_Zr5Sc3Al15Rh7
_symmetry_space_group_name_H-M   'P 1'
_cell_length_a   8.91628185
_cell_length_b   8.91628166
_cell_length_c   8.91628064
_cell_angle_alpha   120.37687975
_cell_angle_beta   120.08725727
_cell_angle_gamma   89.59869769
_symmetry_Int_Tables_number   1
_chemical_formula_structural   Zr5Sc3Al15Rh7
_chemical_formula_sum   'Zr5 Sc3 Al15 Rh7'
_cell_volume   499.45365722
_cell_formula_units_Z   1
loop_
 _symmetry_equiv_pos_site_id
 _symmetry_equiv_pos_as_xyz
  1  'x, y, z'
loop_
 _atom_site_type_symbol
 _atom_site_label
 _atom_site_symmetry_multiplicity
 _atom_site_fract_x
 _atom_site_fract_y
 _atom_site_fract_z
 _atom_site_occupancy
  Zr  Zr0  1  0.801484  0.295153  0.080160  1
  Zr  Zr1  1  0.214994  0.295153  0.493669  1
  Zr  Zr2  1  0.194966  0.694966  0.500000  1
  Zr  Zr3  1  0.214994  0.721325  0.919840  1
  Zr  Zr4  1  0.801484  0.721325  0.506331  1
  Sc  Sc5  1  0.771342  0.271342  0.500000  1
  Sc  Sc6  1  0.378855  0.118949  0.740094  1
  Sc  Sc7  1  0.378855  0.638760  0.259906  1
  Al  Al8  1  0.980285  0.480285  0.500000  1
  Al  Al9  1  0.161293  0.335739  0.174445  1
  Al  Al10  1  0.161293  0.986848  0.825555  1
  Al  Al11  1  0.150097  0.345834  0.804263  1
  Al  Al12  1  0.541571  0.345834  0.195737  1
  Al  Al13  1  0.843040  0.654402  0.811362  1
  Al  Al14  1  0.843040  0.031678  0.188638  1
  Al  Al15  1  0.838582  0.660334  0.178249  1
  Al  Al16  1  0.482084  0.660334  0.821751  1
  Al  Al17  1  0.377141  0.122532  0.254609  1
  Al  Al18  1  0.867924  0.122532  0.745391  1
  Al  Al19  1  0.620542  0.871437  0.250896  1
  Al  Al20  1  0.620542  0.369646  0.749104  1
  Al  Al21  1  0.621734  0.877220  0.744514  1
  Al  Al22  1  0.132705  0.877220  0.255486  1
  Rh  Rh23  1  0.994850  0.999468  0.498411  1
  Rh  Rh24  1  0.501057  0.999468  0.004617  1
  Rh  Rh25  1  0.500344  0.500344  0.000000  1
  Rh  Rh26  1  0.501057  0.496439  0.501589  1
  Rh  Rh27  1  0.994850  0.496439  0.995383  1
  Rh  Rh28  1  0.999563  0.999563  0.000000  1
  Rh  Rh29  1  0.509434  0.009434  0.500000  1
