# generated using pymatgen
data_Yb8NbSi16Mo11
_symmetry_space_group_name_H-M   'P 1'
_cell_length_a   6.74752828
_cell_length_b   6.92151418
_cell_length_c   13.08019100
_cell_angle_alpha   90.00000000
_cell_angle_beta   90.00000000
_cell_angle_gamma   90.00647687
_symmetry_Int_Tables_number   1
_chemical_formula_structural   Yb8NbSi16Mo11
_chemical_formula_sum   'Yb8 Nb1 Si16 Mo11'
_cell_volume   610.88563031
_cell_formula_units_Z   1
loop_
 _symmetry_equiv_pos_site_id
 _symmetry_equiv_pos_as_xyz
  1  'x, y, z'
loop_
 _atom_site_type_symbol
 _atom_site_label
 _atom_site_symmetry_multiplicity
 _atom_site_fract_x
 _atom_site_fract_y
 _atom_site_fract_z
 _atom_site_occupancy
  Yb  Yb0  1  0.497666  0.334104  0.090595  1
  Yb  Yb1  1  0.998150  0.165845  0.409590  1
  Yb  Yb2  1  0.502309  0.666217  0.591235  1
  Yb  Yb3  1  0.002586  0.834574  0.908985  1
  Yb  Yb4  1  0.502309  0.666217  0.908765  1
  Yb  Yb5  1  0.002586  0.834574  0.591015  1
  Yb  Yb6  1  0.497666  0.334104  0.409405  1
  Yb  Yb7  1  0.998150  0.165845  0.090410  1
  Nb  Nb8  1  0.838638  0.509063  0.250000  1
  Si  Si9  1  0.803049  0.632685  0.750000  1
  Si  Si10  1  0.302858  0.868327  0.750000  1
  Si  Si11  1  0.203583  0.365248  0.250000  1
  Si  Si12  1  0.696616  0.127538  0.250000  1
  Si  Si13  1  0.536993  0.375920  0.750000  1
  Si  Si14  1  0.037446  0.125441  0.750000  1
  Si  Si15  1  0.458171  0.626237  0.250000  1
  Si  Si16  1  0.964124  0.878154  0.250000  1
  Si  Si17  1  0.658432  0.043351  0.545228  1
  Si  Si18  1  0.157697  0.456457  0.954304  1
  Si  Si19  1  0.342014  0.955843  0.045225  1
  Si  Si20  1  0.841093  0.543871  0.457180  1
  Si  Si21  1  0.342014  0.955843  0.454775  1
  Si  Si22  1  0.841093  0.543871  0.042820  1
  Si  Si23  1  0.658432  0.043351  0.954772  1
  Si  Si24  1  0.157697  0.456457  0.545696  1
  Mo  Mo25  1  0.662595  0.010632  0.750000  1
  Mo  Mo26  1  0.162318  0.489734  0.750000  1
  Mo  Mo27  1  0.337353  0.989665  0.250000  1
  Mo  Mo28  1  0.837304  0.331016  0.629251  1
  Mo  Mo29  1  0.338318  0.168964  0.871216  1
  Mo  Mo30  1  0.161082  0.670048  0.127796  1
  Mo  Mo31  1  0.661474  0.830387  0.372356  1
  Mo  Mo32  1  0.161082  0.670048  0.372204  1
  Mo  Mo33  1  0.661474  0.830387  0.127644  1
  Mo  Mo34  1  0.837304  0.331016  0.870749  1
  Mo  Mo35  1  0.338318  0.168964  0.628784  1
