# generated using pymatgen
data_SmTm11(Si3Rh)4
_symmetry_space_group_name_H-M   'P 1'
_cell_length_a   4.19912300
_cell_length_b   10.59149290
_cell_length_c   12.23965718
_cell_angle_alpha   90.17935392
_cell_angle_beta   90.00000000
_cell_angle_gamma   90.00000000
_symmetry_Int_Tables_number   1
_chemical_formula_structural   SmTm11(Si3Rh)4
_chemical_formula_sum   'Sm1 Tm11 Si12 Rh4'
_cell_volume   544.35585918
_cell_formula_units_Z   1
loop_
 _symmetry_equiv_pos_site_id
 _symmetry_equiv_pos_as_xyz
  1  'x, y, z'
loop_
 _atom_site_type_symbol
 _atom_site_label
 _atom_site_symmetry_multiplicity
 _atom_site_fract_x
 _atom_site_fract_y
 _atom_site_fract_z
 _atom_site_occupancy
  Sm  Sm0  1  0.750000  0.158343  0.697259  1
  Tm  Tm1  1  0.250000  0.878395  0.021625  1
  Tm  Tm2  1  0.250000  0.621154  0.520754  1
  Tm  Tm3  1  0.750000  0.120540  0.980813  1
  Tm  Tm4  1  0.750000  0.380764  0.477998  1
  Tm  Tm5  1  0.250000  0.919608  0.603144  1
  Tm  Tm6  1  0.250000  0.579335  0.104113  1
  Tm  Tm7  1  0.750000  0.079858  0.394912  1
  Tm  Tm8  1  0.750000  0.421525  0.896674  1
  Tm  Tm9  1  0.250000  0.661406  0.800647  1
  Tm  Tm10  1  0.250000  0.838754  0.300826  1
  Tm  Tm11  1  0.750000  0.339465  0.199372  1
  Si  Si12  1  0.250000  0.011876  0.824918  1
  Si  Si13  1  0.250000  0.485669  0.322411  1
  Si  Si14  1  0.750000  0.984938  0.177384  1
  Si  Si15  1  0.750000  0.515120  0.677538  1
  Si  Si16  1  0.250000  0.248808  0.843715  1
  Si  Si17  1  0.250000  0.252820  0.340136  1
  Si  Si18  1  0.750000  0.752054  0.158558  1
  Si  Si19  1  0.750000  0.748217  0.658315  1
  Si  Si20  1  0.250000  0.200214  0.537304  1
  Si  Si21  1  0.250000  0.302271  0.042707  1
  Si  Si22  1  0.750000  0.801885  0.457621  1
  Si  Si23  1  0.750000  0.697515  0.958555  1
  Rh  Rh24  1  0.250000  0.393913  0.682367  1
  Rh  Rh25  1  0.250000  0.109148  0.180961  1
  Rh  Rh26  1  0.750000  0.608667  0.317867  1
  Rh  Rh27  1  0.750000  0.887740  0.821507  1
