# generated using pymatgen
data_CaAc4In3
_symmetry_space_group_name_H-M   'P 1'
_cell_length_a   8.55078100
_cell_length_b   8.55078100
_cell_length_c   16.41935300
_cell_angle_alpha   90.00000000
_cell_angle_beta   90.00000000
_cell_angle_gamma   90.00000000
_symmetry_Int_Tables_number   1
_chemical_formula_structural   CaAc4In3
_chemical_formula_sum   'Ca4 Ac16 In12'
_cell_volume   1200.51504480
_cell_formula_units_Z   4
loop_
 _symmetry_equiv_pos_site_id
 _symmetry_equiv_pos_as_xyz
  1  'x, y, z'
loop_
 _atom_site_type_symbol
 _atom_site_label
 _atom_site_symmetry_multiplicity
 _atom_site_fract_x
 _atom_site_fract_y
 _atom_site_fract_z
 _atom_site_occupancy
  Ca  Ca0  1  0.500000  0.500000  0.752916  1
  Ca  Ca1  1  0.000000  0.000000  0.249697  1
  Ca  Ca2  1  0.000000  0.000000  0.750303  1
  Ca  Ca3  1  0.500000  0.500000  0.247084  1
  Ac  Ac4  1  0.670815  0.170131  0.101771  1
  Ac  Ac5  1  0.171470  0.670758  0.602791  1
  Ac  Ac6  1  0.329185  0.829869  0.101771  1
  Ac  Ac7  1  0.828530  0.329242  0.602791  1
  Ac  Ac8  1  0.829869  0.670815  0.101771  1
  Ac  Ac9  1  0.329242  0.171470  0.602791  1
  Ac  Ac10  1  0.170131  0.329185  0.101771  1
  Ac  Ac11  1  0.670758  0.828530  0.602791  1
  Ac  Ac12  1  0.829869  0.329185  0.898229  1
  Ac  Ac13  1  0.329242  0.828530  0.397209  1
  Ac  Ac14  1  0.170131  0.670815  0.898229  1
  Ac  Ac15  1  0.670758  0.171470  0.397209  1
  Ac  Ac16  1  0.670815  0.829869  0.898229  1
  Ac  Ac17  1  0.171470  0.329242  0.397209  1
  Ac  Ac18  1  0.329185  0.170131  0.898229  1
  Ac  Ac19  1  0.828530  0.670758  0.397209  1
  In  In20  1  0.500000  0.500000  0.500000  1
  In  In21  1  0.500000  0.500000  0.000000  1
  In  In22  1  0.000000  0.000000  0.500000  1
  In  In23  1  0.622963  0.123235  0.750531  1
  In  In24  1  0.123235  0.622963  0.249469  1
  In  In25  1  0.876765  0.377037  0.249469  1
  In  In26  1  0.377037  0.876765  0.750531  1
  In  In27  1  0.876765  0.622963  0.750531  1
  In  In28  1  0.377037  0.123235  0.249469  1
  In  In29  1  0.123235  0.377037  0.750531  1
  In  In30  1  0.622963  0.876765  0.249469  1
  In  In31  1  0.000000  0.000000  0.000000  1
