# generated using pymatgen
data_La8SiSnI12
_symmetry_space_group_name_H-M   'P 1'
_cell_length_a   4.51831200
_cell_length_b   14.80879027
_cell_length_c   15.65008641
_cell_angle_alpha   89.93645464
_cell_angle_beta   90.00000000
_cell_angle_gamma   90.00000000
_symmetry_Int_Tables_number   1
_chemical_formula_structural   La8SiSnI12
_chemical_formula_sum   'La8 Si1 Sn1 I12'
_cell_volume   1047.15813732
_cell_formula_units_Z   1
loop_
 _symmetry_equiv_pos_site_id
 _symmetry_equiv_pos_as_xyz
  1  'x, y, z'
loop_
 _atom_site_type_symbol
 _atom_site_label
 _atom_site_symmetry_multiplicity
 _atom_site_fract_x
 _atom_site_fract_y
 _atom_site_fract_z
 _atom_site_occupancy
  La  La0  1  0.500000  0.121046  0.337753  1
  La  La1  1  0.500000  0.878954  0.662247  1
  La  La2  1  0.500000  0.614617  0.153784  1
  La  La3  1  0.500000  0.385383  0.846216  1
  La  La4  1  0.000000  0.121351  0.581001  1
  La  La5  1  0.000000  0.878649  0.418999  1
  La  La6  1  0.000000  0.611916  0.925324  1
  La  La7  1  0.000000  0.388084  0.074676  1
  Si  Si8  1  0.500000  0.500000  0.000000  1
  Sn  Sn9  1  0.500000  0.000000  0.500000  1
  I  I10  1  0.500000  0.245903  0.161046  1
  I  I11  1  0.500000  0.754097  0.838954  1
  I  I12  1  0.500000  0.742098  0.336219  1
  I  I13  1  0.500000  0.257902  0.663781  1
  I  I14  1  0.000000  0.258036  0.413415  1
  I  I15  1  0.000000  0.741964  0.586585  1
  I  I16  1  0.000000  0.756177  0.086209  1
  I  I17  1  0.000000  0.243823  0.913791  1
  I  I18  1  0.000000  0.999609  0.240920  1
  I  I19  1  0.000000  0.000391  0.759080  1
  I  I20  1  0.000000  0.499621  0.257334  1
  I  I21  1  0.000000  0.500379  0.742666  1
