# generated using pymatgen
data_Tm5Th3Ni8
_symmetry_space_group_name_H-M   'P 1'
_cell_length_a   4.28627600
_cell_length_b   5.42604608
_cell_length_c   13.74808776
_cell_angle_alpha   89.86887741
_cell_angle_beta   90.00000000
_cell_angle_gamma   90.00000000
_symmetry_Int_Tables_number   1
_chemical_formula_structural   Tm5Th3Ni8
_chemical_formula_sum   'Tm5 Th3 Ni8'
_cell_volume   319.74574104
_cell_formula_units_Z   1
loop_
 _symmetry_equiv_pos_site_id
 _symmetry_equiv_pos_as_xyz
  1  'x, y, z'
loop_
 _atom_site_type_symbol
 _atom_site_label
 _atom_site_symmetry_multiplicity
 _atom_site_fract_x
 _atom_site_fract_y
 _atom_site_fract_z
 _atom_site_occupancy
  Tm  Tm0  1  0.250000  0.528024  0.284534  1
  Tm  Tm1  1  0.750000  0.474423  0.715579  1
  Tm  Tm2  1  0.250000  0.969690  0.780880  1
  Tm  Tm3  1  0.250000  0.752694  0.538740  1
  Tm  Tm4  1  0.250000  0.744709  0.032593  1
  Th  Th5  1  0.750000  0.257196  0.963661  1
  Th  Th6  1  0.750000  0.026152  0.215259  1
  Th  Th7  1  0.750000  0.245940  0.468483  1
  Ni  Ni8  1  0.250000  0.026506  0.355656  1
  Ni  Ni9  1  0.750000  0.531544  0.145259  1
  Ni  Ni10  1  0.750000  0.747448  0.396715  1
  Ni  Ni11  1  0.250000  0.470980  0.852581  1
  Ni  Ni12  1  0.750000  0.973052  0.644613  1
  Ni  Ni13  1  0.750000  0.753240  0.892925  1
  Ni  Ni14  1  0.250000  0.246194  0.104043  1
  Ni  Ni15  1  0.250000  0.252206  0.608477  1
