# generated using pymatgen
data_K2TiBe3As4
_symmetry_space_group_name_H-M   'P 1'
_cell_length_a   7.63057446
_cell_length_b   7.63057355
_cell_length_c   5.52841100
_cell_angle_alpha   90.00000000
_cell_angle_beta   90.00000000
_cell_angle_gamma   137.49604218
_symmetry_Int_Tables_number   1
_chemical_formula_structural   K2TiBe3As4
_chemical_formula_sum   'K2 Ti1 Be3 As4'
_cell_volume   217.48575790
_cell_formula_units_Z   1
loop_
 _symmetry_equiv_pos_site_id
 _symmetry_equiv_pos_as_xyz
  1  'x, y, z'
loop_
 _atom_site_type_symbol
 _atom_site_label
 _atom_site_symmetry_multiplicity
 _atom_site_fract_x
 _atom_site_fract_y
 _atom_site_fract_z
 _atom_site_occupancy
  K  K0  1  0.500000  0.000000  0.248563  1
  K  K1  1  0.000000  0.500000  0.751437  1
  Ti  Ti2  1  0.000000  0.000000  0.000000  1
  Be  Be3  1  0.500000  0.500000  0.500000  1
  Be  Be4  1  0.500000  0.500000  0.000000  1
  Be  Be5  1  0.000000  0.000000  0.500000  1
  As  As6  1  0.644817  0.836510  0.740635  1
  As  As7  1  0.163490  0.355183  0.259365  1
  As  As8  1  0.836510  0.644817  0.259365  1
  As  As9  1  0.355183  0.163490  0.740635  1
