# generated using pymatgen
data_Yb5Th3Pd24Pb
_symmetry_space_group_name_H-M   'P 1'
_cell_length_a   8.43036860
_cell_length_b   8.43036853
_cell_length_c   8.41058400
_cell_angle_alpha   89.92830523
_cell_angle_beta   89.92830523
_cell_angle_gamma   89.95215913
_symmetry_Int_Tables_number   1
_chemical_formula_structural   Yb5Th3Pd24Pb
_chemical_formula_sum   'Yb5 Th3 Pd24 Pb1'
_cell_volume   597.74843178
_cell_formula_units_Z   1
loop_
 _symmetry_equiv_pos_site_id
 _symmetry_equiv_pos_as_xyz
  1  'x, y, z'
loop_
 _atom_site_type_symbol
 _atom_site_label
 _atom_site_symmetry_multiplicity
 _atom_site_fract_x
 _atom_site_fract_y
 _atom_site_fract_z
 _atom_site_occupancy
  Yb  Yb0  1  0.748853  0.251636  0.749489  1
  Yb  Yb1  1  0.251521  0.251521  0.747617  1
  Yb  Yb2  1  0.250882  0.748021  0.250689  1
  Yb  Yb3  1  0.251636  0.748853  0.749489  1
  Yb  Yb4  1  0.748021  0.250882  0.250689  1
  Th  Th5  1  0.255394  0.255394  0.256666  1
  Th  Th6  1  0.744304  0.744304  0.745066  1
  Th  Th7  1  0.746982  0.746982  0.254412  1
  Pd  Pd8  1  0.265847  0.499700  0.999608  1
  Pd  Pd9  1  0.734677  0.499512  0.001930  1
  Pd  Pd10  1  0.998049  0.265919  0.499926  1
  Pd  Pd11  1  0.499700  0.265847  0.999608  1
  Pd  Pd12  1  0.002298  0.734293  0.499661  1
  Pd  Pd13  1  0.499512  0.734677  0.001930  1
  Pd  Pd14  1  0.499966  0.998524  0.265116  1
  Pd  Pd15  1  0.265919  0.998049  0.499926  1
  Pd  Pd16  1  0.500166  0.000602  0.734024  1
  Pd  Pd17  1  0.734293  0.002298  0.499661  1
  Pd  Pd18  1  0.998524  0.499966  0.265116  1
  Pd  Pd19  1  0.000602  0.500166  0.734024  1
  Pd  Pd20  1  0.254751  0.501598  0.501235  1
  Pd  Pd21  1  0.744577  0.496794  0.499030  1
  Pd  Pd22  1  0.501598  0.254751  0.501235  1
  Pd  Pd23  1  0.496794  0.744577  0.499030  1
  Pd  Pd24  1  0.501030  0.501030  0.255272  1
  Pd  Pd25  1  0.498991  0.498991  0.745766  1
  Pd  Pd26  1  0.312730  0.999547  0.999044  1
  Pd  Pd27  1  0.688416  0.002062  0.999840  1
  Pd  Pd28  1  0.999547  0.312730  0.999044  1
  Pd  Pd29  1  0.002062  0.688416  0.999840  1
  Pd  Pd30  1  0.999963  0.999963  0.312042  1
  Pd  Pd31  1  0.000582  0.000582  0.686190  1
  Pb  Pb32  1  0.001812  0.001812  0.997784  1
