# generated using pymatgen
data_As2OsIF16
_symmetry_space_group_name_H-M   'P 1'
_cell_length_a   8.38077700
_cell_length_b   6.10368955
_cell_length_c   7.15057373
_cell_angle_alpha   84.66897992
_cell_angle_beta   90.00000000
_cell_angle_gamma   90.00000000
_symmetry_Int_Tables_number   1
_chemical_formula_structural   As2OsIF16
_chemical_formula_sum   'As2 Os1 I1 F16'
_cell_volume   364.19586714
_cell_formula_units_Z   1
loop_
 _symmetry_equiv_pos_site_id
 _symmetry_equiv_pos_as_xyz
  1  'x, y, z'
loop_
 _atom_site_type_symbol
 _atom_site_label
 _atom_site_symmetry_multiplicity
 _atom_site_fract_x
 _atom_site_fract_y
 _atom_site_fract_z
 _atom_site_occupancy
  As  As0  1  0.250000  0.516780  0.299801  1
  As  As1  1  0.750000  0.527320  0.703119  1
  Os  Os2  1  0.250000  0.778616  0.780514  1
  I  I3  1  0.750000  0.196376  0.200607  1
  F  F4  1  0.476996  0.771353  0.779936  1
  F  F5  1  0.980264  0.187783  0.233524  1
  F  F6  1  0.519736  0.187783  0.233524  1
  F  F7  1  0.023004  0.771353  0.779936  1
  F  F8  1  0.250000  0.988959  0.954925  1
  F  F9  1  0.750000  0.916295  0.101742  1
  F  F10  1  0.093315  0.704922  0.285802  1
  F  F11  1  0.595995  0.327727  0.721623  1
  F  F12  1  0.904005  0.327727  0.721623  1
  F  F13  1  0.406685  0.704922  0.285802  1
  F  F14  1  0.250000  0.542453  0.995259  1
  F  F15  1  0.750000  0.545344  0.953843  1
  F  F16  1  0.250000  0.544609  0.601428  1
  F  F17  1  0.750000  0.440428  0.361192  1
  F  F18  1  0.250000  0.992600  0.575026  1
  F  F19  1  0.750000  0.026648  0.430776  1
