# generated using pymatgen
data_CePr2Zn3Ir2Pd
_symmetry_space_group_name_H-M   'P 1'
_cell_length_a   7.51181200
_cell_length_b   7.36823740
_cell_length_c   3.94203000
_cell_angle_alpha   90.00000000
_cell_angle_beta   90.00000000
_cell_angle_gamma   120.64669058
_symmetry_Int_Tables_number   1
_chemical_formula_structural   CePr2Zn3Ir2Pd
_chemical_formula_sum   'Ce1 Pr2 Zn3 Ir2 Pd1'
_cell_volume   187.71187967
_cell_formula_units_Z   1
loop_
 _symmetry_equiv_pos_site_id
 _symmetry_equiv_pos_as_xyz
  1  'x, y, z'
loop_
 _atom_site_type_symbol
 _atom_site_label
 _atom_site_symmetry_multiplicity
 _atom_site_fract_x
 _atom_site_fract_y
 _atom_site_fract_z
 _atom_site_occupancy
  Ce  Ce0  1  0.422211  0.000000  0.000000  1
  Pr  Pr1  1  0.999244  0.411953  0.000000  1
  Pr  Pr2  1  0.587291  0.588047  0.000000  1
  Zn  Zn3  1  0.004927  0.755472  0.500000  1
  Zn  Zn4  1  0.249455  0.244528  0.500000  1
  Zn  Zn5  1  0.758293  0.000000  0.500000  1
  Ir  Ir6  1  0.640718  0.307053  0.500000  1
  Ir  Ir7  1  0.333664  0.692947  0.500000  1
  Pd  Pd8  1  0.004196  0.000000  0.000000  1
