# generated using pymatgen
data_Tb4TmCdAu4
_symmetry_space_group_name_H-M   'P 1'
_cell_length_a   8.02135100
_cell_length_b   8.02135100
_cell_length_c   3.82833500
_cell_angle_alpha   90.00000000
_cell_angle_beta   90.00000000
_cell_angle_gamma   90.00000000
_symmetry_Int_Tables_number   1
_chemical_formula_structural   Tb4TmCdAu4
_chemical_formula_sum   'Tb4 Tm1 Cd1 Au4'
_cell_volume   246.32300569
_cell_formula_units_Z   1
loop_
 _symmetry_equiv_pos_site_id
 _symmetry_equiv_pos_as_xyz
  1  'x, y, z'
loop_
 _atom_site_type_symbol
 _atom_site_label
 _atom_site_symmetry_multiplicity
 _atom_site_fract_x
 _atom_site_fract_y
 _atom_site_fract_z
 _atom_site_occupancy
  Tb  Tb0  1  0.686206  0.141023  0.500000  1
  Tb  Tb1  1  0.313794  0.858977  0.500000  1
  Tb  Tb2  1  0.141023  0.313794  0.500000  1
  Tb  Tb3  1  0.858977  0.686206  0.500000  1
  Tm  Tm4  1  0.500000  0.500000  0.000000  1
  Cd  Cd5  1  0.000000  0.000000  0.000000  1
  Au  Au6  1  0.146429  0.618882  0.000000  1
  Au  Au7  1  0.853571  0.381118  0.000000  1
  Au  Au8  1  0.618882  0.853571  0.000000  1
  Au  Au9  1  0.381118  0.146429  0.000000  1
