# generated using pymatgen
data_Ho7Tm(Si3Pt)4
_symmetry_space_group_name_H-M   'P 1'
_cell_length_a   8.17319300
_cell_length_b   8.17319395
_cell_length_c   7.88174400
_cell_angle_alpha   90.00000000
_cell_angle_beta   90.00000000
_cell_angle_gamma   120.00000829
_symmetry_Int_Tables_number   1
_chemical_formula_structural   Ho7Tm(Si3Pt)4
_chemical_formula_sum   'Ho7 Tm1 Si12 Pt4'
_cell_volume   455.97022025
_cell_formula_units_Z   1
loop_
 _symmetry_equiv_pos_site_id
 _symmetry_equiv_pos_as_xyz
  1  'x, y, z'
loop_
 _atom_site_type_symbol
 _atom_site_label
 _atom_site_symmetry_multiplicity
 _atom_site_fract_x
 _atom_site_fract_y
 _atom_site_fract_z
 _atom_site_occupancy
  Ho  Ho0  1  0.000000  0.000000  0.750000  1
  Ho  Ho1  1  0.510084  0.489916  0.250000  1
  Ho  Ho2  1  0.510084  0.020169  0.250000  1
  Ho  Ho3  1  0.979831  0.489916  0.250000  1
  Ho  Ho4  1  0.489921  0.510079  0.750000  1
  Ho  Ho5  1  0.489921  0.979842  0.750000  1
  Ho  Ho6  1  0.020158  0.510079  0.750000  1
  Tm  Tm7  1  0.000000  0.000000  0.250000  1
  Si  Si8  1  0.165076  0.834924  0.498911  1
  Si  Si9  1  0.165076  0.330150  0.498911  1
  Si  Si10  1  0.669850  0.834924  0.498911  1
  Si  Si11  1  0.834921  0.165079  0.500589  1
  Si  Si12  1  0.834921  0.669844  0.500589  1
  Si  Si13  1  0.330156  0.165079  0.500589  1
  Si  Si14  1  0.834921  0.165079  0.999411  1
  Si  Si15  1  0.834921  0.669844  0.999411  1
  Si  Si16  1  0.330156  0.165079  0.999411  1
  Si  Si17  1  0.165076  0.834924  0.001089  1
  Si  Si18  1  0.165076  0.330150  0.001089  1
  Si  Si19  1  0.669850  0.834924  0.001089  1
  Pt  Pt20  1  0.333333  0.666667  0.464757  1
  Pt  Pt21  1  0.666667  0.333333  0.535270  1
  Pt  Pt22  1  0.666667  0.333333  0.964730  1
  Pt  Pt23  1  0.333333  0.666667  0.035243  1
