# generated using pymatgen
data_LiCeAgP2
_symmetry_space_group_name_H-M   'P 1'
_cell_length_a   4.16937800
_cell_length_b   4.16937777
_cell_length_c   6.62568300
_cell_angle_alpha   90.00000000
_cell_angle_beta   90.00000000
_cell_angle_gamma   120.00000183
_symmetry_Int_Tables_number   1
_chemical_formula_structural   LiCeAgP2
_chemical_formula_sum   'Li1 Ce1 Ag1 P2'
_cell_volume   99.74790759
_cell_formula_units_Z   1
loop_
 _symmetry_equiv_pos_site_id
 _symmetry_equiv_pos_as_xyz
  1  'x, y, z'
loop_
 _atom_site_type_symbol
 _atom_site_label
 _atom_site_symmetry_multiplicity
 _atom_site_fract_x
 _atom_site_fract_y
 _atom_site_fract_z
 _atom_site_occupancy
  Li  Li0  1  0.333333  0.666667  0.622254  1
  Ce  Ce1  1  0.000000  0.000000  0.001872  1
  Ag  Ag2  1  0.666667  0.333333  0.377191  1
  P  P3  1  0.666667  0.333333  0.767787  1
  P  P4  1  0.333333  0.666667  0.230896  1
