# generated using pymatgen
data_DyErCo2(P3Ir4)2
_symmetry_space_group_name_H-M   'P 1'
_cell_length_a   3.92216100
_cell_length_b   10.71653500
_cell_length_c   12.37889200
_cell_angle_alpha   90.00000000
_cell_angle_beta   90.00000000
_cell_angle_gamma   90.00000000
_symmetry_Int_Tables_number   1
_chemical_formula_structural   DyErCo2(P3Ir4)2
_chemical_formula_sum   'Dy2 Er2 Co4 P12 Ir16'
_cell_volume   520.30928690
_cell_formula_units_Z   2
loop_
 _symmetry_equiv_pos_site_id
 _symmetry_equiv_pos_as_xyz
  1  'x, y, z'
loop_
 _atom_site_type_symbol
 _atom_site_label
 _atom_site_symmetry_multiplicity
 _atom_site_fract_x
 _atom_site_fract_y
 _atom_site_fract_z
 _atom_site_occupancy
  Dy  Dy0  1  0.250000  0.585113  0.710030  1
  Dy  Dy1  1  0.250000  0.914887  0.210030  1
  Er  Er2  1  0.750000  0.414754  0.289993  1
  Er  Er3  1  0.750000  0.085246  0.789993  1
  Co  Co4  1  0.250000  0.460994  0.934006  1
  Co  Co5  1  0.250000  0.039006  0.434006  1
  Co  Co6  1  0.750000  0.538910  0.066171  1
  Co  Co7  1  0.750000  0.961090  0.566171  1
  P  P8  1  0.250000  0.426459  0.105853  1
  P  P9  1  0.250000  0.073541  0.605853  1
  P  P10  1  0.750000  0.573474  0.894397  1
  P  P11  1  0.750000  0.926526  0.394397  1
  P  P12  1  0.250000  0.270445  0.871254  1
  P  P13  1  0.250000  0.229555  0.371254  1
  P  P14  1  0.750000  0.729253  0.128563  1
  P  P15  1  0.750000  0.770747  0.628563  1
  P  P16  1  0.250000  0.594433  0.384663  1
  P  P17  1  0.250000  0.905567  0.884663  1
  P  P18  1  0.750000  0.405286  0.615206  1
  P  P19  1  0.750000  0.094714  0.115206  1
  Ir  Ir20  1  0.250000  0.720742  0.980770  1
  Ir  Ir21  1  0.250000  0.779258  0.480770  1
  Ir  Ir22  1  0.750000  0.279308  0.019224  1
  Ir  Ir23  1  0.750000  0.220692  0.519224  1
  Ir  Ir24  1  0.250000  0.407576  0.477928  1
  Ir  Ir25  1  0.250000  0.092424  0.977928  1
  Ir  Ir26  1  0.750000  0.592500  0.521345  1
  Ir  Ir27  1  0.750000  0.907500  0.021345  1
  Ir  Ir28  1  0.250000  0.232895  0.179972  1
  Ir  Ir29  1  0.250000  0.267105  0.679972  1
  Ir  Ir30  1  0.750000  0.767718  0.820340  1
  Ir  Ir31  1  0.750000  0.732282  0.320340  1
  Ir  Ir32  1  0.250000  0.886401  0.698982  1
  Ir  Ir33  1  0.250000  0.613599  0.198982  1
  Ir  Ir34  1  0.750000  0.114260  0.301304  1
  Ir  Ir35  1  0.750000  0.385740  0.801304  1
