# generated using pymatgen
data_Na5TcO5
_symmetry_space_group_name_H-M   'P 1'
_cell_length_a   6.06508353
_cell_length_b   6.06508229
_cell_length_c   10.24311082
_cell_angle_alpha   79.65937793
_cell_angle_beta   79.65938102
_cell_angle_gamma   117.26331352
_symmetry_Int_Tables_number   1
_chemical_formula_structural   Na5TcO5
_chemical_formula_sum   'Na10 Tc2 O10'
_cell_volume   314.39334630
_cell_formula_units_Z   2
loop_
 _symmetry_equiv_pos_site_id
 _symmetry_equiv_pos_as_xyz
  1  'x, y, z'
loop_
 _atom_site_type_symbol
 _atom_site_label
 _atom_site_symmetry_multiplicity
 _atom_site_fract_x
 _atom_site_fract_y
 _atom_site_fract_z
 _atom_site_occupancy
  Na  Na0  1  0.749022  0.927795  0.579046  1
  Na  Na1  1  0.494619  0.773723  0.946305  1
  Na  Na2  1  0.589786  0.410214  0.750000  1
  Na  Na3  1  0.927795  0.749022  0.079046  1
  Na  Na4  1  0.773723  0.494619  0.446305  1
  Na  Na5  1  0.226277  0.505381  0.553695  1
  Na  Na6  1  0.072205  0.250978  0.920954  1
  Na  Na7  1  0.410214  0.589786  0.250000  1
  Na  Na8  1  0.505381  0.226277  0.053695  1
  Na  Na9  1  0.250978  0.072205  0.420954  1
  Tc  Tc10  1  0.155329  0.844671  0.750000  1
  Tc  Tc11  1  0.844671  0.155329  0.250000  1
  O  O12  1  0.819665  0.671508  0.876614  1
  O  O13  1  0.991229  0.701943  0.601596  1
  O  O14  1  0.671508  0.819665  0.376614  1
  O  O15  1  0.701943  0.991229  0.101596  1
  O  O16  1  0.336914  0.663086  0.750000  1
  O  O17  1  0.663086  0.336914  0.250000  1
  O  O18  1  0.298057  0.008771  0.898404  1
  O  O19  1  0.328492  0.180335  0.623386  1
  O  O20  1  0.008771  0.298057  0.398404  1
  O  O21  1  0.180335  0.328492  0.123386  1
