# generated using pymatgen
data_Zr12Sn4Pd5Rh3N4
_symmetry_space_group_name_H-M   'P 1'
_cell_length_a   8.80004562
_cell_length_b   8.80381027
_cell_length_c   8.80381000
_cell_angle_alpha   60.00000100
_cell_angle_beta   59.98584853
_cell_angle_gamma   59.98584560
_symmetry_Int_Tables_number   1
_chemical_formula_structural   Zr12Sn4Pd5Rh3N4
_chemical_formula_sum   'Zr12 Sn4 Pd5 Rh3 N4'
_cell_volume   482.19014103
_cell_formula_units_Z   1
loop_
 _symmetry_equiv_pos_site_id
 _symmetry_equiv_pos_as_xyz
  1  'x, y, z'
loop_
 _atom_site_type_symbol
 _atom_site_label
 _atom_site_symmetry_multiplicity
 _atom_site_fract_x
 _atom_site_fract_y
 _atom_site_fract_z
 _atom_site_occupancy
  Zr  Zr0  1  0.814602  0.815089  0.185155  1
  Zr  Zr1  1  0.181230  0.189322  0.814724  1
  Zr  Zr2  1  0.814602  0.185155  0.815089  1
  Zr  Zr3  1  0.181230  0.814724  0.189322  1
  Zr  Zr4  1  0.181230  0.814724  0.814724  1
  Zr  Zr5  1  0.814602  0.185155  0.185155  1
  Zr  Zr6  1  0.436400  0.435916  0.063842  1
  Zr  Zr7  1  0.063277  0.063551  0.436587  1
  Zr  Zr8  1  0.436400  0.063842  0.435916  1
  Zr  Zr9  1  0.063277  0.436587  0.063551  1
  Zr  Zr10  1  0.063277  0.436587  0.436587  1
  Zr  Zr11  1  0.436400  0.063842  0.063842  1
  Sn  Sn12  1  0.112829  0.629057  0.629057  1
  Sn  Sn13  1  0.629862  0.117345  0.626397  1
  Sn  Sn14  1  0.629862  0.626397  0.117345  1
  Sn  Sn15  1  0.629862  0.626397  0.626397  1
  Pd  Pd16  1  0.767788  0.410737  0.410737  1
  Pd  Pd17  1  0.410644  0.766321  0.411517  1
  Pd  Pd18  1  0.410644  0.411517  0.766321  1
  Pd  Pd19  1  0.410644  0.411517  0.411517  1
  Pd  Pd20  1  0.475590  0.841470  0.841470  1
  Rh  Rh21  1  0.843805  0.465622  0.845287  1
  Rh  Rh22  1  0.843805  0.845287  0.465622  1
  Rh  Rh23  1  0.843805  0.845287  0.845287  1
  N  N24  1  0.623296  0.125568  0.125568  1
  N  N25  1  0.127012  0.624197  0.124395  1
  N  N26  1  0.127012  0.124395  0.624197  1
  N  N27  1  0.127012  0.124395  0.124395  1
