# generated using pymatgen
data_Mg3Co(PRh2)2
_symmetry_space_group_name_H-M   'P 1'
_cell_length_a   9.46672700
_cell_length_b   9.46672700
_cell_length_c   3.25645400
_cell_angle_alpha   90.00000000
_cell_angle_beta   90.00000000
_cell_angle_gamma   90.00000000
_symmetry_Int_Tables_number   1
_chemical_formula_structural   Mg3Co(PRh2)2
_chemical_formula_sum   'Mg6 Co2 P4 Rh8'
_cell_volume   291.83989081
_cell_formula_units_Z   2
loop_
 _symmetry_equiv_pos_site_id
 _symmetry_equiv_pos_as_xyz
  1  'x, y, z'
loop_
 _atom_site_type_symbol
 _atom_site_label
 _atom_site_symmetry_multiplicity
 _atom_site_fract_x
 _atom_site_fract_y
 _atom_site_fract_z
 _atom_site_occupancy
  Mg  Mg0  1  0.678916  0.178916  0.000000  1
  Mg  Mg1  1  0.321084  0.821084  0.000000  1
  Mg  Mg2  1  0.178916  0.321084  0.000000  1
  Mg  Mg3  1  0.821084  0.678916  0.000000  1
  Mg  Mg4  1  0.000000  0.000000  0.000000  1
  Mg  Mg5  1  0.500000  0.500000  0.000000  1
  Co  Co6  1  0.500000  0.000000  0.500000  1
  Co  Co7  1  0.000000  0.500000  0.500000  1
  P  P8  1  0.114049  0.614049  0.000000  1
  P  P9  1  0.885951  0.385951  0.000000  1
  P  P10  1  0.614049  0.885951  0.000000  1
  P  P11  1  0.385951  0.114049  0.000000  1
  Rh  Rh12  1  0.220913  0.064208  0.500000  1
  Rh  Rh13  1  0.779087  0.935792  0.500000  1
  Rh  Rh14  1  0.064208  0.779087  0.500000  1
  Rh  Rh15  1  0.720913  0.435792  0.500000  1
  Rh  Rh16  1  0.935792  0.220913  0.500000  1
  Rh  Rh17  1  0.279087  0.564208  0.500000  1
  Rh  Rh18  1  0.564208  0.720913  0.500000  1
  Rh  Rh19  1  0.435792  0.279087  0.500000  1
