# generated using pymatgen
data_Ho3Ta2Sn(B2Ru5)2
_symmetry_space_group_name_H-M   'P 1'
_cell_length_a   9.61491294
_cell_length_b   9.66790826
_cell_length_c   3.10913500
_cell_angle_alpha   90.00000000
_cell_angle_beta   90.00000000
_cell_angle_gamma   90.64646452
_symmetry_Int_Tables_number   1
_chemical_formula_structural   Ho3Ta2Sn(B2Ru5)2
_chemical_formula_sum   'Ho3 Ta2 Sn1 B4 Ru10'
_cell_volume   288.99465619
_cell_formula_units_Z   1
loop_
 _symmetry_equiv_pos_site_id
 _symmetry_equiv_pos_as_xyz
  1  'x, y, z'
loop_
 _atom_site_type_symbol
 _atom_site_label
 _atom_site_symmetry_multiplicity
 _atom_site_fract_x
 _atom_site_fract_y
 _atom_site_fract_z
 _atom_site_occupancy
  Ho  Ho0  1  0.823510  0.674232  0.000000  1
  Ho  Ho1  1  0.175710  0.325379  0.000000  1
  Ho  Ho2  1  0.323691  0.826329  0.000000  1
  Ta  Ta3  1  0.680919  0.168764  0.000000  1
  Ta  Ta4  1  0.003938  0.998666  0.000000  1
  Sn  Sn5  1  0.497928  0.506140  0.000000  1
  B  B6  1  0.623722  0.883790  0.000000  1
  B  B7  1  0.381449  0.123754  0.000000  1
  B  B8  1  0.116058  0.620079  0.000000  1
  B  B9  1  0.876372  0.375788  0.000000  1
  Ru  Ru10  1  0.572480  0.728470  0.500000  1
  Ru  Ru11  1  0.444879  0.276389  0.500000  1
  Ru  Ru12  1  0.066542  0.780695  0.500000  1
  Ru  Ru13  1  0.918009  0.212976  0.500000  1
  Ru  Ru14  1  0.274201  0.573322  0.500000  1
  Ru  Ru15  1  0.713531  0.407166  0.500000  1
  Ru  Ru16  1  0.222086  0.071631  0.500000  1
  Ru  Ru17  1  0.781274  0.941592  0.500000  1
  Ru  Ru18  1  0.509331  0.009033  0.500000  1
  Ru  Ru19  1  0.994370  0.495803  0.500000  1
