# generated using pymatgen
data_Tb2Y2Er4TlCdPd2
_symmetry_space_group_name_H-M   'P 1'
_cell_length_a   9.66457792
_cell_length_b   9.66170316
_cell_length_c   9.66170200
_cell_angle_alpha   60.01968886
_cell_angle_beta   59.99014847
_cell_angle_gamma   59.99015408
_symmetry_Int_Tables_number   1
_chemical_formula_structural   Tb2Y2Er4TlCdPd2
_chemical_formula_sum   'Tb4 Y4 Er8 Tl2 Cd2 Pd4'
_cell_volume   637.93307177
_cell_formula_units_Z   2
loop_
 _symmetry_equiv_pos_site_id
 _symmetry_equiv_pos_as_xyz
  1  'x, y, z'
loop_
 _atom_site_type_symbol
 _atom_site_label
 _atom_site_symmetry_multiplicity
 _atom_site_fract_x
 _atom_site_fract_y
 _atom_site_fract_z
 _atom_site_occupancy
  Tb  Tb0  1  0.353697  0.354035  0.354814  1
  Tb  Tb1  1  0.354035  0.353697  0.937453  1
  Tb  Tb2  1  0.353677  0.937734  0.354073  1
  Tb  Tb3  1  0.937734  0.353677  0.354517  1
  Y  Y4  1  0.565722  0.936140  0.565181  1
  Y  Y5  1  0.936140  0.565722  0.932957  1
  Y  Y6  1  0.565268  0.565268  0.934732  1
  Y  Y7  1  0.934388  0.934388  0.565612  1
  Er  Er8  1  0.811867  0.187467  0.188585  1
  Er  Er9  1  0.187467  0.811867  0.812081  1
  Er  Er10  1  0.187536  0.811931  0.188469  1
  Er  Er11  1  0.811931  0.187536  0.812064  1
  Er  Er12  1  0.187652  0.187652  0.812348  1
  Er  Er13  1  0.811622  0.811622  0.188378  1
  Er  Er14  1  0.938148  0.564158  0.563331  1
  Er  Er15  1  0.564158  0.938148  0.934363  1
  Tl  Tl16  1  0.584248  0.583583  0.586185  1
  Tl  Tl17  1  0.583583  0.584248  0.245985  1
  Cd  Cd18  1  0.582081  0.249253  0.584573  1
  Cd  Cd19  1  0.249253  0.582081  0.584096  1
  Pd  Pd20  1  0.143871  0.143534  0.143630  1
  Pd  Pd21  1  0.143534  0.143871  0.568963  1
  Pd  Pd22  1  0.143490  0.568897  0.143940  1
  Pd  Pd23  1  0.568897  0.143490  0.143671  1
