# generated using pymatgen
data_LaPd6
_symmetry_space_group_name_H-M   'P 1'
_cell_length_a   5.51829967
_cell_length_b   6.83044443
_cell_length_c   5.52044752
_cell_angle_alpha   127.93918704
_cell_angle_beta   76.34793466
_cell_angle_gamma   127.88727041
_symmetry_Int_Tables_number   1
_chemical_formula_structural   LaPd6
_chemical_formula_sum   'La1 Pd6'
_cell_volume   126.12131979
_cell_formula_units_Z   1
loop_
 _symmetry_equiv_pos_site_id
 _symmetry_equiv_pos_as_xyz
  1  'x, y, z'
loop_
 _atom_site_type_symbol
 _atom_site_label
 _atom_site_symmetry_multiplicity
 _atom_site_fract_x
 _atom_site_fract_y
 _atom_site_fract_z
 _atom_site_occupancy
  La  La0  1  0.329102  0.643903  0.887418  1
  Pd  Pd1  1  0.627451  0.348616  0.590617  1
  Pd  Pd2  1  0.578623  0.395073  0.137542  1
  Pd  Pd3  1  0.080029  0.893844  0.636084  1
  Pd  Pd4  1  0.033346  0.942267  0.185235  1
  Pd  Pd5  1  0.032629  0.348361  0.181040  1
  Pd  Pd6  1  0.623229  0.937998  0.591677  1
