# generated using pymatgen
data_TaCuNi20SnB6
_symmetry_space_group_name_H-M   'P 1'
_cell_length_a   7.45423896
_cell_length_b   7.45423858
_cell_length_c   7.45423900
_cell_angle_alpha   59.99999372
_cell_angle_beta   59.99999537
_cell_angle_gamma   59.99999783
_symmetry_Int_Tables_number   1
_chemical_formula_structural   TaCuNi20SnB6
_chemical_formula_sum   'Ta1 Cu1 Ni20 Sn1 B6'
_cell_volume   292.88347707
_cell_formula_units_Z   1
loop_
 _symmetry_equiv_pos_site_id
 _symmetry_equiv_pos_as_xyz
  1  'x, y, z'
loop_
 _atom_site_type_symbol
 _atom_site_label
 _atom_site_symmetry_multiplicity
 _atom_site_fract_x
 _atom_site_fract_y
 _atom_site_fract_z
 _atom_site_occupancy
  Ta  Ta0  1  0.250000  0.250000  0.250000  1
  Cu  Cu1  1  0.000000  0.000000  0.000000  1
  Ni  Ni2  1  0.614288  0.614288  0.157134  1
  Ni  Ni3  1  0.614288  0.157134  0.614288  1
  Ni  Ni4  1  0.157134  0.614288  0.614288  1
  Ni  Ni5  1  0.614288  0.614288  0.614288  1
  Ni  Ni6  1  0.383952  0.383952  0.848145  1
  Ni  Ni7  1  0.383952  0.848145  0.383952  1
  Ni  Ni8  1  0.848145  0.383952  0.383952  1
  Ni  Ni9  1  0.383952  0.383952  0.383952  1
  Ni  Ni10  1  0.002889  0.002889  0.336604  1
  Ni  Ni11  1  0.657618  0.002889  0.336604  1
  Ni  Ni12  1  0.002889  0.657618  0.336604  1
  Ni  Ni13  1  0.657618  0.336604  0.002889  1
  Ni  Ni14  1  0.002889  0.336604  0.002889  1
  Ni  Ni15  1  0.002889  0.336604  0.657618  1
  Ni  Ni16  1  0.336604  0.657618  0.002889  1
  Ni  Ni17  1  0.336604  0.002889  0.657618  1
  Ni  Ni18  1  0.336604  0.002889  0.002889  1
  Ni  Ni19  1  0.002889  0.002889  0.657618  1
  Ni  Ni20  1  0.002889  0.657618  0.002889  1
  Ni  Ni21  1  0.657618  0.002889  0.002889  1
  Sn  Sn22  1  0.750000  0.750000  0.750000  1
  B  B23  1  0.730053  0.730053  0.269947  1
  B  B24  1  0.269947  0.730053  0.269947  1
  B  B25  1  0.730053  0.269947  0.269947  1
  B  B26  1  0.269947  0.269947  0.730053  1
  B  B27  1  0.730053  0.269947  0.730053  1
  B  B28  1  0.269947  0.730053  0.730053  1
