# generated using pymatgen
data_TbEr3Ga6CoCu
_symmetry_space_group_name_H-M   'P 1'
_cell_length_a   6.96837300
_cell_length_b   8.75656498
_cell_length_c   8.75656600
_cell_angle_alpha   119.99999632
_cell_angle_beta   90.00000000
_cell_angle_gamma   90.00000000
_symmetry_Int_Tables_number   1
_chemical_formula_structural   TbEr3Ga6CoCu
_chemical_formula_sum   'Tb2 Er6 Ga12 Co2 Cu2'
_cell_volume   462.73210991
_cell_formula_units_Z   2
loop_
 _symmetry_equiv_pos_site_id
 _symmetry_equiv_pos_as_xyz
  1  'x, y, z'
loop_
 _atom_site_type_symbol
 _atom_site_label
 _atom_site_symmetry_multiplicity
 _atom_site_fract_x
 _atom_site_fract_y
 _atom_site_fract_z
 _atom_site_occupancy
  Tb  Tb0  1  0.745561  0.000000  0.000000  1
  Tb  Tb1  1  0.254439  0.000000  0.000000  1
  Er  Er2  1  0.742081  0.476856  0.523144  1
  Er  Er3  1  0.257919  0.523144  0.476856  1
  Er  Er4  1  0.742081  0.046289  0.523144  1
  Er  Er5  1  0.257919  0.953711  0.476856  1
  Er  Er6  1  0.742081  0.476856  0.953711  1
  Er  Er7  1  0.257919  0.523144  0.046289  1
  Ga  Ga8  1  0.954850  0.830105  0.169895  1
  Ga  Ga9  1  0.045150  0.169895  0.830105  1
  Ga  Ga10  1  0.954850  0.339789  0.169895  1
  Ga  Ga11  1  0.455204  0.173428  0.826572  1
  Ga  Ga12  1  0.045150  0.660211  0.830105  1
  Ga  Ga13  1  0.544796  0.826572  0.173428  1
  Ga  Ga14  1  0.954850  0.830105  0.660211  1
  Ga  Ga15  1  0.455204  0.653145  0.826572  1
  Ga  Ga16  1  0.045150  0.169895  0.339789  1
  Ga  Ga17  1  0.544796  0.346855  0.173428  1
  Ga  Ga18  1  0.455204  0.173428  0.346855  1
  Ga  Ga19  1  0.544796  0.826572  0.653145  1
  Co  Co20  1  0.486759  0.333333  0.666667  1
  Co  Co21  1  0.513241  0.666667  0.333333  1
  Cu  Cu22  1  0.949078  0.666667  0.333333  1
  Cu  Cu23  1  0.050922  0.333333  0.666667  1
