# generated using pymatgen
data_LiPr8InIr2
_symmetry_space_group_name_H-M   'P 1'
_cell_length_a   10.06706582
_cell_length_b   10.06706637
_cell_length_c   10.05996700
_cell_angle_alpha   60.02332863
_cell_angle_beta   60.02332683
_cell_angle_gamma   59.98999377
_symmetry_Int_Tables_number   1
_chemical_formula_structural   LiPr8InIr2
_chemical_formula_sum   'Li2 Pr16 In2 Ir4'
_cell_volume   721.12003863
_cell_formula_units_Z   2
loop_
 _symmetry_equiv_pos_site_id
 _symmetry_equiv_pos_as_xyz
  1  'x, y, z'
loop_
 _atom_site_type_symbol
 _atom_site_label
 _atom_site_symmetry_multiplicity
 _atom_site_fract_x
 _atom_site_fract_y
 _atom_site_fract_z
 _atom_site_occupancy
  Li  Li0  1  0.571561  0.571561  0.577088  1
  Li  Li1  1  0.571561  0.571561  0.279790  1
  Pr  Pr2  1  0.348052  0.348052  0.348217  1
  Pr  Pr3  1  0.348052  0.348052  0.955679  1
  Pr  Pr4  1  0.347645  0.958122  0.347116  1
  Pr  Pr5  1  0.958122  0.347645  0.347116  1
  Pr  Pr6  1  0.810699  0.189206  0.191384  1
  Pr  Pr7  1  0.189206  0.810699  0.808711  1
  Pr  Pr8  1  0.189206  0.810699  0.191384  1
  Pr  Pr9  1  0.810699  0.189206  0.808711  1
  Pr  Pr10  1  0.194210  0.194210  0.805790  1
  Pr  Pr11  1  0.815637  0.815637  0.184363  1
  Pr  Pr12  1  0.939829  0.559442  0.561425  1
  Pr  Pr13  1  0.559442  0.939829  0.939304  1
  Pr  Pr14  1  0.559442  0.939829  0.561425  1
  Pr  Pr15  1  0.939829  0.559442  0.939304  1
  Pr  Pr16  1  0.560626  0.560626  0.939374  1
  Pr  Pr17  1  0.940203  0.940203  0.559797  1
  In  In18  1  0.583149  0.258154  0.579348  1
  In  In19  1  0.258154  0.583149  0.579348  1
  Ir  Ir20  1  0.143005  0.143005  0.139948  1
  Ir  Ir21  1  0.143005  0.143005  0.574043  1
  Ir  Ir22  1  0.142631  0.576035  0.140668  1
  Ir  Ir23  1  0.576035  0.142631  0.140668  1
