# generated using pymatgen
data_PrNd7Be3Si12Rh
_symmetry_space_group_name_H-M   'P 1'
_cell_length_a   8.04883300
_cell_length_b   8.04883288
_cell_length_c   8.58173100
_cell_angle_alpha   90.00000000
_cell_angle_beta   90.00000000
_cell_angle_gamma   119.99999638
_symmetry_Int_Tables_number   1
_chemical_formula_structural   PrNd7Be3Si12Rh
_chemical_formula_sum   'Pr1 Nd7 Be3 Si12 Rh1'
_cell_volume   481.47237212
_cell_formula_units_Z   1
loop_
 _symmetry_equiv_pos_site_id
 _symmetry_equiv_pos_as_xyz
  1  'x, y, z'
loop_
 _atom_site_type_symbol
 _atom_site_label
 _atom_site_symmetry_multiplicity
 _atom_site_fract_x
 _atom_site_fract_y
 _atom_site_fract_z
 _atom_site_occupancy
  Pr  Pr0  1  0.000000  0.000000  0.750033  1
  Nd  Nd1  1  0.000000  0.000000  0.249702  1
  Nd  Nd2  1  0.500435  0.499565  0.748846  1
  Nd  Nd3  1  0.500435  0.000872  0.748846  1
  Nd  Nd4  1  0.999128  0.499565  0.748846  1
  Nd  Nd5  1  0.500851  0.499149  0.251186  1
  Nd  Nd6  1  0.998298  0.499149  0.251186  1
  Nd  Nd7  1  0.500851  0.001702  0.251186  1
  Be  Be8  1  0.666667  0.333333  0.999610  1
  Be  Be9  1  0.666667  0.333333  0.500957  1
  Be  Be10  1  0.333333  0.666667  0.498474  1
  Si  Si11  1  0.830656  0.169344  0.000282  1
  Si  Si12  1  0.830656  0.661311  0.000282  1
  Si  Si13  1  0.338689  0.169344  0.000282  1
  Si  Si14  1  0.827817  0.172183  0.499576  1
  Si  Si15  1  0.827817  0.655635  0.499576  1
  Si  Si16  1  0.344365  0.172183  0.499576  1
  Si  Si17  1  0.172970  0.827030  0.499544  1
  Si  Si18  1  0.654061  0.827030  0.499544  1
  Si  Si19  1  0.172970  0.345939  0.499544  1
  Si  Si20  1  0.168816  0.831184  0.000615  1
  Si  Si21  1  0.662369  0.831184  0.000615  1
  Si  Si22  1  0.168816  0.337631  0.000615  1
  Rh  Rh23  1  0.333333  0.666667  0.001071  1
