# generated using pymatgen
data_Nb6CoB5Os6
_symmetry_space_group_name_H-M   'P 1'
_cell_length_a   3.10348600
_cell_length_b   6.58605556
_cell_length_c   11.29785958
_cell_angle_alpha   89.88880667
_cell_angle_beta   90.00000000
_cell_angle_gamma   90.00000000
_symmetry_Int_Tables_number   1
_chemical_formula_structural   Nb6CoB5Os6
_chemical_formula_sum   'Nb6 Co1 B5 Os6'
_cell_volume   230.92477849
_cell_formula_units_Z   1
loop_
 _symmetry_equiv_pos_site_id
 _symmetry_equiv_pos_as_xyz
  1  'x, y, z'
loop_
 _atom_site_type_symbol
 _atom_site_label
 _atom_site_symmetry_multiplicity
 _atom_site_fract_x
 _atom_site_fract_y
 _atom_site_fract_z
 _atom_site_occupancy
  Nb  Nb0  1  0.000000  0.270745  0.951636  1
  Nb  Nb1  1  0.000000  0.736743  0.041158  1
  Nb  Nb2  1  0.000000  0.281102  0.543053  1
  Nb  Nb3  1  0.000000  0.722980  0.458417  1
  Nb  Nb4  1  0.000000  0.351871  0.262692  1
  Nb  Nb5  1  0.000000  0.644849  0.746121  1
  Co  Co6  1  0.500000  0.448102  0.085129  1
  B  B7  1  0.000000  0.949758  0.250183  1
  B  B8  1  0.000000  0.047249  0.746915  1
  B  B9  1  0.500000  0.556050  0.905374  1
  B  B10  1  0.500000  0.456371  0.421059  1
  B  B11  1  0.500000  0.548020  0.582571  1
  Os  Os12  1  0.500000  0.059564  0.124564  1
  Os  Os13  1  0.500000  0.928081  0.871776  1
  Os  Os14  1  0.500000  0.070202  0.379234  1
  Os  Os15  1  0.500000  0.930033  0.624011  1
  Os  Os16  1  0.500000  0.700446  0.258681  1
  Os  Os17  1  0.500000  0.297833  0.747426  1
