# generated using pymatgen
data_Rb2Ge4O7
_symmetry_space_group_name_H-M   'P 1'
_cell_length_a   5.66292800
_cell_length_b   5.66296345
_cell_length_c   8.49125201
_cell_angle_alpha   90.00069652
_cell_angle_beta   90.00033117
_cell_angle_gamma   60.00044098
_symmetry_Int_Tables_number   1
_chemical_formula_structural   Rb2Ge4O7
_chemical_formula_sum   'Rb2 Ge4 O7'
_cell_volume   235.82459135
_cell_formula_units_Z   1
loop_
 _symmetry_equiv_pos_site_id
 _symmetry_equiv_pos_as_xyz
  1  'x, y, z'
loop_
 _atom_site_type_symbol
 _atom_site_label
 _atom_site_symmetry_multiplicity
 _atom_site_fract_x
 _atom_site_fract_y
 _atom_site_fract_z
 _atom_site_occupancy
  Rb  Rb0  1  0.666665  0.666680  0.096088  1
  Rb  Rb1  1  0.333336  0.333320  0.903929  1
  Ge  Ge2  1  0.999997  0.000018  0.292719  1
  Ge  Ge3  1  0.000004  0.999982  0.707277  1
  Ge  Ge4  1  0.333328  0.333363  0.351349  1
  Ge  Ge5  1  0.666672  0.666634  0.648649  1
  O  O6  1  0.164888  0.660000  0.220016  1
  O  O7  1  0.659975  0.175153  0.220021  1
  O  O8  1  0.175127  0.164912  0.220023  1
  O  O9  1  0.000000  0.000001  0.499991  1
  O  O10  1  0.824874  0.835113  0.779976  1
  O  O11  1  0.340002  0.824848  0.779978  1
  O  O12  1  0.835137  0.339977  0.779984  1
