# generated using pymatgen
data_Dy7Y5Rh4
_symmetry_space_group_name_H-M   'P 1'
_cell_length_a   6.27872784
_cell_length_b   7.18778571
_cell_length_c   9.50892362
_cell_angle_alpha   89.98852472
_cell_angle_beta   90.03949914
_cell_angle_gamma   90.07836409
_symmetry_Int_Tables_number   1
_chemical_formula_structural   Dy7Y5Rh4
_chemical_formula_sum   'Dy7 Y5 Rh4'
_cell_volume   429.13863988
_cell_formula_units_Z   1
loop_
 _symmetry_equiv_pos_site_id
 _symmetry_equiv_pos_as_xyz
  1  'x, y, z'
loop_
 _atom_site_type_symbol
 _atom_site_label
 _atom_site_symmetry_multiplicity
 _atom_site_fract_x
 _atom_site_fract_y
 _atom_site_fract_z
 _atom_site_occupancy
  Dy  Dy0  1  0.170250  0.177079  0.436826  1
  Dy  Dy1  1  0.670139  0.322890  0.563244  1
  Dy  Dy2  1  0.829673  0.823058  0.936720  1
  Dy  Dy3  1  0.670552  0.322762  0.936858  1
  Dy  Dy4  1  0.829851  0.822885  0.563230  1
  Dy  Dy5  1  0.329814  0.677147  0.436818  1
  Dy  Dy6  1  0.170196  0.177069  0.063080  1
  Y  Y7  1  0.330223  0.677405  0.062298  1
  Y  Y8  1  0.866736  0.532510  0.250028  1
  Y  Y9  1  0.633218  0.032629  0.250015  1
  Y  Y10  1  0.133104  0.467456  0.749676  1
  Y  Y11  1  0.366720  0.967628  0.749804  1
  Rh  Rh12  1  0.062346  0.883536  0.250801  1
  Rh  Rh13  1  0.437141  0.381703  0.250758  1
  Rh  Rh14  1  0.936550  0.117195  0.749901  1
  Rh  Rh15  1  0.563488  0.617047  0.749944  1
