# generated using pymatgen
data_Er16In6RuRh
_symmetry_space_group_name_H-M   'P 1'
_cell_length_a   10.34240500
_cell_length_b   10.34240435
_cell_length_c   6.99400100
_cell_angle_alpha   90.00000000
_cell_angle_beta   90.00000000
_cell_angle_gamma   119.99999889
_symmetry_Int_Tables_number   1
_chemical_formula_structural   Er16In6RuRh
_chemical_formula_sum   'Er16 In6 Ru1 Rh1'
_cell_volume   647.88717022
_cell_formula_units_Z   1
loop_
 _symmetry_equiv_pos_site_id
 _symmetry_equiv_pos_as_xyz
  1  'x, y, z'
loop_
 _atom_site_type_symbol
 _atom_site_label
 _atom_site_symmetry_multiplicity
 _atom_site_fract_x
 _atom_site_fract_y
 _atom_site_fract_z
 _atom_site_occupancy
  Er  Er0  1  0.532134  0.064267  0.794963  1
  Er  Er1  1  0.935733  0.467866  0.794963  1
  Er  Er2  1  0.532134  0.467866  0.794963  1
  Er  Er3  1  0.467088  0.934176  0.293721  1
  Er  Er4  1  0.065824  0.532912  0.293721  1
  Er  Er5  1  0.467088  0.532912  0.293721  1
  Er  Er6  1  0.823434  0.646867  0.498727  1
  Er  Er7  1  0.353133  0.176566  0.498727  1
  Er  Er8  1  0.823434  0.176566  0.498727  1
  Er  Er9  1  0.177178  0.354357  0.999178  1
  Er  Er10  1  0.645643  0.822822  0.999178  1
  Er  Er11  1  0.177178  0.822822  0.999178  1
  Er  Er12  1  0.666667  0.333333  0.171529  1
  Er  Er13  1  0.333333  0.666667  0.671529  1
  Er  Er14  1  0.000000  0.000000  0.778192  1
  Er  Er15  1  0.000000  0.000000  0.278732  1
  In  In16  1  0.837179  0.674360  0.039764  1
  In  In17  1  0.325640  0.162821  0.039764  1
  In  In18  1  0.837179  0.162821  0.039764  1
  In  In19  1  0.162634  0.325266  0.539722  1
  In  In20  1  0.674734  0.837366  0.539722  1
  In  In21  1  0.162634  0.837366  0.539722  1
  Ru  Ru22  1  0.333333  0.666667  0.069452  1
  Rh  Rh23  1  0.666667  0.333333  0.568246  1
