# generated using pymatgen
data_TaTi2Co4Si4W
_symmetry_space_group_name_H-M   'P 1'
_cell_length_a   3.65060000
_cell_length_b   6.15683720
_cell_length_c   6.99457136
_cell_angle_alpha   90.31459998
_cell_angle_beta   90.00000000
_cell_angle_gamma   90.00000000
_symmetry_Int_Tables_number   1
_chemical_formula_structural   TaTi2Co4Si4W
_chemical_formula_sum   'Ta1 Ti2 Co4 Si4 W1'
_cell_volume   157.20866445
_cell_formula_units_Z   1
loop_
 _symmetry_equiv_pos_site_id
 _symmetry_equiv_pos_as_xyz
  1  'x, y, z'
loop_
 _atom_site_type_symbol
 _atom_site_label
 _atom_site_symmetry_multiplicity
 _atom_site_fract_x
 _atom_site_fract_y
 _atom_site_fract_z
 _atom_site_occupancy
  Ta  Ta0  1  0.250000  0.022419  0.818948  1
  Ti  Ti1  1  0.250000  0.522327  0.678475  1
  Ti  Ti2  1  0.750000  0.978528  0.184066  1
  Co  Co3  1  0.250000  0.644035  0.061192  1
  Co  Co4  1  0.750000  0.356122  0.936870  1
  Co  Co5  1  0.250000  0.139666  0.436490  1
  Co  Co6  1  0.750000  0.855272  0.563698  1
  Si  Si7  1  0.750000  0.724448  0.882031  1
  Si  Si8  1  0.250000  0.770573  0.378623  1
  Si  Si9  1  0.750000  0.231313  0.614079  1
  Si  Si10  1  0.250000  0.276262  0.124089  1
  W  W11  1  0.750000  0.479034  0.321437  1
