# generated using pymatgen
data_LaEuCu7Pd3
_symmetry_space_group_name_H-M   'P 1'
_cell_length_a   4.08209300
_cell_length_b   5.18662275
_cell_length_c   9.39605967
_cell_angle_alpha   88.07434463
_cell_angle_beta   90.00000000
_cell_angle_gamma   90.00000000
_symmetry_Int_Tables_number   1
_chemical_formula_structural   LaEuCu7Pd3
_chemical_formula_sum   'La1 Eu1 Cu7 Pd3'
_cell_volume   198.82362727
_cell_formula_units_Z   1
loop_
 _symmetry_equiv_pos_site_id
 _symmetry_equiv_pos_as_xyz
  1  'x, y, z'
loop_
 _atom_site_type_symbol
 _atom_site_label
 _atom_site_symmetry_multiplicity
 _atom_site_fract_x
 _atom_site_fract_y
 _atom_site_fract_z
 _atom_site_occupancy
  La  La0  1  0.000000  0.763190  0.245732  1
  Eu  Eu1  1  0.000000  0.237185  0.753093  1
  Cu  Cu2  1  0.000000  0.272317  0.079168  1
  Cu  Cu3  1  0.000000  0.746927  0.568886  1
  Cu  Cu4  1  0.000000  0.727744  0.919262  1
  Cu  Cu5  1  0.000000  0.252789  0.432562  1
  Cu  Cu6  1  0.500000  0.500480  0.500370  1
  Cu  Cu7  1  0.500000  0.499486  0.999244  1
  Cu  Cu8  1  0.500000  0.999688  0.500384  1
  Pd  Pd9  1  0.500000  0.735547  0.744968  1
  Pd  Pd10  1  0.500000  0.266161  0.255291  1
  Pd  Pd11  1  0.500000  0.998486  0.001040  1
