# generated using pymatgen
data_Ta12Ga8CoOs3C4
_symmetry_space_group_name_H-M   'P 1'
_cell_length_a   8.27118373
_cell_length_b   8.27133436
_cell_length_c   8.27125935
_cell_angle_alpha   60.10436919
_cell_angle_beta   60.10404501
_cell_angle_gamma   60.10440105
_symmetry_Int_Tables_number   1
_chemical_formula_structural   Ta12Ga8CoOs3C4
_chemical_formula_sum   'Ta12 Ga8 Co1 Os3 C4'
_cell_volume   401.07418962
_cell_formula_units_Z   1
loop_
 _symmetry_equiv_pos_site_id
 _symmetry_equiv_pos_as_xyz
  1  'x, y, z'
loop_
 _atom_site_type_symbol
 _atom_site_label
 _atom_site_symmetry_multiplicity
 _atom_site_fract_x
 _atom_site_fract_y
 _atom_site_fract_z
 _atom_site_occupancy
  Ta  Ta0  1  0.556457  0.942840  0.556463  1
  Ta  Ta1  1  0.307191  0.693550  0.693504  1
  Ta  Ta2  1  0.686966  0.308776  0.308795  1
  Ta  Ta3  1  0.308807  0.686957  0.308813  1
  Ta  Ta4  1  0.693506  0.693548  0.307193  1
  Ta  Ta5  1  0.308802  0.308789  0.686958  1
  Ta  Ta6  1  0.556494  0.556452  0.942807  1
  Ta  Ta7  1  0.942809  0.556450  0.556496  1
  Ta  Ta8  1  0.563034  0.941224  0.941205  1
  Ta  Ta9  1  0.941198  0.941211  0.563042  1
  Ta  Ta10  1  0.693543  0.307160  0.693537  1
  Ta  Ta11  1  0.941193  0.563043  0.941187  1
  Ga  Ga12  1  0.914913  0.914896  0.914910  1
  Ga  Ga13  1  0.992920  0.330421  0.330399  1
  Ga  Ga14  1  0.330400  0.992931  0.330407  1
  Ga  Ga15  1  0.330398  0.330427  0.992918  1
  Ga  Ga16  1  0.919600  0.257069  0.919593  1
  Ga  Ga17  1  0.919602  0.919573  0.257082  1
  Ga  Ga18  1  0.257080  0.919579  0.919601  1
  Ga  Ga19  1  0.335087  0.335104  0.335090  1
  Co  Co20  1  0.125000  0.125000  0.125000  1
  Os  Os21  1  0.625000  0.125000  0.125000  1
  Os  Os22  1  0.125000  0.625000  0.125000  1
  Os  Os23  1  0.125000  0.125000  0.625000  1
  C  C24  1  0.625000  0.625000  0.625000  1
  C  C25  1  0.125000  0.625000  0.625000  1
  C  C26  1  0.625000  0.125000  0.625000  1
  C  C27  1  0.625000  0.625000  0.125000  1
