# generated using pymatgen
data_Y5Er15(Cd3Ru)2
_symmetry_space_group_name_H-M   'P 1'
_cell_length_a   9.55051202
_cell_length_b   9.55051220
_cell_length_c   9.77774400
_cell_angle_alpha   90.00000000
_cell_angle_beta   90.00000000
_cell_angle_gamma   119.99179496
_symmetry_Int_Tables_number   1
_chemical_formula_structural   Y5Er15(Cd3Ru)2
_chemical_formula_sum   'Y5 Er15 Cd6 Ru2'
_cell_volume   772.42890057
_cell_formula_units_Z   1
loop_
 _symmetry_equiv_pos_site_id
 _symmetry_equiv_pos_as_xyz
  1  'x, y, z'
loop_
 _atom_site_type_symbol
 _atom_site_label
 _atom_site_symmetry_multiplicity
 _atom_site_fract_x
 _atom_site_fract_y
 _atom_site_fract_z
 _atom_site_occupancy
  Y  Y0  1  0.540952  0.082228  0.250000  1
  Y  Y1  1  0.917772  0.459048  0.250000  1
  Y  Y2  1  0.459055  0.540945  0.750000  1
  Y  Y3  1  0.459026  0.918107  0.750000  1
  Y  Y4  1  0.081893  0.540974  0.750000  1
  Er  Er5  1  0.000033  0.999967  0.500016  1
  Er  Er6  1  0.000033  0.999967  0.999984  1
  Er  Er7  1  0.209734  0.790266  0.440018  1
  Er  Er8  1  0.210039  0.419476  0.439921  1
  Er  Er9  1  0.580524  0.789961  0.439921  1
  Er  Er10  1  0.790268  0.209732  0.559989  1
  Er  Er11  1  0.790016  0.580433  0.559768  1
  Er  Er12  1  0.419567  0.209984  0.559768  1
  Er  Er13  1  0.790268  0.209732  0.940011  1
  Er  Er14  1  0.790016  0.580433  0.940232  1
  Er  Er15  1  0.419567  0.209984  0.940232  1
  Er  Er16  1  0.209734  0.790266  0.059982  1
  Er  Er17  1  0.210039  0.419476  0.060079  1
  Er  Er18  1  0.580524  0.789961  0.060079  1
  Er  Er19  1  0.540783  0.459217  0.250000  1
  Cd  Cd20  1  0.885652  0.114348  0.250000  1
  Cd  Cd21  1  0.885275  0.770900  0.250000  1
  Cd  Cd22  1  0.229100  0.114725  0.250000  1
  Cd  Cd23  1  0.114376  0.885624  0.750000  1
  Cd  Cd24  1  0.114308  0.228699  0.750000  1
  Cd  Cd25  1  0.771301  0.885692  0.750000  1
  Ru  Ru26  1  0.333447  0.666553  0.250000  1
  Ru  Ru27  1  0.666697  0.333303  0.750000  1
