# generated using pymatgen
data_NdNp3(Si5Pt3)2
_symmetry_space_group_name_H-M   'P 1'
_cell_length_a   8.20930615
_cell_length_b   8.19709315
_cell_length_c   8.19709388
_cell_angle_alpha   136.23160123
_cell_angle_beta   104.93526848
_cell_angle_gamma   91.12977974
_symmetry_Int_Tables_number   1
_chemical_formula_structural   NdNp3(Si5Pt3)2
_chemical_formula_sum   'Nd1 Np3 Si10 Pt6'
_cell_volume   350.76000289
_cell_formula_units_Z   1
loop_
 _symmetry_equiv_pos_site_id
 _symmetry_equiv_pos_as_xyz
  1  'x, y, z'
loop_
 _atom_site_type_symbol
 _atom_site_label
 _atom_site_symmetry_multiplicity
 _atom_site_fract_x
 _atom_site_fract_y
 _atom_site_fract_z
 _atom_site_occupancy
  Nd  Nd0  1  0.640462  0.372145  0.268317  1
  Np  Np1  1  0.360657  0.630280  0.730377  1
  Np  Np2  1  0.100226  0.869218  0.231008  1
  Np  Np3  1  0.899339  0.130265  0.769076  1
  Si  Si4  1  0.460269  0.109960  0.350310  1
  Si  Si5  1  0.535954  0.887015  0.648938  1
  Si  Si6  1  0.766131  0.615752  0.150378  1
  Si  Si7  1  0.236424  0.387874  0.848550  1
  Si  Si8  1  0.269699  0.519645  0.249119  1
  Si  Si9  1  0.728314  0.479602  0.751887  1
  Si  Si10  1  0.728314  0.976427  0.248713  1
  Si  Si11  1  0.269699  0.020580  0.750054  1
  Si  Si12  1  0.002694  0.248936  0.249379  1
  Si  Si13  1  0.002694  0.753314  0.753758  1
  Pt  Pt14  1  0.499933  0.251646  0.752593  1
  Pt  Pt15  1  0.499933  0.747339  0.248287  1
  Pt  Pt16  1  0.249504  0.137167  0.112337  1
  Pt  Pt17  1  0.751604  0.863579  0.888024  1
  Pt  Pt18  1  0.025189  0.636379  0.388809  1
  Pt  Pt19  1  0.972962  0.362875  0.610087  1
