# generated using pymatgen
data_CaYb3Sc(AlSb3)2
_symmetry_space_group_name_H-M   'P 1'
_cell_length_a   4.38360200
_cell_length_b   7.42399201
_cell_length_c   22.52310702
_cell_angle_alpha   90.00547265
_cell_angle_beta   90.00000000
_cell_angle_gamma   90.00000000
_symmetry_Int_Tables_number   1
_chemical_formula_structural   CaYb3Sc(AlSb3)2
_chemical_formula_sum   'Ca2 Yb6 Sc2 Al4 Sb12'
_cell_volume   732.98807755
_cell_formula_units_Z   2
loop_
 _symmetry_equiv_pos_site_id
 _symmetry_equiv_pos_as_xyz
  1  'x, y, z'
loop_
 _atom_site_type_symbol
 _atom_site_label
 _atom_site_symmetry_multiplicity
 _atom_site_fract_x
 _atom_site_fract_y
 _atom_site_fract_z
 _atom_site_occupancy
  Ca  Ca0  1  0.000000  0.462125  0.914501  1
  Ca  Ca1  1  0.000000  0.285988  0.747268  1
  Yb  Yb2  1  0.000000  0.787250  0.752139  1
  Yb  Yb3  1  0.000000  0.532451  0.085456  1
  Yb  Yb4  1  0.000000  0.968369  0.584420  1
  Yb  Yb5  1  0.000000  0.714431  0.253087  1
  Yb  Yb6  1  0.000000  0.031454  0.414513  1
  Yb  Yb7  1  0.000000  0.214545  0.247383  1
  Sc  Sc8  1  0.000000  0.000507  0.000024  1
  Sc  Sc9  1  0.000000  0.499548  0.499906  1
  Al  Al10  1  0.500000  0.833489  0.882126  1
  Al  Al11  1  0.500000  0.167141  0.119738  1
  Al  Al12  1  0.500000  0.666712  0.381331  1
  Al  Al13  1  0.500000  0.333693  0.617449  1
  Sb  Sb14  1  0.500000  0.770380  0.498011  1
  Sb  Sb15  1  0.000000  0.454109  0.367222  1
  Sb  Sb16  1  0.000000  0.953759  0.133082  1
  Sb  Sb17  1  0.500000  0.534676  0.812981  1
  Sb  Sb18  1  0.500000  0.468982  0.187385  1
  Sb  Sb19  1  0.000000  0.044262  0.867288  1
  Sb  Sb20  1  0.000000  0.546297  0.632234  1
  Sb  Sb21  1  0.500000  0.968294  0.313065  1
  Sb  Sb22  1  0.500000  0.229002  0.500922  1
  Sb  Sb23  1  0.500000  0.032050  0.685872  1
  Sb  Sb24  1  0.500000  0.270735  0.003233  1
  Sb  Sb25  1  0.500000  0.729750  0.999364  1
