# generated using pymatgen
data_Ca3Nd5(Sc3Sn4)4
_symmetry_space_group_name_H-M   'P 1'
_cell_length_a   7.88303506
_cell_length_b   8.09204833
_cell_length_c   15.11513300
_cell_angle_alpha   90.00865238
_cell_angle_beta   90.00733365
_cell_angle_gamma   89.92886105
_symmetry_Int_Tables_number   1
_chemical_formula_structural   Ca3Nd5(Sc3Sn4)4
_chemical_formula_sum   'Ca3 Nd5 Sc12 Sn16'
_cell_volume   964.19207145
_cell_formula_units_Z   1
loop_
 _symmetry_equiv_pos_site_id
 _symmetry_equiv_pos_as_xyz
  1  'x, y, z'
loop_
 _atom_site_type_symbol
 _atom_site_label
 _atom_site_symmetry_multiplicity
 _atom_site_fract_x
 _atom_site_fract_y
 _atom_site_fract_z
 _atom_site_occupancy
  Ca  Ca0  1  0.994563  0.173468  0.405543  1
  Ca  Ca1  1  0.494643  0.326699  0.405383  1
  Ca  Ca2  1  0.505661  0.673331  0.905713  1
  Nd  Nd3  1  0.503985  0.673852  0.594855  1
  Nd  Nd4  1  0.004380  0.826607  0.595637  1
  Nd  Nd5  1  0.003000  0.826186  0.904261  1
  Nd  Nd6  1  0.496645  0.324812  0.094105  1
  Nd  Nd7  1  0.997177  0.173942  0.094174  1
  Sc  Sc8  1  0.335084  0.161810  0.627255  1
  Sc  Sc9  1  0.664883  0.839269  0.372141  1
  Sc  Sc10  1  0.667682  0.003981  0.750027  1
  Sc  Sc11  1  0.165456  0.659995  0.372070  1
  Sc  Sc12  1  0.834955  0.338743  0.872393  1
  Sc  Sc13  1  0.834516  0.339137  0.627610  1
  Sc  Sc14  1  0.832058  0.503722  0.249918  1
  Sc  Sc15  1  0.331676  0.997520  0.249635  1
  Sc  Sc16  1  0.335755  0.161152  0.872230  1
  Sc  Sc17  1  0.164523  0.660185  0.127261  1
  Sc  Sc18  1  0.664421  0.839097  0.126969  1
  Sc  Sc19  1  0.168675  0.496606  0.750454  1
  Sn  Sn20  1  0.309481  0.855147  0.750505  1
  Sn  Sn21  1  0.470609  0.631584  0.248611  1
  Sn  Sn22  1  0.029165  0.130774  0.749280  1
  Sn  Sn23  1  0.529277  0.368160  0.748829  1
  Sn  Sn24  1  0.170468  0.458872  0.545037  1
  Sn  Sn25  1  0.970578  0.869511  0.249096  1
  Sn  Sn26  1  0.690289  0.143878  0.249497  1
  Sn  Sn27  1  0.828351  0.543394  0.043413  1
  Sn  Sn28  1  0.326666  0.956068  0.043812  1
  Sn  Sn29  1  0.172260  0.455332  0.956978  1
  Sn  Sn30  1  0.671022  0.041430  0.544823  1
  Sn  Sn31  1  0.329563  0.953603  0.457903  1
  Sn  Sn32  1  0.829487  0.545699  0.457841  1
  Sn  Sn33  1  0.809286  0.643698  0.749990  1
  Sn  Sn34  1  0.190236  0.355988  0.249767  1
  Sn  Sn35  1  0.673527  0.046749  0.956984  1
