# generated using pymatgen
data_Pr4Nd4ReTc3C8
_symmetry_space_group_name_H-M   'P 1'
_cell_length_a   5.37810500
_cell_length_b   6.73476696
_cell_length_c   10.23577206
_cell_angle_alpha   90.03662392
_cell_angle_beta   90.00000000
_cell_angle_gamma   90.00000000
_symmetry_Int_Tables_number   1
_chemical_formula_structural   Pr4Nd4ReTc3C8
_chemical_formula_sum   'Pr4 Nd4 Re1 Tc3 C8'
_cell_volume   370.74249363
_cell_formula_units_Z   1
loop_
 _symmetry_equiv_pos_site_id
 _symmetry_equiv_pos_as_xyz
  1  'x, y, z'
loop_
 _atom_site_type_symbol
 _atom_site_label
 _atom_site_symmetry_multiplicity
 _atom_site_fract_x
 _atom_site_fract_y
 _atom_site_fract_z
 _atom_site_occupancy
  Pr  Pr0  1  0.250000  0.473425  0.785911  1
  Pr  Pr1  1  0.750000  0.025732  0.286613  1
  Pr  Pr2  1  0.250000  0.974173  0.712777  1
  Pr  Pr3  1  0.750000  0.525218  0.213270  1
  Nd  Nd4  1  0.250000  0.813548  0.051996  1
  Nd  Nd5  1  0.750000  0.685608  0.551728  1
  Nd  Nd6  1  0.250000  0.313900  0.447579  1
  Nd  Nd7  1  0.750000  0.187302  0.947470  1
  Re  Re8  1  0.750000  0.729297  0.858012  1
  Tc  Tc9  1  0.250000  0.270642  0.142154  1
  Tc  Tc10  1  0.750000  0.229534  0.642249  1
  Tc  Tc11  1  0.250000  0.770838  0.357615  1
  C  C12  1  0.250000  0.686566  0.535844  1
  C  C13  1  0.750000  0.813411  0.037123  1
  C  C14  1  0.250000  0.186392  0.964141  1
  C  C15  1  0.750000  0.313632  0.464083  1
  C  C16  1  0.250000  0.034889  0.257194  1
  C  C17  1  0.750000  0.466326  0.758448  1
  C  C18  1  0.250000  0.535299  0.242561  1
  C  C19  1  0.750000  0.964268  0.743231  1
