# generated using pymatgen
data_MnPtI6
_symmetry_space_group_name_H-M   'P 1'
_cell_length_a   7.04414016
_cell_length_b   7.04414021
_cell_length_c   7.34760860
_cell_angle_alpha   98.60931206
_cell_angle_beta   98.60931023
_cell_angle_gamma   119.94763105
_symmetry_Int_Tables_number   1
_chemical_formula_structural   MnPtI6
_chemical_formula_sum   'Mn1 Pt1 I6'
_cell_volume   301.44146893
_cell_formula_units_Z   1
loop_
 _symmetry_equiv_pos_site_id
 _symmetry_equiv_pos_as_xyz
  1  'x, y, z'
loop_
 _atom_site_type_symbol
 _atom_site_label
 _atom_site_symmetry_multiplicity
 _atom_site_fract_x
 _atom_site_fract_y
 _atom_site_fract_z
 _atom_site_occupancy
  Mn  Mn0  1  0.832955  0.167045  0.000000  1
  Pt  Pt1  1  0.166513  0.833487  0.000000  1
  I  I2  1  0.934539  0.586012  0.226707  1
  I  I3  1  0.555255  0.918690  0.227185  1
  I  I4  1  0.221873  0.206434  0.228279  1
  I  I5  1  0.793566  0.778127  0.771721  1
  I  I6  1  0.413988  0.065461  0.773293  1
  I  I7  1  0.081310  0.444745  0.772815  1
