# generated using pymatgen
data_DyLu3AlIr
_symmetry_space_group_name_H-M   'P 1'
_cell_length_a   9.39740075
_cell_length_b   9.38862354
_cell_length_c   9.38862311
_cell_angle_alpha   60.06186133
_cell_angle_beta   59.96907170
_cell_angle_gamma   59.96907581
_symmetry_Int_Tables_number   1
_chemical_formula_structural   DyLu3AlIr
_chemical_formula_sum   'Dy4 Lu12 Al4 Ir4'
_cell_volume   585.72781736
_cell_formula_units_Z   4
loop_
 _symmetry_equiv_pos_site_id
 _symmetry_equiv_pos_as_xyz
  1  'x, y, z'
loop_
 _atom_site_type_symbol
 _atom_site_label
 _atom_site_symmetry_multiplicity
 _atom_site_fract_x
 _atom_site_fract_y
 _atom_site_fract_z
 _atom_site_occupancy
  Dy  Dy0  1  0.811981  0.188019  0.811981  1
  Dy  Dy1  1  0.188019  0.811981  0.188019  1
  Dy  Dy2  1  0.811981  0.811981  0.188019  1
  Dy  Dy3  1  0.188019  0.188019  0.811981  1
  Lu  Lu4  1  0.602360  0.602076  0.602076  1
  Lu  Lu5  1  0.602076  0.602360  0.193490  1
  Lu  Lu6  1  0.602076  0.193490  0.602360  1
  Lu  Lu7  1  0.193490  0.602076  0.602076  1
  Lu  Lu8  1  0.055426  0.444574  0.444574  1
  Lu  Lu9  1  0.444574  0.055426  0.055426  1
  Lu  Lu10  1  0.444882  0.055118  0.444882  1
  Lu  Lu11  1  0.055118  0.444882  0.055118  1
  Lu  Lu12  1  0.444882  0.444882  0.055118  1
  Lu  Lu13  1  0.055118  0.055118  0.444882  1
  Lu  Lu14  1  0.190474  0.809526  0.809526  1
  Lu  Lu15  1  0.809526  0.190474  0.190474  1
  Al  Al16  1  0.828479  0.827728  0.827728  1
  Al  Al17  1  0.827728  0.828479  0.516063  1
  Al  Al18  1  0.827728  0.516063  0.828479  1
  Al  Al19  1  0.516063  0.827728  0.827728  1
  Ir  Ir20  1  0.392202  0.390665  0.390665  1
  Ir  Ir21  1  0.390665  0.392202  0.826468  1
  Ir  Ir22  1  0.390665  0.826468  0.392202  1
  Ir  Ir23  1  0.826468  0.390665  0.390665  1
