# generated using pymatgen
data_NaFe3I8
_symmetry_space_group_name_H-M   'P 1'
_cell_length_a   7.40559791
_cell_length_b   8.40305634
_cell_length_c   12.55361481
_cell_angle_alpha   92.38562775
_cell_angle_beta   80.83029847
_cell_angle_gamma   67.69199421
_symmetry_Int_Tables_number   1
_chemical_formula_structural   NaFe3I8
_chemical_formula_sum   'Na1 Fe3 I8'
_cell_volume   709.02933148
_cell_formula_units_Z   1
loop_
 _symmetry_equiv_pos_site_id
 _symmetry_equiv_pos_as_xyz
  1  'x, y, z'
loop_
 _atom_site_type_symbol
 _atom_site_label
 _atom_site_symmetry_multiplicity
 _atom_site_fract_x
 _atom_site_fract_y
 _atom_site_fract_z
 _atom_site_occupancy
  Na  Na0  1  0.378956  0.444149  0.378164  1
  Fe  Fe1  1  0.707991  0.481019  0.858073  1
  Fe  Fe2  1  0.742228  0.479217  0.626116  1
  Fe  Fe3  1  0.540533  0.494797  0.088724  1
  I  I4  1  0.729810  0.217453  0.731801  1
  I  I5  1  0.843872  0.682025  0.747200  1
  I  I6  1  0.402936  0.656100  0.582975  1
  I  I7  1  0.334708  0.648699  0.943215  1
  I  I8  1  0.922110  0.375305  0.006585  1
  I  I9  1  0.009433  0.340781  0.453750  1
  I  I10  1  0.459071  0.238608  0.150674  1
  I  I11  1  0.459374  0.729753  0.245266  1
