# generated using pymatgen
data_Yb6YLu(Si4Mo3)4
_symmetry_space_group_name_H-M   'P 1'
_cell_length_a   6.72726206
_cell_length_b   6.93031470
_cell_length_c   13.02193583
_cell_angle_alpha   89.83796339
_cell_angle_beta   90.00293192
_cell_angle_gamma   89.97273540
_symmetry_Int_Tables_number   1
_chemical_formula_structural   Yb6YLu(Si4Mo3)4
_chemical_formula_sum   'Yb6 Y1 Lu1 Si16 Mo12'
_cell_volume   607.10675673
_cell_formula_units_Z   1
loop_
 _symmetry_equiv_pos_site_id
 _symmetry_equiv_pos_as_xyz
  1  'x, y, z'
loop_
 _atom_site_type_symbol
 _atom_site_label
 _atom_site_symmetry_multiplicity
 _atom_site_fract_x
 _atom_site_fract_y
 _atom_site_fract_z
 _atom_site_occupancy
  Yb  Yb0  1  0.498324  0.334408  0.090540  1
  Yb  Yb1  1  0.998288  0.165488  0.409497  1
  Yb  Yb2  1  0.501184  0.668097  0.592843  1
  Yb  Yb3  1  0.000868  0.831438  0.907851  1
  Yb  Yb4  1  0.500959  0.667213  0.908977  1
  Yb  Yb5  1  0.001408  0.833071  0.591602  1
  Y  Y6  1  0.499943  0.331589  0.406795  1
  Lu  Lu7  1  0.998625  0.169470  0.093286  1
  Si  Si8  1  0.658526  0.041609  0.545540  1
  Si  Si9  1  0.158495  0.457081  0.955393  1
  Si  Si10  1  0.339248  0.958482  0.045687  1
  Si  Si11  1  0.841866  0.543853  0.454430  1
  Si  Si12  1  0.341149  0.955473  0.454756  1
  Si  Si13  1  0.841557  0.541902  0.045273  1
  Si  Si14  1  0.660197  0.041893  0.955210  1
  Si  Si15  1  0.159217  0.458232  0.545616  1
  Si  Si16  1  0.535250  0.372829  0.750951  1
  Si  Si17  1  0.035075  0.126737  0.749605  1
  Si  Si18  1  0.464603  0.631933  0.248705  1
  Si  Si19  1  0.965193  0.869972  0.249966  1
  Si  Si20  1  0.800904  0.629630  0.750199  1
  Si  Si21  1  0.300669  0.869844  0.750439  1
  Si  Si22  1  0.196768  0.368738  0.249047  1
  Si  Si23  1  0.699106  0.130584  0.248882  1
  Mo  Mo24  1  0.833675  0.331603  0.627247  1
  Mo  Mo25  1  0.333550  0.168292  0.873338  1
  Mo  Mo26  1  0.165813  0.667411  0.126355  1
  Mo  Mo27  1  0.665984  0.833414  0.372775  1
  Mo  Mo28  1  0.167562  0.666265  0.372268  1
  Mo  Mo29  1  0.668699  0.834430  0.126605  1
  Mo  Mo30  1  0.836236  0.329541  0.873797  1
  Mo  Mo31  1  0.335716  0.169289  0.627083  1
  Mo  Mo32  1  0.661331  0.008896  0.750322  1
  Mo  Mo33  1  0.161373  0.490610  0.750343  1
  Mo  Mo34  1  0.335915  0.995593  0.249655  1
  Mo  Mo35  1  0.836722  0.505086  0.249120  1
