# generated using pymatgen
data_Tm4Lu8TlFe3Pd
_symmetry_space_group_name_H-M   'P 1'
_cell_length_a   8.08965515
_cell_length_b   8.08965506
_cell_length_c   8.08965463
_cell_angle_alpha   110.67834749
_cell_angle_beta   106.99568644
_cell_angle_gamma   110.76764352
_symmetry_Int_Tables_number   1
_chemical_formula_structural   Tm4Lu8TlFe3Pd
_chemical_formula_sum   'Tm4 Lu8 Tl1 Fe3 Pd1'
_cell_volume   406.97024089
_cell_formula_units_Z   1
loop_
 _symmetry_equiv_pos_site_id
 _symmetry_equiv_pos_as_xyz
  1  'x, y, z'
loop_
 _atom_site_type_symbol
 _atom_site_label
 _atom_site_symmetry_multiplicity
 _atom_site_fract_x
 _atom_site_fract_y
 _atom_site_fract_z
 _atom_site_occupancy
  Tm  Tm0  1  0.308489  0.309029  0.617519  1
  Tm  Tm1  1  0.691511  0.690971  0.382481  1
  Tm  Tm2  1  0.691511  0.309029  0.000540  1
  Tm  Tm3  1  0.308489  0.690971  0.999460  1
  Lu  Lu4  1  0.189337  0.450692  0.261354  1
  Lu  Lu5  1  0.810663  0.549308  0.738646  1
  Lu  Lu6  1  0.189337  0.927982  0.738646  1
  Lu  Lu7  1  0.965334  0.188698  0.776637  1
  Lu  Lu8  1  0.810663  0.072018  0.261354  1
  Lu  Lu9  1  0.034666  0.811302  0.223363  1
  Lu  Lu10  1  0.412060  0.188698  0.223363  1
  Lu  Lu11  1  0.587940  0.811302  0.776637  1
  Tl  Tl12  1  0.500000  0.000000  0.500000  1
  Fe  Fe13  1  0.381015  0.381015  0.000000  1
  Fe  Fe14  1  0.618985  0.618985  0.000000  1
  Fe  Fe15  1  0.000000  0.000000  0.000000  1
  Pd  Pd16  1  0.000000  0.500000  0.500000  1
