# generated using pymatgen
data_HoV5FeCo6
_symmetry_space_group_name_H-M   'P 1'
_cell_length_a   6.31850664
_cell_length_b   6.31850757
_cell_length_c   6.31850666
_cell_angle_alpha   135.21452020
_cell_angle_beta   100.34726002
_cell_angle_gamma   96.35204302
_symmetry_Int_Tables_number   1
_chemical_formula_structural   HoV5FeCo6
_chemical_formula_sum   'Ho1 V5 Fe1 Co6'
_cell_volume   164.16998276
_cell_formula_units_Z   1
loop_
 _symmetry_equiv_pos_site_id
 _symmetry_equiv_pos_as_xyz
  1  'x, y, z'
loop_
 _atom_site_type_symbol
 _atom_site_label
 _atom_site_symmetry_multiplicity
 _atom_site_fract_x
 _atom_site_fract_y
 _atom_site_fract_z
 _atom_site_occupancy
  Ho  Ho0  1  0.005357  0.005357  0.000000  1
  V  V1  1  0.624918  0.624918  0.000000  1
  V  V2  1  0.641920  0.998351  0.643568  1
  V  V3  1  0.354783  0.998351  0.356432  1
  V  V4  1  0.789009  0.289009  0.500000  1
  V  V5  1  0.217466  0.717466  0.500000  1
  Fe  Fe6  1  0.361978  0.361978  0.000000  1
  Co  Co7  1  0.502224  0.003213  0.003225  1
  Co  Co8  1  0.502224  0.498999  0.499011  1
  Co  Co9  1  0.999988  0.003213  0.500989  1
  Co  Co10  1  0.999988  0.498999  0.996775  1
  Co  Co11  1  0.219339  0.500072  0.719266  1
  Co  Co12  1  0.780806  0.500072  0.280734  1
