# generated using pymatgen
data_Dy2Tm10Os3Ru
_symmetry_space_group_name_H-M   'P 1'
_cell_length_a   7.35227024
_cell_length_b   8.94447300
_cell_length_c   6.25116104
_cell_angle_alpha   90.00000000
_cell_angle_beta   89.92600059
_cell_angle_gamma   90.00000000
_symmetry_Int_Tables_number   1
_chemical_formula_structural   Dy2Tm10Os3Ru
_chemical_formula_sum   'Dy2 Tm10 Os3 Ru1'
_cell_volume   411.08965125
_cell_formula_units_Z   1
loop_
 _symmetry_equiv_pos_site_id
 _symmetry_equiv_pos_as_xyz
  1  'x, y, z'
loop_
 _atom_site_type_symbol
 _atom_site_label
 _atom_site_symmetry_multiplicity
 _atom_site_fract_x
 _atom_site_fract_y
 _atom_site_fract_z
 _atom_site_occupancy
  Dy  Dy0  1  0.040914  0.250000  0.629072  1
  Dy  Dy1  1  0.539705  0.250000  0.868991  1
  Tm  Tm2  1  0.960066  0.750000  0.369910  1
  Tm  Tm3  1  0.460293  0.750000  0.130406  1
  Tm  Tm4  1  0.174002  0.061709  0.165827  1
  Tm  Tm5  1  0.825295  0.936717  0.832837  1
  Tm  Tm6  1  0.324842  0.935501  0.668040  1
  Tm  Tm7  1  0.825295  0.563283  0.832837  1
  Tm  Tm8  1  0.674916  0.062188  0.333623  1
  Tm  Tm9  1  0.174002  0.438291  0.165827  1
  Tm  Tm10  1  0.674916  0.437812  0.333623  1
  Tm  Tm11  1  0.324842  0.564499  0.668040  1
  Os  Os12  1  0.617070  0.750000  0.538357  1
  Os  Os13  1  0.117445  0.750000  0.961566  1
  Os  Os14  1  0.883030  0.250000  0.041077  1
  Ru  Ru15  1  0.383368  0.250000  0.459967  1
