# generated using pymatgen
data_LiBH6
_symmetry_space_group_name_H-M   'P 1'
_cell_length_a   8.31721827
_cell_length_b   4.88468700
_cell_length_c   8.08122183
_cell_angle_alpha   89.99902307
_cell_angle_beta   100.71842659
_cell_angle_gamma   90.00045676
_symmetry_Int_Tables_number   1
_chemical_formula_structural   LiBH6
_chemical_formula_sum   'Li4 B4 H24'
_cell_volume   322.58774785
_cell_formula_units_Z   4
loop_
 _symmetry_equiv_pos_site_id
 _symmetry_equiv_pos_as_xyz
  1  'x, y, z'
loop_
 _atom_site_type_symbol
 _atom_site_label
 _atom_site_symmetry_multiplicity
 _atom_site_fract_x
 _atom_site_fract_y
 _atom_site_fract_z
 _atom_site_occupancy
  Li  Li0  1  0.893945  0.920091  0.872122  1
  Li  Li1  1  0.909427  0.403499  0.593598  1
  Li  Li2  1  0.090534  0.903542  0.406359  1
  Li  Li3  1  0.106099  0.420114  0.127810  1
  B  B4  1  0.156706  0.928434  0.083677  1
  B  B5  1  0.145428  0.400130  0.454310  1
  B  B6  1  0.854551  0.900114  0.545698  1
  B  B7  1  0.843325  0.428444  0.916334  1
  H  H8  1  0.877472  0.466140  0.068506  1
  H  H9  1  0.636648  0.024686  0.127270  1
  H  H10  1  0.030500  0.915112  0.144460  1
  H  H11  1  0.240324  0.722332  0.110954  1
  H  H12  1  0.571966  0.921145  0.095037  1
  H  H13  1  0.246214  0.113189  0.148405  1
  H  H14  1  0.219461  0.581829  0.395516  1
  H  H15  1  0.008289  0.368978  0.366392  1
  H  H16  1  0.568266  0.463836  0.331673  1
  H  H17  1  0.862726  0.956799  0.400386  1
  H  H18  1  0.519102  0.366486  0.373855  1
  H  H19  1  0.231590  0.198111  0.455048  1
  H  H20  1  0.768376  0.698096  0.544930  1
  H  H21  1  0.480870  0.866432  0.626138  1
  H  H22  1  0.137244  0.456710  0.599636  1
  H  H23  1  0.431724  0.963864  0.668282  1
  H  H24  1  0.991695  0.868913  0.633604  1
  H  H25  1  0.780531  0.081779  0.604549  1
  H  H26  1  0.753811  0.613215  0.851653  1
  H  H27  1  0.428016  0.421062  0.904978  1
  H  H28  1  0.759713  0.222326  0.889028  1
  H  H29  1  0.969523  0.415171  0.855522  1
  H  H30  1  0.363349  0.524625  0.872744  1
  H  H31  1  0.122578  0.966216  0.931513  1
