# generated using pymatgen
data_Li6Ac2UN6
_symmetry_space_group_name_H-M   'P 1'
_cell_length_a   6.53260500
_cell_length_b   6.53260585
_cell_length_c   5.50416200
_cell_angle_alpha   90.00000000
_cell_angle_beta   90.00000000
_cell_angle_gamma   120.00001088
_symmetry_Int_Tables_number   1
_chemical_formula_structural   Li6Ac2UN6
_chemical_formula_sum   'Li6 Ac2 U1 N6'
_cell_volume   203.42046667
_cell_formula_units_Z   1
loop_
 _symmetry_equiv_pos_site_id
 _symmetry_equiv_pos_as_xyz
  1  'x, y, z'
loop_
 _atom_site_type_symbol
 _atom_site_label
 _atom_site_symmetry_multiplicity
 _atom_site_fract_x
 _atom_site_fract_y
 _atom_site_fract_z
 _atom_site_occupancy
  Li  Li0  1  0.909240  0.573629  0.586497  1
  Li  Li1  1  0.426371  0.335612  0.586497  1
  Li  Li2  1  0.664388  0.090760  0.586497  1
  Li  Li3  1  0.030658  0.328579  0.405143  1
  Li  Li4  1  0.671421  0.702079  0.405143  1
  Li  Li5  1  0.297921  0.969342  0.405143  1
  Ac  Ac6  1  0.000000  0.000000  0.969033  1
  Ac  Ac7  1  0.333333  0.666667  0.974590  1
  U  U8  1  0.666667  0.333333  0.027900  1
  N  N9  1  0.963547  0.631202  0.235327  1
  N  N10  1  0.368798  0.332346  0.235327  1
  N  N11  1  0.667654  0.036453  0.235327  1
  N  N12  1  0.940893  0.332697  0.782526  1
  N  N13  1  0.667303  0.608196  0.782526  1
  N  N14  1  0.391804  0.059107  0.782526  1
