# generated using pymatgen
data_Tm5In2(IrPb)2
_symmetry_space_group_name_H-M   'P 1'
_cell_length_a   3.55104700
_cell_length_b   8.23999900
_cell_length_c   18.32368600
_cell_angle_alpha   90.00000000
_cell_angle_beta   90.00000000
_cell_angle_gamma   90.00000000
_symmetry_Int_Tables_number   1
_chemical_formula_structural   Tm5In2(IrPb)2
_chemical_formula_sum   'Tm10 In4 Ir4 Pb4'
_cell_volume   536.16248137
_cell_formula_units_Z   2
loop_
 _symmetry_equiv_pos_site_id
 _symmetry_equiv_pos_as_xyz
  1  'x, y, z'
loop_
 _atom_site_type_symbol
 _atom_site_label
 _atom_site_symmetry_multiplicity
 _atom_site_fract_x
 _atom_site_fract_y
 _atom_site_fract_z
 _atom_site_occupancy
  Tm  Tm0  1  0.000000  0.500000  0.500000  1
  Tm  Tm1  1  0.000000  0.000000  0.000000  1
  Tm  Tm2  1  0.000000  0.751481  0.278522  1
  Tm  Tm3  1  0.000000  0.248519  0.721478  1
  Tm  Tm4  1  0.000000  0.748519  0.778522  1
  Tm  Tm5  1  0.000000  0.251481  0.221478  1
  Tm  Tm6  1  0.000000  0.622964  0.089571  1
  Tm  Tm7  1  0.000000  0.377036  0.910429  1
  Tm  Tm8  1  0.000000  0.877036  0.589571  1
  Tm  Tm9  1  0.000000  0.122964  0.410429  1
  In  In10  1  0.500000  0.573950  0.650904  1
  In  In11  1  0.500000  0.426050  0.349096  1
  In  In12  1  0.500000  0.926050  0.150904  1
  In  In13  1  0.500000  0.073950  0.849096  1
  Ir  Ir14  1  0.500000  0.534435  0.198571  1
  Ir  Ir15  1  0.500000  0.465565  0.801429  1
  Ir  Ir16  1  0.500000  0.965565  0.698571  1
  Ir  Ir17  1  0.500000  0.034435  0.301429  1
  Pb  Pb18  1  0.500000  0.703676  0.934250  1
  Pb  Pb19  1  0.500000  0.296324  0.065750  1
  Pb  Pb20  1  0.500000  0.796324  0.434250  1
  Pb  Pb21  1  0.500000  0.203676  0.565750  1
