# generated using pymatgen
data_Pr2Hg2Ir3RhO14
_symmetry_space_group_name_H-M   'P 1'
_cell_length_a   7.55412308
_cell_length_b   7.35139948
_cell_length_c   7.36156154
_cell_angle_alpha   58.98314347
_cell_angle_beta   59.11112557
_cell_angle_gamma   59.06902836
_symmetry_Int_Tables_number   1
_chemical_formula_structural   Pr2Hg2Ir3RhO14
_chemical_formula_sum   'Pr2 Hg2 Ir3 Rh1 O14'
_cell_volume   282.84023843
_cell_formula_units_Z   1
loop_
 _symmetry_equiv_pos_site_id
 _symmetry_equiv_pos_as_xyz
  1  'x, y, z'
loop_
 _atom_site_type_symbol
 _atom_site_label
 _atom_site_symmetry_multiplicity
 _atom_site_fract_x
 _atom_site_fract_y
 _atom_site_fract_z
 _atom_site_occupancy
  Pr  Pr0  1  0.125000  0.125000  0.125000  1
  Pr  Pr1  1  0.625000  0.125000  0.125000  1
  Hg  Hg2  1  0.125000  0.125000  0.625000  1
  Hg  Hg3  1  0.125000  0.625000  0.125000  1
  Ir  Ir4  1  0.625000  0.625000  0.625000  1
  Ir  Ir5  1  0.125000  0.625000  0.625000  1
  Ir  Ir6  1  0.625000  0.625000  0.125000  1
  Rh  Rh7  1  0.625000  0.125000  0.625000  1
  O  O8  1  0.943524  0.560327  0.552606  1
  O  O9  1  0.298232  0.301211  0.705625  1
  O  O10  1  0.945566  0.549797  0.949949  1
  O  O11  1  0.711659  0.290681  0.286004  1
  O  O12  1  0.554752  0.549725  0.949837  1
  O  O13  1  0.555156  0.948628  0.544372  1
  O  O14  1  0.538341  0.959319  0.963996  1
  O  O15  1  0.238372  0.261361  0.261909  1
  O  O16  1  0.306476  0.689673  0.697394  1
  O  O17  1  0.694844  0.301372  0.705628  1
  O  O18  1  0.011628  0.988639  0.988091  1
  O  O19  1  0.951768  0.948789  0.544375  1
  O  O20  1  0.304434  0.700203  0.300051  1
  O  O21  1  0.695248  0.700275  0.300163  1
