# generated using pymatgen
data_Ti8PdPt3O2
_symmetry_space_group_name_H-M   'P 1'
_cell_length_a   8.30766801
_cell_length_b   8.30761638
_cell_length_c   8.32594900
_cell_angle_alpha   59.92751694
_cell_angle_beta   59.92761312
_cell_angle_gamma   59.82212556
_symmetry_Int_Tables_number   1
_chemical_formula_structural   Ti8PdPt3O2
_chemical_formula_sum   'Ti16 Pd2 Pt6 O4'
_cell_volume   405.33304954
_cell_formula_units_Z   2
loop_
 _symmetry_equiv_pos_site_id
 _symmetry_equiv_pos_as_xyz
  1  'x, y, z'
loop_
 _atom_site_type_symbol
 _atom_site_label
 _atom_site_symmetry_multiplicity
 _atom_site_fract_x
 _atom_site_fract_y
 _atom_site_fract_z
 _atom_site_occupancy
  Ti  Ti0  1  0.127076  0.625970  0.623477  1
  Ti  Ti1  1  0.625970  0.127078  0.623474  1
  Ti  Ti2  1  0.625151  0.625150  0.124845  1
  Ti  Ti3  1  0.625151  0.625154  0.624847  1
  Ti  Ti4  1  0.820501  0.820497  0.179500  1
  Ti  Ti5  1  0.182528  0.182524  0.817471  1
  Ti  Ti6  1  0.819064  0.179735  0.818544  1
  Ti  Ti7  1  0.179740  0.819058  0.182657  1
  Ti  Ti8  1  0.179736  0.819062  0.818546  1
  Ti  Ti9  1  0.819058  0.179740  0.182659  1
  Ti  Ti10  1  0.433230  0.433235  0.066769  1
  Ti  Ti11  1  0.069255  0.069254  0.430749  1
  Ti  Ti12  1  0.431100  0.068807  0.431860  1
  Ti  Ti13  1  0.068805  0.431107  0.068234  1
  Ti  Ti14  1  0.068810  0.431099  0.431856  1
  Ti  Ti15  1  0.431101  0.068807  0.068235  1
  Pd  Pd16  1  0.837668  0.837669  0.486819  1
  Pd  Pd17  1  0.837667  0.837667  0.837844  1
  Pt  Pt18  1  0.777324  0.408672  0.407000  1
  Pt  Pt19  1  0.408673  0.777324  0.407000  1
  Pt  Pt20  1  0.407996  0.407996  0.776312  1
  Pt  Pt21  1  0.407997  0.407996  0.407696  1
  Pt  Pt22  1  0.474623  0.843407  0.840986  1
  Pt  Pt23  1  0.843407  0.474622  0.840986  1
  O  O24  1  0.626391  0.124063  0.124777  1
  O  O25  1  0.124060  0.626394  0.124773  1
  O  O26  1  0.123961  0.123958  0.626453  1
  O  O27  1  0.123957  0.123957  0.125630  1
