# generated using pymatgen
data_Ac2FeMoO6
_symmetry_space_group_name_H-M   'P 1'
_cell_length_a   5.86375600
_cell_length_b   5.78481697
_cell_length_c   10.02223024
_cell_angle_alpha   54.96863519
_cell_angle_beta   90.00000000
_cell_angle_gamma   90.00000000
_symmetry_Int_Tables_number   1
_chemical_formula_structural   Ac2FeMoO6
_chemical_formula_sum   'Ac4 Fe2 Mo2 O12'
_cell_volume   278.37346984
_cell_formula_units_Z   2
loop_
 _symmetry_equiv_pos_site_id
 _symmetry_equiv_pos_as_xyz
  1  'x, y, z'
loop_
 _atom_site_type_symbol
 _atom_site_label
 _atom_site_symmetry_multiplicity
 _atom_site_fract_x
 _atom_site_fract_y
 _atom_site_fract_z
 _atom_site_occupancy
  Ac  Ac0  1  0.959511  0.258233  0.249787  1
  Ac  Ac1  1  0.459511  0.741767  0.250213  1
  Ac  Ac2  1  0.040489  0.741767  0.750213  1
  Ac  Ac3  1  0.540489  0.258233  0.749787  1
  Fe  Fe4  1  0.000000  0.500000  0.500000  1
  Fe  Fe5  1  0.500000  0.500000  0.000000  1
  Mo  Mo6  1  0.000000  0.000000  0.000000  1
  Mo  Mo7  1  0.500000  0.000000  0.500000  1
  O  O8  1  0.716939  0.340455  0.457077  1
  O  O9  1  0.216939  0.659545  0.042923  1
  O  O10  1  0.283061  0.659545  0.542923  1
  O  O11  1  0.783061  0.340455  0.957077  1
  O  O12  1  0.796549  0.741698  0.541034  1
  O  O13  1  0.296549  0.258302  0.958966  1
  O  O14  1  0.203451  0.258302  0.458966  1
  O  O15  1  0.703451  0.741698  0.041034  1
  O  O16  1  0.521072  0.179746  0.242288  1
  O  O17  1  0.021072  0.820254  0.257712  1
  O  O18  1  0.978928  0.179746  0.742288  1
  O  O19  1  0.478928  0.820254  0.757712  1
