# generated using pymatgen
data_Tb8In2OsPd
_symmetry_space_group_name_H-M   'P 1'
_cell_length_a   9.74421620
_cell_length_b   9.74421527
_cell_length_c   9.78112200
_cell_angle_alpha   59.87462948
_cell_angle_beta   59.87463266
_cell_angle_gamma   59.73898993
_symmetry_Int_Tables_number   1
_chemical_formula_structural   Tb8In2OsPd
_chemical_formula_sum   'Tb16 In4 Os2 Pd2'
_cell_volume   654.15569109
_cell_formula_units_Z   2
loop_
 _symmetry_equiv_pos_site_id
 _symmetry_equiv_pos_as_xyz
  1  'x, y, z'
loop_
 _atom_site_type_symbol
 _atom_site_label
 _atom_site_symmetry_multiplicity
 _atom_site_fract_x
 _atom_site_fract_y
 _atom_site_fract_z
 _atom_site_occupancy
  Tb  Tb0  1  0.349273  0.349273  0.355466  1
  Tb  Tb1  1  0.349273  0.349273  0.945989  1
  Tb  Tb2  1  0.345917  0.952980  0.350552  1
  Tb  Tb3  1  0.952980  0.345917  0.350552  1
  Tb  Tb4  1  0.816041  0.187761  0.191459  1
  Tb  Tb5  1  0.187761  0.816041  0.804740  1
  Tb  Tb6  1  0.187761  0.816041  0.191459  1
  Tb  Tb7  1  0.816041  0.187761  0.804740  1
  Tb  Tb8  1  0.189077  0.189077  0.810923  1
  Tb  Tb9  1  0.808475  0.808475  0.191525  1
  Tb  Tb10  1  0.937961  0.555490  0.566661  1
  Tb  Tb11  1  0.555490  0.937961  0.939890  1
  Tb  Tb12  1  0.555490  0.937961  0.566661  1
  Tb  Tb13  1  0.937961  0.555490  0.939890  1
  Tb  Tb14  1  0.563238  0.563238  0.936762  1
  Tb  Tb15  1  0.941097  0.941097  0.558903  1
  In  In16  1  0.582113  0.582113  0.582862  1
  In  In17  1  0.582113  0.582113  0.252910  1
  In  In18  1  0.582626  0.251717  0.582828  1
  In  In19  1  0.251717  0.582626  0.582828  1
  Os  Os20  1  0.144519  0.144519  0.137985  1
  Os  Os21  1  0.144519  0.144519  0.572977  1
  Pd  Pd22  1  0.145680  0.572879  0.140721  1
  Pd  Pd23  1  0.572879  0.145680  0.140721  1
