# generated using pymatgen
data_Er5IrOsPt
_symmetry_space_group_name_H-M   'P 1'
_cell_length_a   10.81538200
_cell_length_b   10.81538200
_cell_length_c   6.39847400
_cell_angle_alpha   90.00000000
_cell_angle_beta   90.00000000
_cell_angle_gamma   90.00000000
_symmetry_Int_Tables_number   1
_chemical_formula_structural   Er5IrOsPt
_chemical_formula_sum   'Er20 Ir4 Os4 Pt4'
_cell_volume   748.44542194
_cell_formula_units_Z   4
loop_
 _symmetry_equiv_pos_site_id
 _symmetry_equiv_pos_as_xyz
  1  'x, y, z'
loop_
 _atom_site_type_symbol
 _atom_site_label
 _atom_site_symmetry_multiplicity
 _atom_site_fract_x
 _atom_site_fract_y
 _atom_site_fract_z
 _atom_site_occupancy
  Er  Er0  1  0.296669  0.087563  0.373449  1
  Er  Er1  1  0.296669  0.912437  0.873449  1
  Er  Er2  1  0.703331  0.087563  0.873449  1
  Er  Er3  1  0.703331  0.912437  0.373449  1
  Er  Er4  1  0.584054  0.793444  0.877004  1
  Er  Er5  1  0.584054  0.206556  0.377004  1
  Er  Er6  1  0.415946  0.793444  0.377004  1
  Er  Er7  1  0.415946  0.206556  0.877004  1
  Er  Er8  1  0.206556  0.415946  0.622996  1
  Er  Er9  1  0.206556  0.584054  0.122996  1
  Er  Er10  1  0.793444  0.415946  0.122996  1
  Er  Er11  1  0.793444  0.584054  0.622996  1
  Er  Er12  1  0.912437  0.703331  0.126551  1
  Er  Er13  1  0.912437  0.296669  0.626551  1
  Er  Er14  1  0.087563  0.703331  0.626551  1
  Er  Er15  1  0.087563  0.296669  0.126551  1
  Er  Er16  1  0.000000  0.000000  0.500000  1
  Er  Er17  1  0.000000  0.000000  0.000000  1
  Er  Er18  1  0.500000  0.500000  0.000000  1
  Er  Er19  1  0.500000  0.500000  0.500000  1
  Ir  Ir20  1  0.653167  0.346833  0.750000  1
  Ir  Ir21  1  0.653167  0.653167  0.250000  1
  Ir  Ir22  1  0.346833  0.346833  0.250000  1
  Ir  Ir23  1  0.346833  0.653167  0.750000  1
  Os  Os24  1  0.500000  0.000000  0.124425  1
  Os  Os25  1  0.500000  0.000000  0.624425  1
  Os  Os26  1  0.000000  0.500000  0.875575  1
  Os  Os27  1  0.000000  0.500000  0.375575  1
  Pt  Pt28  1  0.848094  0.151906  0.250000  1
  Pt  Pt29  1  0.848094  0.848094  0.750000  1
  Pt  Pt30  1  0.151906  0.151906  0.750000  1
  Pt  Pt31  1  0.151906  0.848094  0.250000  1
