# generated using pymatgen
data_Nd4Ga3NiBr2
_symmetry_space_group_name_H-M   'P 1'
_cell_length_a   4.23219400
_cell_length_b   4.23219442
_cell_length_c   16.34959600
_cell_angle_alpha   90.00000000
_cell_angle_beta   90.00000000
_cell_angle_gamma   119.99999674
_symmetry_Int_Tables_number   1
_chemical_formula_structural   Nd4Ga3NiBr2
_chemical_formula_sum   'Nd4 Ga3 Ni1 Br2'
_cell_volume   253.61144517
_cell_formula_units_Z   1
loop_
 _symmetry_equiv_pos_site_id
 _symmetry_equiv_pos_as_xyz
  1  'x, y, z'
loop_
 _atom_site_type_symbol
 _atom_site_label
 _atom_site_symmetry_multiplicity
 _atom_site_fract_x
 _atom_site_fract_y
 _atom_site_fract_z
 _atom_site_occupancy
  Nd  Nd0  1  0.000000  0.000000  0.608112  1
  Nd  Nd1  1  0.000000  0.000000  0.394719  1
  Nd  Nd2  1  0.000000  0.000000  0.124045  1
  Nd  Nd3  1  0.000000  0.000000  0.875128  1
  Ga  Ga4  1  0.666667  0.333333  0.502855  1
  Ga  Ga5  1  0.333333  0.666667  0.012379  1
  Ga  Ga6  1  0.666667  0.333333  0.986814  1
  Ni  Ni7  1  0.333333  0.666667  0.497651  1
  Br  Br8  1  0.666667  0.333333  0.249532  1
  Br  Br9  1  0.333333  0.666667  0.748766  1
