# generated using pymatgen
data_Tb4Sm4B24OsRu3
_symmetry_space_group_name_H-M   'P 1'
_cell_length_a   3.70788300
_cell_length_b   9.22904240
_cell_length_c   11.62820301
_cell_angle_alpha   90.03938025
_cell_angle_beta   90.00000000
_cell_angle_gamma   90.00000000
_symmetry_Int_Tables_number   1
_chemical_formula_structural   Tb4Sm4B24OsRu3
_chemical_formula_sum   'Tb4 Sm4 B24 Os1 Ru3'
_cell_volume   397.91944797
_cell_formula_units_Z   1
loop_
 _symmetry_equiv_pos_site_id
 _symmetry_equiv_pos_as_xyz
  1  'x, y, z'
loop_
 _atom_site_type_symbol
 _atom_site_label
 _atom_site_symmetry_multiplicity
 _atom_site_fract_x
 _atom_site_fract_y
 _atom_site_fract_z
 _atom_site_occupancy
  Tb  Tb0  1  0.000000  0.943785  0.371686  1
  Tb  Tb1  1  0.000000  0.056502  0.627444  1
  Tb  Tb2  1  0.000000  0.443626  0.128360  1
  Tb  Tb3  1  0.000000  0.555530  0.872263  1
  Sm  Sm4  1  0.000000  0.323822  0.414027  1
  Sm  Sm5  1  0.000000  0.676778  0.586391  1
  Sm  Sm6  1  0.000000  0.823364  0.085975  1
  Sm  Sm7  1  0.000000  0.176383  0.913944  1
  B  B8  1  0.500000  0.555464  0.431450  1
  B  B9  1  0.500000  0.444873  0.568656  1
  B  B10  1  0.500000  0.055259  0.068652  1
  B  B11  1  0.500000  0.944863  0.931418  1
  B  B12  1  0.500000  0.748332  0.418624  1
  B  B13  1  0.500000  0.252053  0.581275  1
  B  B14  1  0.500000  0.248232  0.081481  1
  B  B15  1  0.500000  0.751692  0.918508  1
  B  B16  1  0.500000  0.789950  0.267139  1
  B  B17  1  0.500000  0.209900  0.732746  1
  B  B18  1  0.500000  0.289974  0.232923  1
  B  B19  1  0.500000  0.709641  0.767112  1
  B  B20  1  0.500000  0.631753  0.185609  1
  B  B21  1  0.500000  0.367989  0.814463  1
  B  B22  1  0.500000  0.131856  0.314445  1
  B  B23  1  0.500000  0.868280  0.685643  1
  B  B24  1  0.500000  0.985680  0.213456  1
  B  B25  1  0.500000  0.014628  0.786429  1
  B  B26  1  0.500000  0.485732  0.286662  1
  B  B27  1  0.500000  0.514307  0.713554  1
  B  B28  1  0.500000  0.606143  0.029487  1
  B  B29  1  0.500000  0.393290  0.970800  1
  B  B30  1  0.500000  0.106806  0.470345  1
  B  B31  1  0.500000  0.893691  0.529167  1
  Os  Os32  1  0.000000  0.861347  0.820454  1
  Ru  Ru33  1  0.000000  0.638629  0.320541  1
  Ru  Ru34  1  0.000000  0.361379  0.679559  1
  Ru  Ru35  1  0.000000  0.138465  0.179313  1
