# generated using pymatgen
data_LaAlPt4
_symmetry_space_group_name_H-M   'P 1'
_cell_length_a   5.28757081
_cell_length_b   5.28757129
_cell_length_c   4.42965600
_cell_angle_alpha   90.00000000
_cell_angle_beta   90.00000000
_cell_angle_gamma   115.19651303
_symmetry_Int_Tables_number   1
_chemical_formula_structural   LaAlPt4
_chemical_formula_sum   'La1 Al1 Pt4'
_cell_volume   112.06253586
_cell_formula_units_Z   1
loop_
 _symmetry_equiv_pos_site_id
 _symmetry_equiv_pos_as_xyz
  1  'x, y, z'
loop_
 _atom_site_type_symbol
 _atom_site_label
 _atom_site_symmetry_multiplicity
 _atom_site_fract_x
 _atom_site_fract_y
 _atom_site_fract_z
 _atom_site_occupancy
  La  La0  1  0.500000  0.500000  0.000000  1
  Al  Al1  1  0.000000  0.000000  0.500000  1
  Pt  Pt2  1  0.160850  0.839150  0.000000  1
  Pt  Pt3  1  0.839150  0.160850  0.000000  1
  Pt  Pt4  1  0.000000  0.500000  0.500000  1
  Pt  Pt5  1  0.500000  0.000000  0.500000  1
