# generated using pymatgen
data_Nd2Tm4IrRh17
_symmetry_space_group_name_H-M   'P 1'
_cell_length_a   5.28404331
_cell_length_b   5.28559578
_cell_length_c   17.47789604
_cell_angle_alpha   90.00785241
_cell_angle_beta   89.99627155
_cell_angle_gamma   119.97840860
_symmetry_Int_Tables_number   1
_chemical_formula_structural   Nd2Tm4IrRh17
_chemical_formula_sum   'Nd2 Tm4 Ir1 Rh17'
_cell_volume   422.83851865
_cell_formula_units_Z   1
loop_
 _symmetry_equiv_pos_site_id
 _symmetry_equiv_pos_as_xyz
  1  'x, y, z'
loop_
 _atom_site_type_symbol
 _atom_site_label
 _atom_site_symmetry_multiplicity
 _atom_site_fract_x
 _atom_site_fract_y
 _atom_site_fract_z
 _atom_site_occupancy
  Nd  Nd0  1  0.333335  0.666671  0.750123  1
  Nd  Nd1  1  0.666665  0.333329  0.249877  1
  Tm  Tm2  1  0.333311  0.666696  0.541006  1
  Tm  Tm3  1  0.666684  0.333313  0.040659  1
  Tm  Tm4  1  0.666689  0.333304  0.458994  1
  Tm  Tm5  1  0.333316  0.666687  0.959341  1
  Ir  Ir6  1  0.000000  0.000000  0.000000  1
  Rh  Rh7  1  0.167412  0.334795  0.124018  1
  Rh  Rh8  1  0.832234  0.664515  0.624274  1
  Rh  Rh9  1  0.665198  0.832577  0.124002  1
  Rh  Rh10  1  0.167430  0.832562  0.124031  1
  Rh  Rh11  1  0.832224  0.167791  0.624270  1
  Rh  Rh12  1  0.335498  0.167787  0.624254  1
  Rh  Rh13  1  0.832588  0.665205  0.875982  1
  Rh  Rh14  1  0.832570  0.167438  0.875969  1
  Rh  Rh15  1  0.334802  0.167423  0.875998  1
  Rh  Rh16  1  0.664502  0.832213  0.375746  1
  Rh  Rh17  1  0.167776  0.832209  0.375730  1
  Rh  Rh18  1  0.167766  0.335485  0.375726  1
  Rh  Rh19  1  0.999823  0.000039  0.250334  1
  Rh  Rh20  1  0.000177  0.999961  0.749666  1
  Rh  Rh21  1  0.333547  0.666593  0.250488  1
  Rh  Rh22  1  0.666453  0.333407  0.749512  1
  Rh  Rh23  1  0.000000  0.000000  0.500000  1
