# generated using pymatgen
data_MgMnFeB2Rh5
_symmetry_space_group_name_H-M   'P 1'
_cell_length_a   9.33932400
_cell_length_b   9.36632100
_cell_length_c   2.93755900
_cell_angle_alpha   90.00000000
_cell_angle_beta   90.00000000
_cell_angle_gamma   90.00000000
_symmetry_Int_Tables_number   1
_chemical_formula_structural   MgMnFeB2Rh5
_chemical_formula_sum   'Mg2 Mn2 Fe2 B4 Rh10'
_cell_volume   256.96328640
_cell_formula_units_Z   2
loop_
 _symmetry_equiv_pos_site_id
 _symmetry_equiv_pos_as_xyz
  1  'x, y, z'
loop_
 _atom_site_type_symbol
 _atom_site_label
 _atom_site_symmetry_multiplicity
 _atom_site_fract_x
 _atom_site_fract_y
 _atom_site_fract_z
 _atom_site_occupancy
  Mg  Mg0  1  0.822810  0.324221  0.000000  1
  Mg  Mg1  1  0.322810  0.175779  0.000000  1
  Mn  Mn2  1  0.678561  0.823197  0.000000  1
  Mn  Mn3  1  0.178561  0.676803  0.000000  1
  Fe  Fe4  1  0.001011  0.002843  0.000000  1
  Fe  Fe5  1  0.501011  0.497157  0.000000  1
  B  B6  1  0.625247  0.123772  0.000000  1
  B  B7  1  0.125247  0.376228  0.000000  1
  B  B8  1  0.872676  0.629346  0.000000  1
  B  B9  1  0.372676  0.870654  0.000000  1
  Rh  Rh10  1  0.070095  0.217133  0.500000  1
  Rh  Rh11  1  0.213739  0.924848  0.500000  1
  Rh  Rh12  1  0.783893  0.065644  0.500000  1
  Rh  Rh13  1  0.930693  0.787371  0.500000  1
  Rh  Rh14  1  0.430693  0.712629  0.500000  1
  Rh  Rh15  1  0.570095  0.282867  0.500000  1
  Rh  Rh16  1  0.713739  0.575152  0.500000  1
  Rh  Rh17  1  0.283893  0.434356  0.500000  1
  Rh  Rh18  1  0.501276  0.995477  0.500000  1
  Rh  Rh19  1  0.001276  0.504523  0.500000  1
