# generated using pymatgen
data_Sc2Si4Ru3
_symmetry_space_group_name_H-M   'P 1'
_cell_length_a   9.91922687
_cell_length_b   9.91922548
_cell_length_c   13.38133524
_cell_angle_alpha   53.86512010
_cell_angle_beta   53.86512622
_cell_angle_gamma   31.06700893
_symmetry_Int_Tables_number   1
_chemical_formula_structural   Sc2Si4Ru3
_chemical_formula_sum   'Sc8 Si16 Ru12'
_cell_volume   537.30197392
_cell_formula_units_Z   4
loop_
 _symmetry_equiv_pos_site_id
 _symmetry_equiv_pos_as_xyz
  1  'x, y, z'
loop_
 _atom_site_type_symbol
 _atom_site_label
 _atom_site_symmetry_multiplicity
 _atom_site_fract_x
 _atom_site_fract_y
 _atom_site_fract_z
 _atom_site_occupancy
  Sc  Sc0  1  0.294738  0.559713  0.644504  1
  Sc  Sc1  1  0.709635  0.961174  0.860963  1
  Sc  Sc2  1  0.290365  0.038826  0.139037  1
  Sc  Sc3  1  0.440287  0.705262  0.855496  1
  Sc  Sc4  1  0.038826  0.290365  0.639037  1
  Sc  Sc5  1  0.559713  0.294738  0.144504  1
  Sc  Sc6  1  0.961174  0.709635  0.360963  1
  Sc  Sc7  1  0.705262  0.440287  0.355496  1
  Si  Si8  1  0.024299  0.747740  0.106727  1
  Si  Si9  1  0.615179  0.856533  0.601155  1
  Si  Si10  1  0.975701  0.252260  0.893273  1
  Si  Si11  1  0.383462  0.616538  0.250000  1
  Si  Si12  1  0.384821  0.143467  0.398845  1
  Si  Si13  1  0.573508  0.081527  0.066899  1
  Si  Si14  1  0.143467  0.384821  0.898845  1
  Si  Si15  1  0.252260  0.975701  0.393273  1
  Si  Si16  1  0.081527  0.573508  0.566899  1
  Si  Si17  1  0.426492  0.918473  0.933101  1
  Si  Si18  1  0.127618  0.872382  0.750000  1
  Si  Si19  1  0.747740  0.024299  0.606727  1
  Si  Si20  1  0.872382  0.127618  0.250000  1
  Si  Si21  1  0.616538  0.383462  0.750000  1
  Si  Si22  1  0.918473  0.426492  0.433101  1
  Si  Si23  1  0.856533  0.615179  0.101155  1
  Ru  Ru24  1  0.142245  0.895675  0.086266  1
  Ru  Ru25  1  0.167697  0.353208  0.217751  1
  Ru  Ru26  1  0.353208  0.167697  0.717751  1
  Ru  Ru27  1  0.832303  0.646792  0.782249  1
  Ru  Ru28  1  0.508268  0.248082  0.431983  1
  Ru  Ru29  1  0.857755  0.104325  0.913734  1
  Ru  Ru30  1  0.646792  0.832303  0.282249  1
  Ru  Ru31  1  0.248082  0.508268  0.931983  1
  Ru  Ru32  1  0.751918  0.491732  0.068017  1
  Ru  Ru33  1  0.104325  0.857755  0.413734  1
  Ru  Ru34  1  0.895675  0.142245  0.586266  1
  Ru  Ru35  1  0.491732  0.751918  0.568017  1
