# generated using pymatgen
data_LaTh2(MgPt)3
_symmetry_space_group_name_H-M   'P 1'
_cell_length_a   7.68702363
_cell_length_b   7.63969004
_cell_length_c   4.07826900
_cell_angle_alpha   90.00000000
_cell_angle_beta   90.00000000
_cell_angle_gamma   119.79652710
_symmetry_Int_Tables_number   1
_chemical_formula_structural   LaTh2(MgPt)3
_chemical_formula_sum   'La1 Th2 Mg3 Pt3'
_cell_volume   207.83910068
_cell_formula_units_Z   1
loop_
 _symmetry_equiv_pos_site_id
 _symmetry_equiv_pos_as_xyz
  1  'x, y, z'
loop_
 _atom_site_type_symbol
 _atom_site_label
 _atom_site_symmetry_multiplicity
 _atom_site_fract_x
 _atom_site_fract_y
 _atom_site_fract_z
 _atom_site_occupancy
  La  La0  1  0.000000  0.585570  0.000000  1
  Th  Th1  1  0.416584  0.415254  0.000000  1
  Th  Th2  1  0.583416  0.998670  0.000000  1
  Mg  Mg3  1  0.000000  0.243115  0.500000  1
  Mg  Mg4  1  0.765474  0.762994  0.500000  1
  Mg  Mg5  1  0.234526  0.997519  0.500000  1
  Pt  Pt6  1  0.000000  0.009883  0.000000  1
  Pt  Pt7  1  0.647926  0.317460  0.500000  1
  Pt  Pt8  1  0.352074  0.669535  0.500000  1
