# generated using pymatgen
data_Cs4KLi(ReH9)3
_symmetry_space_group_name_H-M   'P 1'
_cell_length_a   9.68292232
_cell_length_b   9.73427132
_cell_length_c   6.29991800
_cell_angle_alpha   90.00000000
_cell_angle_beta   90.00000000
_cell_angle_gamma   118.76099696
_symmetry_Int_Tables_number   1
_chemical_formula_structural   Cs4KLi(ReH9)3
_chemical_formula_sum   'Cs4 K1 Li1 Re3 H27'
_cell_volume   520.55103124
_cell_formula_units_Z   1
loop_
 _symmetry_equiv_pos_site_id
 _symmetry_equiv_pos_as_xyz
  1  'x, y, z'
loop_
 _atom_site_type_symbol
 _atom_site_label
 _atom_site_symmetry_multiplicity
 _atom_site_fract_x
 _atom_site_fract_y
 _atom_site_fract_z
 _atom_site_occupancy
  Cs  Cs0  1  0.752202  0.762263  0.500000  1
  Cs  Cs1  1  0.998399  0.588690  0.000000  1
  Cs  Cs2  1  0.408910  0.407949  0.000000  1
  Cs  Cs3  1  0.589183  0.999264  0.000000  1
  K  K4  1  0.253290  0.013679  0.500000  1
  Li  Li5  1  0.998160  0.379756  0.500000  1
  Re  Re6  1  0.683074  0.320535  0.500000  1
  Re  Re7  1  0.300968  0.644374  0.500000  1
  Re  Re8  1  0.015612  0.015480  0.000000  1
  H  H9  1  0.801366  0.295246  0.683912  1
  H  H10  1  0.699705  0.437403  0.709411  1
  H  H11  1  0.542689  0.212183  0.684237  1
  H  H12  1  0.190626  0.503545  0.313656  1
  H  H13  1  0.542689  0.212183  0.315763  1
  H  H14  1  0.801366  0.295246  0.316088  1
  H  H15  1  0.699705  0.437403  0.290589  1
  H  H16  1  0.279542  0.755185  0.694120  1
  H  H17  1  0.430898  0.670361  0.698477  1
  H  H18  1  0.196094  0.026241  0.000000  1
  H  H19  1  0.840750  0.847506  0.000000  1
  H  H20  1  0.017667  0.188932  0.000000  1
  H  H21  1  0.894609  0.025445  0.188898  1
  H  H22  1  0.128715  0.136324  0.801658  1
  H  H23  1  0.019560  0.890480  0.809141  1
  H  H24  1  0.019560  0.890480  0.190859  1
  H  H25  1  0.128715  0.136324  0.198342  1
  H  H26  1  0.894609  0.025445  0.811102  1
  H  H27  1  0.118222  0.624807  0.500000  1
  H  H28  1  0.453040  0.828896  0.500000  1
  H  H29  1  0.352057  0.501727  0.500000  1
  H  H30  1  0.541084  0.374645  0.500000  1
  H  H31  1  0.858192  0.488573  0.500000  1
  H  H32  1  0.647674  0.134335  0.500000  1
  H  H33  1  0.190626  0.503545  0.686344  1
  H  H34  1  0.279542  0.755185  0.305880  1
  H  H35  1  0.430898  0.670361  0.301523  1
