# generated using pymatgen
data_Cs3PSO3
_symmetry_space_group_name_H-M   'P 1'
_cell_length_a   6.35707400
_cell_length_b   6.96665701
_cell_length_c   9.50622458
_cell_angle_alpha   99.32315968
_cell_angle_beta   90.00000000
_cell_angle_gamma   90.00000000
_symmetry_Int_Tables_number   1
_chemical_formula_structural   Cs3PSO3
_chemical_formula_sum   'Cs6 P2 S2 O6'
_cell_volume   415.44605967
_cell_formula_units_Z   2
loop_
 _symmetry_equiv_pos_site_id
 _symmetry_equiv_pos_as_xyz
  1  'x, y, z'
loop_
 _atom_site_type_symbol
 _atom_site_label
 _atom_site_symmetry_multiplicity
 _atom_site_fract_x
 _atom_site_fract_y
 _atom_site_fract_z
 _atom_site_occupancy
  Cs  Cs0  1  0.250001  0.753466  0.004619  1
  Cs  Cs1  1  0.750001  0.773116  0.258247  1
  Cs  Cs2  1  0.750001  0.309439  0.472878  1
  Cs  Cs3  1  0.250001  0.690561  0.527124  1
  Cs  Cs4  1  0.250001  0.226883  0.741754  1
  Cs  Cs5  1  0.750001  0.246532  0.995381  1
  P  P6  1  0.250001  0.316674  0.209567  1
  P  P7  1  0.750001  0.683326  0.790434  1
  S  S8  1  0.250001  0.096766  0.340907  1
  S  S9  1  0.750001  0.903233  0.659092  1
  O  O10  1  0.250001  0.215878  0.051660  1
  O  O11  1  0.048637  0.441253  0.246059  1
  O  O12  1  0.451364  0.441253  0.246059  1
  O  O13  1  0.548637  0.558746  0.753942  1
  O  O14  1  0.951365  0.558746  0.753942  1
  O  O15  1  0.750001  0.784123  0.948340  1
