# generated using pymatgen
data_Pr17Sm3Si15Au
_symmetry_space_group_name_H-M   'P 1'
_cell_length_a   7.93017710
_cell_length_b   7.91020430
_cell_length_c   15.27776440
_cell_angle_alpha   89.95564155
_cell_angle_beta   89.66062055
_cell_angle_gamma   90.06815842
_symmetry_Int_Tables_number   1
_chemical_formula_structural   Pr17Sm3Si15Au
_chemical_formula_sum   'Pr17 Sm3 Si15 Au1'
_cell_volume   958.34600503
_cell_formula_units_Z   1
loop_
 _symmetry_equiv_pos_site_id
 _symmetry_equiv_pos_as_xyz
  1  'x, y, z'
loop_
 _atom_site_type_symbol
 _atom_site_label
 _atom_site_symmetry_multiplicity
 _atom_site_fract_x
 _atom_site_fract_y
 _atom_site_fract_z
 _atom_site_occupancy
  Pr  Pr0  1  0.693613  0.688861  0.498646  1
  Pr  Pr1  1  0.374851  0.011081  0.447900  1
  Pr  Pr2  1  0.491916  0.871727  0.699726  1
  Pr  Pr3  1  0.510367  0.123762  0.197448  1
  Pr  Pr4  1  0.877831  0.488506  0.300877  1
  Pr  Pr5  1  0.120430  0.515477  0.802208  1
  Pr  Pr6  1  0.626082  0.988391  0.949895  1
  Pr  Pr7  1  0.002318  0.379488  0.549412  1
  Pr  Pr8  1  0.989846  0.625850  0.052558  1
  Pr  Pr9  1  0.132607  0.983953  0.877696  1
  Pr  Pr10  1  0.518189  0.630627  0.126357  1
  Pr  Pr11  1  0.480299  0.370895  0.627422  1
  Pr  Pr12  1  0.628557  0.518937  0.874922  1
  Pr  Pr13  1  0.372468  0.482133  0.372297  1
  Pr  Pr14  1  0.872490  0.020415  0.375912  1
  Pr  Pr15  1  0.981921  0.127378  0.123943  1
  Pr  Pr16  1  0.015668  0.867951  0.621779  1
  Sm  Sm17  1  0.307571  0.308495  0.999225  1
  Sm  Sm18  1  0.190813  0.809566  0.250106  1
  Sm  Sm19  1  0.805960  0.186163  0.751453  1
  Si  Si20  1  0.331677  0.693741  0.952641  1
  Si  Si21  1  0.662984  0.302846  0.451526  1
  Si  Si22  1  0.696603  0.333692  0.048437  1
  Si  Si23  1  0.305623  0.669245  0.546783  1
  Si  Si24  1  0.807309  0.831243  0.203241  1
  Si  Si25  1  0.169213  0.195295  0.297415  1
  Si  Si26  1  0.834024  0.805563  0.797979  1
  Si  Si27  1  0.287343  0.922611  0.061332  1
  Si  Si28  1  0.577341  0.787769  0.309239  1
  Si  Si29  1  0.434472  0.208780  0.815462  1
  Si  Si30  1  0.786275  0.576946  0.691292  1
  Si  Si31  1  0.213154  0.422998  0.188916  1
  Si  Si32  1  0.708481  0.078030  0.560213  1
  Si  Si33  1  0.923093  0.288551  0.940256  1
  Si  Si34  1  0.080819  0.713771  0.438142  1
  Au  Au35  1  0.187795  0.169262  0.697344  1
