# generated using pymatgen
data_Pr3CI3
_symmetry_space_group_name_H-M   'P 1'
_cell_length_a   4.06343800
_cell_length_b   9.07271961
_cell_length_c   12.27004391
_cell_angle_alpha   92.74767611
_cell_angle_beta   90.00000000
_cell_angle_gamma   90.00000000
_symmetry_Int_Tables_number   1
_chemical_formula_structural   Pr3CI3
_chemical_formula_sum   'Pr6 C2 I6'
_cell_volume   451.83270351
_cell_formula_units_Z   2
loop_
 _symmetry_equiv_pos_site_id
 _symmetry_equiv_pos_as_xyz
  1  'x, y, z'
loop_
 _atom_site_type_symbol
 _atom_site_label
 _atom_site_symmetry_multiplicity
 _atom_site_fract_x
 _atom_site_fract_y
 _atom_site_fract_z
 _atom_site_occupancy
  Pr  Pr0  1  0.250000  0.914492  0.602239  1
  Pr  Pr1  1  0.750000  0.085508  0.397761  1
  Pr  Pr2  1  0.250000  0.886024  0.178953  1
  Pr  Pr3  1  0.750000  0.113976  0.821047  1
  Pr  Pr4  1  0.250000  0.300230  0.616365  1
  Pr  Pr5  1  0.750000  0.699770  0.383635  1
  C  C6  1  0.250000  0.880306  0.383718  1
  C  C7  1  0.750000  0.119694  0.616282  1
  I  I8  1  0.250000  0.855146  0.875933  1
  I  I9  1  0.750000  0.144854  0.124067  1
  I  I10  1  0.250000  0.379578  0.874623  1
  I  I11  1  0.750000  0.620422  0.125377  1
  I  I12  1  0.250000  0.382683  0.364437  1
  I  I13  1  0.750000  0.617317  0.635563  1
