# generated using pymatgen
data_Ho8Mg2Sc9Si16Ag
_symmetry_space_group_name_H-M   'P 1'
_cell_length_a   6.95826139
_cell_length_b   7.40648586
_cell_length_c   13.94547000
_cell_angle_alpha   90.00000000
_cell_angle_beta   90.00000000
_cell_angle_gamma   89.80712678
_symmetry_Int_Tables_number   1
_chemical_formula_structural   Ho8Mg2Sc9Si16Ag
_chemical_formula_sum   'Ho8 Mg2 Sc9 Si16 Ag1'
_cell_volume   718.69335893
_cell_formula_units_Z   1
loop_
 _symmetry_equiv_pos_site_id
 _symmetry_equiv_pos_as_xyz
  1  'x, y, z'
loop_
 _atom_site_type_symbol
 _atom_site_label
 _atom_site_symmetry_multiplicity
 _atom_site_fract_x
 _atom_site_fract_y
 _atom_site_fract_z
 _atom_site_occupancy
  Ho  Ho0  1  0.012640  0.177655  0.097321  1
  Ho  Ho1  1  0.991096  0.815198  0.902014  1
  Ho  Ho2  1  0.485388  0.673881  0.902966  1
  Ho  Ho3  1  0.991096  0.815198  0.597986  1
  Ho  Ho4  1  0.511688  0.321439  0.096534  1
  Ho  Ho5  1  0.012640  0.177655  0.402679  1
  Ho  Ho6  1  0.511688  0.321439  0.403466  1
  Ho  Ho7  1  0.485388  0.673881  0.597034  1
  Mg  Mg8  1  0.840919  0.495429  0.250000  1
  Mg  Mg9  1  0.341730  0.005619  0.250000  1
  Sc  Sc10  1  0.657990  0.998090  0.750000  1
  Sc  Sc11  1  0.324469  0.183941  0.626570  1
  Sc  Sc12  1  0.669418  0.821113  0.374981  1
  Sc  Sc13  1  0.170252  0.681304  0.374515  1
  Sc  Sc14  1  0.669418  0.821113  0.125019  1
  Sc  Sc15  1  0.836298  0.325894  0.626877  1
  Sc  Sc16  1  0.324469  0.183941  0.873430  1
  Sc  Sc17  1  0.836298  0.325894  0.873123  1
  Sc  Sc18  1  0.170252  0.681304  0.125485  1
  Si  Si19  1  0.027367  0.096149  0.750000  1
  Si  Si20  1  0.965433  0.896264  0.250000  1
  Si  Si21  1  0.465210  0.607341  0.250000  1
  Si  Si22  1  0.535957  0.386342  0.750000  1
  Si  Si23  1  0.288967  0.882232  0.750000  1
  Si  Si24  1  0.717414  0.121904  0.250000  1
  Si  Si25  1  0.218232  0.378109  0.250000  1
  Si  Si26  1  0.777993  0.628798  0.750000  1
  Si  Si27  1  0.160996  0.460206  0.530806  1
  Si  Si28  1  0.839584  0.536632  0.465423  1
  Si  Si29  1  0.341442  0.964846  0.466222  1
  Si  Si30  1  0.839584  0.536632  0.034577  1
  Si  Si31  1  0.659195  0.033575  0.538993  1
  Si  Si32  1  0.160996  0.460206  0.969194  1
  Si  Si33  1  0.659195  0.033575  0.961007  1
  Si  Si34  1  0.341442  0.964846  0.033778  1
  Ag  Ag35  1  0.157851  0.512356  0.750000  1
