# generated using pymatgen
data_Rb16HfTiBi8
_symmetry_space_group_name_H-M   'P 1'
_cell_length_a   12.18102380
_cell_length_b   12.18102342
_cell_length_c   12.18102400
_cell_angle_alpha   59.99999842
_cell_angle_beta   59.99999946
_cell_angle_gamma   60.00000174
_symmetry_Int_Tables_number   1
_chemical_formula_structural   Rb16HfTiBi8
_chemical_formula_sum   'Rb16 Hf1 Ti1 Bi8'
_cell_volume   1278.01623209
_cell_formula_units_Z   1
loop_
 _symmetry_equiv_pos_site_id
 _symmetry_equiv_pos_as_xyz
  1  'x, y, z'
loop_
 _atom_site_type_symbol
 _atom_site_label
 _atom_site_symmetry_multiplicity
 _atom_site_fract_x
 _atom_site_fract_y
 _atom_site_fract_z
 _atom_site_occupancy
  Rb  Rb0  1  0.623877  0.128367  0.623877  1
  Rb  Rb1  1  0.623877  0.623877  0.128367  1
  Rb  Rb2  1  0.128367  0.623877  0.623877  1
  Rb  Rb3  1  0.623877  0.623877  0.623877  1
  Rb  Rb4  1  0.027375  0.027375  0.472625  1
  Rb  Rb5  1  0.777927  0.222073  0.222073  1
  Rb  Rb6  1  0.222073  0.777927  0.777927  1
  Rb  Rb7  1  0.777927  0.777927  0.222073  1
  Rb  Rb8  1  0.777927  0.222073  0.777927  1
  Rb  Rb9  1  0.222073  0.777927  0.222073  1
  Rb  Rb10  1  0.472625  0.027375  0.472625  1
  Rb  Rb11  1  0.472625  0.027375  0.027375  1
  Rb  Rb12  1  0.027375  0.472625  0.472625  1
  Rb  Rb13  1  0.027375  0.472625  0.027375  1
  Rb  Rb14  1  0.222073  0.222073  0.777927  1
  Rb  Rb15  1  0.472625  0.472625  0.027375  1
  Hf  Hf16  1  0.750000  0.750000  0.750000  1
  Ti  Ti17  1  0.500000  0.500000  0.500000  1
  Bi  Bi18  1  0.403422  0.789735  0.403422  1
  Bi  Bi19  1  0.849231  0.849231  0.452308  1
  Bi  Bi20  1  0.452308  0.849231  0.849231  1
  Bi  Bi21  1  0.849231  0.849231  0.849231  1
  Bi  Bi22  1  0.789735  0.403422  0.403422  1
  Bi  Bi23  1  0.403422  0.403422  0.403422  1
  Bi  Bi24  1  0.403422  0.403422  0.789735  1
  Bi  Bi25  1  0.849231  0.452308  0.849231  1
