# generated using pymatgen
data_TbTm5(BiO7)2
_symmetry_space_group_name_H-M   'P 1'
_cell_length_a   6.52560148
_cell_length_b   6.50444636
_cell_length_c   7.66808800
_cell_angle_alpha   106.91269751
_cell_angle_beta   89.71192197
_cell_angle_gamma   98.83531109
_symmetry_Int_Tables_number   1
_chemical_formula_structural   TbTm5(BiO7)2
_chemical_formula_sum   'Tb1 Tm5 Bi2 O14'
_cell_volume   307.43228009
_cell_formula_units_Z   1
loop_
 _symmetry_equiv_pos_site_id
 _symmetry_equiv_pos_as_xyz
  1  'x, y, z'
loop_
 _atom_site_type_symbol
 _atom_site_label
 _atom_site_symmetry_multiplicity
 _atom_site_fract_x
 _atom_site_fract_y
 _atom_site_fract_z
 _atom_site_occupancy
  Tb  Tb0  1  0.265767  0.524045  0.387018  1
  Tm  Tm1  1  0.463684  0.006242  0.251091  1
  Tm  Tm2  1  0.537500  0.993741  0.748843  1
  Tm  Tm3  1  0.274991  0.538541  0.883173  1
  Tm  Tm4  1  0.725995  0.462159  0.116138  1
  Tm  Tm5  1  0.728555  0.471793  0.611955  1
  Bi  Bi6  1  0.999395  0.000509  0.500511  1
  Bi  Bi7  1  0.999890  0.999482  0.999645  1
  O  O8  1  0.449978  0.651460  0.164208  1
  O  O9  1  0.553187  0.348850  0.832385  1
  O  O10  1  0.303754  0.919304  0.950043  1
  O  O11  1  0.696265  0.081041  0.049229  1
  O  O12  1  0.301111  0.925510  0.514134  1
  O  O13  1  0.698211  0.077080  0.487530  1
  O  O14  1  0.547648  0.361854  0.344265  1
  O  O15  1  0.458342  0.637661  0.658486  1
  O  O16  1  0.925807  0.664603  0.963627  1
  O  O17  1  0.075291  0.335112  0.036952  1
  O  O18  1  0.067527  0.354614  0.624318  1
  O  O19  1  0.926843  0.648173  0.376569  1
  O  O20  1  0.868650  0.896835  0.723803  1
  O  O21  1  0.131612  0.101388  0.276076  1
