# generated using pymatgen
data_NaSrPt4
_symmetry_space_group_name_H-M   'P 1'
_cell_length_a   5.47824942
_cell_length_b   5.47824952
_cell_length_c   5.47824900
_cell_angle_alpha   59.99999709
_cell_angle_beta   59.99999651
_cell_angle_gamma   60.00000174
_symmetry_Int_Tables_number   1
_chemical_formula_structural   NaSrPt4
_chemical_formula_sum   'Na1 Sr1 Pt4'
_cell_volume   116.25465874
_cell_formula_units_Z   1
loop_
 _symmetry_equiv_pos_site_id
 _symmetry_equiv_pos_as_xyz
  1  'x, y, z'
loop_
 _atom_site_type_symbol
 _atom_site_label
 _atom_site_symmetry_multiplicity
 _atom_site_fract_x
 _atom_site_fract_y
 _atom_site_fract_z
 _atom_site_occupancy
  Na  Na0  1  0.500000  0.500000  0.500000  1
  Sr  Sr1  1  0.750000  0.750000  0.750000  1
  Pt  Pt2  1  0.125210  0.125210  0.125210  1
  Pt  Pt3  1  0.624371  0.125210  0.125210  1
  Pt  Pt4  1  0.125210  0.624371  0.125210  1
  Pt  Pt5  1  0.125210  0.125210  0.624371  1
