# generated using pymatgen
data_NaCa3Pt8
_symmetry_space_group_name_H-M   'P 1'
_cell_length_a   9.35876274
_cell_length_b   9.35876240
_cell_length_c   9.35876300
_cell_angle_alpha   33.57012925
_cell_angle_beta   33.57013233
_cell_angle_gamma   33.57012554
_symmetry_Int_Tables_number   1
_chemical_formula_structural   NaCa3Pt8
_chemical_formula_sum   'Na1 Ca3 Pt8'
_cell_volume   223.24949439
_cell_formula_units_Z   1
loop_
 _symmetry_equiv_pos_site_id
 _symmetry_equiv_pos_as_xyz
  1  'x, y, z'
loop_
 _atom_site_type_symbol
 _atom_site_label
 _atom_site_symmetry_multiplicity
 _atom_site_fract_x
 _atom_site_fract_y
 _atom_site_fract_z
 _atom_site_occupancy
  Na  Na0  1  0.062623  0.062623  0.062623  1
  Ca  Ca1  1  0.562148  0.562148  0.562148  1
  Ca  Ca2  1  0.434976  0.434976  0.434976  1
  Ca  Ca3  1  0.940791  0.940791  0.940791  1
  Pt  Pt4  1  0.749820  0.749820  0.749820  1
  Pt  Pt5  1  0.249995  0.249995  0.249995  1
  Pt  Pt6  1  0.998588  0.500172  0.500172  1
  Pt  Pt7  1  0.500718  0.999997  0.999997  1
  Pt  Pt8  1  0.500172  0.998588  0.500172  1
  Pt  Pt9  1  0.999997  0.500718  0.999997  1
  Pt  Pt10  1  0.500172  0.500172  0.998588  1
  Pt  Pt11  1  0.999997  0.999997  0.500718  1
