# generated using pymatgen
data_Tb2ErTh(Al8Pt3)3
_symmetry_space_group_name_H-M   'P 1'
_cell_length_a   7.56495355
_cell_length_b   7.55628473
_cell_length_c   13.17721004
_cell_angle_alpha   84.54666068
_cell_angle_beta   100.98550832
_cell_angle_gamma   119.88648141
_symmetry_Int_Tables_number   1
_chemical_formula_structural   Tb2ErTh(Al8Pt3)3
_chemical_formula_sum   'Tb2 Er1 Th1 Al24 Pt9'
_cell_volume   641.10954157
_cell_formula_units_Z   1
loop_
 _symmetry_equiv_pos_site_id
 _symmetry_equiv_pos_as_xyz
  1  'x, y, z'
loop_
 _atom_site_type_symbol
 _atom_site_label
 _atom_site_symmetry_multiplicity
 _atom_site_fract_x
 _atom_site_fract_y
 _atom_site_fract_z
 _atom_site_occupancy
  Tb  Tb0  1  0.267024  0.000711  0.806850  1
  Tb  Tb1  1  0.062078  0.668168  0.192052  1
  Er  Er2  1  0.937702  0.332265  0.806371  1
  Th  Th3  1  0.732325  0.998669  0.192740  1
  Al  Al4  1  0.807732  0.868915  0.815205  1
  Al  Al5  1  0.196675  0.132295  0.184540  1
  Al  Al6  1  0.982217  0.665965  0.943184  1
  Al  Al7  1  0.020617  0.336935  0.052776  1
  Al  Al8  1  0.397398  0.662903  0.816221  1
  Al  Al9  1  0.600835  0.339508  0.183191  1
  Al  Al10  1  0.882447  0.664913  0.670895  1
  Al  Al11  1  0.122104  0.337990  0.332558  1
  Al  Al12  1  0.603503  0.458132  0.815986  1
  Al  Al13  1  0.393700  0.537099  0.183864  1
  Al  Al14  1  0.230089  0.340087  0.669810  1
  Al  Al15  1  0.770666  0.656002  0.334092  1
  Al  Al16  1  0.853068  0.334016  0.559294  1
  Al  Al17  1  0.186222  0.999126  0.559255  1
  Al  Al18  1  0.814851  0.000460  0.443501  1
  Al  Al19  1  0.348372  0.000071  0.053069  1
  Al  Al20  1  0.647471  0.001557  0.941177  1
  Al  Al21  1  0.556391  0.993557  0.671284  1
  Al  Al22  1  0.441434  0.006879  0.332411  1
  Al  Al23  1  0.520400  0.666825  0.562441  1
  Al  Al24  1  0.479618  0.332706  0.439642  1
  Al  Al25  1  0.681497  0.664703  0.043508  1
  Al  Al26  1  0.315401  0.331998  0.951029  1
  Al  Al27  1  0.147684  0.666795  0.441887  1
  Pt  Pt28  1  0.329854  0.672508  0.000153  1
  Pt  Pt29  1  0.545889  0.324728  0.637557  1
  Pt  Pt30  1  0.455546  0.675971  0.362804  1
  Pt  Pt31  1  0.887599  0.008882  0.639143  1
  Pt  Pt32  1  0.111608  0.992178  0.361410  1
  Pt  Pt33  1  0.671600  0.328129  0.999964  1
  Pt  Pt34  1  0.203904  0.666160  0.638890  1
  Pt  Pt35  1  0.795379  0.331781  0.361259  1
  Pt  Pt36  1  0.999097  0.000412  0.999988  1
