# generated using pymatgen
data_Ac2SO6
_symmetry_space_group_name_H-M   'P 1'
_cell_length_a   4.40807000
_cell_length_b   7.84437128
_cell_length_c   8.69614005
_cell_angle_alpha   106.10779161
_cell_angle_beta   90.00000000
_cell_angle_gamma   106.31812870
_symmetry_Int_Tables_number   1
_chemical_formula_structural   Ac2SO6
_chemical_formula_sum   'Ac4 S2 O12'
_cell_volume   276.26437739
_cell_formula_units_Z   2
loop_
 _symmetry_equiv_pos_site_id
 _symmetry_equiv_pos_as_xyz
  1  'x, y, z'
loop_
 _atom_site_type_symbol
 _atom_site_label
 _atom_site_symmetry_multiplicity
 _atom_site_fract_x
 _atom_site_fract_y
 _atom_site_fract_z
 _atom_site_occupancy
  Ac  Ac0  1  0.671231  0.331526  0.583028  1
  Ac  Ac1  1  0.328769  0.668474  0.416972  1
  Ac  Ac2  1  0.339705  0.668474  0.916972  1
  Ac  Ac3  1  0.660295  0.331526  0.083028  1
  S  S4  1  0.938285  0.000000  0.750000  1
  S  S5  1  0.061715  0.000000  0.250000  1
  O  O6  1  0.761746  0.503262  0.876159  1
  O  O7  1  0.238254  0.496738  0.123841  1
  O  O8  1  0.258484  0.496738  0.623841  1
  O  O9  1  0.741516  0.503262  0.376159  1
  O  O10  1  0.737799  0.996476  0.609177  1
  O  O11  1  0.262201  0.003524  0.390823  1
  O  O12  1  0.741323  0.003524  0.890823  1
  O  O13  1  0.258677  0.996476  0.109177  1
  O  O14  1  0.212217  0.171120  0.789852  1
  O  O15  1  0.787783  0.828880  0.210148  1
  O  O16  1  0.041096  0.828880  0.710148  1
  O  O17  1  0.958904  0.171120  0.289852  1
