# generated using pymatgen
data_Tb8Dy2(IrRu)3
_symmetry_space_group_name_H-M   'P 1'
_cell_length_a   10.87793085
_cell_length_b   10.87379400
_cell_length_c   6.41899701
_cell_angle_alpha   90.00000000
_cell_angle_beta   89.96387648
_cell_angle_gamma   90.00000000
_symmetry_Int_Tables_number   1
_chemical_formula_structural   Tb8Dy2(IrRu)3
_chemical_formula_sum   'Tb16 Dy4 Ir6 Ru6'
_cell_volume   759.26692500
_cell_formula_units_Z   2
loop_
 _symmetry_equiv_pos_site_id
 _symmetry_equiv_pos_as_xyz
  1  'x, y, z'
loop_
 _atom_site_type_symbol
 _atom_site_label
 _atom_site_symmetry_multiplicity
 _atom_site_fract_x
 _atom_site_fract_y
 _atom_site_fract_z
 _atom_site_occupancy
  Tb  Tb0  1  0.292825  0.086689  0.379163  1
  Tb  Tb1  1  0.292825  0.913311  0.879163  1
  Tb  Tb2  1  0.707875  0.086778  0.878623  1
  Tb  Tb3  1  0.707875  0.913222  0.378623  1
  Tb  Tb4  1  0.587752  0.793346  0.879285  1
  Tb  Tb5  1  0.587752  0.206654  0.379285  1
  Tb  Tb6  1  0.413103  0.793525  0.378587  1
  Tb  Tb7  1  0.413103  0.206475  0.878587  1
  Tb  Tb8  1  0.206468  0.413119  0.620818  1
  Tb  Tb9  1  0.206468  0.586881  0.120818  1
  Tb  Tb10  1  0.793373  0.412306  0.121268  1
  Tb  Tb11  1  0.793373  0.587694  0.621268  1
  Tb  Tb12  1  0.913051  0.707418  0.120690  1
  Tb  Tb13  1  0.913051  0.292582  0.620690  1
  Tb  Tb14  1  0.086439  0.707732  0.621629  1
  Tb  Tb15  1  0.086439  0.292268  0.121629  1
  Dy  Dy16  1  0.998572  0.000605  0.499849  1
  Dy  Dy17  1  0.998572  0.999395  0.999849  1
  Dy  Dy18  1  0.500008  0.500311  0.000118  1
  Dy  Dy19  1  0.500008  0.499689  0.500118  1
  Ir  Ir20  1  0.153484  0.153223  0.750204  1
  Ir  Ir21  1  0.153484  0.846777  0.250204  1
  Ir  Ir22  1  0.652031  0.348284  0.749728  1
  Ir  Ir23  1  0.652031  0.651716  0.249728  1
  Ir  Ir24  1  0.347718  0.347315  0.250321  1
  Ir  Ir25  1  0.347718  0.652685  0.750321  1
  Ru  Ru26  1  0.847531  0.152572  0.249745  1
  Ru  Ru27  1  0.847531  0.847428  0.749745  1
  Ru  Ru28  1  0.500055  0.000119  0.123679  1
  Ru  Ru29  1  0.500055  0.999881  0.623679  1
  Ru  Ru30  1  0.999715  0.500326  0.876293  1
  Ru  Ru31  1  0.999715  0.499674  0.376293  1
