# generated using pymatgen
data_IrCl12
_symmetry_space_group_name_H-M   'P 1'
_cell_length_a   10.99423357
_cell_length_b   10.88828036
_cell_length_c   7.29454738
_cell_angle_alpha   58.15027131
_cell_angle_beta   39.05421103
_cell_angle_gamma   60.72609647
_symmetry_Int_Tables_number   1
_chemical_formula_structural   IrCl12
_chemical_formula_sum   'Ir1 Cl12'
_cell_volume   462.19225640
_cell_formula_units_Z   1
loop_
 _symmetry_equiv_pos_site_id
 _symmetry_equiv_pos_as_xyz
  1  'x, y, z'
loop_
 _atom_site_type_symbol
 _atom_site_label
 _atom_site_symmetry_multiplicity
 _atom_site_fract_x
 _atom_site_fract_y
 _atom_site_fract_z
 _atom_site_occupancy
  Ir  Ir0  1  0.999997  0.000001  0.000115  1
  Cl  Cl1  1  0.506730  0.642109  0.075141  1
  Cl  Cl2  1  0.726678  0.523761  0.047083  1
  Cl  Cl3  1  0.863619  0.799470  0.204428  1
  Cl  Cl4  1  0.556261  0.865623  0.385117  1
  Cl  Cl5  1  0.740794  0.072714  0.451159  1
  Cl  Cl6  1  0.139685  0.852520  0.187242  1
  Cl  Cl7  1  0.860077  0.147314  0.813291  1
  Cl  Cl8  1  0.259257  0.927339  0.549200  1
  Cl  Cl9  1  0.444064  0.134349  0.615167  1
  Cl  Cl10  1  0.136619  0.200387  0.795612  1
  Cl  Cl11  1  0.272889  0.476464  0.952895  1
  Cl  Cl12  1  0.493325  0.357945  0.923551  1
