# generated using pymatgen
data_Ta12Re4Si8CN3
_symmetry_space_group_name_H-M   'P 1'
_cell_length_a   8.18460246
_cell_length_b   8.18469542
_cell_length_c   8.19606936
_cell_angle_alpha   60.04571273
_cell_angle_beta   60.04565860
_cell_angle_gamma   59.99936243
_symmetry_Int_Tables_number   1
_chemical_formula_structural   Ta12Re4Si8CN3
_chemical_formula_sum   'Ta12 Re4 Si8 C1 N3'
_cell_volume   388.49747096
_cell_formula_units_Z   1
loop_
 _symmetry_equiv_pos_site_id
 _symmetry_equiv_pos_as_xyz
  1  'x, y, z'
loop_
 _atom_site_type_symbol
 _atom_site_label
 _atom_site_symmetry_multiplicity
 _atom_site_fract_x
 _atom_site_fract_y
 _atom_site_fract_z
 _atom_site_occupancy
  Ta  Ta0  1  0.811238  0.811255  0.188637  1
  Ta  Ta1  1  0.190452  0.190442  0.809228  1
  Ta  Ta2  1  0.809863  0.190452  0.809238  1
  Ta  Ta3  1  0.188897  0.811226  0.188648  1
  Ta  Ta4  1  0.190458  0.809873  0.809227  1
  Ta  Ta5  1  0.811236  0.188873  0.188637  1
  Ta  Ta6  1  0.438762  0.438745  0.061363  1
  Ta  Ta7  1  0.059548  0.059558  0.440772  1
  Ta  Ta8  1  0.440137  0.059548  0.440762  1
  Ta  Ta9  1  0.061103  0.438774  0.061352  1
  Ta  Ta10  1  0.059542  0.440127  0.440773  1
  Ta  Ta11  1  0.438764  0.061127  0.061363  1
  Re  Re12  1  0.125000  0.625000  0.625000  1
  Re  Re13  1  0.625000  0.125000  0.625000  1
  Re  Re14  1  0.625000  0.625000  0.125000  1
  Re  Re15  1  0.625000  0.625000  0.625000  1
  Si  Si16  1  0.759166  0.413727  0.413379  1
  Si  Si17  1  0.413728  0.759162  0.413383  1
  Si  Si18  1  0.413579  0.413581  0.759260  1
  Si  Si19  1  0.413725  0.413725  0.413382  1
  Si  Si20  1  0.490834  0.836273  0.836621  1
  Si  Si21  1  0.836272  0.490838  0.836617  1
  Si  Si22  1  0.836421  0.836419  0.490740  1
  Si  Si23  1  0.836275  0.836275  0.836618  1
  C  C24  1  0.125000  0.125000  0.625000  1
  N  N25  1  0.625000  0.125000  0.125000  1
  N  N26  1  0.125000  0.625000  0.125000  1
  N  N27  1  0.125000  0.125000  0.125000  1
