# generated using pymatgen
data_Zr5TaB4(IrRu4)2
_symmetry_space_group_name_H-M   'P 1'
_cell_length_a   9.58534805
_cell_length_b   9.57379905
_cell_length_c   3.12272400
_cell_angle_alpha   90.00000000
_cell_angle_beta   90.00000000
_cell_angle_gamma   90.01195609
_symmetry_Int_Tables_number   1
_chemical_formula_structural   Zr5TaB4(IrRu4)2
_chemical_formula_sum   'Zr5 Ta1 B4 Ir2 Ru8'
_cell_volume   286.56674215
_cell_formula_units_Z   1
loop_
 _symmetry_equiv_pos_site_id
 _symmetry_equiv_pos_as_xyz
  1  'x, y, z'
loop_
 _atom_site_type_symbol
 _atom_site_label
 _atom_site_symmetry_multiplicity
 _atom_site_fract_x
 _atom_site_fract_y
 _atom_site_fract_z
 _atom_site_occupancy
  Zr  Zr0  1  0.829169  0.675739  0.000000  1
  Zr  Zr1  1  0.170831  0.324261  0.000000  1
  Zr  Zr2  1  0.319282  0.825072  0.000000  1
  Zr  Zr3  1  0.680718  0.174928  0.000000  1
  Zr  Zr4  1  0.500000  0.500000  0.000000  1
  Ta  Ta5  1  0.000000  0.000000  0.000000  1
  B  B6  1  0.624095  0.884535  0.000000  1
  B  B7  1  0.375905  0.115465  0.000000  1
  B  B8  1  0.121693  0.620642  0.000000  1
  B  B9  1  0.878307  0.379358  0.000000  1
  Ir  Ir10  1  0.573585  0.724383  0.500000  1
  Ir  Ir11  1  0.426415  0.275617  0.500000  1
  Ru  Ru12  1  0.069131  0.782468  0.500000  1
  Ru  Ru13  1  0.930869  0.217532  0.500000  1
  Ru  Ru14  1  0.277646  0.573040  0.500000  1
  Ru  Ru15  1  0.722354  0.426960  0.500000  1
  Ru  Ru16  1  0.217432  0.069515  0.500000  1
  Ru  Ru17  1  0.782568  0.930485  0.500000  1
  Ru  Ru18  1  0.500000  0.000000  0.500000  1
  Ru  Ru19  1  0.000000  0.500000  0.500000  1
