# generated using pymatgen
data_PrSm7(Si4Mo3)4
_symmetry_space_group_name_H-M   'P 1'
_cell_length_a   6.88219714
_cell_length_b   7.04698711
_cell_length_c   13.05308497
_cell_angle_alpha   90.06363758
_cell_angle_beta   90.00539086
_cell_angle_gamma   89.96756696
_symmetry_Int_Tables_number   1
_chemical_formula_structural   PrSm7(Si4Mo3)4
_chemical_formula_sum   'Pr1 Sm7 Si16 Mo12'
_cell_volume   633.05786920
_cell_formula_units_Z   1
loop_
 _symmetry_equiv_pos_site_id
 _symmetry_equiv_pos_as_xyz
  1  'x, y, z'
loop_
 _atom_site_type_symbol
 _atom_site_label
 _atom_site_symmetry_multiplicity
 _atom_site_fract_x
 _atom_site_fract_y
 _atom_site_fract_z
 _atom_site_occupancy
  Pr  Pr0  1  0.998333  0.164426  0.093648  1
  Sm  Sm1  1  0.496882  0.334536  0.094554  1
  Sm  Sm2  1  0.997809  0.165311  0.405541  1
  Sm  Sm3  1  0.503074  0.665651  0.594501  1
  Sm  Sm4  1  0.002437  0.835331  0.905013  1
  Sm  Sm5  1  0.503516  0.664935  0.904876  1
  Sm  Sm6  1  0.002275  0.834603  0.594450  1
  Sm  Sm7  1  0.496918  0.334738  0.406317  1
  Si  Si8  1  0.655875  0.045385  0.548858  1
  Si  Si9  1  0.156401  0.457067  0.950228  1
  Si  Si10  1  0.346790  0.952900  0.048527  1
  Si  Si11  1  0.844126  0.544217  0.451275  1
  Si  Si12  1  0.344045  0.954808  0.451669  1
  Si  Si13  1  0.843143  0.546748  0.048537  1
  Si  Si14  1  0.654629  0.045416  0.950031  1
  Si  Si15  1  0.156187  0.455450  0.548925  1
  Si  Si16  1  0.535607  0.360081  0.749488  1
  Si  Si17  1  0.035994  0.139746  0.749804  1
  Si  Si18  1  0.464062  0.639284  0.250588  1
  Si  Si19  1  0.963446  0.858600  0.251048  1
  Si  Si20  1  0.806035  0.621519  0.749613  1
  Si  Si21  1  0.305903  0.877713  0.749698  1
  Si  Si22  1  0.194715  0.380347  0.250765  1
  Si  Si23  1  0.692638  0.121917  0.250921  1
  Mo  Mo24  1  0.831924  0.334761  0.626059  1
  Mo  Mo25  1  0.330933  0.164892  0.873228  1
  Mo  Mo26  1  0.168075  0.665307  0.126446  1
  Mo  Mo27  1  0.668698  0.835019  0.374695  1
  Mo  Mo28  1  0.168480  0.665178  0.374764  1
  Mo  Mo29  1  0.668939  0.834736  0.126761  1
  Mo  Mo30  1  0.831583  0.335661  0.873050  1
  Mo  Mo31  1  0.330637  0.164646  0.626014  1
  Mo  Mo32  1  0.665155  0.003506  0.749479  1
  Mo  Mo33  1  0.165322  0.497198  0.749608  1
  Mo  Mo34  1  0.334944  0.995089  0.250652  1
  Mo  Mo35  1  0.834472  0.503274  0.250371  1
