# generated using pymatgen
data_Lu4Sc2(WO6)3
_symmetry_space_group_name_H-M   'P 1'
_cell_length_a   8.95578700
_cell_length_b   8.96033269
_cell_length_c   4.99455495
_cell_angle_alpha   90.39187334
_cell_angle_beta   90.00009114
_cell_angle_gamma   119.98297613
_symmetry_Int_Tables_number   1
_chemical_formula_structural   Lu4Sc2(WO6)3
_chemical_formula_sum   'Lu4 Sc2 W3 O18'
_cell_volume   347.14926561
_cell_formula_units_Z   1
loop_
 _symmetry_equiv_pos_site_id
 _symmetry_equiv_pos_as_xyz
  1  'x, y, z'
loop_
 _atom_site_type_symbol
 _atom_site_label
 _atom_site_symmetry_multiplicity
 _atom_site_fract_x
 _atom_site_fract_y
 _atom_site_fract_z
 _atom_site_occupancy
  Lu  Lu0  1  0.629677  0.000002  0.999995  1
  Lu  Lu1  1  0.370475  0.372304  0.998752  1
  Lu  Lu2  1  0.998163  0.627685  0.001244  1
  Lu  Lu3  1  0.289011  0.999998  0.500000  1
  Sc  Sc4  1  0.000535  0.296485  0.500770  1
  Sc  Sc5  1  0.704049  0.703518  0.499232  1
  W  W6  1  0.996717  0.000001  0.000001  1
  W  W7  1  0.669446  0.335413  0.500643  1
  W  W8  1  0.334033  0.664588  0.499354  1
  O  O9  1  0.883342  0.094763  0.218138  1
  O  O10  1  0.208147  0.121857  0.208744  1
  O  O11  1  0.908990  0.796082  0.227339  1
  O  O12  1  0.230217  0.453320  0.282425  1
  O  O13  1  0.225761  0.762841  0.275851  1
  O  O14  1  0.543279  0.772359  0.280068  1
  O  O15  1  0.543516  0.129118  0.280424  1
  O  O16  1  0.876139  0.415508  0.284924  1
  O  O17  1  0.587533  0.460110  0.281065  1
  O  O18  1  0.127426  0.539892  0.718941  1
  O  O19  1  0.460631  0.584489  0.715068  1
  O  O20  1  0.414398  0.870886  0.719572  1
  O  O21  1  0.770924  0.227647  0.719935  1
  O  O22  1  0.462921  0.237160  0.724143  1
  O  O23  1  0.776895  0.546678  0.717582  1
  O  O24  1  0.112912  0.203923  0.772665  1
  O  O25  1  0.086287  0.878143  0.791256  1
  O  O26  1  0.788579  0.905237  0.781868  1
