# generated using pymatgen
data_Li8Er7TmSn8
_symmetry_space_group_name_H-M   'P 1'
_cell_length_a   9.33874204
_cell_length_b   9.33874266
_cell_length_c   7.21181900
_cell_angle_alpha   90.00304390
_cell_angle_beta   89.99696109
_cell_angle_gamma   119.98929206
_symmetry_Int_Tables_number   1
_chemical_formula_structural   Li8Er7TmSn8
_chemical_formula_sum   'Li8 Er7 Tm1 Sn8'
_cell_volume   544.75231860
_cell_formula_units_Z   1
loop_
 _symmetry_equiv_pos_site_id
 _symmetry_equiv_pos_as_xyz
  1  'x, y, z'
loop_
 _atom_site_type_symbol
 _atom_site_label
 _atom_site_symmetry_multiplicity
 _atom_site_fract_x
 _atom_site_fract_y
 _atom_site_fract_z
 _atom_site_occupancy
  Li  Li0  1  0.833047  0.666408  0.711835  1
  Li  Li1  1  0.833173  0.166827  0.711905  1
  Li  Li2  1  0.333319  0.666681  0.821105  1
  Li  Li3  1  0.666593  0.333407  0.321250  1
  Li  Li4  1  0.666375  0.833168  0.211996  1
  Li  Li5  1  0.166832  0.333625  0.211996  1
  Li  Li6  1  0.166725  0.833275  0.211953  1
  Li  Li7  1  0.333592  0.166953  0.711835  1
  Er  Er8  1  0.999984  0.000016  0.000138  1
  Er  Er9  1  0.999976  0.000024  0.500204  1
  Er  Er10  1  0.511422  0.488578  0.005820  1
  Er  Er11  1  0.022873  0.511417  0.505846  1
  Er  Er12  1  0.488583  0.977127  0.505846  1
  Er  Er13  1  0.511380  0.022835  0.005818  1
  Er  Er14  1  0.977165  0.488620  0.005818  1
  Tm  Tm15  1  0.488567  0.511433  0.505991  1
  Sn  Sn16  1  0.166702  0.833298  0.771619  1
  Sn  Sn17  1  0.666594  0.333406  0.740287  1
  Sn  Sn18  1  0.333514  0.666486  0.240770  1
  Sn  Sn19  1  0.833446  0.166554  0.270893  1
  Sn  Sn20  1  0.166548  0.333237  0.771151  1
  Sn  Sn21  1  0.333675  0.166847  0.271386  1
  Sn  Sn22  1  0.833153  0.666325  0.271386  1
  Sn  Sn23  1  0.666763  0.833452  0.771151  1
