# generated using pymatgen
data_Ac2P24IrRu7
_symmetry_space_group_name_H-M   'P 1'
_cell_length_a   8.10956170
_cell_length_b   8.10956138
_cell_length_c   8.10956200
_cell_angle_alpha   89.94530111
_cell_angle_beta   89.94530111
_cell_angle_gamma   89.94530544
_symmetry_Int_Tables_number   1
_chemical_formula_structural   Ac2P24IrRu7
_chemical_formula_sum   'Ac2 P24 Ir1 Ru7'
_cell_volume   533.32452195
_cell_formula_units_Z   1
loop_
 _symmetry_equiv_pos_site_id
 _symmetry_equiv_pos_as_xyz
  1  'x, y, z'
loop_
 _atom_site_type_symbol
 _atom_site_label
 _atom_site_symmetry_multiplicity
 _atom_site_fract_x
 _atom_site_fract_y
 _atom_site_fract_z
 _atom_site_occupancy
  Ac  Ac0  1  0.997631  0.997631  0.997631  1
  Ac  Ac1  1  0.502369  0.502369  0.502369  1
  P  P2  1  0.358919  0.142868  0.997518  1
  P  P3  1  0.641247  0.144536  0.000105  1
  P  P4  1  0.358241  0.855824  0.999760  1
  P  P5  1  0.640943  0.855573  0.999892  1
  P  P6  1  0.357131  0.502481  0.141081  1
  P  P7  1  0.644176  0.500240  0.141759  1
  P  P8  1  0.997518  0.358919  0.142868  1
  P  P9  1  0.000105  0.641247  0.144536  1
  P  P10  1  0.502481  0.141081  0.357131  1
  P  P11  1  0.499895  0.858753  0.355464  1
  P  P12  1  0.142868  0.997518  0.358919  1
  P  P13  1  0.855824  0.999760  0.358241  1
  P  P14  1  0.141081  0.357131  0.502481  1
  P  P15  1  0.858753  0.355464  0.499895  1
  P  P16  1  0.141759  0.644176  0.500240  1
  P  P17  1  0.859057  0.644428  0.500107  1
  P  P18  1  0.144536  0.000105  0.641247  1
  P  P19  1  0.855573  0.999892  0.640943  1
  P  P20  1  0.500240  0.141759  0.644176  1
  P  P21  1  0.500107  0.859057  0.644428  1
  P  P22  1  0.999760  0.358241  0.855824  1
  P  P23  1  0.999892  0.640943  0.855573  1
  P  P24  1  0.355464  0.499895  0.858753  1
  P  P25  1  0.644428  0.500107  0.859057  1
  Ir  Ir26  1  0.250000  0.250000  0.250000  1
  Ru  Ru27  1  0.750000  0.250000  0.250000  1
  Ru  Ru28  1  0.250000  0.750000  0.250000  1
  Ru  Ru29  1  0.750000  0.750000  0.250000  1
  Ru  Ru30  1  0.250000  0.250000  0.750000  1
  Ru  Ru31  1  0.750000  0.250000  0.750000  1
  Ru  Ru32  1  0.250000  0.750000  0.750000  1
  Ru  Ru33  1  0.750000  0.750000  0.750000  1
