# generated using pymatgen
data_HfTaAsC
_symmetry_space_group_name_H-M   'P 1'
_cell_length_a   3.36623300
_cell_length_b   3.36623350
_cell_length_c   12.26921200
_cell_angle_alpha   90.00000000
_cell_angle_beta   90.00000000
_cell_angle_gamma   120.00002460
_symmetry_Int_Tables_number   1
_chemical_formula_structural   HfTaAsC
_chemical_formula_sum   'Hf2 Ta2 As2 C2'
_cell_volume   120.40252787
_cell_formula_units_Z   2
loop_
 _symmetry_equiv_pos_site_id
 _symmetry_equiv_pos_as_xyz
  1  'x, y, z'
loop_
 _atom_site_type_symbol
 _atom_site_label
 _atom_site_symmetry_multiplicity
 _atom_site_fract_x
 _atom_site_fract_y
 _atom_site_fract_z
 _atom_site_occupancy
  Hf  Hf0  1  0.333333  0.666667  0.404065  1
  Hf  Hf1  1  0.666667  0.333333  0.904065  1
  Ta  Ta2  1  0.666667  0.333333  0.597381  1
  Ta  Ta3  1  0.333333  0.666667  0.097381  1
  As  As4  1  0.666667  0.333333  0.244668  1
  As  As5  1  0.333333  0.666667  0.744668  1
  C  C6  1  0.000000  0.000000  0.503886  1
  C  C7  1  0.000000  0.000000  0.003886  1
