# generated using pymatgen
data_Tm5Al3C4
_symmetry_space_group_name_H-M   'P 1'
_cell_length_a   10.76315000
_cell_length_b   10.76315000
_cell_length_c   3.46121400
_cell_angle_alpha   90.00000000
_cell_angle_beta   90.00000000
_cell_angle_gamma   90.00000000
_symmetry_Int_Tables_number   1
_chemical_formula_structural   Tm5Al3C4
_chemical_formula_sum   'Tm10 Al6 C8'
_cell_volume   400.96571312
_cell_formula_units_Z   2
loop_
 _symmetry_equiv_pos_site_id
 _symmetry_equiv_pos_as_xyz
  1  'x, y, z'
loop_
 _atom_site_type_symbol
 _atom_site_label
 _atom_site_symmetry_multiplicity
 _atom_site_fract_x
 _atom_site_fract_y
 _atom_site_fract_z
 _atom_site_occupancy
  Tm  Tm0  1  0.549755  0.731696  0.500000  1
  Tm  Tm1  1  0.450245  0.268304  0.500000  1
  Tm  Tm2  1  0.049755  0.768304  0.500000  1
  Tm  Tm3  1  0.950245  0.231696  0.500000  1
  Tm  Tm4  1  0.268304  0.549755  0.500000  1
  Tm  Tm5  1  0.731696  0.450245  0.500000  1
  Tm  Tm6  1  0.231696  0.049755  0.500000  1
  Tm  Tm7  1  0.768304  0.950245  0.500000  1
  Tm  Tm8  1  0.500000  0.000000  0.000000  1
  Tm  Tm9  1  0.000000  0.500000  0.000000  1
  Al  Al10  1  0.703828  0.203828  0.000000  1
  Al  Al11  1  0.296172  0.796172  0.000000  1
  Al  Al12  1  0.203828  0.296172  0.000000  1
  Al  Al13  1  0.796172  0.703828  0.000000  1
  Al  Al14  1  0.500000  0.500000  0.000000  1
  Al  Al15  1  0.000000  0.000000  0.000000  1
  C  C16  1  0.629625  0.129625  0.500000  1
  C  C17  1  0.370375  0.870375  0.500000  1
  C  C18  1  0.129625  0.370375  0.500000  1
  C  C19  1  0.870375  0.629625  0.500000  1
  C  C20  1  0.161282  0.661282  0.000000  1
  C  C21  1  0.838718  0.338718  0.000000  1
  C  C22  1  0.661282  0.838718  0.000000  1
  C  C23  1  0.338718  0.161282  0.000000  1
