# generated using pymatgen
data_La3Al4Cl
_symmetry_space_group_name_H-M   'P 1'
_cell_length_a   8.25726516
_cell_length_b   8.25726489
_cell_length_c   8.25726504
_cell_angle_alpha   119.35785331
_cell_angle_beta   119.35784595
_cell_angle_gamma   91.11588377
_symmetry_Int_Tables_number   1
_chemical_formula_structural   La3Al4Cl
_chemical_formula_sum   'La6 Al8 Cl2'
_cell_volume   401.88287877
_cell_formula_units_Z   2
loop_
 _symmetry_equiv_pos_site_id
 _symmetry_equiv_pos_as_xyz
  1  'x, y, z'
loop_
 _atom_site_type_symbol
 _atom_site_label
 _atom_site_symmetry_multiplicity
 _atom_site_fract_x
 _atom_site_fract_y
 _atom_site_fract_z
 _atom_site_occupancy
  La  La0  1  0.660379  0.160379  0.820757  1
  La  La1  1  0.160379  0.339621  0.500000  1
  La  La2  1  0.839621  0.660379  0.500000  1
  La  La3  1  0.750000  0.750000  0.000000  1
  La  La4  1  0.339621  0.839621  0.179243  1
  La  La5  1  0.250000  0.250000  0.000000  1
  Al  Al6  1  0.943611  0.443611  0.785919  1
  Al  Al7  1  0.842308  0.056389  0.500000  1
  Al  Al8  1  0.342308  0.842308  0.785919  1
  Al  Al9  1  0.443611  0.657692  0.500000  1
  Al  Al10  1  0.556389  0.342308  0.500000  1
  Al  Al11  1  0.056389  0.556389  0.214081  1
  Al  Al12  1  0.157692  0.943611  0.500000  1
  Al  Al13  1  0.657692  0.157692  0.214081  1
  Cl  Cl14  1  0.500000  0.500000  0.000000  1
  Cl  Cl15  1  0.000000  0.000000  0.000000  1
