# generated using pymatgen
data_Y2Lu4Fe17Co
_symmetry_space_group_name_H-M   'P 1'
_cell_length_a   5.06609500
_cell_length_b   5.06609478
_cell_length_c   16.02345300
_cell_angle_alpha   90.00000000
_cell_angle_beta   90.00000000
_cell_angle_gamma   119.99999492
_symmetry_Int_Tables_number   1
_chemical_formula_structural   Y2Lu4Fe17Co
_chemical_formula_sum   'Y2 Lu4 Fe17 Co1'
_cell_volume   356.15037391
_cell_formula_units_Z   1
loop_
 _symmetry_equiv_pos_site_id
 _symmetry_equiv_pos_as_xyz
  1  'x, y, z'
loop_
 _atom_site_type_symbol
 _atom_site_label
 _atom_site_symmetry_multiplicity
 _atom_site_fract_x
 _atom_site_fract_y
 _atom_site_fract_z
 _atom_site_occupancy
  Y  Y0  1  0.333333  0.666667  0.750123  1
  Y  Y1  1  0.666667  0.333333  0.249877  1
  Lu  Lu2  1  0.333333  0.666667  0.963521  1
  Lu  Lu3  1  0.666667  0.333333  0.036479  1
  Lu  Lu4  1  0.666667  0.333333  0.463527  1
  Lu  Lu5  1  0.333333  0.666667  0.536473  1
  Fe  Fe6  1  0.167483  0.832517  0.373978  1
  Fe  Fe7  1  0.167483  0.334966  0.373978  1
  Fe  Fe8  1  0.665034  0.832517  0.373978  1
  Fe  Fe9  1  0.832517  0.167483  0.626022  1
  Fe  Fe10  1  0.832517  0.665034  0.626022  1
  Fe  Fe11  1  0.334966  0.167483  0.626022  1
  Fe  Fe12  1  0.832787  0.167213  0.874170  1
  Fe  Fe13  1  0.832787  0.665574  0.874170  1
  Fe  Fe14  1  0.334426  0.167213  0.874170  1
  Fe  Fe15  1  0.167213  0.832787  0.125830  1
  Fe  Fe16  1  0.167213  0.334426  0.125830  1
  Fe  Fe17  1  0.665574  0.832787  0.125830  1
  Fe  Fe18  1  0.333333  0.666667  0.249902  1
  Fe  Fe19  1  0.666667  0.333333  0.750098  1
  Fe  Fe20  1  0.000000  0.000000  0.250099  1
  Fe  Fe21  1  0.000000  0.000000  0.749901  1
  Fe  Fe22  1  0.000000  0.000000  0.000000  1
  Co  Co23  1  0.000000  0.000000  0.500000  1
