# generated using pymatgen
data_Nb5Co6SiMo
_symmetry_space_group_name_H-M   'P 1'
_cell_length_a   8.99792433
_cell_length_b   8.99792436
_cell_length_c   8.99792305
_cell_angle_alpha   31.45920361
_cell_angle_beta   31.45920325
_cell_angle_gamma   31.45920744
_symmetry_Int_Tables_number   1
_chemical_formula_structural   Nb5Co6SiMo
_chemical_formula_sum   'Nb5 Co6 Si1 Mo1'
_cell_volume   176.14678758
_cell_formula_units_Z   1
loop_
 _symmetry_equiv_pos_site_id
 _symmetry_equiv_pos_as_xyz
  1  'x, y, z'
loop_
 _atom_site_type_symbol
 _atom_site_label
 _atom_site_symmetry_multiplicity
 _atom_site_fract_x
 _atom_site_fract_y
 _atom_site_fract_z
 _atom_site_occupancy
  Nb  Nb0  1  0.169162  0.169162  0.169162  1
  Nb  Nb1  1  0.652115  0.652115  0.652115  1
  Nb  Nb2  1  0.347564  0.347564  0.347564  1
  Nb  Nb3  1  0.549929  0.549929  0.549929  1
  Nb  Nb4  1  0.450115  0.450115  0.450115  1
  Co  Co5  1  0.908535  0.411199  0.908535  1
  Co  Co6  1  0.908535  0.908535  0.411199  1
  Co  Co7  1  0.411199  0.908535  0.908535  1
  Co  Co8  1  0.089983  0.592172  0.089983  1
  Co  Co9  1  0.089983  0.089983  0.592172  1
  Co  Co10  1  0.592172  0.089983  0.089983  1
  Si  Si11  1  0.000250  0.000250  0.000250  1
  Mo  Mo12  1  0.830458  0.830458  0.830458  1
