# generated using pymatgen
data_La3Pr5Cd2IrPt
_symmetry_space_group_name_H-M   'P 1'
_cell_length_a   10.08607284
_cell_length_b   10.13992240
_cell_length_c   10.12175242
_cell_angle_alpha   59.70779752
_cell_angle_beta   60.23561555
_cell_angle_gamma   60.34245709
_symmetry_Int_Tables_number   1
_chemical_formula_structural   La3Pr5Cd2IrPt
_chemical_formula_sum   'La6 Pr10 Cd4 Ir2 Pt2'
_cell_volume   733.50619679
_cell_formula_units_Z   2
loop_
 _symmetry_equiv_pos_site_id
 _symmetry_equiv_pos_as_xyz
  1  'x, y, z'
loop_
 _atom_site_type_symbol
 _atom_site_label
 _atom_site_symmetry_multiplicity
 _atom_site_fract_x
 _atom_site_fract_y
 _atom_site_fract_z
 _atom_site_occupancy
  La  La0  1  0.347401  0.349896  0.344851  1
  La  La1  1  0.349896  0.347401  0.957851  1
  La  La2  1  0.353029  0.954443  0.345340  1
  La  La3  1  0.954443  0.353029  0.347187  1
  La  La4  1  0.807061  0.187998  0.188306  1
  La  La5  1  0.187998  0.807061  0.816635  1
  Pr  Pr6  1  0.191809  0.804804  0.192130  1
  Pr  Pr7  1  0.804804  0.191809  0.811257  1
  Pr  Pr8  1  0.192981  0.192981  0.807019  1
  Pr  Pr9  1  0.808748  0.808748  0.191252  1
  Pr  Pr10  1  0.935613  0.566139  0.564253  1
  Pr  Pr11  1  0.566139  0.935613  0.933995  1
  Pr  Pr12  1  0.564410  0.937668  0.561869  1
  Pr  Pr13  1  0.937668  0.564410  0.936053  1
  Pr  Pr14  1  0.562842  0.562842  0.937158  1
  Pr  Pr15  1  0.936504  0.936504  0.563496  1
  Cd  Cd16  1  0.580527  0.579507  0.579400  1
  Cd  Cd17  1  0.579507  0.580527  0.260565  1
  Cd  Cd18  1  0.579464  0.260550  0.580524  1
  Cd  Cd19  1  0.260550  0.579464  0.579460  1
  Ir  Ir20  1  0.144011  0.573355  0.137387  1
  Ir  Ir21  1  0.573355  0.144011  0.145246  1
  Pt  Pt22  1  0.137648  0.143589  0.145077  1
  Pt  Pt23  1  0.143589  0.137648  0.573686  1
