# generated using pymatgen
data_Li8TbPr7Bi8
_symmetry_space_group_name_H-M   'P 1'
_cell_length_a   9.87838800
_cell_length_b   9.87838754
_cell_length_c   7.47211000
_cell_angle_alpha   90.00000000
_cell_angle_beta   90.00000000
_cell_angle_gamma   119.99999485
_symmetry_Int_Tables_number   1
_chemical_formula_structural   Li8TbPr7Bi8
_chemical_formula_sum   'Li8 Tb1 Pr7 Bi8'
_cell_volume   631.46029924
_cell_formula_units_Z   1
loop_
 _symmetry_equiv_pos_site_id
 _symmetry_equiv_pos_as_xyz
  1  'x, y, z'
loop_
 _atom_site_type_symbol
 _atom_site_label
 _atom_site_symmetry_multiplicity
 _atom_site_fract_x
 _atom_site_fract_y
 _atom_site_fract_z
 _atom_site_occupancy
  Li  Li0  1  0.166655  0.833345  0.286047  1
  Li  Li1  1  0.666689  0.833345  0.286047  1
  Li  Li2  1  0.166655  0.333311  0.286047  1
  Li  Li3  1  0.833248  0.166752  0.795642  1
  Li  Li4  1  0.333506  0.166752  0.795642  1
  Li  Li5  1  0.833248  0.666494  0.795642  1
  Li  Li6  1  0.333333  0.666667  0.702769  1
  Li  Li7  1  0.666667  0.333333  0.203836  1
  Tb  Tb8  1  0.000000  0.000000  0.016668  1
  Pr  Pr9  1  0.509000  0.491000  0.509141  1
  Pr  Pr10  1  0.982001  0.491000  0.509141  1
  Pr  Pr11  1  0.509000  0.017999  0.509141  1
  Pr  Pr12  1  0.490330  0.509670  0.009381  1
  Pr  Pr13  1  0.019341  0.509670  0.009381  1
  Pr  Pr14  1  0.490330  0.980659  0.009381  1
  Pr  Pr15  1  0.000000  0.000000  0.517443  1
  Bi  Bi16  1  0.165830  0.834170  0.756365  1
  Bi  Bi17  1  0.668341  0.834170  0.756365  1
  Bi  Bi18  1  0.165830  0.331659  0.756365  1
  Bi  Bi19  1  0.834670  0.165330  0.248126  1
  Bi  Bi20  1  0.330660  0.165330  0.248126  1
  Bi  Bi21  1  0.834670  0.669340  0.248126  1
  Bi  Bi22  1  0.333333  0.666667  0.278916  1
  Bi  Bi23  1  0.666667  0.333333  0.776249  1
