# generated using pymatgen
data_Ho2Tm3Hf3Pt4
_symmetry_space_group_name_H-M   'P 1'
_cell_length_a   4.69190500
_cell_length_b   7.01441927
_cell_length_c   8.32080255
_cell_angle_alpha   89.56633587
_cell_angle_beta   90.00000000
_cell_angle_gamma   90.00000000
_symmetry_Int_Tables_number   1
_chemical_formula_structural   Ho2Tm3Hf3Pt4
_chemical_formula_sum   'Ho2 Tm3 Hf3 Pt4'
_cell_volume   273.83799600
_cell_formula_units_Z   1
loop_
 _symmetry_equiv_pos_site_id
 _symmetry_equiv_pos_as_xyz
  1  'x, y, z'
loop_
 _atom_site_type_symbol
 _atom_site_label
 _atom_site_symmetry_multiplicity
 _atom_site_fract_x
 _atom_site_fract_y
 _atom_site_fract_z
 _atom_site_occupancy
  Ho  Ho0  1  0.250000  0.988476  0.325773  1
  Ho  Ho1  1  0.250000  0.479894  0.171744  1
  Tm  Tm2  1  0.750000  0.646564  0.420222  1
  Tm  Tm3  1  0.750000  0.019259  0.681337  1
  Tm  Tm4  1  0.750000  0.516898  0.820980  1
  Hf  Hf5  1  0.250000  0.857114  0.924422  1
  Hf  Hf6  1  0.250000  0.354460  0.578093  1
  Hf  Hf7  1  0.750000  0.146914  0.076683  1
  Pt  Pt8  1  0.250000  0.232362  0.902602  1
  Pt  Pt9  1  0.250000  0.736281  0.609420  1
  Pt  Pt10  1  0.750000  0.769173  0.083092  1
  Pt  Pt11  1  0.750000  0.252606  0.405634  1
