# generated using pymatgen
data_Y2Ga3Co14
_symmetry_space_group_name_H-M   'P 1'
_cell_length_a   6.35246960
_cell_length_b   6.35247053
_cell_length_c   6.35246928
_cell_angle_alpha   82.70852083
_cell_angle_beta   82.70852445
_cell_angle_gamma   82.70853324
_symmetry_Int_Tables_number   1
_chemical_formula_structural   Y2Ga3Co14
_chemical_formula_sum   'Y2 Ga3 Co14'
_cell_volume   250.61287601
_cell_formula_units_Z   1
loop_
 _symmetry_equiv_pos_site_id
 _symmetry_equiv_pos_as_xyz
  1  'x, y, z'
loop_
 _atom_site_type_symbol
 _atom_site_label
 _atom_site_symmetry_multiplicity
 _atom_site_fract_x
 _atom_site_fract_y
 _atom_site_fract_z
 _atom_site_occupancy
  Y  Y0  1  0.659079  0.659079  0.659079  1
  Y  Y1  1  0.333535  0.333535  0.333535  1
  Ga  Ga2  1  0.155088  0.652596  0.652596  1
  Ga  Ga3  1  0.652596  0.652596  0.155088  1
  Ga  Ga4  1  0.652596  0.155088  0.652596  1
  Co  Co5  1  0.907681  0.907681  0.907681  1
  Co  Co6  1  0.095327  0.095327  0.095327  1
  Co  Co7  1  0.004636  0.004636  0.495709  1
  Co  Co8  1  0.004636  0.495709  0.004636  1
  Co  Co9  1  0.495709  0.004636  0.004636  1
  Co  Co10  1  0.286815  0.714314  0.001536  1
  Co  Co11  1  0.714314  0.001536  0.286815  1
  Co  Co12  1  0.001536  0.286815  0.714314  1
  Co  Co13  1  0.286815  0.001536  0.714314  1
  Co  Co14  1  0.001536  0.714314  0.286815  1
  Co  Co15  1  0.714314  0.286815  0.001536  1
  Co  Co16  1  0.854910  0.339439  0.339439  1
  Co  Co17  1  0.339439  0.339439  0.854910  1
  Co  Co18  1  0.339439  0.854910  0.339439  1
