# generated using pymatgen
data_LaCoP3Rh4
_symmetry_space_group_name_H-M   'P 1'
_cell_length_a   3.89662100
_cell_length_b   10.90753200
_cell_length_c   12.52478600
_cell_angle_alpha   90.00000000
_cell_angle_beta   90.00000000
_cell_angle_gamma   90.00000000
_symmetry_Int_Tables_number   1
_chemical_formula_structural   LaCoP3Rh4
_chemical_formula_sum   'La4 Co4 P12 Rh16'
_cell_volume   532.33494553
_cell_formula_units_Z   4
loop_
 _symmetry_equiv_pos_site_id
 _symmetry_equiv_pos_as_xyz
  1  'x, y, z'
loop_
 _atom_site_type_symbol
 _atom_site_label
 _atom_site_symmetry_multiplicity
 _atom_site_fract_x
 _atom_site_fract_y
 _atom_site_fract_z
 _atom_site_occupancy
  La  La0  1  0.250000  0.585188  0.707083  1
  La  La1  1  0.250000  0.914812  0.207083  1
  La  La2  1  0.750000  0.414812  0.292917  1
  La  La3  1  0.750000  0.085188  0.792917  1
  Co  Co4  1  0.250000  0.464742  0.934988  1
  Co  Co5  1  0.250000  0.035258  0.434988  1
  Co  Co6  1  0.750000  0.535258  0.065012  1
  Co  Co7  1  0.750000  0.964742  0.565012  1
  P  P8  1  0.250000  0.423952  0.104106  1
  P  P9  1  0.250000  0.076048  0.604106  1
  P  P10  1  0.750000  0.576048  0.895894  1
  P  P11  1  0.750000  0.923952  0.395894  1
  P  P12  1  0.250000  0.277010  0.874094  1
  P  P13  1  0.250000  0.222990  0.374094  1
  P  P14  1  0.750000  0.722990  0.125906  1
  P  P15  1  0.750000  0.777010  0.625906  1
  P  P16  1  0.250000  0.603605  0.390113  1
  P  P17  1  0.250000  0.896395  0.890113  1
  P  P18  1  0.750000  0.396395  0.609887  1
  P  P19  1  0.750000  0.103605  0.109887  1
  Rh  Rh20  1  0.250000  0.714340  0.987027  1
  Rh  Rh21  1  0.250000  0.785660  0.487027  1
  Rh  Rh22  1  0.750000  0.285660  0.012973  1
  Rh  Rh23  1  0.750000  0.214340  0.512973  1
  Rh  Rh24  1  0.250000  0.407704  0.483426  1
  Rh  Rh25  1  0.250000  0.092296  0.983426  1
  Rh  Rh26  1  0.750000  0.592296  0.516574  1
  Rh  Rh27  1  0.750000  0.907704  0.016574  1
  Rh  Rh28  1  0.250000  0.224683  0.176794  1
  Rh  Rh29  1  0.250000  0.275317  0.676794  1
  Rh  Rh30  1  0.750000  0.775317  0.823206  1
  Rh  Rh31  1  0.750000  0.724683  0.323206  1
  Rh  Rh32  1  0.250000  0.884669  0.696610  1
  Rh  Rh33  1  0.250000  0.615331  0.196610  1
  Rh  Rh34  1  0.750000  0.115331  0.303390  1
  Rh  Rh35  1  0.750000  0.384669  0.803390  1
