# generated using pymatgen
data_Yb5Pa3SnPd24
_symmetry_space_group_name_H-M   'P 1'
_cell_length_a   8.31999002
_cell_length_b   8.31999032
_cell_length_c   8.31999000
_cell_angle_alpha   90.37058000
_cell_angle_beta   90.37058001
_cell_angle_gamma   90.37057877
_symmetry_Int_Tables_number   1
_chemical_formula_structural   Yb5Pa3SnPd24
_chemical_formula_sum   'Yb5 Pa3 Sn1 Pd24'
_cell_volume   575.89201939
_cell_formula_units_Z   1
loop_
 _symmetry_equiv_pos_site_id
 _symmetry_equiv_pos_as_xyz
  1  'x, y, z'
loop_
 _atom_site_type_symbol
 _atom_site_label
 _atom_site_symmetry_multiplicity
 _atom_site_fract_x
 _atom_site_fract_y
 _atom_site_fract_z
 _atom_site_occupancy
  Yb  Yb0  1  0.748525  0.748525  0.748525  1
  Yb  Yb1  1  0.749216  0.749216  0.254589  1
  Yb  Yb2  1  0.749216  0.254589  0.749216  1
  Yb  Yb3  1  0.254589  0.749216  0.749216  1
  Yb  Yb4  1  0.249842  0.249842  0.249842  1
  Pa  Pa5  1  0.256345  0.256345  0.744391  1
  Pa  Pa6  1  0.256345  0.744391  0.256345  1
  Pa  Pa7  1  0.744391  0.256345  0.256345  1
  Sn  Sn8  1  0.993338  0.993338  0.993338  1
  Pd  Pd9  1  0.497168  0.497168  0.747743  1
  Pd  Pd10  1  0.498674  0.255835  0.498674  1
  Pd  Pd11  1  0.255835  0.498674  0.498674  1
  Pd  Pd12  1  0.498674  0.498674  0.255835  1
  Pd  Pd13  1  0.497168  0.747743  0.497168  1
  Pd  Pd14  1  0.747743  0.497168  0.497168  1
  Pd  Pd15  1  0.003555  0.003555  0.689637  1
  Pd  Pd16  1  0.999472  0.300710  0.999472  1
  Pd  Pd17  1  0.300710  0.999472  0.999472  1
  Pd  Pd18  1  0.999472  0.999472  0.300710  1
  Pd  Pd19  1  0.003555  0.689637  0.003555  1
  Pd  Pd20  1  0.689637  0.003555  0.003555  1
  Pd  Pd21  1  0.009877  0.495558  0.736423  1
  Pd  Pd22  1  0.497133  0.263764  0.000509  1
  Pd  Pd23  1  0.263764  0.000509  0.497133  1
  Pd  Pd24  1  0.000509  0.263764  0.497133  1
  Pd  Pd25  1  0.495558  0.009877  0.736423  1
  Pd  Pd26  1  0.263764  0.497133  0.000509  1
  Pd  Pd27  1  0.000509  0.497133  0.263764  1
  Pd  Pd28  1  0.495558  0.736423  0.009877  1
  Pd  Pd29  1  0.009877  0.736423  0.495558  1
  Pd  Pd30  1  0.497133  0.000509  0.263764  1
  Pd  Pd31  1  0.736423  0.009877  0.495558  1
  Pd  Pd32  1  0.736423  0.495558  0.009877  1
