# generated using pymatgen
data_La6LuScBi10
_symmetry_space_group_name_H-M   'P 1'
_cell_length_a   9.86615100
_cell_length_b   9.86615177
_cell_length_c   6.67341200
_cell_angle_alpha   90.00000000
_cell_angle_beta   90.00000000
_cell_angle_gamma   120.00000078
_symmetry_Int_Tables_number   1
_chemical_formula_structural   La6LuScBi10
_chemical_formula_sum   'La6 Lu1 Sc1 Bi10'
_cell_volume   562.56682246
_cell_formula_units_Z   1
loop_
 _symmetry_equiv_pos_site_id
 _symmetry_equiv_pos_as_xyz
  1  'x, y, z'
loop_
 _atom_site_type_symbol
 _atom_site_label
 _atom_site_symmetry_multiplicity
 _atom_site_fract_x
 _atom_site_fract_y
 _atom_site_fract_z
 _atom_site_occupancy
  La  La0  1  0.000000  0.618185  0.249838  1
  La  La1  1  0.381815  0.381815  0.249838  1
  La  La2  1  0.381815  0.000000  0.750162  1
  La  La3  1  0.618185  0.618185  0.750162  1
  La  La4  1  0.618185  0.000000  0.249838  1
  La  La5  1  0.000000  0.381815  0.750162  1
  Lu  Lu6  1  0.000000  0.000000  0.000000  1
  Sc  Sc7  1  0.000000  0.000000  0.500000  1
  Bi  Bi8  1  0.000000  0.263054  0.254225  1
  Bi  Bi9  1  0.333333  0.666667  0.500000  1
  Bi  Bi10  1  0.666667  0.333333  0.000000  1
  Bi  Bi11  1  0.333333  0.666667  0.000000  1
  Bi  Bi12  1  0.263054  0.263054  0.745775  1
  Bi  Bi13  1  0.736946  0.000000  0.745775  1
  Bi  Bi14  1  0.000000  0.736946  0.745775  1
  Bi  Bi15  1  0.736946  0.736946  0.254225  1
  Bi  Bi16  1  0.263054  0.000000  0.254225  1
  Bi  Bi17  1  0.666667  0.333333  0.500000  1
