# generated using pymatgen
data_Er5Sn4
_symmetry_space_group_name_H-M   'P 1'
_cell_length_a   8.02247200
_cell_length_b   8.10282800
_cell_length_c   15.37201500
_cell_angle_alpha   90.00000000
_cell_angle_beta   90.00000000
_cell_angle_gamma   90.00000000
_symmetry_Int_Tables_number   1
_chemical_formula_structural   Er5Sn4
_chemical_formula_sum   'Er20 Sn16'
_cell_volume   999.25338873
_cell_formula_units_Z   4
loop_
 _symmetry_equiv_pos_site_id
 _symmetry_equiv_pos_as_xyz
  1  'x, y, z'
loop_
 _atom_site_type_symbol
 _atom_site_label
 _atom_site_symmetry_multiplicity
 _atom_site_fract_x
 _atom_site_fract_y
 _atom_site_fract_z
 _atom_site_occupancy
  Er  Er0  1  0.377784  0.839806  0.879206  1
  Er  Er1  1  0.877784  0.660194  0.620794  1
  Er  Er2  1  0.622216  0.160194  0.379206  1
  Er  Er3  1  0.122216  0.339806  0.120794  1
  Er  Er4  1  0.622216  0.160194  0.120794  1
  Er  Er5  1  0.122216  0.339806  0.379206  1
  Er  Er6  1  0.377784  0.839806  0.620794  1
  Er  Er7  1  0.877784  0.660194  0.879206  1
  Er  Er8  1  0.534075  0.322882  0.900030  1
  Er  Er9  1  0.034075  0.177118  0.599970  1
  Er  Er10  1  0.465925  0.677118  0.400030  1
  Er  Er11  1  0.965925  0.822882  0.099970  1
  Er  Er12  1  0.465925  0.677118  0.099970  1
  Er  Er13  1  0.965925  0.822882  0.400030  1
  Er  Er14  1  0.534075  0.322882  0.599970  1
  Er  Er15  1  0.034075  0.177118  0.900030  1
  Er  Er16  1  0.208974  0.504239  0.750000  1
  Er  Er17  1  0.708974  0.995761  0.750000  1
  Er  Er18  1  0.791026  0.495761  0.250000  1
  Er  Er19  1  0.291026  0.004239  0.250000  1
  Sn  Sn20  1  0.282461  0.032930  0.042541  1
  Sn  Sn21  1  0.782461  0.467070  0.457459  1
  Sn  Sn22  1  0.717539  0.967070  0.542541  1
  Sn  Sn23  1  0.217539  0.532930  0.957459  1
  Sn  Sn24  1  0.717539  0.967070  0.957459  1
  Sn  Sn25  1  0.217539  0.532930  0.542541  1
  Sn  Sn26  1  0.282461  0.032930  0.457459  1
  Sn  Sn27  1  0.782461  0.467070  0.042541  1
  Sn  Sn28  1  0.574796  0.623494  0.750000  1
  Sn  Sn29  1  0.074796  0.876506  0.750000  1
  Sn  Sn30  1  0.425204  0.376506  0.250000  1
  Sn  Sn31  1  0.925204  0.123494  0.250000  1
  Sn  Sn32  1  0.342966  0.148676  0.750000  1
  Sn  Sn33  1  0.842966  0.351324  0.750000  1
  Sn  Sn34  1  0.657034  0.851324  0.250000  1
  Sn  Sn35  1  0.157034  0.648676  0.250000  1
