# generated using pymatgen
data_La5PrTh2(As2Au)8
_symmetry_space_group_name_H-M   'P 1'
_cell_length_a   5.90405100
_cell_length_b   5.95088559
_cell_length_c   20.60307111
_cell_angle_alpha   89.51769643
_cell_angle_beta   90.00000000
_cell_angle_gamma   90.00000000
_symmetry_Int_Tables_number   1
_chemical_formula_structural   La5PrTh2(As2Au)8
_chemical_formula_sum   'La5 Pr1 Th2 As16 Au8'
_cell_volume   723.84949480
_cell_formula_units_Z   1
loop_
 _symmetry_equiv_pos_site_id
 _symmetry_equiv_pos_as_xyz
  1  'x, y, z'
loop_
 _atom_site_type_symbol
 _atom_site_label
 _atom_site_symmetry_multiplicity
 _atom_site_fract_x
 _atom_site_fract_y
 _atom_site_fract_z
 _atom_site_occupancy
  La  La0  1  0.750000  0.985325  0.878280  1
  La  La1  1  0.250000  0.014824  0.121792  1
  La  La2  1  0.750000  0.492856  0.613295  1
  La  La3  1  0.250000  0.507013  0.387460  1
  La  La4  1  0.250000  0.487559  0.883578  1
  Pr  Pr5  1  0.750000  0.513120  0.116773  1
  Th  Th6  1  0.250000  0.992786  0.617019  1
  Th  Th7  1  0.750000  0.007365  0.381867  1
  As  As8  1  0.750000  0.991568  0.655920  1
  As  As9  1  0.250000  0.008107  0.344045  1
  As  As10  1  0.250000  0.987617  0.837409  1
  As  As11  1  0.750000  0.012769  0.162431  1
  As  As12  1  0.250000  0.491626  0.654262  1
  As  As13  1  0.750000  0.508264  0.345462  1
  As  As14  1  0.750000  0.486629  0.837244  1
  As  As15  1  0.250000  0.513141  0.162170  1
  As  As16  1  0.995020  0.223942  0.500000  1
  As  As17  1  0.508537  0.775959  0.499862  1
  As  As18  1  0.968941  0.219205  0.999620  1
  As  As19  1  0.472065  0.780072  0.001631  1
  As  As20  1  0.991463  0.775959  0.499862  1
  As  As21  1  0.504980  0.223942  0.500000  1
  As  As22  1  0.027935  0.780072  0.001631  1
  As  As23  1  0.531059  0.219205  0.999620  1
  Au  Au24  1  0.498833  0.733756  0.747983  1
  Au  Au25  1  0.999081  0.266833  0.251721  1
  Au  Au26  1  0.500919  0.266833  0.251721  1
  Au  Au27  1  0.001167  0.733756  0.747983  1
  Au  Au28  1  0.499440  0.235926  0.748018  1
  Au  Au29  1  0.999583  0.764021  0.251662  1
  Au  Au30  1  0.500417  0.764021  0.251662  1
  Au  Au31  1  0.000560  0.235926  0.748018  1
