# generated using pymatgen
data_La3Ho2(Sn5Rh2)2
_symmetry_space_group_name_H-M   'P 1'
_cell_length_a   14.23557200
_cell_length_b   14.23557200
_cell_length_c   4.59969500
_cell_angle_alpha   90.00000000
_cell_angle_beta   90.00000000
_cell_angle_gamma   90.00000000
_symmetry_Int_Tables_number   1
_chemical_formula_structural   La3Ho2(Sn5Rh2)2
_chemical_formula_sum   'La6 Ho4 Sn20 Rh8'
_cell_volume   932.13513806
_cell_formula_units_Z   2
loop_
 _symmetry_equiv_pos_site_id
 _symmetry_equiv_pos_as_xyz
  1  'x, y, z'
loop_
 _atom_site_type_symbol
 _atom_site_label
 _atom_site_symmetry_multiplicity
 _atom_site_fract_x
 _atom_site_fract_y
 _atom_site_fract_z
 _atom_site_occupancy
  La  La0  1  0.500000  0.500000  0.000000  1
  La  La1  1  0.000000  0.000000  0.000000  1
  La  La2  1  0.888046  0.388046  0.500000  1
  La  La3  1  0.111954  0.611954  0.500000  1
  La  La4  1  0.388046  0.111954  0.500000  1
  La  La5  1  0.611954  0.888046  0.500000  1
  Ho  Ho6  1  0.676715  0.176715  0.500000  1
  Ho  Ho7  1  0.323285  0.823285  0.500000  1
  Ho  Ho8  1  0.176715  0.323285  0.500000  1
  Ho  Ho9  1  0.823285  0.676715  0.500000  1
  Sn  Sn10  1  0.570293  0.070293  0.000000  1
  Sn  Sn11  1  0.429707  0.929707  0.000000  1
  Sn  Sn12  1  0.070293  0.429707  0.000000  1
  Sn  Sn13  1  0.929707  0.570293  0.000000  1
  Sn  Sn14  1  0.654651  0.698062  0.000000  1
  Sn  Sn15  1  0.345349  0.301938  0.000000  1
  Sn  Sn16  1  0.154651  0.801938  0.000000  1
  Sn  Sn17  1  0.845349  0.198062  0.000000  1
  Sn  Sn18  1  0.301938  0.654651  0.000000  1
  Sn  Sn19  1  0.698062  0.345349  0.000000  1
  Sn  Sn20  1  0.198062  0.154651  0.000000  1
  Sn  Sn21  1  0.801938  0.845349  0.000000  1
  Sn  Sn22  1  0.664177  0.506039  0.500000  1
  Sn  Sn23  1  0.335823  0.493961  0.500000  1
  Sn  Sn24  1  0.164177  0.993961  0.500000  1
  Sn  Sn25  1  0.835823  0.006039  0.500000  1
  Sn  Sn26  1  0.493961  0.664177  0.500000  1
  Sn  Sn27  1  0.506039  0.335823  0.500000  1
  Sn  Sn28  1  0.006039  0.164177  0.500000  1
  Sn  Sn29  1  0.993961  0.835823  0.500000  1
  Rh  Rh30  1  0.747415  0.529744  0.000000  1
  Rh  Rh31  1  0.252585  0.470256  0.000000  1
  Rh  Rh32  1  0.247415  0.970256  0.000000  1
  Rh  Rh33  1  0.752585  0.029744  0.000000  1
  Rh  Rh34  1  0.470256  0.747415  0.000000  1
  Rh  Rh35  1  0.529744  0.252585  0.000000  1
  Rh  Rh36  1  0.029744  0.247415  0.000000  1
  Rh  Rh37  1  0.970256  0.752585  0.000000  1
