# generated using pymatgen
data_Ac2FeSiI
_symmetry_space_group_name_H-M   'P 1'
_cell_length_a   4.26272800
_cell_length_b   4.26272773
_cell_length_c   18.56041200
_cell_angle_alpha   90.00000000
_cell_angle_beta   90.00000000
_cell_angle_gamma   119.99998659
_symmetry_Int_Tables_number   1
_chemical_formula_structural   Ac2FeSiI
_chemical_formula_sum   'Ac4 Fe2 Si2 I2'
_cell_volume   292.07441688
_cell_formula_units_Z   2
loop_
 _symmetry_equiv_pos_site_id
 _symmetry_equiv_pos_as_xyz
  1  'x, y, z'
loop_
 _atom_site_type_symbol
 _atom_site_label
 _atom_site_symmetry_multiplicity
 _atom_site_fract_x
 _atom_site_fract_y
 _atom_site_fract_z
 _atom_site_occupancy
  Ac  Ac0  1  0.000000  0.000000  0.103851  1
  Ac  Ac1  1  0.000000  0.000000  0.603851  1
  Ac  Ac2  1  0.000000  0.000000  0.895130  1
  Ac  Ac3  1  0.000000  0.000000  0.395130  1
  Fe  Fe4  1  0.333333  0.666667  0.000954  1
  Fe  Fe5  1  0.666667  0.333333  0.500954  1
  Si  Si6  1  0.666667  0.333333  0.999195  1
  Si  Si7  1  0.333333  0.666667  0.499195  1
  I  I8  1  0.666667  0.333333  0.250870  1
  I  I9  1  0.333333  0.666667  0.750870  1
