# generated using pymatgen
data_DyHo2ThFe8
_symmetry_space_group_name_H-M   'P 1'
_cell_length_a   5.16333800
_cell_length_b   5.16333926
_cell_length_c   8.91933400
_cell_angle_alpha   73.17518228
_cell_angle_beta   90.00000000
_cell_angle_gamma   119.99999193
_symmetry_Int_Tables_number   1
_chemical_formula_structural   DyHo2ThFe8
_chemical_formula_sum   'Dy1 Ho2 Th1 Fe8'
_cell_volume   194.08982367
_cell_formula_units_Z   1
loop_
 _symmetry_equiv_pos_site_id
 _symmetry_equiv_pos_as_xyz
  1  'x, y, z'
loop_
 _atom_site_type_symbol
 _atom_site_label
 _atom_site_symmetry_multiplicity
 _atom_site_fract_x
 _atom_site_fract_y
 _atom_site_fract_z
 _atom_site_occupancy
  Dy  Dy0  1  0.498615  0.997232  0.504152  1
  Ho  Ho1  1  0.374705  0.749411  0.875884  1
  Ho  Ho2  1  0.001616  0.003231  0.995153  1
  Th  Th3  1  0.875121  0.750241  0.374638  1
  Fe  Fe4  1  0.438041  0.376952  0.185007  1
  Fe  Fe5  1  0.937186  0.372814  0.689998  1
  Fe  Fe6  1  0.438041  0.876083  0.185007  1
  Fe  Fe7  1  0.937186  0.874372  0.689998  1
  Fe  Fe8  1  0.186862  0.373722  0.439416  1
  Fe  Fe9  1  0.688086  0.376174  0.935740  1
  Fe  Fe10  1  0.938910  0.376952  0.185007  1
  Fe  Fe11  1  0.435628  0.372814  0.689998  1
