# generated using pymatgen
data_Dy2HoLu3(Co3P2)6
_symmetry_space_group_name_H-M   'P 1'
_cell_length_a   3.67427300
_cell_length_b   10.47391219
_cell_length_c   12.12517949
_cell_angle_alpha   89.94438448
_cell_angle_beta   90.00000000
_cell_angle_gamma   90.00000000
_symmetry_Int_Tables_number   1
_chemical_formula_structural   Dy2HoLu3(Co3P2)6
_chemical_formula_sum   'Dy2 Ho1 Lu3 Co18 P12'
_cell_volume   466.62534203
_cell_formula_units_Z   1
loop_
 _symmetry_equiv_pos_site_id
 _symmetry_equiv_pos_as_xyz
  1  'x, y, z'
loop_
 _atom_site_type_symbol
 _atom_site_label
 _atom_site_symmetry_multiplicity
 _atom_site_fract_x
 _atom_site_fract_y
 _atom_site_fract_z
 _atom_site_occupancy
  Dy  Dy0  1  0.000000  0.499976  0.522886  1
  Dy  Dy1  1  0.500000  0.000228  0.477659  1
  Ho  Ho2  1  0.500000  0.818127  0.205631  1
  Lu  Lu3  1  0.500000  0.182117  0.205651  1
  Lu  Lu4  1  0.000000  0.681450  0.794480  1
  Lu  Lu5  1  0.000000  0.318316  0.793830  1
  Co  Co6  1  0.500000  0.500177  0.158965  1
  Co  Co7  1  0.000000  0.000099  0.841055  1
  Co  Co8  1  0.500000  0.499633  0.704867  1
  Co  Co9  1  0.000000  0.001311  0.295280  1
  Co  Co10  1  0.000000  0.499319  0.985788  1
  Co  Co11  1  0.500000  0.000616  0.012606  1
  Co  Co12  1  0.500000  0.333158  0.994612  1
  Co  Co13  1  0.500000  0.666183  0.993885  1
  Co  Co14  1  0.000000  0.167437  0.004763  1
  Co  Co15  1  0.000000  0.832974  0.004531  1
  Co  Co16  1  0.500000  0.297437  0.430211  1
  Co  Co17  1  0.500000  0.702781  0.431357  1
  Co  Co18  1  0.000000  0.202816  0.569820  1
  Co  Co19  1  0.000000  0.797263  0.570744  1
  Co  Co20  1  0.500000  0.878134  0.710753  1
  Co  Co21  1  0.500000  0.121751  0.710235  1
  Co  Co22  1  0.000000  0.620861  0.290558  1
  Co  Co23  1  0.000000  0.378122  0.289565  1
  P  P24  1  0.500000  0.499540  0.882114  1
  P  P25  1  0.000000  0.001088  0.116711  1
  P  P26  1  0.500000  0.500193  0.344260  1
  P  P27  1  0.000000  0.999938  0.656112  1
  P  P28  1  0.500000  0.310936  0.617346  1
  P  P29  1  0.500000  0.688716  0.618097  1
  P  P30  1  0.000000  0.189378  0.382617  1
  P  P31  1  0.000000  0.811122  0.384103  1
  P  P32  1  0.500000  0.845846  0.892225  1
  P  P33  1  0.500000  0.154254  0.891713  1
  P  P34  1  0.000000  0.652354  0.107186  1
  P  P35  1  0.000000  0.346350  0.107783  1
