# generated using pymatgen
data_CeEr5NbO12
_symmetry_space_group_name_H-M   'P 1'
_cell_length_a   6.47344781
_cell_length_b   6.43878971
_cell_length_c   6.48040300
_cell_angle_alpha   98.94178897
_cell_angle_beta   99.02637970
_cell_angle_gamma   98.74085176
_symmetry_Int_Tables_number   1
_chemical_formula_structural   CeEr5NbO12
_chemical_formula_sum   'Ce1 Er5 Nb1 O12'
_cell_volume   259.18279118
_cell_formula_units_Z   1
loop_
 _symmetry_equiv_pos_site_id
 _symmetry_equiv_pos_as_xyz
  1  'x, y, z'
loop_
 _atom_site_type_symbol
 _atom_site_label
 _atom_site_symmetry_multiplicity
 _atom_site_fract_x
 _atom_site_fract_y
 _atom_site_fract_z
 _atom_site_occupancy
  Ce  Ce0  1  0.690412  0.859530  0.394471  1
  Er  Er1  1  0.386731  0.687521  0.856887  1
  Er  Er2  1  0.862101  0.390746  0.697962  1
  Er  Er3  1  0.307162  0.144285  0.614724  1
  Er  Er4  1  0.609825  0.306450  0.133561  1
  Er  Er5  1  0.141321  0.606084  0.310035  1
  Nb  Nb6  1  0.004585  0.999917  0.005434  1
  O  O7  1  0.431248  0.587916  0.176964  1
  O  O8  1  0.174921  0.433536  0.586267  1
  O  O9  1  0.589635  0.174444  0.430212  1
  O  O10  1  0.566387  0.410525  0.820156  1
  O  O11  1  0.818491  0.569120  0.411575  1
  O  O12  1  0.410829  0.823007  0.567644  1
  O  O13  1  0.930637  0.048457  0.694384  1
  O  O14  1  0.956220  0.306879  0.075357  1
  O  O15  1  0.306260  0.075633  0.958059  1
  O  O16  1  0.076442  0.955753  0.305774  1
  O  O17  1  0.042224  0.694646  0.923402  1
  O  O18  1  0.694571  0.925550  0.037132  1
