# generated using pymatgen
data_Dy3Y2Mg(P2Ru3)6
_symmetry_space_group_name_H-M   'P 1'
_cell_length_a   12.63514706
_cell_length_b   12.47751096
_cell_length_c   3.98005000
_cell_angle_alpha   90.00000000
_cell_angle_beta   90.00000000
_cell_angle_gamma   119.58815033
_symmetry_Int_Tables_number   1
_chemical_formula_structural   Dy3Y2Mg(P2Ru3)6
_chemical_formula_sum   'Dy3 Y2 Mg1 P12 Ru18'
_cell_volume   545.65087359
_cell_formula_units_Z   1
loop_
 _symmetry_equiv_pos_site_id
 _symmetry_equiv_pos_as_xyz
  1  'x, y, z'
loop_
 _atom_site_type_symbol
 _atom_site_label
 _atom_site_symmetry_multiplicity
 _atom_site_fract_x
 _atom_site_fract_y
 _atom_site_fract_z
 _atom_site_occupancy
  Dy  Dy0  1  0.000000  0.181135  0.500000  1
  Dy  Dy1  1  0.660119  0.328813  0.000000  1
  Dy  Dy2  1  0.339881  0.668695  0.000000  1
  Y  Y3  1  0.815991  0.817123  0.500000  1
  Y  Y4  1  0.184009  0.001132  0.500000  1
  Mg  Mg5  1  0.000000  0.561480  0.000000  1
  P  P6  1  0.000000  0.811485  0.000000  1
  P  P7  1  0.182859  0.183804  0.000000  1
  P  P8  1  0.817141  0.000945  0.000000  1
  P  P9  1  0.691198  0.172030  0.500000  1
  P  P10  1  0.818449  0.518492  0.500000  1
  P  P11  1  0.474635  0.306923  0.500000  1
  P  P12  1  0.181551  0.700043  0.500000  1
  P  P13  1  0.525365  0.832287  0.500000  1
  P  P14  1  0.308802  0.480832  0.500000  1
  P  P15  1  0.000000  0.360182  0.000000  1
  P  P16  1  0.625196  0.625362  0.000000  1
  P  P17  1  0.374804  0.000166  0.000000  1
  Ru  Ru18  1  0.444257  0.444656  0.000000  1
  Ru  Ru19  1  0.555743  0.000399  0.000000  1
  Ru  Ru20  1  0.000000  0.716033  0.500000  1
  Ru  Ru21  1  0.281539  0.283393  0.500000  1
  Ru  Ru22  1  0.718461  0.001854  0.500000  1
  Ru  Ru23  1  0.805232  0.184524  0.000000  1
  Ru  Ru24  1  0.813210  0.619593  0.000000  1
  Ru  Ru25  1  0.373423  0.189578  0.000000  1
  Ru  Ru26  1  0.186790  0.806383  0.000000  1
  Ru  Ru27  1  0.626577  0.816154  0.000000  1
  Ru  Ru28  1  0.194768  0.379291  0.000000  1
  Ru  Ru29  1  0.874888  0.365668  0.500000  1
  Ru  Ru30  1  0.630730  0.509332  0.500000  1
  Ru  Ru31  1  0.492274  0.128623  0.500000  1
  Ru  Ru32  1  0.369270  0.878602  0.500000  1
  Ru  Ru33  1  0.507726  0.636348  0.500000  1
  Ru  Ru34  1  0.125112  0.490780  0.500000  1
  Ru  Ru35  1  0.000000  0.997858  0.000000  1
