# generated using pymatgen
data_Tb3DyEr4(ReB6)4
_symmetry_space_group_name_H-M   'P 1'
_cell_length_a   3.67347700
_cell_length_b   9.15755600
_cell_length_c   11.55040300
_cell_angle_alpha   89.99844537
_cell_angle_beta   90.00000000
_cell_angle_gamma   90.00000000
_symmetry_Int_Tables_number   1
_chemical_formula_structural   Tb3DyEr4(ReB6)4
_chemical_formula_sum   'Tb3 Dy1 Er4 Re4 B24'
_cell_volume   388.55638088
_cell_formula_units_Z   1
loop_
 _symmetry_equiv_pos_site_id
 _symmetry_equiv_pos_as_xyz
  1  'x, y, z'
loop_
 _atom_site_type_symbol
 _atom_site_label
 _atom_site_symmetry_multiplicity
 _atom_site_fract_x
 _atom_site_fract_y
 _atom_site_fract_z
 _atom_site_occupancy
  Tb  Tb0  1  0.000000  0.323473  0.413829  1
  Tb  Tb1  1  0.000000  0.676509  0.586166  1
  Tb  Tb2  1  0.000000  0.823480  0.086143  1
  Dy  Dy3  1  0.000000  0.176447  0.913862  1
  Er  Er4  1  0.000000  0.943421  0.370033  1
  Er  Er5  1  0.000000  0.056636  0.629997  1
  Er  Er6  1  0.000000  0.443310  0.129869  1
  Er  Er7  1  0.000000  0.556605  0.870090  1
  Re  Re8  1  0.000000  0.639120  0.320457  1
  Re  Re9  1  0.000000  0.360792  0.679666  1
  Re  Re10  1  0.000000  0.139141  0.179395  1
  Re  Re11  1  0.000000  0.861021  0.820511  1
  B  B12  1  0.500000  0.553708  0.432576  1
  B  B13  1  0.500000  0.446268  0.567449  1
  B  B14  1  0.500000  0.053758  0.067277  1
  B  B15  1  0.500000  0.946478  0.932599  1
  B  B16  1  0.500000  0.749856  0.418423  1
  B  B17  1  0.500000  0.250145  0.581609  1
  B  B18  1  0.500000  0.249833  0.081369  1
  B  B19  1  0.500000  0.750186  0.918407  1
  B  B20  1  0.500000  0.792507  0.265853  1
  B  B21  1  0.500000  0.207402  0.734284  1
  B  B22  1  0.500000  0.292501  0.234110  1
  B  B23  1  0.500000  0.707491  0.765873  1
  B  B24  1  0.500000  0.630750  0.185695  1
  B  B25  1  0.500000  0.369104  0.814415  1
  B  B26  1  0.500000  0.130767  0.314282  1
  B  B27  1  0.500000  0.869263  0.685740  1
  B  B28  1  0.500000  0.982632  0.212311  1
  B  B29  1  0.500000  0.017619  0.787767  1
  B  B30  1  0.500000  0.482589  0.287646  1
  B  B31  1  0.500000  0.517382  0.712357  1
  B  B32  1  0.500000  0.599225  0.027732  1
  B  B33  1  0.500000  0.400563  0.972211  1
  B  B34  1  0.500000  0.099210  0.472270  1
  B  B35  1  0.500000  0.900809  0.527730  1
