# generated using pymatgen
data_Nd2B4Ir4Ru
_symmetry_space_group_name_H-M   'P 1'
_cell_length_a   7.58985509
_cell_length_b   6.38328186
_cell_length_c   5.71814797
_cell_angle_alpha   77.47000907
_cell_angle_beta   55.18474103
_cell_angle_gamma   46.80894090
_symmetry_Int_Tables_number   1
_chemical_formula_structural   Nd2B4Ir4Ru
_chemical_formula_sum   'Nd2 B4 Ir4 Ru1'
_cell_volume   158.67858066
_cell_formula_units_Z   1
loop_
 _symmetry_equiv_pos_site_id
 _symmetry_equiv_pos_as_xyz
  1  'x, y, z'
loop_
 _atom_site_type_symbol
 _atom_site_label
 _atom_site_symmetry_multiplicity
 _atom_site_fract_x
 _atom_site_fract_y
 _atom_site_fract_z
 _atom_site_occupancy
  Nd  Nd0  1  0.860056  0.860057  0.139943  1
  Nd  Nd1  1  0.139942  0.139944  0.860057  1
  B  B2  1  0.472070  0.786468  0.204447  1
  B  B3  1  0.213532  0.527930  0.462985  1
  B  B4  1  0.786466  0.472072  0.537015  1
  B  B5  1  0.527928  0.213533  0.795553  1
  Ir  Ir6  1  0.249477  0.249476  0.250522  1
  Ir  Ir7  1  0.000000  0.000000  0.499999  1
  Ir  Ir8  1  0.500000  0.500001  0.500000  1
  Ir  Ir9  1  0.750524  0.750522  0.749477  1
  Ru  Ru10  1  0.500001  0.500000  0.000000  1
