# generated using pymatgen
data_Dy2Al20IrOs3
_symmetry_space_group_name_H-M   'P 1'
_cell_length_a   6.85253904
_cell_length_b   6.85320194
_cell_length_c   9.15085532
_cell_angle_alpha   90.17580831
_cell_angle_beta   90.08960923
_cell_angle_gamma   96.60044147
_symmetry_Int_Tables_number   1
_chemical_formula_structural   Dy2Al20IrOs3
_chemical_formula_sum   'Dy2 Al20 Ir1 Os3'
_cell_volume   426.88976853
_cell_formula_units_Z   1
loop_
 _symmetry_equiv_pos_site_id
 _symmetry_equiv_pos_as_xyz
  1  'x, y, z'
loop_
 _atom_site_type_symbol
 _atom_site_label
 _atom_site_symmetry_multiplicity
 _atom_site_fract_x
 _atom_site_fract_y
 _atom_site_fract_z
 _atom_site_occupancy
  Dy  Dy0  1  0.631104  0.371576  0.749630  1
  Dy  Dy1  1  0.368896  0.628424  0.250370  1
  Al  Al2  1  0.279920  0.018172  0.747933  1
  Al  Al3  1  0.017901  0.281305  0.249444  1
  Al  Al4  1  0.720080  0.981828  0.252067  1
  Al  Al5  1  0.982099  0.718695  0.750556  1
  Al  Al6  1  0.878634  0.124160  0.951473  1
  Al  Al7  1  0.121366  0.875840  0.048527  1
  Al  Al8  1  0.876630  0.123724  0.547256  1
  Al  Al9  1  0.123370  0.876276  0.452744  1
  Al  Al10  1  0.647173  0.916313  0.749209  1
  Al  Al11  1  0.916044  0.646208  0.250223  1
  Al  Al12  1  0.352827  0.083687  0.250791  1
  Al  Al13  1  0.083956  0.353792  0.749777  1
  Al  Al14  1  0.342694  0.655368  0.896459  1
  Al  Al15  1  0.657306  0.344632  0.103541  1
  Al  Al16  1  0.344294  0.656437  0.601638  1
  Al  Al17  1  0.655706  0.343563  0.398362  1
  Al  Al18  1  0.724136  0.722670  0.999043  1
  Al  Al19  1  0.722948  0.722672  0.500022  1
  Al  Al20  1  0.275864  0.277330  0.000957  1
  Al  Al21  1  0.277052  0.277328  0.499978  1
  Ir  Ir22  1  0.500000  0.000000  0.000000  1
  Os  Os23  1  0.000000  0.500000  0.000000  1
  Os  Os24  1  0.500000  0.000000  0.500000  1
  Os  Os25  1  0.000000  0.500000  0.500000  1
