# generated using pymatgen
data_ZrBe3CuRh
_symmetry_space_group_name_H-M   'P 1'
_cell_length_a   4.62075070
_cell_length_b   4.62075014
_cell_length_c   4.62075022
_cell_angle_alpha   60.77838782
_cell_angle_beta   60.77839045
_cell_angle_gamma   60.77839388
_symmetry_Int_Tables_number   1
_chemical_formula_structural   ZrBe3CuRh
_chemical_formula_sum   'Zr1 Be3 Cu1 Rh1'
_cell_volume   70.98755723
_cell_formula_units_Z   1
loop_
 _symmetry_equiv_pos_site_id
 _symmetry_equiv_pos_as_xyz
  1  'x, y, z'
loop_
 _atom_site_type_symbol
 _atom_site_label
 _atom_site_symmetry_multiplicity
 _atom_site_fract_x
 _atom_site_fract_y
 _atom_site_fract_z
 _atom_site_occupancy
  Zr  Zr0  1  0.000295  0.000295  0.000295  1
  Be  Be1  1  0.621779  0.621779  0.133177  1
  Be  Be2  1  0.621779  0.133177  0.621779  1
  Be  Be3  1  0.133177  0.621779  0.621779  1
  Cu  Cu4  1  0.626250  0.626250  0.626250  1
  Rh  Rh5  1  0.246718  0.246718  0.246718  1
