# generated using pymatgen
data_Ba4AlP3Pt4
_symmetry_space_group_name_H-M   'P 1'
_cell_length_a   6.67781790
_cell_length_b   6.67781790
_cell_length_c   6.67781790
_cell_angle_alpha   90.90786639
_cell_angle_beta   89.09213361
_cell_angle_gamma   90.90786639
_symmetry_Int_Tables_number   1
_chemical_formula_structural   Ba4AlP3Pt4
_chemical_formula_sum   'Ba4 Al1 P3 Pt4'
_cell_volume   297.67463983
_cell_formula_units_Z   1
loop_
 _symmetry_equiv_pos_site_id
 _symmetry_equiv_pos_as_xyz
  1  'x, y, z'
loop_
 _atom_site_type_symbol
 _atom_site_label
 _atom_site_symmetry_multiplicity
 _atom_site_fract_x
 _atom_site_fract_y
 _atom_site_fract_z
 _atom_site_occupancy
  Ba  Ba0  1  0.634994  0.375531  0.863376  1
  Ba  Ba1  1  0.363376  0.865006  0.624469  1
  Ba  Ba2  1  0.124469  0.136624  0.134994  1
  Ba  Ba3  1  0.872675  0.627325  0.372675  1
  Al  Al4  1  0.593852  0.906148  0.093852  1
  P  P5  1  0.085368  0.588155  0.913716  1
  P  P6  1  0.911845  0.086284  0.585368  1
  P  P7  1  0.413716  0.414632  0.411845  1
  Pt  Pt8  1  0.150921  0.349079  0.650921  1
  Pt  Pt9  1  0.657203  0.165515  0.357098  1
  Pt  Pt10  1  0.857098  0.842797  0.834485  1
  Pt  Pt11  1  0.334485  0.642902  0.157203  1
