# generated using pymatgen
data_Tb2Sc3Nb3(Co4P3)4
_symmetry_space_group_name_H-M   'P 1'
_cell_length_a   12.10530000
_cell_length_b   12.10529922
_cell_length_c   3.65315600
_cell_angle_alpha   90.00000000
_cell_angle_beta   90.00000000
_cell_angle_gamma   119.99999666
_symmetry_Int_Tables_number   1
_chemical_formula_structural   Tb2Sc3Nb3(Co4P3)4
_chemical_formula_sum   'Tb2 Sc3 Nb3 Co16 P12'
_cell_volume   463.60696320
_cell_formula_units_Z   1
loop_
 _symmetry_equiv_pos_site_id
 _symmetry_equiv_pos_as_xyz
  1  'x, y, z'
loop_
 _atom_site_type_symbol
 _atom_site_label
 _atom_site_symmetry_multiplicity
 _atom_site_fract_x
 _atom_site_fract_y
 _atom_site_fract_z
 _atom_site_occupancy
  Tb  Tb0  1  0.333333  0.666667  0.000000  1
  Tb  Tb1  1  0.666667  0.333333  0.000000  1
  Sc  Sc2  1  0.816825  0.000000  0.500000  1
  Sc  Sc3  1  0.000000  0.816825  0.500000  1
  Sc  Sc4  1  0.183175  0.183175  0.500000  1
  Nb  Nb5  1  0.445377  0.000000  0.000000  1
  Nb  Nb6  1  0.000000  0.445377  0.000000  1
  Nb  Nb7  1  0.554623  0.554623  0.000000  1
  Co  Co8  1  0.274988  0.000000  0.500000  1
  Co  Co9  1  0.000000  0.274988  0.500000  1
  Co  Co10  1  0.725012  0.725012  0.500000  1
  Co  Co11  1  0.631252  0.806745  0.000000  1
  Co  Co12  1  0.193255  0.824507  0.000000  1
  Co  Co13  1  0.175493  0.368748  0.000000  1
  Co  Co14  1  0.368748  0.175493  0.000000  1
  Co  Co15  1  0.806745  0.631252  0.000000  1
  Co  Co16  1  0.824507  0.193255  0.000000  1
  Co  Co17  1  0.521486  0.874311  0.500000  1
  Co  Co18  1  0.125689  0.647175  0.500000  1
  Co  Co19  1  0.352825  0.478514  0.500000  1
  Co  Co20  1  0.478514  0.352825  0.500000  1
  Co  Co21  1  0.874311  0.521486  0.500000  1
  Co  Co22  1  0.647175  0.125689  0.500000  1
  Co  Co23  1  0.000000  0.000000  0.000000  1
  P  P24  1  0.173831  0.000000  0.000000  1
  P  P25  1  0.000000  0.173831  0.000000  1
  P  P26  1  0.826169  0.826169  0.000000  1
  P  P27  1  0.523103  0.689875  0.500000  1
  P  P28  1  0.310125  0.833228  0.500000  1
  P  P29  1  0.166772  0.476897  0.500000  1
  P  P30  1  0.476897  0.166772  0.500000  1
  P  P31  1  0.689875  0.523103  0.500000  1
  P  P32  1  0.833228  0.310125  0.500000  1
  P  P33  1  0.648307  0.000000  0.000000  1
  P  P34  1  0.000000  0.648307  0.000000  1
  P  P35  1  0.351693  0.351693  0.000000  1
