# generated using pymatgen
data_SmEr16Tm3Sn16
_symmetry_space_group_name_H-M   'P 1'
_cell_length_a   7.98726154
_cell_length_b   8.11260401
_cell_length_c   15.34983991
_cell_angle_alpha   90.01166046
_cell_angle_beta   89.74356979
_cell_angle_gamma   89.94863726
_symmetry_Int_Tables_number   1
_chemical_formula_structural   SmEr16Tm3Sn16
_chemical_formula_sum   'Sm1 Er16 Tm3 Sn16'
_cell_volume   994.62071613
_cell_formula_units_Z   1
loop_
 _symmetry_equiv_pos_site_id
 _symmetry_equiv_pos_as_xyz
  1  'x, y, z'
loop_
 _atom_site_type_symbol
 _atom_site_label
 _atom_site_symmetry_multiplicity
 _atom_site_fract_x
 _atom_site_fract_y
 _atom_site_fract_z
 _atom_site_occupancy
  Sm  Sm0  1  0.018612  0.179346  0.904047  1
  Er  Er1  1  0.366786  0.837018  0.876760  1
  Er  Er2  1  0.868117  0.663363  0.621860  1
  Er  Er3  1  0.631548  0.162782  0.377254  1
  Er  Er4  1  0.133628  0.337616  0.123199  1
  Er  Er5  1  0.633660  0.163008  0.123268  1
  Er  Er6  1  0.131725  0.337126  0.377496  1
  Er  Er7  1  0.368806  0.836922  0.622379  1
  Er  Er8  1  0.867404  0.662735  0.877138  1
  Er  Er9  1  0.521666  0.322199  0.902952  1
  Er  Er10  1  0.023039  0.178696  0.597672  1
  Er  Er11  1  0.477660  0.678441  0.402828  1
  Er  Er12  1  0.979247  0.820201  0.097108  1
  Er  Er13  1  0.478578  0.678935  0.097137  1
  Er  Er14  1  0.977672  0.821536  0.402947  1
  Er  Er15  1  0.522255  0.321810  0.596358  1
  Er  Er16  1  0.198439  0.503375  0.749332  1
  Tm  Tm17  1  0.698180  0.996180  0.749152  1
  Tm  Tm18  1  0.801698  0.496610  0.250343  1
  Tm  Tm19  1  0.301923  0.003391  0.250447  1
  Sn  Sn20  1  0.296063  0.034937  0.042973  1
  Sn  Sn21  1  0.792034  0.463625  0.458272  1
  Sn  Sn22  1  0.708199  0.964633  0.541378  1
  Sn  Sn23  1  0.208034  0.538629  0.959019  1
  Sn  Sn24  1  0.702272  0.959650  0.959437  1
  Sn  Sn25  1  0.207848  0.536281  0.541307  1
  Sn  Sn26  1  0.292228  0.036104  0.458512  1
  Sn  Sn27  1  0.792978  0.463653  0.041735  1
  Sn  Sn28  1  0.564608  0.619355  0.749821  1
  Sn  Sn29  1  0.064389  0.879617  0.749490  1
  Sn  Sn30  1  0.435748  0.381474  0.250212  1
  Sn  Sn31  1  0.936002  0.118977  0.250342  1
  Sn  Sn32  1  0.333181  0.149246  0.749465  1
  Sn  Sn33  1  0.828884  0.352341  0.748345  1
  Sn  Sn34  1  0.668661  0.850475  0.249918  1
  Sn  Sn35  1  0.168227  0.649712  0.250099  1
