# generated using pymatgen
data_Li6Cd5SiPd12
_symmetry_space_group_name_H-M   'P 1'
_cell_length_a   4.15724112
_cell_length_b   7.12848959
_cell_length_c   12.65590700
_cell_angle_alpha   89.99958765
_cell_angle_beta   90.00189378
_cell_angle_gamma   89.96316037
_symmetry_Int_Tables_number   1
_chemical_formula_structural   Li6Cd5SiPd12
_chemical_formula_sum   'Li6 Cd5 Si1 Pd12'
_cell_volume   375.05582807
_cell_formula_units_Z   1
loop_
 _symmetry_equiv_pos_site_id
 _symmetry_equiv_pos_as_xyz
  1  'x, y, z'
loop_
 _atom_site_type_symbol
 _atom_site_label
 _atom_site_symmetry_multiplicity
 _atom_site_fract_x
 _atom_site_fract_y
 _atom_site_fract_z
 _atom_site_occupancy
  Li  Li0  1  0.000000  0.500000  0.000000  1
  Li  Li1  1  0.499958  0.000005  0.175100  1
  Li  Li2  1  0.999918  0.500013  0.323867  1
  Li  Li3  1  0.499999  0.000000  0.500000  1
  Li  Li4  1  0.000083  0.499987  0.676134  1
  Li  Li5  1  0.500043  0.999995  0.824900  1
  Cd  Cd6  1  0.499977  0.500001  0.152593  1
  Cd  Cd7  1  0.999963  0.000001  0.334444  1
  Cd  Cd8  1  0.499999  0.500000  0.500000  1
  Cd  Cd9  1  0.000036  0.999999  0.665556  1
  Cd  Cd10  1  0.500024  0.499999  0.847407  1
  Si  Si11  1  0.000000  0.000000  0.000000  1
  Pd  Pd12  1  0.500142  0.202173  0.000000  1
  Pd  Pd13  1  0.499856  0.797827  0.000000  1
  Pd  Pd14  1  0.000112  0.225911  0.153069  1
  Pd  Pd15  1  0.999843  0.774091  0.153068  1
  Pd  Pd16  1  0.500148  0.258438  0.325964  1
  Pd  Pd17  1  0.499787  0.741566  0.325964  1
  Pd  Pd18  1  0.999599  0.252210  0.499999  1
  Pd  Pd19  1  0.000401  0.747791  0.500001  1
  Pd  Pd20  1  0.500212  0.258434  0.674036  1
  Pd  Pd21  1  0.499851  0.741562  0.674036  1
  Pd  Pd22  1  0.000155  0.225909  0.846932  1
  Pd  Pd23  1  0.999886  0.774089  0.846931  1
