# generated using pymatgen
data_Sc11(TcIr)2
_symmetry_space_group_name_H-M   'P 1'
_cell_length_a   9.50561434
_cell_length_b   9.51071106
_cell_length_c   9.47539942
_cell_angle_alpha   60.08803764
_cell_angle_beta   60.14204554
_cell_angle_gamma   60.15587349
_symmetry_Int_Tables_number   1
_chemical_formula_structural   Sc11(TcIr)2
_chemical_formula_sum   'Sc22 Tc4 Ir4'
_cell_volume   607.49019749
_cell_formula_units_Z   2
loop_
 _symmetry_equiv_pos_site_id
 _symmetry_equiv_pos_as_xyz
  1  'x, y, z'
loop_
 _atom_site_type_symbol
 _atom_site_label
 _atom_site_symmetry_multiplicity
 _atom_site_fract_x
 _atom_site_fract_y
 _atom_site_fract_z
 _atom_site_occupancy
  Sc  Sc0  1  0.802646  0.802651  0.197354  1
  Sc  Sc1  1  0.198260  0.801740  0.196261  1
  Sc  Sc2  1  0.802416  0.197580  0.196485  1
  Sc  Sc3  1  0.197354  0.197349  0.802646  1
  Sc  Sc4  1  0.801740  0.198260  0.803739  1
  Sc  Sc5  1  0.197584  0.802420  0.803515  1
  Sc  Sc6  1  0.617318  0.616058  0.147880  1
  Sc  Sc7  1  0.615285  0.149834  0.616553  1
  Sc  Sc8  1  0.149838  0.615286  0.618323  1
  Sc  Sc9  1  0.616056  0.617324  0.618741  1
  Sc  Sc10  1  0.382682  0.383942  0.852120  1
  Sc  Sc11  1  0.384715  0.850166  0.383447  1
  Sc  Sc12  1  0.850162  0.384714  0.381677  1
  Sc  Sc13  1  0.383944  0.382676  0.381259  1
  Sc  Sc14  1  0.844553  0.843647  0.469621  1
  Sc  Sc15  1  0.845083  0.468907  0.843126  1
  Sc  Sc16  1  0.468909  0.845084  0.842876  1
  Sc  Sc17  1  0.843647  0.844558  0.842175  1
  Sc  Sc18  1  0.155447  0.156353  0.530379  1
  Sc  Sc19  1  0.154917  0.531093  0.156874  1
  Sc  Sc20  1  0.531091  0.154916  0.157124  1
  Sc  Sc21  1  0.156353  0.155442  0.157825  1
  Tc  Tc22  1  0.000000  0.000000  0.000000  1
  Tc  Tc23  1  0.500000  0.000000  0.500000  1
  Tc  Tc24  1  0.500000  0.500000  0.000000  1
  Tc  Tc25  1  0.000000  0.500000  0.000000  1
  Ir  Ir26  1  0.500000  0.500000  0.500000  1
  Ir  Ir27  1  0.000000  0.000000  0.500000  1
  Ir  Ir28  1  0.000000  0.500000  0.500000  1
  Ir  Ir29  1  0.500000  0.000000  0.000000  1
