# generated using pymatgen
data_Tb3TmFe12(P3Rh2)4
_symmetry_space_group_name_H-M   'P 1'
_cell_length_a   3.76099700
_cell_length_b   10.33606943
_cell_length_c   12.18478904
_cell_angle_alpha   89.80842468
_cell_angle_beta   90.00000000
_cell_angle_gamma   90.00000000
_symmetry_Int_Tables_number   1
_chemical_formula_structural   Tb3TmFe12(P3Rh2)4
_chemical_formula_sum   'Tb3 Tm1 Fe12 P12 Rh8'
_cell_volume   473.66794133
_cell_formula_units_Z   1
loop_
 _symmetry_equiv_pos_site_id
 _symmetry_equiv_pos_as_xyz
  1  'x, y, z'
loop_
 _atom_site_type_symbol
 _atom_site_label
 _atom_site_symmetry_multiplicity
 _atom_site_fract_x
 _atom_site_fract_y
 _atom_site_fract_z
 _atom_site_occupancy
  Tb  Tb0  1  0.250000  0.919351  0.211168  1
  Tb  Tb1  1  0.750000  0.419377  0.288807  1
  Tb  Tb2  1  0.750000  0.080765  0.788834  1
  Tm  Tm3  1  0.250000  0.580350  0.711126  1
  Fe  Fe4  1  0.250000  0.224346  0.170534  1
  Fe  Fe5  1  0.250000  0.276279  0.670613  1
  Fe  Fe6  1  0.750000  0.774808  0.829313  1
  Fe  Fe7  1  0.750000  0.723745  0.329641  1
  Fe  Fe8  1  0.250000  0.876200  0.697464  1
  Fe  Fe9  1  0.250000  0.622550  0.196905  1
  Fe  Fe10  1  0.750000  0.122709  0.302930  1
  Fe  Fe11  1  0.750000  0.378332  0.802068  1
  Fe  Fe12  1  0.250000  0.459918  0.934131  1
  Fe  Fe13  1  0.250000  0.040586  0.435614  1
  Fe  Fe14  1  0.750000  0.541011  0.063812  1
  Fe  Fe15  1  0.750000  0.958542  0.565147  1
  P  P16  1  0.250000  0.429923  0.111806  1
  P  P17  1  0.250000  0.069846  0.612753  1
  P  P18  1  0.750000  0.570398  0.885864  1
  P  P19  1  0.750000  0.929600  0.387834  1
  P  P20  1  0.250000  0.274362  0.852673  1
  P  P21  1  0.250000  0.225959  0.352960  1
  P  P22  1  0.750000  0.725792  0.147117  1
  P  P23  1  0.750000  0.772489  0.647873  1
  P  P24  1  0.250000  0.606482  0.377849  1
  P  P25  1  0.250000  0.893336  0.878104  1
  P  P26  1  0.750000  0.394785  0.622340  1
  P  P27  1  0.750000  0.106824  0.122005  1
  Rh  Rh28  1  0.250000  0.707523  0.985578  1
  Rh  Rh29  1  0.250000  0.792203  0.485800  1
  Rh  Rh30  1  0.750000  0.293019  0.014122  1
  Rh  Rh31  1  0.750000  0.207667  0.514984  1
  Rh  Rh32  1  0.250000  0.405264  0.479693  1
  Rh  Rh33  1  0.250000  0.095484  0.979337  1
  Rh  Rh34  1  0.750000  0.595279  0.522760  1
  Rh  Rh35  1  0.750000  0.904898  0.020444  1
