# generated using pymatgen
data_Li3MgAs6Pd7
_symmetry_space_group_name_H-M   'P 1'
_cell_length_a   7.15480313
_cell_length_b   7.15480431
_cell_length_c   7.18471500
_cell_angle_alpha   109.55591926
_cell_angle_beta   109.55592261
_cell_angle_gamma   109.38638268
_symmetry_Int_Tables_number   1
_chemical_formula_structural   Li3MgAs6Pd7
_chemical_formula_sum   'Li3 Mg1 As6 Pd7'
_cell_volume   282.83170237
_cell_formula_units_Z   1
loop_
 _symmetry_equiv_pos_site_id
 _symmetry_equiv_pos_as_xyz
  1  'x, y, z'
loop_
 _atom_site_type_symbol
 _atom_site_label
 _atom_site_symmetry_multiplicity
 _atom_site_fract_x
 _atom_site_fract_y
 _atom_site_fract_z
 _atom_site_occupancy
  Li  Li0  1  0.500000  0.000000  0.000000  1
  Li  Li1  1  0.000000  0.500000  0.000000  1
  Li  Li2  1  0.500000  0.500000  0.500000  1
  Mg  Mg3  1  0.000000  0.000000  0.500000  1
  As  As4  1  0.681163  0.681163  0.991445  1
  As  As5  1  0.318837  0.318837  0.008555  1
  As  As6  1  0.000000  0.681163  0.689719  1
  As  As7  1  0.000000  0.318837  0.310281  1
  As  As8  1  0.681163  0.000000  0.689719  1
  As  As9  1  0.318837  0.000000  0.310281  1
  Pd  Pd10  1  0.000000  0.000000  0.000000  1
  Pd  Pd11  1  0.248477  0.496955  0.748477  1
  Pd  Pd12  1  0.751523  0.248477  0.500000  1
  Pd  Pd13  1  0.496955  0.248477  0.748477  1
  Pd  Pd14  1  0.503045  0.751523  0.251523  1
  Pd  Pd15  1  0.751523  0.503045  0.251523  1
  Pd  Pd16  1  0.248477  0.751523  0.500000  1
