# generated using pymatgen
data_La2VTcF14
_symmetry_space_group_name_H-M   'P 1'
_cell_length_a   5.76488300
_cell_length_b   9.29223302
_cell_length_c   12.39642002
_cell_angle_alpha   62.50595790
_cell_angle_beta   90.00000000
_cell_angle_gamma   90.00000000
_symmetry_Int_Tables_number   1
_chemical_formula_structural   La2VTcF14
_chemical_formula_sum   'La4 V2 Tc2 F28'
_cell_volume   589.05968692
_cell_formula_units_Z   2
loop_
 _symmetry_equiv_pos_site_id
 _symmetry_equiv_pos_as_xyz
  1  'x, y, z'
loop_
 _atom_site_type_symbol
 _atom_site_label
 _atom_site_symmetry_multiplicity
 _atom_site_fract_x
 _atom_site_fract_y
 _atom_site_fract_z
 _atom_site_occupancy
  La  La0  1  0.758493  0.806756  0.271567  1
  La  La1  1  0.258493  0.193244  0.228433  1
  La  La2  1  0.241878  0.190533  0.737930  1
  La  La3  1  0.741878  0.809467  0.762070  1
  V  V4  1  0.244753  0.725699  0.543876  1
  V  V5  1  0.744753  0.274301  0.956124  1
  Tc  Tc6  1  0.755796  0.273831  0.456857  1
  Tc  Tc7  1  0.255796  0.726169  0.043143  1
  F  F8  1  0.973096  0.715872  0.458559  1
  F  F9  1  0.473096  0.284128  0.041441  1
  F  F10  1  0.036906  0.285774  0.542948  1
  F  F11  1  0.536906  0.714226  0.957052  1
  F  F12  1  0.057099  0.707729  0.921820  1
  F  F13  1  0.557099  0.292271  0.578180  1
  F  F14  1  0.938861  0.289549  0.073979  1
  F  F15  1  0.438861  0.710451  0.426021  1
  F  F16  1  0.737050  0.497582  0.867248  1
  F  F17  1  0.237050  0.502418  0.632752  1
  F  F18  1  0.263620  0.488868  0.138452  1
  F  F19  1  0.763620  0.511132  0.361548  1
  F  F20  1  0.739546  0.052867  0.044088  1
  F  F21  1  0.239546  0.947133  0.455912  1
  F  F22  1  0.259387  0.963202  0.951161  1
  F  F23  1  0.759387  0.036798  0.548839  1
  F  F24  1  0.051856  0.742470  0.663631  1
  F  F25  1  0.551856  0.257530  0.836369  1
  F  F26  1  0.951865  0.256455  0.333045  1
  F  F27  1  0.451865  0.743545  0.166955  1
  F  F28  1  0.009335  0.269350  0.866053  1
  F  F29  1  0.509335  0.730650  0.633947  1
  F  F30  1  0.980476  0.732769  0.134203  1
  F  F31  1  0.480476  0.267231  0.365797  1
  F  F32  1  0.088813  0.968666  0.229458  1
  F  F33  1  0.588813  0.031334  0.270542  1
  F  F34  1  0.911170  0.030397  0.768542  1
  F  F35  1  0.411170  0.969603  0.731458  1
