# generated using pymatgen
data_LaPr2Nd2(RuO6)2
_symmetry_space_group_name_H-M   'P 1'
_cell_length_a   7.11790062
_cell_length_b   7.11789980
_cell_length_c   7.74863021
_cell_angle_alpha   74.06629709
_cell_angle_beta   74.06630066
_cell_angle_gamma   49.94244695
_symmetry_Int_Tables_number   1
_chemical_formula_structural   LaPr2Nd2(RuO6)2
_chemical_formula_sum   'La1 Pr2 Nd2 Ru2 O12'
_cell_volume   286.37093546
_cell_formula_units_Z   1
loop_
 _symmetry_equiv_pos_site_id
 _symmetry_equiv_pos_as_xyz
  1  'x, y, z'
loop_
 _atom_site_type_symbol
 _atom_site_label
 _atom_site_symmetry_multiplicity
 _atom_site_fract_x
 _atom_site_fract_y
 _atom_site_fract_z
 _atom_site_occupancy
  La  La0  1  0.000000  0.000000  0.500000  1
  Pr  Pr1  1  0.691064  0.691064  0.167735  1
  Pr  Pr2  1  0.308936  0.308936  0.832265  1
  Nd  Nd3  1  0.306338  0.306338  0.357903  1
  Nd  Nd4  1  0.693662  0.693662  0.642097  1
  Ru  Ru5  1  0.764310  0.235690  0.000000  1
  Ru  Ru6  1  0.235690  0.764310  0.000000  1
  O  O7  1  0.093719  0.593008  0.577123  1
  O  O8  1  0.999333  0.999333  0.184268  1
  O  O9  1  0.406992  0.906281  0.422877  1
  O  O10  1  0.499230  0.499230  0.172726  1
  O  O11  1  0.097230  0.584343  0.079570  1
  O  O12  1  0.906281  0.406992  0.422877  1
  O  O13  1  0.000667  0.000667  0.815732  1
  O  O14  1  0.593008  0.093718  0.577123  1
  O  O15  1  0.500770  0.500770  0.827274  1
  O  O16  1  0.584343  0.097230  0.079570  1
  O  O17  1  0.415657  0.902770  0.920430  1
  O  O18  1  0.902770  0.415657  0.920430  1
