# generated using pymatgen
data_La3Sm(Sc3Sn4)2
_symmetry_space_group_name_H-M   'P 1'
_cell_length_a   7.85827100
_cell_length_b   8.00794607
_cell_length_c   15.07144000
_cell_angle_alpha   90.02959253
_cell_angle_beta   90.00000000
_cell_angle_gamma   90.00000000
_symmetry_Int_Tables_number   1
_chemical_formula_structural   La3Sm(Sc3Sn4)2
_chemical_formula_sum   'La6 Sm2 Sc12 Sn16'
_cell_volume   948.42464877
_cell_formula_units_Z   2
loop_
 _symmetry_equiv_pos_site_id
 _symmetry_equiv_pos_as_xyz
  1  'x, y, z'
loop_
 _atom_site_type_symbol
 _atom_site_label
 _atom_site_symmetry_multiplicity
 _atom_site_fract_x
 _atom_site_fract_y
 _atom_site_fract_z
 _atom_site_occupancy
  La  La0  1  0.506374  0.328727  0.905417  1
  La  La1  1  0.006374  0.171273  0.594583  1
  La  La2  1  0.492152  0.670725  0.406579  1
  La  La3  1  0.992152  0.829275  0.093421  1
  La  La4  1  0.494692  0.671313  0.092936  1
  La  La5  1  0.994692  0.828687  0.407064  1
  Sm  Sm6  1  0.509546  0.326312  0.597674  1
  Sm  Sm7  1  0.009546  0.173688  0.902326  1
  Sc  Sc8  1  0.341482  0.838579  0.872279  1
  Sc  Sc9  1  0.841482  0.661421  0.627721  1
  Sc  Sc10  1  0.657883  0.164049  0.373356  1
  Sc  Sc11  1  0.157883  0.335951  0.126644  1
  Sc  Sc12  1  0.658659  0.161009  0.126096  1
  Sc  Sc13  1  0.158659  0.338991  0.373904  1
  Sc  Sc14  1  0.341114  0.837419  0.627733  1
  Sc  Sc15  1  0.841114  0.662581  0.872267  1
  Sc  Sc16  1  0.172539  0.504508  0.749829  1
  Sc  Sc17  1  0.672539  0.995492  0.750171  1
  Sc  Sc18  1  0.826426  0.493997  0.250192  1
  Sc  Sc19  1  0.326426  0.006003  0.249808  1
  Sn  Sn20  1  0.321592  0.046530  0.041872  1
  Sn  Sn21  1  0.821592  0.453470  0.458128  1
  Sn  Sn22  1  0.672218  0.956689  0.544863  1
  Sn  Sn23  1  0.172218  0.543311  0.955137  1
  Sn  Sn24  1  0.678982  0.957651  0.954235  1
  Sn  Sn25  1  0.178982  0.542349  0.545765  1
  Sn  Sn26  1  0.327965  0.049189  0.457642  1
  Sn  Sn27  1  0.827965  0.450811  0.042358  1
  Sn  Sn28  1  0.535763  0.631660  0.749513  1
  Sn  Sn29  1  0.035763  0.868340  0.750487  1
  Sn  Sn30  1  0.463741  0.366415  0.249107  1
  Sn  Sn31  1  0.963741  0.133585  0.250893  1
  Sn  Sn32  1  0.313299  0.142834  0.749457  1
  Sn  Sn33  1  0.813299  0.357166  0.750543  1
  Sn  Sn34  1  0.685573  0.859022  0.250237  1
  Sn  Sn35  1  0.185573  0.640978  0.249763  1
