# generated using pymatgen
data_DyTm(Co3Si2)2
_symmetry_space_group_name_H-M   'P 1'
_cell_length_a   6.21824750
_cell_length_b   6.21824847
_cell_length_c   6.21824804
_cell_angle_alpha   130.60729921
_cell_angle_beta   112.85334062
_cell_angle_gamma   87.75086726
_symmetry_Int_Tables_number   1
_chemical_formula_structural   DyTm(Co3Si2)2
_chemical_formula_sum   'Dy1 Tm1 Co6 Si4'
_cell_volume   160.18214963
_cell_formula_units_Z   1
loop_
 _symmetry_equiv_pos_site_id
 _symmetry_equiv_pos_as_xyz
  1  'x, y, z'
loop_
 _atom_site_type_symbol
 _atom_site_label
 _atom_site_symmetry_multiplicity
 _atom_site_fract_x
 _atom_site_fract_y
 _atom_site_fract_z
 _atom_site_occupancy
  Dy  Dy0  1  0.250000  0.529582  0.279582  1
  Tm  Tm1  1  0.750000  0.468739  0.718739  1
  Co  Co2  1  0.000141  0.000379  0.500520  1
  Co  Co3  1  0.499859  0.000379  0.000238  1
  Co  Co4  1  0.724389  0.000974  0.724344  1
  Co  Co5  1  0.223370  0.499955  0.724344  1
  Co  Co6  1  0.276630  0.000974  0.276585  1
  Co  Co7  1  0.775611  0.499955  0.276585  1
  Si  Si8  1  0.080185  0.873414  0.793229  1
  Si  Si9  1  0.918299  0.124603  0.206303  1
  Si  Si10  1  0.581701  0.788004  0.206303  1
  Si  Si11  1  0.419815  0.213044  0.793229  1
