# generated using pymatgen
data_Be4ZnPd
_symmetry_space_group_name_H-M   'P 1'
_cell_length_a   4.38112874
_cell_length_b   4.38112887
_cell_length_c   4.38112900
_cell_angle_alpha   60.00000658
_cell_angle_beta   60.00000559
_cell_angle_gamma   60.00000472
_symmetry_Int_Tables_number   1
_chemical_formula_structural   Be4ZnPd
_chemical_formula_sum   'Be4 Zn1 Pd1'
_cell_volume   59.46249693
_cell_formula_units_Z   1
loop_
 _symmetry_equiv_pos_site_id
 _symmetry_equiv_pos_as_xyz
  1  'x, y, z'
loop_
 _atom_site_type_symbol
 _atom_site_label
 _atom_site_symmetry_multiplicity
 _atom_site_fract_x
 _atom_site_fract_y
 _atom_site_fract_z
 _atom_site_occupancy
  Be  Be0  1  0.125798  0.125798  0.125798  1
  Be  Be1  1  0.622606  0.125798  0.125798  1
  Be  Be2  1  0.125798  0.622606  0.125798  1
  Be  Be3  1  0.125798  0.125798  0.622606  1
  Zn  Zn4  1  0.750000  0.750000  0.750000  1
  Pd  Pd5  1  0.500000  0.500000  0.500000  1
