# generated using pymatgen
data_Tb6Fe7Co16
_symmetry_space_group_name_H-M   'P 1'
_cell_length_a   8.41760185
_cell_length_b   8.41760250
_cell_length_c   8.41760200
_cell_angle_alpha   60.00000196
_cell_angle_beta   59.99999942
_cell_angle_gamma   60.00000442
_symmetry_Int_Tables_number   1
_chemical_formula_structural   Tb6Fe7Co16
_chemical_formula_sum   'Tb6 Fe7 Co16'
_cell_volume   421.74525212
_cell_formula_units_Z   1
loop_
 _symmetry_equiv_pos_site_id
 _symmetry_equiv_pos_as_xyz
  1  'x, y, z'
loop_
 _atom_site_type_symbol
 _atom_site_label
 _atom_site_symmetry_multiplicity
 _atom_site_fract_x
 _atom_site_fract_y
 _atom_site_fract_z
 _atom_site_occupancy
  Tb  Tb0  1  0.714048  0.714048  0.285952  1
  Tb  Tb1  1  0.285952  0.714048  0.285952  1
  Tb  Tb2  1  0.714048  0.285952  0.285952  1
  Tb  Tb3  1  0.285952  0.285952  0.714048  1
  Tb  Tb4  1  0.714048  0.285952  0.714048  1
  Tb  Tb5  1  0.285952  0.714048  0.714048  1
  Fe  Fe6  1  0.000000  0.000000  0.000000  1
  Fe  Fe7  1  0.000000  0.000000  0.500000  1
  Fe  Fe8  1  0.500000  0.000000  0.500000  1
  Fe  Fe9  1  0.000000  0.500000  0.500000  1
  Fe  Fe10  1  0.500000  0.500000  0.000000  1
  Fe  Fe11  1  0.000000  0.500000  0.000000  1
  Fe  Fe12  1  0.500000  0.000000  0.000000  1
  Co  Co13  1  0.876444  0.876444  0.370668  1
  Co  Co14  1  0.876444  0.370668  0.876444  1
  Co  Co15  1  0.370668  0.876444  0.876444  1
  Co  Co16  1  0.876444  0.876444  0.876444  1
  Co  Co17  1  0.123556  0.123556  0.629332  1
  Co  Co18  1  0.123556  0.629332  0.123556  1
  Co  Co19  1  0.629332  0.123556  0.123556  1
  Co  Co20  1  0.123556  0.123556  0.123556  1
  Co  Co21  1  0.677194  0.677194  0.968418  1
  Co  Co22  1  0.677194  0.968418  0.677194  1
  Co  Co23  1  0.968418  0.677194  0.677194  1
  Co  Co24  1  0.677194  0.677194  0.677194  1
  Co  Co25  1  0.322806  0.322806  0.031582  1
  Co  Co26  1  0.322806  0.031582  0.322806  1
  Co  Co27  1  0.031582  0.322806  0.322806  1
  Co  Co28  1  0.322806  0.322806  0.322806  1
