# generated using pymatgen
data_Ce3Tm13(CoHg)4
_symmetry_space_group_name_H-M   'P 1'
_cell_length_a   9.33919277
_cell_length_b   9.38296871
_cell_length_c   9.38296800
_cell_angle_alpha   60.00000250
_cell_angle_beta   59.84482517
_cell_angle_gamma   59.84482581
_symmetry_Int_Tables_number   1
_chemical_formula_structural   Ce3Tm13(CoHg)4
_chemical_formula_sum   'Ce3 Tm13 Co4 Hg4'
_cell_volume   580.03238239
_cell_formula_units_Z   1
loop_
 _symmetry_equiv_pos_site_id
 _symmetry_equiv_pos_as_xyz
  1  'x, y, z'
loop_
 _atom_site_type_symbol
 _atom_site_label
 _atom_site_symmetry_multiplicity
 _atom_site_fract_x
 _atom_site_fract_y
 _atom_site_fract_z
 _atom_site_occupancy
  Ce  Ce0  1  0.341234  0.346898  0.346898  1
  Ce  Ce1  1  0.341234  0.346898  0.964970  1
  Ce  Ce2  1  0.341234  0.964970  0.346898  1
  Tm  Tm3  1  0.946612  0.351129  0.351129  1
  Tm  Tm4  1  0.813145  0.187691  0.187691  1
  Tm  Tm5  1  0.188815  0.812253  0.812253  1
  Tm  Tm6  1  0.188815  0.812253  0.186679  1
  Tm  Tm7  1  0.813145  0.187691  0.811473  1
  Tm  Tm8  1  0.188815  0.186679  0.812253  1
  Tm  Tm9  1  0.813145  0.811473  0.187691  1
  Tm  Tm10  1  0.937361  0.563237  0.563237  1
  Tm  Tm11  1  0.561186  0.938042  0.938042  1
  Tm  Tm12  1  0.561186  0.938042  0.562730  1
  Tm  Tm13  1  0.937361  0.563237  0.936166  1
  Tm  Tm14  1  0.561186  0.562730  0.938042  1
  Tm  Tm15  1  0.937361  0.936166  0.563237  1
  Co  Co16  1  0.154146  0.140008  0.140008  1
  Co  Co17  1  0.154146  0.140008  0.565838  1
  Co  Co18  1  0.154146  0.565838  0.140008  1
  Co  Co19  1  0.564304  0.145232  0.145232  1
  Hg  Hg20  1  0.585703  0.584818  0.584818  1
  Hg  Hg21  1  0.585703  0.584818  0.244661  1
  Hg  Hg22  1  0.585703  0.244661  0.584818  1
  Hg  Hg23  1  0.244313  0.585229  0.585229  1
