# generated using pymatgen
data_Lu5InBi2S
_symmetry_space_group_name_H-M   'P 1'
_cell_length_a   9.01040100
_cell_length_b   9.01040058
_cell_length_c   6.47783500
_cell_angle_alpha   90.00000000
_cell_angle_beta   90.00000000
_cell_angle_gamma   120.11171190
_symmetry_Int_Tables_number   1
_chemical_formula_structural   Lu5InBi2S
_chemical_formula_sum   'Lu10 In2 Bi4 S2'
_cell_volume   454.94484892
_cell_formula_units_Z   2
loop_
 _symmetry_equiv_pos_site_id
 _symmetry_equiv_pos_as_xyz
  1  'x, y, z'
loop_
 _atom_site_type_symbol
 _atom_site_label
 _atom_site_symmetry_multiplicity
 _atom_site_fract_x
 _atom_site_fract_y
 _atom_site_fract_z
 _atom_site_occupancy
  Lu  Lu0  1  0.756063  0.756063  0.750000  1
  Lu  Lu1  1  0.244333  0.999716  0.750000  1
  Lu  Lu2  1  0.999716  0.244333  0.750000  1
  Lu  Lu3  1  0.242117  0.242117  0.250000  1
  Lu  Lu4  1  0.756214  0.007247  0.250000  1
  Lu  Lu5  1  0.007247  0.756214  0.250000  1
  Lu  Lu6  1  0.668781  0.330288  0.004237  1
  Lu  Lu7  1  0.330288  0.668781  0.004237  1
  Lu  Lu8  1  0.330288  0.668781  0.495763  1
  Lu  Lu9  1  0.668781  0.330288  0.495763  1
  In  In10  1  0.395899  0.001534  0.250000  1
  In  In11  1  0.001534  0.395899  0.250000  1
  Bi  Bi12  1  0.396335  0.396335  0.750000  1
  Bi  Bi13  1  0.601415  0.998970  0.750000  1
  Bi  Bi14  1  0.998970  0.601415  0.750000  1
  Bi  Bi15  1  0.606503  0.606503  0.250000  1
  S  S16  1  0.997756  0.997756  0.998820  1
  S  S17  1  0.997756  0.997756  0.501180  1
