# generated using pymatgen
data_Sm4I5N
_symmetry_space_group_name_H-M   'P 1'
_cell_length_a   4.00216681
_cell_length_b   8.74017457
_cell_length_c   9.78255359
_cell_angle_alpha   102.59964273
_cell_angle_beta   101.80354079
_cell_angle_gamma   90.00000516
_symmetry_Int_Tables_number   1
_chemical_formula_structural   Sm4I5N
_chemical_formula_sum   'Sm4 I5 N1'
_cell_volume   326.53133495
_cell_formula_units_Z   1
loop_
 _symmetry_equiv_pos_site_id
 _symmetry_equiv_pos_as_xyz
  1  'x, y, z'
loop_
 _atom_site_type_symbol
 _atom_site_label
 _atom_site_symmetry_multiplicity
 _atom_site_fract_x
 _atom_site_fract_y
 _atom_site_fract_z
 _atom_site_occupancy
  Sm  Sm0  1  0.128699  0.063792  0.257398  1
  Sm  Sm1  1  0.871301  0.936208  0.742602  1
  Sm  Sm2  1  0.499039  0.189673  0.998076  1
  Sm  Sm3  1  0.500961  0.810327  0.001924  1
  I  I4  1  0.331572  0.179745  0.663145  1
  I  I5  1  0.668428  0.820255  0.336855  1
  I  I6  1  0.336186  0.657105  0.672375  1
  I  I7  1  0.663814  0.342895  0.327625  1
  I  I8  1  0.000000  0.500000  0.000000  1
  N  N9  1  0.000000  0.000000  0.000000  1
