# generated using pymatgen
data_LaNiSb12Os2Ru
_symmetry_space_group_name_H-M   'P 1'
_cell_length_a   8.14726078
_cell_length_b   8.11859638
_cell_length_c   8.11453226
_cell_angle_alpha   109.38018595
_cell_angle_beta   109.57481813
_cell_angle_gamma   109.57166011
_symmetry_Int_Tables_number   1
_chemical_formula_structural   LaNiSb12Os2Ru
_chemical_formula_sum   'La1 Ni1 Sb12 Os2 Ru1'
_cell_volume   412.59673698
_cell_formula_units_Z   1
loop_
 _symmetry_equiv_pos_site_id
 _symmetry_equiv_pos_as_xyz
  1  'x, y, z'
loop_
 _atom_site_type_symbol
 _atom_site_label
 _atom_site_symmetry_multiplicity
 _atom_site_fract_x
 _atom_site_fract_y
 _atom_site_fract_z
 _atom_site_occupancy
  La  La0  1  0.000000  0.000000  0.000000  1
  Ni  Ni1  1  0.500000  0.000000  0.000000  1
  Sb  Sb2  1  0.160381  0.819910  0.664497  1
  Sb  Sb3  1  0.839619  0.180090  0.335503  1
  Sb  Sb4  1  0.842961  0.503309  0.661245  1
  Sb  Sb5  1  0.157039  0.496691  0.338755  1
  Sb  Sb6  1  0.818172  0.659621  0.156272  1
  Sb  Sb7  1  0.181828  0.340379  0.843728  1
  Sb  Sb8  1  0.503864  0.664474  0.844531  1
  Sb  Sb9  1  0.496136  0.335526  0.155469  1
  Sb  Sb10  1  0.660550  0.156662  0.820815  1
  Sb  Sb11  1  0.339450  0.843338  0.179185  1
  Sb  Sb12  1  0.660559  0.843552  0.503438  1
  Sb  Sb13  1  0.339441  0.156448  0.496562  1
  Os  Os14  1  0.000000  0.000000  0.500000  1
  Os  Os15  1  0.500000  0.500000  0.500000  1
  Ru  Ru16  1  0.000000  0.500000  0.000000  1
