# generated using pymatgen
data_CsK2Sn4Au
_symmetry_space_group_name_H-M   'P 1'
_cell_length_a   6.78539500
_cell_length_b   7.37613100
_cell_length_c   12.51417700
_cell_angle_alpha   90.00000000
_cell_angle_beta   90.00000000
_cell_angle_gamma   90.00000000
_symmetry_Int_Tables_number   1
_chemical_formula_structural   CsK2Sn4Au
_chemical_formula_sum   'Cs2 K4 Sn8 Au2'
_cell_volume   626.33408840
_cell_formula_units_Z   2
loop_
 _symmetry_equiv_pos_site_id
 _symmetry_equiv_pos_as_xyz
  1  'x, y, z'
loop_
 _atom_site_type_symbol
 _atom_site_label
 _atom_site_symmetry_multiplicity
 _atom_site_fract_x
 _atom_site_fract_y
 _atom_site_fract_z
 _atom_site_occupancy
  Cs  Cs0  1  0.563022  0.000000  0.000000  1
  Cs  Cs1  1  0.436978  0.500000  0.500000  1
  K  K2  1  0.835295  0.500000  0.743635  1
  K  K3  1  0.835295  0.500000  0.256365  1
  K  K4  1  0.164705  0.000000  0.756365  1
  K  K5  1  0.164705  0.000000  0.243635  1
  Sn  Sn6  1  0.333267  0.500000  0.874865  1
  Sn  Sn7  1  0.333267  0.500000  0.125135  1
  Sn  Sn8  1  0.042302  0.285440  0.000000  1
  Sn  Sn9  1  0.042302  0.714560  0.000000  1
  Sn  Sn10  1  0.957698  0.785440  0.500000  1
  Sn  Sn11  1  0.957698  0.214560  0.500000  1
  Sn  Sn12  1  0.666733  0.000000  0.374865  1
  Sn  Sn13  1  0.666733  0.000000  0.625135  1
  Au  Au14  1  0.686647  0.500000  0.000000  1
  Au  Au15  1  0.313353  0.000000  0.500000  1
