# generated using pymatgen
data_TaMnFe4
_symmetry_space_group_name_H-M   'P 1'
_cell_length_a   4.77816898
_cell_length_b   4.77816997
_cell_length_c   4.77817000
_cell_angle_alpha   60.00001366
_cell_angle_beta   60.00000677
_cell_angle_gamma   60.00000740
_symmetry_Int_Tables_number   1
_chemical_formula_structural   TaMnFe4
_chemical_formula_sum   'Ta1 Mn1 Fe4'
_cell_volume   77.13825137
_cell_formula_units_Z   1
loop_
 _symmetry_equiv_pos_site_id
 _symmetry_equiv_pos_as_xyz
  1  'x, y, z'
loop_
 _atom_site_type_symbol
 _atom_site_label
 _atom_site_symmetry_multiplicity
 _atom_site_fract_x
 _atom_site_fract_y
 _atom_site_fract_z
 _atom_site_occupancy
  Ta  Ta0  1  0.000000  0.000000  0.000000  1
  Mn  Mn1  1  0.750000  0.750000  0.750000  1
  Fe  Fe2  1  0.873813  0.375395  0.375395  1
  Fe  Fe3  1  0.375395  0.873813  0.375395  1
  Fe  Fe4  1  0.375395  0.375395  0.375395  1
  Fe  Fe5  1  0.375395  0.375395  0.873813  1
