# generated using pymatgen
data_Ho4Al17Re2SiPd4
_symmetry_space_group_name_H-M   'P 1'
_cell_length_a   7.59540235
_cell_length_b   7.59540190
_cell_length_c   9.45135700
_cell_angle_alpha   90.00000000
_cell_angle_beta   90.00000000
_cell_angle_gamma   118.88725823
_symmetry_Int_Tables_number   1
_chemical_formula_structural   Ho4Al17Re2SiPd4
_chemical_formula_sum   'Ho4 Al17 Re2 Si1 Pd4'
_cell_volume   477.40566305
_cell_formula_units_Z   1
loop_
 _symmetry_equiv_pos_site_id
 _symmetry_equiv_pos_as_xyz
  1  'x, y, z'
loop_
 _atom_site_type_symbol
 _atom_site_label
 _atom_site_symmetry_multiplicity
 _atom_site_fract_x
 _atom_site_fract_y
 _atom_site_fract_z
 _atom_site_occupancy
  Ho  Ho0  1  0.991725  0.682892  0.250000  1
  Ho  Ho1  1  0.004545  0.322134  0.750000  1
  Ho  Ho2  1  0.682892  0.991725  0.250000  1
  Ho  Ho3  1  0.322134  0.004545  0.750000  1
  Al  Al4  1  0.870344  0.870344  0.750000  1
  Al  Al5  1  0.001720  0.336807  0.080307  1
  Al  Al6  1  0.999185  0.667130  0.923104  1
  Al  Al7  1  0.999185  0.667130  0.576896  1
  Al  Al8  1  0.336807  0.001720  0.419693  1
  Al  Al9  1  0.001720  0.336807  0.419693  1
  Al  Al10  1  0.667130  0.999185  0.576896  1
  Al  Al11  1  0.667130  0.999185  0.923104  1
  Al  Al12  1  0.336807  0.001720  0.080307  1
  Al  Al13  1  0.328788  0.328788  0.554981  1
  Al  Al14  1  0.667945  0.667946  0.449609  1
  Al  Al15  1  0.667945  0.667946  0.050391  1
  Al  Al16  1  0.328788  0.328788  0.945019  1
  Al  Al17  1  0.341891  0.551620  0.250000  1
  Al  Al18  1  0.656005  0.447275  0.750000  1
  Al  Al19  1  0.551620  0.341891  0.250000  1
  Al  Al20  1  0.447275  0.656005  0.750000  1
  Re  Re21  1  0.001123  0.001123  0.006971  1
  Re  Re22  1  0.001123  0.001123  0.493029  1
  Si  Si23  1  0.129636  0.129636  0.250000  1
  Pd  Pd24  1  0.671167  0.327101  0.000436  1
  Pd  Pd25  1  0.327101  0.671167  0.000436  1
  Pd  Pd26  1  0.327101  0.671167  0.499564  1
  Pd  Pd27  1  0.671167  0.327101  0.499564  1
