# generated using pymatgen
data_LuAg6BrO8
_symmetry_space_group_name_H-M   'P 1'
_cell_length_a   7.06898511
_cell_length_b   7.06898544
_cell_length_c   7.06898500
_cell_angle_alpha   60.00000675
_cell_angle_beta   60.00000518
_cell_angle_gamma   60.00000772
_symmetry_Int_Tables_number   1
_chemical_formula_structural   LuAg6BrO8
_chemical_formula_sum   'Lu1 Ag6 Br1 O8'
_cell_volume   249.77920595
_cell_formula_units_Z   1
loop_
 _symmetry_equiv_pos_site_id
 _symmetry_equiv_pos_as_xyz
  1  'x, y, z'
loop_
 _atom_site_type_symbol
 _atom_site_label
 _atom_site_symmetry_multiplicity
 _atom_site_fract_x
 _atom_site_fract_y
 _atom_site_fract_z
 _atom_site_occupancy
  Lu  Lu0  1  0.000000  0.000000  0.000000  1
  Ag  Ag1  1  0.000000  0.000000  0.500000  1
  Ag  Ag2  1  0.500000  0.000000  0.000000  1
  Ag  Ag3  1  0.000000  0.500000  0.000000  1
  Ag  Ag4  1  0.500000  0.500000  0.000000  1
  Ag  Ag5  1  0.000000  0.500000  0.500000  1
  Ag  Ag6  1  0.500000  0.000000  0.500000  1
  Br  Br7  1  0.500000  0.500000  0.500000  1
  O  O8  1  0.135480  0.135480  0.593557  1
  O  O9  1  0.135480  0.593557  0.135480  1
  O  O10  1  0.593557  0.135480  0.135480  1
  O  O11  1  0.864520  0.406443  0.864520  1
  O  O12  1  0.135480  0.135480  0.135480  1
  O  O13  1  0.864520  0.864520  0.864520  1
  O  O14  1  0.864520  0.864520  0.406443  1
  O  O15  1  0.406443  0.864520  0.864520  1
