# generated using pymatgen
data_Ce2Dy2CrCo19P12
_symmetry_space_group_name_H-M   'P 1'
_cell_length_a   3.67654000
_cell_length_b   10.35298702
_cell_length_c   11.77742503
_cell_angle_alpha   90.00746961
_cell_angle_beta   90.00000000
_cell_angle_gamma   90.00000000
_symmetry_Int_Tables_number   1
_chemical_formula_structural   Ce2Dy2CrCo19P12
_chemical_formula_sum   'Ce2 Dy2 Cr1 Co19 P12'
_cell_volume   448.28613777
_cell_formula_units_Z   1
loop_
 _symmetry_equiv_pos_site_id
 _symmetry_equiv_pos_as_xyz
  1  'x, y, z'
loop_
 _atom_site_type_symbol
 _atom_site_label
 _atom_site_symmetry_multiplicity
 _atom_site_fract_x
 _atom_site_fract_y
 _atom_site_fract_z
 _atom_site_occupancy
  Ce  Ce0  1  0.750000  0.416180  0.298225  1
  Ce  Ce1  1  0.750000  0.082151  0.797473  1
  Dy  Dy2  1  0.250000  0.582814  0.702645  1
  Dy  Dy3  1  0.250000  0.916839  0.201733  1
  Cr  Cr4  1  0.750000  0.290870  0.011650  1
  Co  Co5  1  0.250000  0.713233  0.991775  1
  Co  Co6  1  0.250000  0.783784  0.493974  1
  Co  Co7  1  0.750000  0.216292  0.511109  1
  Co  Co8  1  0.250000  0.406176  0.487750  1
  Co  Co9  1  0.250000  0.094209  0.986757  1
  Co  Co10  1  0.750000  0.593472  0.512007  1
  Co  Co11  1  0.750000  0.906972  0.012141  1
  Co  Co12  1  0.250000  0.219518  0.176846  1
  Co  Co13  1  0.250000  0.278575  0.676338  1
  Co  Co14  1  0.750000  0.778936  0.823129  1
  Co  Co15  1  0.750000  0.721474  0.323655  1
  Co  Co16  1  0.250000  0.885130  0.698254  1
  Co  Co17  1  0.250000  0.614699  0.199011  1
  Co  Co18  1  0.750000  0.115487  0.302640  1
  Co  Co19  1  0.750000  0.385140  0.800197  1
  Co  Co20  1  0.250000  0.469898  0.931522  1
  Co  Co21  1  0.250000  0.028021  0.430687  1
  Co  Co22  1  0.750000  0.534267  0.066888  1
  Co  Co23  1  0.750000  0.966996  0.567230  1
  P  P24  1  0.250000  0.417026  0.110197  1
  P  P25  1  0.250000  0.082469  0.608474  1
  P  P26  1  0.750000  0.582389  0.886169  1
  P  P27  1  0.750000  0.917056  0.386743  1
  P  P28  1  0.250000  0.274757  0.868931  1
  P  P29  1  0.250000  0.223269  0.370993  1
  P  P30  1  0.750000  0.729670  0.131430  1
  P  P31  1  0.750000  0.771513  0.630730  1
  P  P32  1  0.250000  0.605770  0.392749  1
  P  P33  1  0.250000  0.894067  0.892900  1
  P  P34  1  0.750000  0.399152  0.608392  1
  P  P35  1  0.750000  0.101727  0.108658  1
