# generated using pymatgen
data_TlFe2I9
_symmetry_space_group_name_H-M   'P 1'
_cell_length_a   9.29777929
_cell_length_b   8.75372140
_cell_length_c   18.94324318
_cell_angle_alpha   87.03706156
_cell_angle_beta   82.53842740
_cell_angle_gamma   80.13856352
_symmetry_Int_Tables_number   1
_chemical_formula_structural   TlFe2I9
_chemical_formula_sum   'Tl2 Fe4 I18'
_cell_volume   1505.46622360
_cell_formula_units_Z   2
loop_
 _symmetry_equiv_pos_site_id
 _symmetry_equiv_pos_as_xyz
  1  'x, y, z'
loop_
 _atom_site_type_symbol
 _atom_site_label
 _atom_site_symmetry_multiplicity
 _atom_site_fract_x
 _atom_site_fract_y
 _atom_site_fract_z
 _atom_site_occupancy
  Tl  Tl0  1  0.023778  0.187938  0.601354  1
  Tl  Tl1  1  0.976222  0.812062  0.398646  1
  Fe  Fe2  1  0.179687  0.699692  0.587219  1
  Fe  Fe3  1  0.820313  0.300308  0.412781  1
  Fe  Fe4  1  0.713928  0.309230  0.870546  1
  Fe  Fe5  1  0.286072  0.690770  0.129454  1
  I  I6  1  0.559595  0.852919  0.847055  1
  I  I7  1  0.440405  0.147081  0.152945  1
  I  I8  1  0.208905  0.454341  0.666113  1
  I  I9  1  0.791095  0.545659  0.333887  1
  I  I10  1  0.633103  0.544494  0.784653  1
  I  I11  1  0.366897  0.455506  0.215347  1
  I  I12  1  0.303475  0.896792  0.641355  1
  I  I13  1  0.696525  0.103208  0.358645  1
  I  I14  1  0.919590  0.137255  0.800210  1
  I  I15  1  0.080410  0.862745  0.199790  1
  I  I16  1  0.221729  0.609031  0.015329  1
  I  I17  1  0.778271  0.390969  0.984671  1
  I  I18  1  0.696827  0.355116  0.539241  1
  I  I19  1  0.303173  0.644884  0.460759  1
  I  I20  1  0.904686  0.811963  0.581930  1
  I  I21  1  0.095314  0.188037  0.418070  1
  I  I22  1  0.480840  0.170134  0.899186  1
  I  I23  1  0.519160  0.829866  0.100814  1
