# generated using pymatgen
data_Sm7Er(IO6)4
_symmetry_space_group_name_H-M   'P 1'
_cell_length_a   5.65549642
_cell_length_b   7.86260746
_cell_length_c   11.82210000
_cell_angle_alpha   75.84876134
_cell_angle_beta   90.74759712
_cell_angle_gamma   89.98169074
_symmetry_Int_Tables_number   1
_chemical_formula_structural   Sm7Er(IO6)4
_chemical_formula_sum   'Sm7 Er1 I4 O24'
_cell_volume   509.69318646
_cell_formula_units_Z   1
loop_
 _symmetry_equiv_pos_site_id
 _symmetry_equiv_pos_as_xyz
  1  'x, y, z'
loop_
 _atom_site_type_symbol
 _atom_site_label
 _atom_site_symmetry_multiplicity
 _atom_site_fract_x
 _atom_site_fract_y
 _atom_site_fract_z
 _atom_site_occupancy
  Sm  Sm0  1  0.741941  0.019358  0.751585  1
  Sm  Sm1  1  0.257273  0.977906  0.247411  1
  Sm  Sm2  1  0.812681  0.774677  0.081274  1
  Sm  Sm3  1  0.687959  0.498630  0.749557  1
  Sm  Sm4  1  0.310752  0.503569  0.250630  1
  Sm  Sm5  1  0.182700  0.223940  0.918563  1
  Sm  Sm6  1  0.833392  0.195033  0.427775  1
  Er  Er7  1  0.166586  0.805595  0.571666  1
  I  I8  1  0.250561  0.734694  0.878506  1
  I  I9  1  0.735263  0.711922  0.393718  1
  I  I10  1  0.266425  0.292937  0.608132  1
  I  I11  1  0.747139  0.264354  0.119888  1
  O  O12  1  0.070815  0.941001  0.894892  1
  O  O13  1  0.527458  0.830001  0.931849  1
  O  O14  1  0.023476  0.954171  0.399628  1
  O  O15  1  0.402795  0.823950  0.728562  1
  O  O16  1  0.472262  0.832692  0.436858  1
  O  O17  1  0.975801  0.704035  0.785893  1
  O  O18  1  0.545475  0.772078  0.228116  1
  O  O19  1  0.851601  0.639987  0.559529  1
  O  O20  1  0.369004  0.512545  0.874943  1
  O  O21  1  0.056983  0.719616  0.240748  1
  O  O22  1  0.370225  0.521724  0.605807  1
  O  O23  1  0.853050  0.368303  0.969771  1
  O  O24  1  0.148104  0.635524  0.030438  1
  O  O25  1  0.629251  0.484629  0.395566  1
  O  O26  1  0.936930  0.279268  0.759257  1
  O  O27  1  0.627926  0.485396  0.125984  1
  O  O28  1  0.162487  0.362920  0.439848  1
  O  O29  1  0.449444  0.229207  0.771310  1
  O  O30  1  0.020435  0.293968  0.214829  1
  O  O31  1  0.531162  0.172708  0.567784  1
  O  O32  1  0.592486  0.171220  0.267901  1
  O  O33  1  0.987511  0.035101  0.604031  1
  O  O34  1  0.473649  0.168339  0.064440  1
  O  O35  1  0.928998  0.058997  0.103313  1
