# generated using pymatgen
data_Yb5TaN5
_symmetry_space_group_name_H-M   'P 1'
_cell_length_a   6.85332762
_cell_length_b   6.85332691
_cell_length_c   8.72053780
_cell_angle_alpha   82.00968135
_cell_angle_beta   82.00967702
_cell_angle_gamma   60.47197774
_symmetry_Int_Tables_number   1
_chemical_formula_structural   Yb5TaN5
_chemical_formula_sum   'Yb10 Ta2 N10'
_cell_volume   351.74459964
_cell_formula_units_Z   2
loop_
 _symmetry_equiv_pos_site_id
 _symmetry_equiv_pos_as_xyz
  1  'x, y, z'
loop_
 _atom_site_type_symbol
 _atom_site_label
 _atom_site_symmetry_multiplicity
 _atom_site_fract_x
 _atom_site_fract_y
 _atom_site_fract_z
 _atom_site_occupancy
  Yb  Yb0  1  0.883303  0.359790  0.842940  1
  Yb  Yb1  1  0.877066  0.877066  0.823263  1
  Yb  Yb2  1  0.732081  0.732081  0.540668  1
  Yb  Yb3  1  0.744901  0.257484  0.505912  1
  Yb  Yb4  1  0.616637  0.134231  0.146229  1
  Yb  Yb5  1  0.359790  0.883303  0.842940  1
  Yb  Yb6  1  0.257484  0.744901  0.505912  1
  Yb  Yb7  1  0.240421  0.240421  0.488664  1
  Yb  Yb8  1  0.142946  0.142946  0.171887  1
  Yb  Yb9  1  0.134231  0.616637  0.146229  1
  Ta  Ta10  1  0.632576  0.632576  0.219508  1
  Ta  Ta11  1  0.371262  0.371262  0.771926  1
  N  N12  1  0.914790  0.469679  0.326627  1
  N  N13  1  0.995961  0.995961  0.026651  1
  N  N14  1  0.689771  0.689771  0.997571  1
  N  N15  1  0.540209  0.540209  0.692580  1
  N  N16  1  0.469679  0.914790  0.326627  1
  N  N17  1  0.539169  0.087828  0.672345  1
  N  N18  1  0.464623  0.464623  0.292126  1
  N  N19  1  0.308677  0.308677  0.991496  1
  N  N20  1  0.058879  0.058879  0.641361  1
  N  N21  1  0.087828  0.539169  0.672345  1
