# generated using pymatgen
data_Ba6BiPb8S
_symmetry_space_group_name_H-M   'P 1'
_cell_length_a   9.49098169
_cell_length_b   9.49098132
_cell_length_c   9.49098241
_cell_angle_alpha   121.11077050
_cell_angle_beta   121.11076969
_cell_angle_gamma   88.08662323
_symmetry_Int_Tables_number   1
_chemical_formula_structural   Ba6BiPb8S
_chemical_formula_sum   'Ba6 Bi1 Pb8 S1'
_cell_volume   594.02151561
_cell_formula_units_Z   1
loop_
 _symmetry_equiv_pos_site_id
 _symmetry_equiv_pos_as_xyz
  1  'x, y, z'
loop_
 _atom_site_type_symbol
 _atom_site_label
 _atom_site_symmetry_multiplicity
 _atom_site_fract_x
 _atom_site_fract_y
 _atom_site_fract_z
 _atom_site_occupancy
  Ba  Ba0  1  0.265993  0.265993  0.000000  1
  Ba  Ba1  1  0.734007  0.734007  0.000000  1
  Ba  Ba2  1  0.182120  0.656658  0.838780  1
  Ba  Ba3  1  0.817880  0.343342  0.161220  1
  Ba  Ba4  1  0.656658  0.817880  0.474537  1
  Ba  Ba5  1  0.343342  0.182120  0.525463  1
  Bi  Bi6  1  0.000000  0.000000  0.000000  1
  Pb  Pb7  1  0.833772  0.322185  0.782956  1
  Pb  Pb8  1  0.166228  0.677815  0.217044  1
  Pb  Pb9  1  0.539229  0.050815  0.217044  1
  Pb  Pb10  1  0.322185  0.539229  0.488414  1
  Pb  Pb11  1  0.949185  0.166228  0.488414  1
  Pb  Pb12  1  0.460771  0.949185  0.782956  1
  Pb  Pb13  1  0.677815  0.460771  0.511586  1
  Pb  Pb14  1  0.050815  0.833772  0.511586  1
  S  S15  1  0.500000  0.500000  0.000000  1
