# generated using pymatgen
data_Nd3Si2PtRh2
_symmetry_space_group_name_H-M   'P 1'
_cell_length_a   5.75297300
_cell_length_b   7.79747200
_cell_length_c   15.10889900
_cell_angle_alpha   90.00000000
_cell_angle_beta   90.00000000
_cell_angle_gamma   90.00000000
_symmetry_Int_Tables_number   1
_chemical_formula_structural   Nd3Si2PtRh2
_chemical_formula_sum   'Nd12 Si8 Pt4 Rh8'
_cell_volume   677.76474994
_cell_formula_units_Z   4
loop_
 _symmetry_equiv_pos_site_id
 _symmetry_equiv_pos_as_xyz
  1  'x, y, z'
loop_
 _atom_site_type_symbol
 _atom_site_label
 _atom_site_symmetry_multiplicity
 _atom_site_fract_x
 _atom_site_fract_y
 _atom_site_fract_z
 _atom_site_occupancy
  Nd  Nd0  1  0.138408  0.472337  0.892562  1
  Nd  Nd1  1  0.361592  0.972337  0.892562  1
  Nd  Nd2  1  0.609806  0.331327  0.750000  1
  Nd  Nd3  1  0.390194  0.668673  0.250000  1
  Nd  Nd4  1  0.638408  0.027663  0.392562  1
  Nd  Nd5  1  0.861592  0.527663  0.107438  1
  Nd  Nd6  1  0.861592  0.527663  0.392562  1
  Nd  Nd7  1  0.361592  0.972337  0.607438  1
  Nd  Nd8  1  0.890194  0.831327  0.750000  1
  Nd  Nd9  1  0.138408  0.472337  0.607438  1
  Nd  Nd10  1  0.638408  0.027663  0.107438  1
  Nd  Nd11  1  0.109806  0.168673  0.250000  1
  Si  Si12  1  0.364525  0.375114  0.096671  1
  Si  Si13  1  0.635475  0.624886  0.903329  1
  Si  Si14  1  0.864525  0.124886  0.903329  1
  Si  Si15  1  0.364525  0.375114  0.403329  1
  Si  Si16  1  0.864525  0.124886  0.596671  1
  Si  Si17  1  0.635475  0.624886  0.596671  1
  Si  Si18  1  0.135475  0.875114  0.403329  1
  Si  Si19  1  0.135475  0.875114  0.096671  1
  Pt  Pt20  1  0.584724  0.316182  0.250000  1
  Pt  Pt21  1  0.084724  0.183818  0.750000  1
  Pt  Pt22  1  0.415276  0.683818  0.750000  1
  Pt  Pt23  1  0.915276  0.816182  0.250000  1
  Rh  Rh24  1  0.601617  0.336750  0.962299  1
  Rh  Rh25  1  0.398383  0.663250  0.037701  1
  Rh  Rh26  1  0.398383  0.663250  0.462299  1
  Rh  Rh27  1  0.101617  0.163250  0.462299  1
  Rh  Rh28  1  0.101617  0.163250  0.037701  1
  Rh  Rh29  1  0.601617  0.336750  0.537701  1
  Rh  Rh30  1  0.898383  0.836750  0.537701  1
  Rh  Rh31  1  0.898383  0.836750  0.962299  1
