# generated using pymatgen
data_TbHo3Er4(WO6)4
_symmetry_space_group_name_H-M   'P 1'
_cell_length_a   5.37884500
_cell_length_b   7.68161212
_cell_length_c   11.42137701
_cell_angle_alpha   75.40518200
_cell_angle_beta   90.00000000
_cell_angle_gamma   90.00000000
_symmetry_Int_Tables_number   1
_chemical_formula_structural   TbHo3Er4(WO6)4
_chemical_formula_sum   'Tb1 Ho3 Er4 W4 O24'
_cell_volume   456.68311768
_cell_formula_units_Z   1
loop_
 _symmetry_equiv_pos_site_id
 _symmetry_equiv_pos_as_xyz
  1  'x, y, z'
loop_
 _atom_site_type_symbol
 _atom_site_label
 _atom_site_symmetry_multiplicity
 _atom_site_fract_x
 _atom_site_fract_y
 _atom_site_fract_z
 _atom_site_occupancy
  Tb  Tb0  1  0.684310  0.500000  0.250000  1
  Ho  Ho1  1  0.315888  0.500000  0.750000  1
  Ho  Ho2  1  0.740818  0.000000  0.250000  1
  Ho  Ho3  1  0.259412  0.000000  0.750000  1
  Er  Er4  1  0.183465  0.205480  0.422007  1
  Er  Er5  1  0.183465  0.794520  0.077993  1
  Er  Er6  1  0.816726  0.793998  0.578338  1
  Er  Er7  1  0.816726  0.206002  0.921662  1
  W  W8  1  0.256013  0.275989  0.114456  1
  W  W9  1  0.256013  0.724011  0.385544  1
  W  W10  1  0.743974  0.723746  0.885006  1
  W  W11  1  0.743974  0.276254  0.614994  1
  O  O12  1  0.457552  0.207862  0.273637  1
  O  O13  1  0.457552  0.792138  0.226363  1
  O  O14  1  0.541961  0.791504  0.726266  1
  O  O15  1  0.541961  0.208496  0.773734  1
  O  O16  1  0.044532  0.059681  0.103823  1
  O  O17  1  0.044532  0.940319  0.396177  1
  O  O18  1  0.955260  0.940513  0.895691  1
  O  O19  1  0.955260  0.059487  0.604309  1
  O  O20  1  0.981535  0.287697  0.229212  1
  O  O21  1  0.981535  0.712303  0.270788  1
  O  O22  1  0.019863  0.710677  0.771035  1
  O  O23  1  0.019863  0.289323  0.728965  1
  O  O24  1  0.850442  0.365279  0.451707  1
  O  O25  1  0.850442  0.634721  0.048293  1
  O  O26  1  0.150355  0.634788  0.549178  1
  O  O27  1  0.150355  0.365212  0.950822  1
  O  O28  1  0.639053  0.510664  0.614648  1
  O  O29  1  0.639053  0.489336  0.885352  1
  O  O30  1  0.358494  0.489152  0.386163  1
  O  O31  1  0.358494  0.510848  0.113837  1
  O  O32  1  0.463932  0.153954  0.569003  1
  O  O33  1  0.463932  0.846046  0.930997  1
  O  O34  1  0.536630  0.845995  0.431076  1
  O  O35  1  0.536630  0.154005  0.068924  1
