# generated using pymatgen
data_YbEr3NbOs7
_symmetry_space_group_name_H-M   'P 1'
_cell_length_a   5.42593100
_cell_length_b   5.42593068
_cell_length_c   8.66024700
_cell_angle_alpha   90.00000000
_cell_angle_beta   90.00000000
_cell_angle_gamma   119.99999588
_symmetry_Int_Tables_number   1
_chemical_formula_structural   YbEr3NbOs7
_chemical_formula_sum   'Yb1 Er3 Nb1 Os7'
_cell_volume   220.80527068
_cell_formula_units_Z   1
loop_
 _symmetry_equiv_pos_site_id
 _symmetry_equiv_pos_as_xyz
  1  'x, y, z'
loop_
 _atom_site_type_symbol
 _atom_site_label
 _atom_site_symmetry_multiplicity
 _atom_site_fract_x
 _atom_site_fract_y
 _atom_site_fract_z
 _atom_site_occupancy
  Yb  Yb0  1  0.333333  0.666667  0.060956  1
  Er  Er1  1  0.333333  0.666667  0.421898  1
  Er  Er2  1  0.666667  0.333333  0.571677  1
  Er  Er3  1  0.666667  0.333333  0.941847  1
  Nb  Nb4  1  0.000000  0.000000  0.503242  1
  Os  Os5  1  0.000000  0.000000  0.999238  1
  Os  Os6  1  0.827098  0.172902  0.249299  1
  Os  Os7  1  0.827098  0.654195  0.249299  1
  Os  Os8  1  0.345805  0.172902  0.249299  1
  Os  Os9  1  0.174437  0.825563  0.751081  1
  Os  Os10  1  0.174437  0.348873  0.751081  1
  Os  Os11  1  0.651127  0.825563  0.751081  1
