# generated using pymatgen
data_Rb5CaGd2Br12
_symmetry_space_group_name_H-M   'P 1'
_cell_length_a   13.71968600
_cell_length_b   13.74613940
_cell_length_c   4.49317600
_cell_angle_alpha   90.00000000
_cell_angle_beta   90.00000000
_cell_angle_gamma   119.93636576
_symmetry_Int_Tables_number   1
_chemical_formula_structural   Rb5CaGd2Br12
_chemical_formula_sum   'Rb5 Ca1 Gd2 Br12'
_cell_volume   734.32294667
_cell_formula_units_Z   1
loop_
 _symmetry_equiv_pos_site_id
 _symmetry_equiv_pos_as_xyz
  1  'x, y, z'
loop_
 _atom_site_type_symbol
 _atom_site_label
 _atom_site_symmetry_multiplicity
 _atom_site_fract_x
 _atom_site_fract_y
 _atom_site_fract_z
 _atom_site_occupancy
  Rb  Rb0  1  0.332462  0.672196  0.000000  1
  Rb  Rb1  1  0.660267  0.327804  0.000000  1
  Rb  Rb2  1  0.710590  0.000000  0.000000  1
  Rb  Rb3  1  0.006322  0.719874  0.000000  1
  Rb  Rb4  1  0.286448  0.280126  0.000000  1
  Ca  Ca5  1  0.327077  0.000000  0.500000  1
  Gd  Gd6  1  0.001388  0.328429  0.500000  1
  Gd  Gd7  1  0.672959  0.671571  0.500000  1
  Br  Br8  1  0.184397  0.000000  0.000000  1
  Br  Br9  1  0.999770  0.185758  0.000000  1
  Br  Br10  1  0.814012  0.814242  0.000000  1
  Br  Br11  1  0.464921  0.000000  0.000000  1
  Br  Br12  1  0.998607  0.463680  0.000000  1
  Br  Br13  1  0.534927  0.536320  0.000000  1
  Br  Br14  1  0.240908  0.445179  0.500000  1
  Br  Br15  1  0.555823  0.794013  0.500000  1
  Br  Br16  1  0.446967  0.242352  0.500000  1
  Br  Br17  1  0.204613  0.757648  0.500000  1
  Br  Br18  1  0.795730  0.554821  0.500000  1
  Br  Br19  1  0.761811  0.205987  0.500000  1
