# generated using pymatgen
data_Li3YbLu3AlPt4
_symmetry_space_group_name_H-M   'P 1'
_cell_length_a   3.99928700
_cell_length_b   6.95971700
_cell_length_c   8.30134209
_cell_angle_alpha   89.89950413
_cell_angle_beta   90.00000000
_cell_angle_gamma   90.00000000
_symmetry_Int_Tables_number   1
_chemical_formula_structural   Li3YbLu3AlPt4
_chemical_formula_sum   'Li3 Yb1 Lu3 Al1 Pt4'
_cell_volume   231.05841768
_cell_formula_units_Z   1
loop_
 _symmetry_equiv_pos_site_id
 _symmetry_equiv_pos_as_xyz
  1  'x, y, z'
loop_
 _atom_site_type_symbol
 _atom_site_label
 _atom_site_symmetry_multiplicity
 _atom_site_fract_x
 _atom_site_fract_y
 _atom_site_fract_z
 _atom_site_occupancy
  Li  Li0  1  0.250000  0.130068  0.059893  1
  Li  Li1  1  0.250000  0.632526  0.439985  1
  Li  Li2  1  0.750000  0.873231  0.941400  1
  Yb  Yb3  1  0.750000  0.954615  0.318967  1
  Lu  Lu4  1  0.250000  0.045378  0.680694  1
  Lu  Lu5  1  0.250000  0.545465  0.820900  1
  Lu  Lu6  1  0.750000  0.450924  0.176648  1
  Al  Al7  1  0.750000  0.375607  0.558149  1
  Pt  Pt8  1  0.250000  0.264448  0.388828  1
  Pt  Pt9  1  0.250000  0.731773  0.120632  1
  Pt  Pt10  1  0.750000  0.741207  0.631414  1
  Pt  Pt11  1  0.750000  0.254757  0.862491  1
