# generated using pymatgen
data_Ti20Ga8AsS3
_symmetry_space_group_name_H-M   'P 1'
_cell_length_a   6.63551719
_cell_length_b   7.82685800
_cell_length_c   9.85015209
_cell_angle_alpha   90.00000000
_cell_angle_beta   89.90477238
_cell_angle_gamma   90.00000000
_symmetry_Int_Tables_number   1
_chemical_formula_structural   Ti20Ga8AsS3
_chemical_formula_sum   'Ti20 Ga8 As1 S3'
_cell_volume   511.56941226
_cell_formula_units_Z   1
loop_
 _symmetry_equiv_pos_site_id
 _symmetry_equiv_pos_as_xyz
  1  'x, y, z'
loop_
 _atom_site_type_symbol
 _atom_site_label
 _atom_site_symmetry_multiplicity
 _atom_site_fract_x
 _atom_site_fract_y
 _atom_site_fract_z
 _atom_site_occupancy
  Ti  Ti0  1  0.835465  0.750000  0.216521  1
  Ti  Ti1  1  0.653924  0.750000  0.710361  1
  Ti  Ti2  1  0.153905  0.250000  0.788643  1
  Ti  Ti3  1  0.345298  0.250000  0.291530  1
  Ti  Ti4  1  0.333637  0.750000  0.282886  1
  Ti  Ti5  1  0.172328  0.750000  0.773605  1
  Ti  Ti6  1  0.664017  0.250000  0.714690  1
  Ti  Ti7  1  0.834150  0.250000  0.218764  1
  Ti  Ti8  1  0.677881  0.946298  0.440706  1
  Ti  Ti9  1  0.816978  0.549594  0.938194  1
  Ti  Ti10  1  0.319521  0.446195  0.560538  1
  Ti  Ti11  1  0.184015  0.062439  0.060725  1
  Ti  Ti12  1  0.319521  0.053805  0.560538  1
  Ti  Ti13  1  0.184015  0.437561  0.060725  1
  Ti  Ti14  1  0.677881  0.553702  0.440706  1
  Ti  Ti15  1  0.816978  0.950406  0.938194  1
  Ti  Ti16  1  0.018953  0.750000  0.496698  1
  Ti  Ti17  1  0.488094  0.750000  0.996023  1
  Ti  Ti18  1  0.978789  0.250000  0.502337  1
  Ti  Ti19  1  0.526447  0.250000  0.001792  1
  Ga  Ga20  1  0.562744  0.505770  0.175644  1
  Ga  Ga21  1  0.934792  0.993340  0.673704  1
  Ga  Ga22  1  0.435716  0.007353  0.825256  1
  Ga  Ga23  1  0.063281  0.493805  0.324754  1
  Ga  Ga24  1  0.435716  0.492647  0.825256  1
  Ga  Ga25  1  0.063281  0.006195  0.324754  1
  Ga  Ga26  1  0.562744  0.994230  0.175644  1
  Ga  Ga27  1  0.934792  0.506660  0.673704  1
  As  As28  1  0.102870  0.750000  0.031588  1
  S  S29  1  0.398769  0.750000  0.528736  1
  S  S30  1  0.904998  0.250000  0.974637  1
  S  S31  1  0.598501  0.250000  0.472145  1
