# generated using pymatgen
data_HoLuNi7HgB2
_symmetry_space_group_name_H-M   'P 1'
_cell_length_a   5.00518400
_cell_length_b   5.00518444
_cell_length_c   14.26892800
_cell_angle_alpha   90.00000000
_cell_angle_beta   90.00000000
_cell_angle_gamma   119.99999711
_symmetry_Int_Tables_number   1
_chemical_formula_structural   HoLuNi7HgB2
_chemical_formula_sum   'Ho2 Lu2 Ni14 Hg2 B4'
_cell_volume   309.57232155
_cell_formula_units_Z   2
loop_
 _symmetry_equiv_pos_site_id
 _symmetry_equiv_pos_as_xyz
  1  'x, y, z'
loop_
 _atom_site_type_symbol
 _atom_site_label
 _atom_site_symmetry_multiplicity
 _atom_site_fract_x
 _atom_site_fract_y
 _atom_site_fract_z
 _atom_site_occupancy
  Ho  Ho0  1  0.666667  0.333333  0.470858  1
  Ho  Ho1  1  0.333333  0.666667  0.970858  1
  Lu  Lu2  1  0.333333  0.666667  0.742783  1
  Lu  Lu3  1  0.666667  0.333333  0.242783  1
  Ni  Ni4  1  0.000000  0.000000  0.000149  1
  Ni  Ni5  1  0.000000  0.000000  0.500149  1
  Ni  Ni6  1  0.165420  0.330840  0.149329  1
  Ni  Ni7  1  0.834580  0.669160  0.649329  1
  Ni  Ni8  1  0.669160  0.834580  0.149329  1
  Ni  Ni9  1  0.165420  0.834580  0.149329  1
  Ni  Ni10  1  0.834580  0.165420  0.649329  1
  Ni  Ni11  1  0.330840  0.165420  0.649329  1
  Ni  Ni12  1  0.834314  0.668629  0.850801  1
  Ni  Ni13  1  0.834314  0.165686  0.850801  1
  Ni  Ni14  1  0.331371  0.165686  0.850801  1
  Ni  Ni15  1  0.668629  0.834314  0.350801  1
  Ni  Ni16  1  0.165686  0.834314  0.350801  1
  Ni  Ni17  1  0.165686  0.331371  0.350801  1
  Hg  Hg18  1  0.333333  0.666667  0.533134  1
  Hg  Hg19  1  0.666667  0.333333  0.033134  1
  B  B20  1  0.333333  0.666667  0.250166  1
  B  B21  1  0.666667  0.333333  0.750166  1
  B  B22  1  0.000000  0.000000  0.252522  1
  B  B23  1  0.000000  0.000000  0.752522  1
