# generated using pymatgen
data_Sc3Al3GePt2
_symmetry_space_group_name_H-M   'P 1'
_cell_length_a   6.78890900
_cell_length_b   6.78890818
_cell_length_c   8.04649600
_cell_angle_alpha   90.00000000
_cell_angle_beta   90.00000000
_cell_angle_gamma   119.99999912
_symmetry_Int_Tables_number   1
_chemical_formula_structural   Sc3Al3GePt2
_chemical_formula_sum   'Sc6 Al6 Ge2 Pt4'
_cell_volume   321.17176434
_cell_formula_units_Z   2
loop_
 _symmetry_equiv_pos_site_id
 _symmetry_equiv_pos_as_xyz
  1  'x, y, z'
loop_
 _atom_site_type_symbol
 _atom_site_label
 _atom_site_symmetry_multiplicity
 _atom_site_fract_x
 _atom_site_fract_y
 _atom_site_fract_z
 _atom_site_occupancy
  Sc  Sc0  1  0.577245  0.995055  0.750000  1
  Sc  Sc1  1  0.004945  0.582190  0.750000  1
  Sc  Sc2  1  0.417810  0.422755  0.750000  1
  Sc  Sc3  1  0.004058  0.582072  0.250000  1
  Sc  Sc4  1  0.578016  0.995942  0.250000  1
  Sc  Sc5  1  0.417928  0.421984  0.250000  1
  Al  Al6  1  0.750664  0.764732  0.000023  1
  Al  Al7  1  0.235268  0.985932  0.000023  1
  Al  Al8  1  0.014068  0.249336  0.000023  1
  Al  Al9  1  0.750664  0.764732  0.499977  1
  Al  Al10  1  0.235268  0.985932  0.499977  1
  Al  Al11  1  0.014068  0.249336  0.499977  1
  Ge  Ge12  1  0.666667  0.333333  0.999804  1
  Ge  Ge13  1  0.666667  0.333333  0.500196  1
  Pt  Pt14  1  0.000000  0.000000  0.750000  1
  Pt  Pt15  1  0.000000  0.000000  0.250000  1
  Pt  Pt16  1  0.333333  0.666667  0.499360  1
  Pt  Pt17  1  0.333333  0.666667  0.000640  1
