# generated using pymatgen
data_Dy6Er6Ni4SnAu
_symmetry_space_group_name_H-M   'P 1'
_cell_length_a   8.34141635
_cell_length_b   8.34141753
_cell_length_c   8.34141732
_cell_angle_alpha   112.50912855
_cell_angle_beta   109.09855150
_cell_angle_gamma   106.85648160
_symmetry_Int_Tables_number   1
_chemical_formula_structural   Dy6Er6Ni4SnAu
_chemical_formula_sum   'Dy6 Er6 Ni4 Sn1 Au1'
_cell_volume   445.67505044
_cell_formula_units_Z   1
loop_
 _symmetry_equiv_pos_site_id
 _symmetry_equiv_pos_as_xyz
  1  'x, y, z'
loop_
 _atom_site_type_symbol
 _atom_site_label
 _atom_site_symmetry_multiplicity
 _atom_site_fract_x
 _atom_site_fract_y
 _atom_site_fract_z
 _atom_site_occupancy
  Dy  Dy0  1  0.323582  0.130244  0.806662  1
  Dy  Dy1  1  0.676418  0.483081  0.806662  1
  Dy  Dy2  1  0.180363  0.204892  0.385256  1
  Dy  Dy3  1  0.819637  0.204892  0.024528  1
  Dy  Dy4  1  0.181197  0.794401  0.975599  1
  Dy  Dy5  1  0.818803  0.794401  0.613203  1
  Er  Er6  1  0.022254  0.720350  0.301451  1
  Er  Er7  1  0.977746  0.279198  0.698097  1
  Er  Er8  1  0.581101  0.279198  0.301451  1
  Er  Er9  1  0.418899  0.720350  0.698097  1
  Er  Er10  1  0.675736  0.868608  0.192872  1
  Er  Er11  1  0.324264  0.517135  0.192872  1
  Ni  Ni12  1  0.637829  0.502170  0.139999  1
  Ni  Ni13  1  0.362171  0.502170  0.864340  1
  Ni  Ni14  1  0.873566  0.873439  0.999873  1
  Ni  Ni15  1  0.126434  0.126308  0.999873  1
  Sn  Sn16  1  0.500000  0.998771  0.498771  1
  Au  Au17  1  0.000000  0.500393  0.500393  1
