# generated using pymatgen
data_Nd3CdAg2Pd3
_symmetry_space_group_name_H-M   'P 1'
_cell_length_a   7.68596959
_cell_length_b   7.68597019
_cell_length_c   4.04030000
_cell_angle_alpha   90.00000000
_cell_angle_beta   90.00000000
_cell_angle_gamma   120.74991375
_symmetry_Int_Tables_number   1
_chemical_formula_structural   Nd3CdAg2Pd3
_chemical_formula_sum   'Nd3 Cd1 Ag2 Pd3'
_cell_volume   205.12091701
_cell_formula_units_Z   1
loop_
 _symmetry_equiv_pos_site_id
 _symmetry_equiv_pos_as_xyz
  1  'x, y, z'
loop_
 _atom_site_type_symbol
 _atom_site_label
 _atom_site_symmetry_multiplicity
 _atom_site_fract_x
 _atom_site_fract_y
 _atom_site_fract_z
 _atom_site_occupancy
  Nd  Nd0  1  0.597781  0.006573  0.000000  1
  Nd  Nd1  1  0.006573  0.597781  0.000000  1
  Nd  Nd2  1  0.391374  0.391374  0.000000  1
  Cd  Cd3  1  0.748168  0.748168  0.500000  1
  Ag  Ag4  1  0.253578  0.000111  0.500000  1
  Ag  Ag5  1  0.000111  0.253578  0.500000  1
  Pd  Pd6  1  0.337889  0.669492  0.500000  1
  Pd  Pd7  1  0.669492  0.337889  0.500000  1
  Pd  Pd8  1  0.995034  0.995034  0.000000  1
