# generated using pymatgen
data_LaPr7Zn8(PdRh3)2
_symmetry_space_group_name_H-M   'P 1'
_cell_length_a   4.04197200
_cell_length_b   7.39842657
_cell_length_c   16.78774113
_cell_angle_alpha   89.83616480
_cell_angle_beta   90.00000000
_cell_angle_gamma   90.00000000
_symmetry_Int_Tables_number   1
_chemical_formula_structural   LaPr7Zn8(PdRh3)2
_chemical_formula_sum   'La1 Pr7 Zn8 Pd2 Rh6'
_cell_volume   502.02247084
_cell_formula_units_Z   1
loop_
 _symmetry_equiv_pos_site_id
 _symmetry_equiv_pos_as_xyz
  1  'x, y, z'
loop_
 _atom_site_type_symbol
 _atom_site_label
 _atom_site_symmetry_multiplicity
 _atom_site_fract_x
 _atom_site_fract_y
 _atom_site_fract_z
 _atom_site_occupancy
  La  La0  1  0.750000  0.456039  0.218711  1
  Pr  Pr1  1  0.750000  0.948782  0.285040  1
  Pr  Pr2  1  0.750000  0.826467  0.059568  1
  Pr  Pr3  1  0.250000  0.044724  0.717640  1
  Pr  Pr4  1  0.250000  0.168874  0.935513  1
  Pr  Pr5  1  0.250000  0.551084  0.784894  1
  Pr  Pr6  1  0.750000  0.331212  0.436148  1
  Pr  Pr7  1  0.250000  0.673723  0.560525  1
  Zn  Zn8  1  0.250000  0.995828  0.437254  1
  Zn  Zn9  1  0.750000  0.504738  0.936933  1
  Zn  Zn10  1  0.750000  0.999322  0.560013  1
  Zn  Zn11  1  0.250000  0.624638  0.351828  1
  Zn  Zn12  1  0.750000  0.380336  0.653654  1
  Zn  Zn13  1  0.750000  0.876803  0.849993  1
  Zn  Zn14  1  0.250000  0.500269  0.058747  1
  Zn  Zn15  1  0.250000  0.117750  0.153434  1
  Pd  Pd16  1  0.250000  0.242505  0.566145  1
  Pd  Pd17  1  0.750000  0.257562  0.066480  1
  Rh  Rh18  1  0.250000  0.248865  0.312071  1
  Rh  Rh19  1  0.750000  0.253025  0.813748  1
  Rh  Rh20  1  0.250000  0.744905  0.935057  1
  Rh  Rh21  1  0.750000  0.751615  0.685723  1
  Rh  Rh22  1  0.750000  0.757465  0.435527  1
  Rh  Rh23  1  0.250000  0.743468  0.185353  1
