# generated using pymatgen
data_TbTm5Bi2Mo
_symmetry_space_group_name_H-M   'P 1'
_cell_length_a   8.21367400
_cell_length_b   8.21885445
_cell_length_c   4.35050600
_cell_angle_alpha   90.00000000
_cell_angle_beta   90.00000000
_cell_angle_gamma   119.97915967
_symmetry_Int_Tables_number   1
_chemical_formula_structural   TbTm5Bi2Mo
_chemical_formula_sum   'Tb1 Tm5 Bi2 Mo1'
_cell_volume   254.39602353
_cell_formula_units_Z   1
loop_
 _symmetry_equiv_pos_site_id
 _symmetry_equiv_pos_as_xyz
  1  'x, y, z'
loop_
 _atom_site_type_symbol
 _atom_site_label
 _atom_site_symmetry_multiplicity
 _atom_site_fract_x
 _atom_site_fract_y
 _atom_site_fract_z
 _atom_site_occupancy
  Tb  Tb0  1  0.608893  0.000000  0.000000  1
  Tm  Tm1  1  0.235929  0.000000  0.500000  1
  Tm  Tm2  1  0.000637  0.234551  0.500000  1
  Tm  Tm3  1  0.766086  0.765449  0.500000  1
  Tm  Tm4  1  0.999648  0.612527  0.000000  1
  Tm  Tm5  1  0.387120  0.387473  0.000000  1
  Bi  Bi6  1  0.331504  0.664153  0.500000  1
  Bi  Bi7  1  0.667352  0.335847  0.500000  1
  Mo  Mo8  1  0.002830  0.000000  0.000000  1
