# generated using pymatgen
data_La4PtRh2
_symmetry_space_group_name_H-M   'P 1'
_cell_length_a   7.86539458
_cell_length_b   7.86191541
_cell_length_c   7.86948100
_cell_angle_alpha   109.05423597
_cell_angle_beta   109.70031556
_cell_angle_gamma   109.66149718
_symmetry_Int_Tables_number   1
_chemical_formula_structural   La4PtRh2
_chemical_formula_sum   'La8 Pt2 Rh4'
_cell_volume   374.58232863
_cell_formula_units_Z   2
loop_
 _symmetry_equiv_pos_site_id
 _symmetry_equiv_pos_as_xyz
  1  'x, y, z'
loop_
 _atom_site_type_symbol
 _atom_site_label
 _atom_site_symmetry_multiplicity
 _atom_site_fract_x
 _atom_site_fract_y
 _atom_site_fract_z
 _atom_site_occupancy
  La  La0  1  0.113477  0.497858  0.994249  1
  La  La1  1  0.504203  0.001533  0.613937  1
  La  La2  1  0.392550  0.391737  0.391087  1
  La  La3  1  0.998746  0.113157  0.505008  1
  La  La4  1  0.886523  0.884381  0.880772  1
  La  La5  1  0.001254  0.614411  0.506262  1
  La  La6  1  0.607450  0.499187  0.998537  1
  La  La7  1  0.495797  0.997330  0.109734  1
  Pt  Pt8  1  0.875461  0.249621  0.124997  1
  Pt  Pt9  1  0.124539  0.874160  0.249537  1
  Rh  Rh10  1  0.375460  0.625916  0.750634  1
  Rh  Rh11  1  0.248975  0.124615  0.874524  1
  Rh  Rh12  1  0.751025  0.375640  0.625550  1
  Rh  Rh13  1  0.624540  0.750456  0.375174  1
