# generated using pymatgen
data_Pr16Cd3HgIrPd3
_symmetry_space_group_name_H-M   'P 1'
_cell_length_a   10.10556780
_cell_length_b   10.06196632
_cell_length_c   10.06196588
_cell_angle_alpha   59.91521069
_cell_angle_beta   60.16562038
_cell_angle_gamma   60.16561512
_symmetry_Int_Tables_number   1
_chemical_formula_structural   Pr16Cd3HgIrPd3
_chemical_formula_sum   'Pr16 Cd3 Hg1 Ir1 Pd3'
_cell_volume   724.79238883
_cell_formula_units_Z   1
loop_
 _symmetry_equiv_pos_site_id
 _symmetry_equiv_pos_as_xyz
  1  'x, y, z'
loop_
 _atom_site_type_symbol
 _atom_site_label
 _atom_site_symmetry_multiplicity
 _atom_site_fract_x
 _atom_site_fract_y
 _atom_site_fract_z
 _atom_site_occupancy
  Pr  Pr0  1  0.351448  0.346869  0.346869  1
  Pr  Pr1  1  0.355307  0.350019  0.946097  1
  Pr  Pr2  1  0.355307  0.946097  0.350019  1
  Pr  Pr3  1  0.935741  0.355556  0.355556  1
  Pr  Pr4  1  0.806516  0.189735  0.189735  1
  Pr  Pr5  1  0.193842  0.807199  0.807199  1
  Pr  Pr6  1  0.193760  0.810327  0.189821  1
  Pr  Pr7  1  0.805042  0.189859  0.813360  1
  Pr  Pr8  1  0.193760  0.189821  0.810327  1
  Pr  Pr9  1  0.805042  0.813360  0.189859  1
  Pr  Pr10  1  0.941472  0.563386  0.563386  1
  Pr  Pr11  1  0.565163  0.936703  0.936703  1
  Pr  Pr12  1  0.566266  0.937966  0.560500  1
  Pr  Pr13  1  0.937974  0.561938  0.935085  1
  Pr  Pr14  1  0.566266  0.560500  0.937966  1
  Pr  Pr15  1  0.937974  0.935085  0.561938  1
  Cd  Cd16  1  0.578472  0.580172  0.258813  1
  Cd  Cd17  1  0.578472  0.258813  0.580172  1
  Cd  Cd18  1  0.260525  0.578906  0.578906  1
  Hg  Hg19  1  0.582970  0.584353  0.584353  1
  Ir  Ir20  1  0.570052  0.142482  0.142482  1
  Pd  Pd21  1  0.139828  0.146703  0.146703  1
  Pd  Pd22  1  0.139399  0.144183  0.569968  1
  Pd  Pd23  1  0.139399  0.569968  0.144183  1
