# generated using pymatgen
data_Tm10Si6C
_symmetry_space_group_name_H-M   'P 1'
_cell_length_a   8.32200200
_cell_length_b   8.32200361
_cell_length_c   6.26644800
_cell_angle_alpha   90.00000000
_cell_angle_beta   90.00000000
_cell_angle_gamma   119.99999361
_symmetry_Int_Tables_number   1
_chemical_formula_structural   Tm10Si6C
_chemical_formula_sum   'Tm10 Si6 C1'
_cell_volume   375.84416784
_cell_formula_units_Z   1
loop_
 _symmetry_equiv_pos_site_id
 _symmetry_equiv_pos_as_xyz
  1  'x, y, z'
loop_
 _atom_site_type_symbol
 _atom_site_label
 _atom_site_symmetry_multiplicity
 _atom_site_fract_x
 _atom_site_fract_y
 _atom_site_fract_z
 _atom_site_occupancy
  Tm  Tm0  1  0.333333  0.666667  0.500000  1
  Tm  Tm1  1  0.666667  0.333333  0.500000  1
  Tm  Tm2  1  0.666667  0.333333  0.000000  1
  Tm  Tm3  1  0.333333  0.666667  0.000000  1
  Tm  Tm4  1  0.000000  0.764700  0.271319  1
  Tm  Tm5  1  0.235300  0.235300  0.271319  1
  Tm  Tm6  1  0.764700  0.000000  0.271319  1
  Tm  Tm7  1  0.000000  0.235300  0.728681  1
  Tm  Tm8  1  0.764700  0.764700  0.728681  1
  Tm  Tm9  1  0.235300  0.000000  0.728681  1
  Si  Si10  1  0.000000  0.399009  0.254293  1
  Si  Si11  1  0.600991  0.600991  0.254293  1
  Si  Si12  1  0.399009  0.000000  0.254293  1
  Si  Si13  1  0.000000  0.600991  0.745707  1
  Si  Si14  1  0.399009  0.399009  0.745707  1
  Si  Si15  1  0.600991  0.000000  0.745707  1
  C  C16  1  0.000000  0.000000  0.500000  1
