# generated using pymatgen
data_Y4IrOs6W
_symmetry_space_group_name_H-M   'P 1'
_cell_length_a   5.26541898
_cell_length_b   5.26541940
_cell_length_c   9.07002352
_cell_angle_alpha   90.13601457
_cell_angle_beta   89.86398543
_cell_angle_gamma   118.13912554
_symmetry_Int_Tables_number   1
_chemical_formula_structural   Y4IrOs6W
_chemical_formula_sum   'Y4 Ir1 Os6 W1'
_cell_volume   221.74060133
_cell_formula_units_Z   1
loop_
 _symmetry_equiv_pos_site_id
 _symmetry_equiv_pos_as_xyz
  1  'x, y, z'
loop_
 _atom_site_type_symbol
 _atom_site_label
 _atom_site_symmetry_multiplicity
 _atom_site_fract_x
 _atom_site_fract_y
 _atom_site_fract_z
 _atom_site_occupancy
  Y  Y0  1  0.329438  0.670562  0.436937  1
  Y  Y1  1  0.664697  0.335303  0.567925  1
  Y  Y2  1  0.665217  0.334783  0.932368  1
  Y  Y3  1  0.329297  0.670703  0.063796  1
  Ir  Ir4  1  0.992405  0.007595  0.501165  1
  Os  Os5  1  0.991889  0.008111  0.997456  1
  Os  Os6  1  0.827316  0.650414  0.249711  1
  Os  Os7  1  0.349586  0.172684  0.249711  1
  Os  Os8  1  0.175878  0.824122  0.752530  1
  Os  Os9  1  0.168743  0.334641  0.750219  1
  Os  Os10  1  0.665359  0.831257  0.750219  1
  W  W11  1  0.840177  0.159823  0.247961  1
