# generated using pymatgen
data_Cs10Zn4Sn4S17
_symmetry_space_group_name_H-M   'P 1'
_cell_length_a   10.64679740
_cell_length_b   10.64679751
_cell_length_c   10.64679829
_cell_angle_alpha   89.47297972
_cell_angle_beta   89.47297586
_cell_angle_gamma   89.47297361
_symmetry_Int_Tables_number   1
_chemical_formula_structural   Cs10Zn4Sn4S17
_chemical_formula_sum   'Cs10 Zn4 Sn4 S17'
_cell_volume   1206.70809301
_cell_formula_units_Z   1
loop_
 _symmetry_equiv_pos_site_id
 _symmetry_equiv_pos_as_xyz
  1  'x, y, z'
loop_
 _atom_site_type_symbol
 _atom_site_label
 _atom_site_symmetry_multiplicity
 _atom_site_fract_x
 _atom_site_fract_y
 _atom_site_fract_z
 _atom_site_occupancy
  Cs  Cs0  1  0.000047  0.000047  0.499148  1
  Cs  Cs1  1  0.499148  0.000047  0.000047  1
  Cs  Cs2  1  0.000047  0.499148  0.000047  1
  Cs  Cs3  1  0.497131  0.966423  0.497131  1
  Cs  Cs4  1  0.497131  0.497131  0.966423  1
  Cs  Cs5  1  0.966423  0.497131  0.497131  1
  Cs  Cs6  1  0.661011  0.324990  0.324990  1
  Cs  Cs7  1  0.324990  0.661011  0.324990  1
  Cs  Cs8  1  0.324990  0.324990  0.661011  1
  Cs  Cs9  1  0.676733  0.676733  0.676733  1
  Zn  Zn10  1  0.871371  0.126947  0.126947  1
  Zn  Zn11  1  0.126947  0.871371  0.126947  1
  Zn  Zn12  1  0.126947  0.126947  0.871371  1
  Zn  Zn13  1  0.873430  0.873430  0.873430  1
  Sn  Sn14  1  0.212131  0.212131  0.212131  1
  Sn  Sn15  1  0.216373  0.784672  0.784672  1
  Sn  Sn16  1  0.784672  0.784672  0.216373  1
  Sn  Sn17  1  0.784672  0.216373  0.784672  1
  S  S18  1  0.999387  0.999387  0.999387  1
  S  S19  1  0.339923  0.339923  0.339923  1
  S  S20  1  0.352360  0.657619  0.657619  1
  S  S21  1  0.657619  0.657619  0.352360  1
  S  S22  1  0.657619  0.352360  0.657619  1
  S  S23  1  0.258729  0.991437  0.258729  1
  S  S24  1  0.258729  0.258729  0.991437  1
  S  S25  1  0.991437  0.258729  0.258729  1
  S  S26  1  0.260818  0.004826  0.737989  1
  S  S27  1  0.260818  0.737989  0.004826  1
  S  S28  1  0.996985  0.739773  0.739773  1
  S  S29  1  0.737989  0.004826  0.260818  1
  S  S30  1  0.739773  0.739773  0.996985  1
  S  S31  1  0.004826  0.737989  0.260818  1
  S  S32  1  0.739773  0.996985  0.739773  1
  S  S33  1  0.737989  0.260818  0.004826  1
  S  S34  1  0.004826  0.260818  0.737989  1
