# generated using pymatgen
data_Hf6Ti6Sn9Sb
_symmetry_space_group_name_H-M   'P 1'
_cell_length_a   9.51872400
_cell_length_b   9.56788890
_cell_length_c   5.78504100
_cell_angle_alpha   90.00000000
_cell_angle_beta   90.00000000
_cell_angle_gamma   119.83016381
_symmetry_Int_Tables_number   1
_chemical_formula_structural   Hf6Ti6Sn9Sb
_chemical_formula_sum   'Hf6 Ti6 Sn9 Sb1'
_cell_volume   457.05938830
_cell_formula_units_Z   1
loop_
 _symmetry_equiv_pos_site_id
 _symmetry_equiv_pos_as_xyz
  1  'x, y, z'
loop_
 _atom_site_type_symbol
 _atom_site_label
 _atom_site_symmetry_multiplicity
 _atom_site_fract_x
 _atom_site_fract_y
 _atom_site_fract_z
 _atom_site_occupancy
  Hf  Hf0  1  0.843923  0.687846  0.750000  1
  Hf  Hf1  1  0.155724  0.845186  0.250000  1
  Hf  Hf2  1  0.689462  0.845186  0.250000  1
  Hf  Hf3  1  0.308044  0.156090  0.750000  1
  Hf  Hf4  1  0.848046  0.156090  0.750000  1
  Hf  Hf5  1  0.154552  0.309104  0.250000  1
  Ti  Ti6  1  0.499905  0.999809  0.499753  1
  Ti  Ti7  1  0.498640  0.500454  0.999338  1
  Ti  Ti8  1  0.001815  0.500454  0.999338  1
  Ti  Ti9  1  0.001815  0.500454  0.500662  1
  Ti  Ti10  1  0.499905  0.999809  0.000247  1
  Ti  Ti11  1  0.498640  0.500454  0.500662  1
  Sn  Sn12  1  0.789442  0.210705  0.250000  1
  Sn  Sn13  1  0.421263  0.210705  0.250000  1
  Sn  Sn14  1  0.581339  0.792321  0.750000  1
  Sn  Sn15  1  0.210982  0.792321  0.750000  1
  Sn  Sn16  1  0.788433  0.576866  0.250000  1
  Sn  Sn17  1  0.666129  0.332257  0.750000  1
  Sn  Sn18  1  0.334955  0.669910  0.250000  1
  Sn  Sn19  1  0.998612  0.997225  0.499467  1
  Sn  Sn20  1  0.998612  0.997225  0.000533  1
  Sb  Sb21  1  0.209765  0.419530  0.750000  1
