# generated using pymatgen
data_Ta6Si6Mo5Os
_symmetry_space_group_name_H-M   'P 1'
_cell_length_a   7.68087567
_cell_length_b   7.68081463
_cell_length_c   7.68081352
_cell_angle_alpha   126.62260186
_cell_angle_beta   128.40682874
_cell_angle_gamma   77.42097428
_symmetry_Int_Tables_number   1
_chemical_formula_structural   Ta6Si6Mo5Os
_chemical_formula_sum   'Ta6 Si6 Mo5 Os1'
_cell_volume   276.44358876
_cell_formula_units_Z   1
loop_
 _symmetry_equiv_pos_site_id
 _symmetry_equiv_pos_as_xyz
  1  'x, y, z'
loop_
 _atom_site_type_symbol
 _atom_site_label
 _atom_site_symmetry_multiplicity
 _atom_site_fract_x
 _atom_site_fract_y
 _atom_site_fract_z
 _atom_site_occupancy
  Ta  Ta0  1  0.543731  0.095805  0.048012  1
  Ta  Ta1  1  0.456269  0.504281  0.552073  1
  Ta  Ta2  1  0.952359  0.504247  0.047857  1
  Ta  Ta3  1  0.047641  0.095498  0.551888  1
  Ta  Ta4  1  0.747998  0.891140  0.638836  1
  Ta  Ta5  1  0.252002  0.890838  0.143143  1
  Si  Si6  1  0.334297  0.832667  0.498716  1
  Si  Si7  1  0.665703  0.164419  0.498371  1
  Si  Si8  1  0.836083  0.838382  0.001994  1
  Si  Si9  1  0.163917  0.165910  0.002299  1
  Si  Si10  1  0.749453  0.492031  0.241303  1
  Si  Si11  1  0.250547  0.491850  0.742580  1
  Mo  Mo12  1  0.128236  0.752849  0.624778  1
  Mo  Mo13  1  0.871764  0.496541  0.624614  1
  Mo  Mo14  1  0.629238  0.755223  0.125787  1
  Mo  Mo15  1  0.370762  0.496550  0.125986  1
  Mo  Mo16  1  0.500000  0.235454  0.735454  1
  Os  Os17  1  0.000000  0.238307  0.238307  1
