# generated using pymatgen
data_PrDyFe3Tc14C3
_symmetry_space_group_name_H-M   'P 1'
_cell_length_a   6.90417720
_cell_length_b   6.90417703
_cell_length_c   6.90417651
_cell_angle_alpha   82.60742216
_cell_angle_beta   82.60741157
_cell_angle_gamma   82.60741188
_symmetry_Int_Tables_number   1
_chemical_formula_structural   PrDyFe3Tc14C3
_chemical_formula_sum   'Pr1 Dy1 Fe3 Tc14 C3'
_cell_volume   321.54753696
_cell_formula_units_Z   1
loop_
 _symmetry_equiv_pos_site_id
 _symmetry_equiv_pos_as_xyz
  1  'x, y, z'
loop_
 _atom_site_type_symbol
 _atom_site_label
 _atom_site_symmetry_multiplicity
 _atom_site_fract_x
 _atom_site_fract_y
 _atom_site_fract_z
 _atom_site_occupancy
  Pr  Pr0  1  0.649675  0.649675  0.649675  1
  Dy  Dy1  1  0.347818  0.347818  0.347818  1
  Fe  Fe2  1  0.999325  0.999325  0.500420  1
  Fe  Fe3  1  0.500420  0.999325  0.999325  1
  Fe  Fe4  1  0.999325  0.500420  0.999325  1
  Tc  Tc5  1  0.723811  0.275547  0.000691  1
  Tc  Tc6  1  0.000691  0.723811  0.275547  1
  Tc  Tc7  1  0.275547  0.000691  0.723811  1
  Tc  Tc8  1  0.000691  0.275547  0.723811  1
  Tc  Tc9  1  0.723811  0.000691  0.275547  1
  Tc  Tc10  1  0.275547  0.723811  0.000691  1
  Tc  Tc11  1  0.346498  0.346498  0.864859  1
  Tc  Tc12  1  0.864859  0.346498  0.346498  1
  Tc  Tc13  1  0.346498  0.864859  0.346498  1
  Tc  Tc14  1  0.651740  0.651740  0.140127  1
  Tc  Tc15  1  0.140127  0.651740  0.651740  1
  Tc  Tc16  1  0.651740  0.140127  0.651740  1
  Tc  Tc17  1  0.900135  0.900135  0.900135  1
  Tc  Tc18  1  0.100674  0.100674  0.100674  1
  C  C19  1  0.495872  0.495872  0.009321  1
  C  C20  1  0.009321  0.495872  0.495872  1
  C  C21  1  0.495872  0.009321  0.495872  1
