# generated using pymatgen
data_Li3Dy3PtAu2
_symmetry_space_group_name_H-M   'P 1'
_cell_length_a   7.55735600
_cell_length_b   7.55735576
_cell_length_c   3.84795000
_cell_angle_alpha   90.00000000
_cell_angle_beta   90.00000000
_cell_angle_gamma   120.00000107
_symmetry_Int_Tables_number   1
_chemical_formula_structural   Li3Dy3PtAu2
_chemical_formula_sum   'Li3 Dy3 Pt1 Au2'
_cell_volume   190.32673381
_cell_formula_units_Z   1
loop_
 _symmetry_equiv_pos_site_id
 _symmetry_equiv_pos_as_xyz
  1  'x, y, z'
loop_
 _atom_site_type_symbol
 _atom_site_label
 _atom_site_symmetry_multiplicity
 _atom_site_fract_x
 _atom_site_fract_y
 _atom_site_fract_z
 _atom_site_occupancy
  Li  Li0  1  0.753647  0.753030  0.000000  1
  Li  Li1  1  0.999383  0.246353  0.000000  1
  Li  Li2  1  0.246970  0.000617  0.000000  1
  Dy  Dy3  1  0.585827  0.985274  0.500000  1
  Dy  Dy4  1  0.399447  0.414173  0.500000  1
  Dy  Dy5  1  0.014726  0.600553  0.500000  1
  Pt  Pt6  1  0.333333  0.666667  0.000000  1
  Au  Au7  1  0.666667  0.333333  0.000000  1
  Au  Au8  1  0.000000  0.000000  0.500000  1
