# generated using pymatgen
data_Ti8Al15PtRh6
_symmetry_space_group_name_H-M   'P 1'
_cell_length_a   8.67374076
_cell_length_b   8.65231321
_cell_length_c   8.66707524
_cell_angle_alpha   120.03047452
_cell_angle_beta   119.84915806
_cell_angle_gamma   90.08800042
_symmetry_Int_Tables_number   1
_chemical_formula_structural   Ti8Al15PtRh6
_chemical_formula_sum   'Ti8 Al15 Pt1 Rh6'
_cell_volume   460.41663100
_cell_formula_units_Z   1
loop_
 _symmetry_equiv_pos_site_id
 _symmetry_equiv_pos_as_xyz
  1  'x, y, z'
loop_
 _atom_site_type_symbol
 _atom_site_label
 _atom_site_symmetry_multiplicity
 _atom_site_fract_x
 _atom_site_fract_y
 _atom_site_fract_z
 _atom_site_occupancy
  Ti  Ti0  1  0.790033  0.289902  0.073463  1
  Ti  Ti1  1  0.217115  0.289308  0.499569  1
  Ti  Ti2  1  0.209749  0.709858  0.500396  1
  Ti  Ti3  1  0.215957  0.716990  0.925800  1
  Ti  Ti4  1  0.790143  0.716910  0.500941  1
  Ti  Ti5  1  0.782441  0.283166  0.499402  1
  Ti  Ti6  1  0.383626  0.124766  0.747328  1
  Ti  Ti7  1  0.379418  0.635371  0.256992  1
  Al  Al8  1  0.997004  0.496638  0.499723  1
  Al  Al9  1  0.153514  0.344559  0.191627  1
  Al  Al10  1  0.155498  0.963059  0.812437  1
  Al  Al11  1  0.151904  0.350135  0.806402  1
  Al  Al12  1  0.543186  0.346967  0.196752  1
  Al  Al13  1  0.845528  0.652271  0.806521  1
  Al  Al14  1  0.844295  0.039512  0.189835  1
  Al  Al15  1  0.841929  0.650908  0.185830  1
  Al  Al16  1  0.465230  0.654165  0.810283  1
  Al  Al17  1  0.379085  0.122103  0.257937  1
  Al  Al18  1  0.863086  0.123224  0.745881  1
  Al  Al19  1  0.617401  0.876090  0.253238  1
  Al  Al20  1  0.620895  0.365047  0.743112  1
  Al  Al21  1  0.620659  0.877289  0.742165  1
  Al  Al22  1  0.136499  0.876772  0.254213  1
  Pt  Pt23  1  0.000558  0.999690  0.500896  1
  Rh  Rh24  1  0.498856  0.999986  0.999347  1
  Rh  Rh25  1  0.497676  0.497860  0.000581  1
  Rh  Rh26  1  0.498314  0.499460  0.498172  1
  Rh  Rh27  1  0.001332  0.499269  0.001144  1
  Rh  Rh28  1  0.999288  0.999217  0.999636  1
  Rh  Rh29  1  0.499778  0.999509  0.500376  1
