# generated using pymatgen
data_Tm6Sn6PtRh5
_symmetry_space_group_name_H-M   'P 1'
_cell_length_a   7.62081100
_cell_length_b   7.62081045
_cell_length_c   7.45216100
_cell_angle_alpha   90.00000000
_cell_angle_beta   90.00000000
_cell_angle_gamma   120.00000673
_symmetry_Int_Tables_number   1
_chemical_formula_structural   Tm6Sn6PtRh5
_chemical_formula_sum   'Tm6 Sn6 Pt1 Rh5'
_cell_volume   374.81346302
_cell_formula_units_Z   1
loop_
 _symmetry_equiv_pos_site_id
 _symmetry_equiv_pos_as_xyz
  1  'x, y, z'
loop_
 _atom_site_type_symbol
 _atom_site_label
 _atom_site_symmetry_multiplicity
 _atom_site_fract_x
 _atom_site_fract_y
 _atom_site_fract_z
 _atom_site_occupancy
  Tm  Tm0  1  0.400215  0.998185  0.249703  1
  Tm  Tm1  1  0.597970  0.599785  0.249703  1
  Tm  Tm2  1  0.001815  0.402030  0.249703  1
  Tm  Tm3  1  0.399867  0.997470  0.750305  1
  Tm  Tm4  1  0.597603  0.600133  0.750305  1
  Tm  Tm5  1  0.002530  0.402397  0.750305  1
  Sn  Sn6  1  0.273867  0.273024  0.999986  1
  Sn  Sn7  1  0.999159  0.726133  0.999986  1
  Sn  Sn8  1  0.004365  0.742515  0.499986  1
  Sn  Sn9  1  0.738149  0.995635  0.499986  1
  Sn  Sn10  1  0.257485  0.261851  0.499986  1
  Sn  Sn11  1  0.726976  0.000841  0.999986  1
  Pt  Pt12  1  0.666667  0.333333  0.500684  1
  Rh  Rh13  1  0.000000  0.000000  0.763590  1
  Rh  Rh14  1  0.000000  0.000000  0.236338  1
  Rh  Rh15  1  0.666667  0.333333  0.999355  1
  Rh  Rh16  1  0.333333  0.666667  0.499467  1
  Rh  Rh17  1  0.333333  0.666667  0.000622  1
