# generated using pymatgen
data_Ca2Pt3
_symmetry_space_group_name_H-M   'P 1'
_cell_length_a   5.58160763
_cell_length_b   5.58160826
_cell_length_c   5.58160810
_cell_angle_alpha   131.72391863
_cell_angle_beta   121.95034161
_cell_angle_gamma   78.77128325
_symmetry_Int_Tables_number   1
_chemical_formula_structural   Ca2Pt3
_chemical_formula_sum   'Ca2 Pt3'
_cell_volume   106.66539126
_cell_formula_units_Z   1
loop_
 _symmetry_equiv_pos_site_id
 _symmetry_equiv_pos_as_xyz
  1  'x, y, z'
loop_
 _atom_site_type_symbol
 _atom_site_label
 _atom_site_symmetry_multiplicity
 _atom_site_fract_x
 _atom_site_fract_y
 _atom_site_fract_z
 _atom_site_occupancy
  Ca  Ca0  1  0.697181  0.197181  0.500000  1
  Ca  Ca1  1  0.302819  0.802819  0.500000  1
  Pt  Pt2  1  0.000000  0.000000  0.000000  1
  Pt  Pt3  1  0.741753  0.500000  0.241753  1
  Pt  Pt4  1  0.258247  0.500000  0.758247  1
