# generated using pymatgen
data_LiLa6Mg2Cd20P
_symmetry_space_group_name_H-M   'P 1'
_cell_length_a   10.13809906
_cell_length_b   10.16304230
_cell_length_c   10.16304196
_cell_angle_alpha   59.97888674
_cell_angle_beta   60.10744375
_cell_angle_gamma   60.10744749
_symmetry_Int_Tables_number   1
_chemical_formula_structural   LiLa6Mg2Cd20P
_chemical_formula_sum   'Li1 La6 Mg2 Cd20 P1'
_cell_volume   741.51991781
_cell_formula_units_Z   1
loop_
 _symmetry_equiv_pos_site_id
 _symmetry_equiv_pos_as_xyz
  1  'x, y, z'
loop_
 _atom_site_type_symbol
 _atom_site_label
 _atom_site_symmetry_multiplicity
 _atom_site_fract_x
 _atom_site_fract_y
 _atom_site_fract_z
 _atom_site_occupancy
  Li  Li0  1  0.500000  0.500000  0.500000  1
  La  La1  1  0.793635  0.795376  0.206476  1
  La  La2  1  0.206365  0.793524  0.204624  1
  La  La3  1  0.792601  0.205126  0.205126  1
  La  La4  1  0.206365  0.204624  0.793524  1
  La  La5  1  0.793635  0.206476  0.795376  1
  La  La6  1  0.207399  0.794874  0.794874  1
  Mg  Mg7  1  0.000000  0.000000  0.500000  1
  Mg  Mg8  1  0.000000  0.500000  0.000000  1
  Cd  Cd9  1  0.831897  0.830732  0.507733  1
  Cd  Cd10  1  0.831897  0.507733  0.830732  1
  Cd  Cd11  1  0.507851  0.830534  0.830534  1
  Cd  Cd12  1  0.833844  0.830955  0.830955  1
  Cd  Cd13  1  0.168103  0.169268  0.492267  1
  Cd  Cd14  1  0.168103  0.492267  0.169268  1
  Cd  Cd15  1  0.492149  0.169466  0.169466  1
  Cd  Cd16  1  0.166156  0.169045  0.169045  1
  Cd  Cd17  1  0.622886  0.618511  0.141994  1
  Cd  Cd18  1  0.622886  0.141994  0.618511  1
  Cd  Cd19  1  0.141913  0.620956  0.620956  1
  Cd  Cd20  1  0.619694  0.618847  0.618847  1
  Cd  Cd21  1  0.377114  0.381489  0.858006  1
  Cd  Cd22  1  0.377114  0.858006  0.381489  1
  Cd  Cd23  1  0.858087  0.379044  0.379044  1
  Cd  Cd24  1  0.380306  0.381153  0.381153  1
  Cd  Cd25  1  0.500000  0.000000  0.500000  1
  Cd  Cd26  1  0.000000  0.500000  0.500000  1
  Cd  Cd27  1  0.500000  0.500000  0.000000  1
  Cd  Cd28  1  0.500000  0.000000  0.000000  1
  P  P29  1  0.000000  0.000000  0.000000  1
