# generated using pymatgen
data_Tb3Fe7B2
_symmetry_space_group_name_H-M   'P 1'
_cell_length_a   5.14645030
_cell_length_b   5.14645105
_cell_length_c   14.58229300
_cell_angle_alpha   90.00000000
_cell_angle_beta   90.00000000
_cell_angle_gamma   119.99119983
_symmetry_Int_Tables_number   1
_chemical_formula_structural   Tb3Fe7B2
_chemical_formula_sum   'Tb6 Fe14 B4'
_cell_volume   334.51114103
_cell_formula_units_Z   2
loop_
 _symmetry_equiv_pos_site_id
 _symmetry_equiv_pos_as_xyz
  1  'x, y, z'
loop_
 _atom_site_type_symbol
 _atom_site_label
 _atom_site_symmetry_multiplicity
 _atom_site_fract_x
 _atom_site_fract_y
 _atom_site_fract_z
 _atom_site_occupancy
  Tb  Tb0  1  0.666661  0.333339  0.033612  1
  Tb  Tb1  1  0.333339  0.666661  0.966388  1
  Tb  Tb2  1  0.333339  0.666661  0.533612  1
  Tb  Tb3  1  0.666661  0.333339  0.466388  1
  Tb  Tb4  1  0.666677  0.333323  0.250000  1
  Tb  Tb5  1  0.333323  0.666677  0.750000  1
  Fe  Fe6  1  0.834788  0.669585  0.647058  1
  Fe  Fe7  1  0.834779  0.165221  0.647092  1
  Fe  Fe8  1  0.330415  0.165212  0.647058  1
  Fe  Fe9  1  0.165212  0.330415  0.352942  1
  Fe  Fe10  1  0.165221  0.834779  0.352908  1
  Fe  Fe11  1  0.669585  0.834788  0.352942  1
  Fe  Fe12  1  0.165212  0.330415  0.147058  1
  Fe  Fe13  1  0.165221  0.834779  0.147092  1
  Fe  Fe14  1  0.669585  0.834788  0.147058  1
  Fe  Fe15  1  0.834788  0.669585  0.852942  1
  Fe  Fe16  1  0.834779  0.165221  0.852908  1
  Fe  Fe17  1  0.330415  0.165212  0.852942  1
  Fe  Fe18  1  0.000000  0.000000  0.500000  1
  Fe  Fe19  1  0.000000  0.000000  0.000000  1
  B  B20  1  0.666634  0.333366  0.750000  1
  B  B21  1  0.333366  0.666634  0.250000  1
  B  B22  1  0.000036  0.999964  0.750000  1
  B  B23  1  0.999964  0.000036  0.250000  1
