# generated using pymatgen
data_Zr10GaGe(BiPb2)2
_symmetry_space_group_name_H-M   'P 1'
_cell_length_a   8.86717703
_cell_length_b   8.86777050
_cell_length_c   5.96163705
_cell_angle_alpha   90.01542820
_cell_angle_beta   89.99228513
_cell_angle_gamma   120.00222244
_symmetry_Int_Tables_number   1
_chemical_formula_structural   Zr10GaGe(BiPb2)2
_chemical_formula_sum   'Zr10 Ga1 Ge1 Bi2 Pb4'
_cell_volume   405.96280621
_cell_formula_units_Z   1
loop_
 _symmetry_equiv_pos_site_id
 _symmetry_equiv_pos_as_xyz
  1  'x, y, z'
loop_
 _atom_site_type_symbol
 _atom_site_label
 _atom_site_symmetry_multiplicity
 _atom_site_fract_x
 _atom_site_fract_y
 _atom_site_fract_z
 _atom_site_occupancy
  Zr  Zr0  1  0.667528  0.332982  0.001583  1
  Zr  Zr1  1  0.332472  0.665455  0.001583  1
  Zr  Zr2  1  0.332720  0.665663  0.498629  1
  Zr  Zr3  1  0.667280  0.332941  0.498629  1
  Zr  Zr4  1  0.738917  0.739532  0.751008  1
  Zr  Zr5  1  0.261083  0.000615  0.751008  1
  Zr  Zr6  1  0.000000  0.261718  0.751491  1
  Zr  Zr7  1  0.265061  0.264196  0.248838  1
  Zr  Zr8  1  0.734939  0.999135  0.248838  1
  Zr  Zr9  1  0.000000  0.735208  0.248698  1
  Ga  Ga10  1  0.000000  0.000536  0.497248  1
  Ge  Ge11  1  0.000000  0.000449  0.002790  1
  Bi  Bi12  1  0.393465  0.392946  0.748740  1
  Bi  Bi13  1  0.606535  0.999481  0.748740  1
  Pb  Pb14  1  0.000000  0.610216  0.748288  1
  Pb  Pb15  1  0.612244  0.611291  0.251220  1
  Pb  Pb16  1  0.387756  0.999047  0.251220  1
  Pb  Pb17  1  0.000000  0.388590  0.251448  1
