# generated using pymatgen
data_Ca2Al9AgIr2
_symmetry_space_group_name_H-M   'P 1'
_cell_length_a   7.57364900
_cell_length_b   7.57365760
_cell_length_c   9.62906000
_cell_angle_alpha   90.00000000
_cell_angle_beta   90.00000000
_cell_angle_gamma   119.16218643
_symmetry_Int_Tables_number   1
_chemical_formula_structural   Ca2Al9AgIr2
_chemical_formula_sum   'Ca4 Al18 Ag2 Ir4'
_cell_volume   482.31445142
_cell_formula_units_Z   2
loop_
 _symmetry_equiv_pos_site_id
 _symmetry_equiv_pos_as_xyz
  1  'x, y, z'
loop_
 _atom_site_type_symbol
 _atom_site_label
 _atom_site_symmetry_multiplicity
 _atom_site_fract_x
 _atom_site_fract_y
 _atom_site_fract_z
 _atom_site_occupancy
  Ca  Ca0  1  0.998280  0.679079  0.250000  1
  Ca  Ca1  1  0.001720  0.320921  0.750000  1
  Ca  Ca2  1  0.679083  0.998279  0.250000  1
  Ca  Ca3  1  0.320917  0.001721  0.750000  1
  Al  Al4  1  0.144670  0.144670  0.250000  1
  Al  Al5  1  0.855330  0.855330  0.750000  1
  Al  Al6  1  0.002436  0.346739  0.076338  1
  Al  Al7  1  0.997564  0.653261  0.923662  1
  Al  Al8  1  0.997564  0.653261  0.576338  1
  Al  Al9  1  0.346739  0.002436  0.423661  1
  Al  Al10  1  0.002436  0.346739  0.423662  1
  Al  Al11  1  0.653261  0.997564  0.576339  1
  Al  Al12  1  0.653261  0.997564  0.923661  1
  Al  Al13  1  0.346739  0.002436  0.076339  1
  Al  Al14  1  0.341925  0.341925  0.554022  1
  Al  Al15  1  0.658075  0.658075  0.445978  1
  Al  Al16  1  0.658075  0.658075  0.054022  1
  Al  Al17  1  0.341925  0.341925  0.945978  1
  Al  Al18  1  0.339833  0.554080  0.250000  1
  Al  Al19  1  0.660167  0.445920  0.750000  1
  Al  Al20  1  0.554080  0.339833  0.250000  1
  Al  Al21  1  0.445920  0.660167  0.750000  1
  Ag  Ag22  1  0.000000  0.000000  0.000000  1
  Ag  Ag23  1  0.000000  0.000000  0.500000  1
  Ir  Ir24  1  0.671105  0.328897  0.000000  1
  Ir  Ir25  1  0.328895  0.671103  0.000000  1
  Ir  Ir26  1  0.328895  0.671103  0.500000  1
  Ir  Ir27  1  0.671105  0.328897  0.500000  1
