# generated using pymatgen
data_Ga4CoTcPd
_symmetry_space_group_name_H-M   'P 1'
_cell_length_a   4.24038600
_cell_length_b   4.24038600
_cell_length_c   5.81203100
_cell_angle_alpha   90.00000000
_cell_angle_beta   90.00000000
_cell_angle_gamma   90.00000000
_symmetry_Int_Tables_number   1
_chemical_formula_structural   Ga4CoTcPd
_chemical_formula_sum   'Ga4 Co1 Tc1 Pd1'
_cell_volume   104.50539378
_cell_formula_units_Z   1
loop_
 _symmetry_equiv_pos_site_id
 _symmetry_equiv_pos_as_xyz
  1  'x, y, z'
loop_
 _atom_site_type_symbol
 _atom_site_label
 _atom_site_symmetry_multiplicity
 _atom_site_fract_x
 _atom_site_fract_y
 _atom_site_fract_z
 _atom_site_occupancy
  Ga  Ga0  1  0.000000  0.500000  0.271786  1
  Ga  Ga1  1  0.000000  0.500000  0.728214  1
  Ga  Ga2  1  0.500000  0.000000  0.271786  1
  Ga  Ga3  1  0.500000  0.000000  0.728214  1
  Co  Co4  1  0.000000  0.000000  0.500000  1
  Tc  Tc5  1  0.000000  0.000000  0.000000  1
  Pd  Pd6  1  0.500000  0.500000  0.000000  1
