# generated using pymatgen
data_La8MgAgOs2
_symmetry_space_group_name_H-M   'P 1'
_cell_length_a   10.12882637
_cell_length_b   10.09751402
_cell_length_c   10.09751300
_cell_angle_alpha   60.12560220
_cell_angle_beta   59.89736615
_cell_angle_gamma   59.89736477
_symmetry_Int_Tables_number   1
_chemical_formula_structural   La8MgAgOs2
_chemical_formula_sum   'La16 Mg2 Ag2 Os4'
_cell_volume   729.80495171
_cell_formula_units_Z   2
loop_
 _symmetry_equiv_pos_site_id
 _symmetry_equiv_pos_as_xyz
  1  'x, y, z'
loop_
 _atom_site_type_symbol
 _atom_site_label
 _atom_site_symmetry_multiplicity
 _atom_site_fract_x
 _atom_site_fract_y
 _atom_site_fract_z
 _atom_site_occupancy
  La  La0  1  0.807728  0.192254  0.192280  1
  La  La1  1  0.194077  0.190278  0.807739  1
  La  La2  1  0.807937  0.807724  0.190294  1
  La  La3  1  0.192216  0.807783  0.807793  1
  La  La4  1  0.595946  0.595569  0.212545  1
  La  La5  1  0.441088  0.058903  0.058897  1
  La  La6  1  0.061813  0.438569  0.061612  1
  La  La7  1  0.438028  0.061610  0.438563  1
  La  La8  1  0.216929  0.593925  0.593929  1
  La  La9  1  0.062121  0.437896  0.437868  1
  La  La10  1  0.595924  0.212549  0.595571  1
  La  La11  1  0.595207  0.593951  0.593926  1
  La  La12  1  0.194046  0.807743  0.190275  1
  La  La13  1  0.807907  0.190290  0.807735  1
  La  La14  1  0.061808  0.061610  0.438555  1
  La  La15  1  0.438024  0.438553  0.061619  1
  Mg  Mg16  1  0.822832  0.525609  0.828717  1
  Mg  Mg17  1  0.822834  0.828729  0.525607  1
  Ag  Ag18  1  0.835717  0.829253  0.829254  1
  Ag  Ag19  1  0.505779  0.829254  0.829249  1
  Os  Os20  1  0.836515  0.387542  0.387532  1
  Os  Os21  1  0.388411  0.387529  0.387541  1
  Os  Os22  1  0.388561  0.835925  0.386959  1
  Os  Os23  1  0.388548  0.386954  0.835940  1
