# generated using pymatgen
data_Lu10Al5SnC8
_symmetry_space_group_name_H-M   'P 1'
_cell_length_a   10.72080300
_cell_length_b   10.72080300
_cell_length_c   3.45421100
_cell_angle_alpha   90.00000000
_cell_angle_beta   90.00000000
_cell_angle_gamma   90.00000000
_symmetry_Int_Tables_number   1
_chemical_formula_structural   Lu10Al5SnC8
_chemical_formula_sum   'Lu10 Al5 Sn1 C8'
_cell_volume   397.01187241
_cell_formula_units_Z   1
loop_
 _symmetry_equiv_pos_site_id
 _symmetry_equiv_pos_as_xyz
  1  'x, y, z'
loop_
 _atom_site_type_symbol
 _atom_site_label
 _atom_site_symmetry_multiplicity
 _atom_site_fract_x
 _atom_site_fract_y
 _atom_site_fract_z
 _atom_site_occupancy
  Lu  Lu0  1  0.550975  0.737505  0.500000  1
  Lu  Lu1  1  0.449025  0.262495  0.500000  1
  Lu  Lu2  1  0.048823  0.768855  0.500000  1
  Lu  Lu3  1  0.951177  0.231145  0.500000  1
  Lu  Lu4  1  0.262495  0.550975  0.500000  1
  Lu  Lu5  1  0.737505  0.449025  0.500000  1
  Lu  Lu6  1  0.231145  0.048823  0.500000  1
  Lu  Lu7  1  0.768855  0.951177  0.500000  1
  Lu  Lu8  1  0.500000  0.000000  0.000000  1
  Lu  Lu9  1  0.000000  0.500000  0.000000  1
  Al  Al10  1  0.709570  0.196530  0.000000  1
  Al  Al11  1  0.290430  0.803470  0.000000  1
  Al  Al12  1  0.196530  0.290430  0.000000  1
  Al  Al13  1  0.803470  0.709570  0.000000  1
  Al  Al14  1  0.000000  0.000000  0.000000  1
  Sn  Sn15  1  0.500000  0.500000  0.000000  1
  C  C16  1  0.627002  0.128855  0.500000  1
  C  C17  1  0.372998  0.871145  0.500000  1
  C  C18  1  0.128855  0.372998  0.500000  1
  C  C19  1  0.871145  0.627002  0.500000  1
  C  C20  1  0.161073  0.661470  0.000000  1
  C  C21  1  0.838927  0.338530  0.000000  1
  C  C22  1  0.661470  0.838927  0.000000  1
  C  C23  1  0.338530  0.161073  0.000000  1
