# generated using pymatgen
data_Eu2Ga9IrPd2
_symmetry_space_group_name_H-M   'P 1'
_cell_length_a   7.71969378
_cell_length_b   7.71969323
_cell_length_c   9.73792000
_cell_angle_alpha   90.00000000
_cell_angle_beta   90.00000000
_cell_angle_gamma   119.67845891
_symmetry_Int_Tables_number   1
_chemical_formula_structural   Eu2Ga9IrPd2
_chemical_formula_sum   'Eu4 Ga18 Ir2 Pd4'
_cell_volume   504.19088720
_cell_formula_units_Z   2
loop_
 _symmetry_equiv_pos_site_id
 _symmetry_equiv_pos_as_xyz
  1  'x, y, z'
loop_
 _atom_site_type_symbol
 _atom_site_label
 _atom_site_symmetry_multiplicity
 _atom_site_fract_x
 _atom_site_fract_y
 _atom_site_fract_z
 _atom_site_occupancy
  Eu  Eu0  1  0.002236  0.330610  0.749930  1
  Eu  Eu1  1  0.997764  0.669390  0.249930  1
  Eu  Eu2  1  0.330610  0.002236  0.750070  1
  Eu  Eu3  1  0.669390  0.997764  0.250070  1
  Ga  Ga4  1  0.664040  0.666343  0.438709  1
  Ga  Ga5  1  0.335960  0.333657  0.938709  1
  Ga  Ga6  1  0.666343  0.664040  0.061291  1
  Ga  Ga7  1  0.333657  0.335960  0.561291  1
  Ga  Ga8  1  0.003994  0.337344  0.422611  1
  Ga  Ga9  1  0.996006  0.662656  0.922611  1
  Ga  Ga10  1  0.337344  0.003994  0.077389  1
  Ga  Ga11  1  0.662656  0.996006  0.577389  1
  Ga  Ga12  1  0.002126  0.665611  0.577307  1
  Ga  Ga13  1  0.997874  0.334389  0.077307  1
  Ga  Ga14  1  0.665611  0.002126  0.922693  1
  Ga  Ga15  1  0.334389  0.997874  0.422693  1
  Ga  Ga16  1  0.130103  0.130103  0.250000  1
  Ga  Ga17  1  0.869897  0.869897  0.750000  1
  Ga  Ga18  1  0.661511  0.455566  0.751844  1
  Ga  Ga19  1  0.338489  0.544434  0.251844  1
  Ga  Ga20  1  0.455566  0.661511  0.748156  1
  Ga  Ga21  1  0.544434  0.338489  0.248156  1
  Ir  Ir22  1  0.330658  0.669342  0.500000  1
  Ir  Ir23  1  0.669342  0.330658  0.000000  1
  Pd  Pd24  1  0.000203  0.999797  0.500000  1
  Pd  Pd25  1  0.999797  0.000203  0.000000  1
  Pd  Pd26  1  0.670243  0.329757  0.500000  1
  Pd  Pd27  1  0.329757  0.670243  0.000000  1
