# generated using pymatgen
data_Ce3Sn3Os2Au
_symmetry_space_group_name_H-M   'P 1'
_cell_length_a   7.54063600
_cell_length_b   7.54063744
_cell_length_c   4.15355200
_cell_angle_alpha   90.00000000
_cell_angle_beta   90.00000000
_cell_angle_gamma   119.99999368
_symmetry_Int_Tables_number   1
_chemical_formula_structural   Ce3Sn3Os2Au
_chemical_formula_sum   'Ce3 Sn3 Os2 Au1'
_cell_volume   204.53439406
_cell_formula_units_Z   1
loop_
 _symmetry_equiv_pos_site_id
 _symmetry_equiv_pos_as_xyz
  1  'x, y, z'
loop_
 _atom_site_type_symbol
 _atom_site_label
 _atom_site_symmetry_multiplicity
 _atom_site_fract_x
 _atom_site_fract_y
 _atom_site_fract_z
 _atom_site_occupancy
  Ce  Ce0  1  0.399103  0.417638  0.000000  1
  Ce  Ce1  1  0.582362  0.981466  0.000000  1
  Ce  Ce2  1  0.018534  0.600897  0.000000  1
  Sn  Sn3  1  0.005664  0.251625  0.500000  1
  Sn  Sn4  1  0.748375  0.754039  0.500000  1
  Sn  Sn5  1  0.245961  0.994336  0.500000  1
  Os  Os6  1  0.333333  0.666667  0.500000  1
  Os  Os7  1  0.000000  0.000000  0.000000  1
  Au  Au8  1  0.666667  0.333333  0.500000  1
