# generated using pymatgen
data_Sc4USiRu6
_symmetry_space_group_name_H-M   'P 1'
_cell_length_a   5.50595400
_cell_length_b   5.50595397
_cell_length_c   7.73496100
_cell_angle_alpha   90.00000000
_cell_angle_beta   90.00000000
_cell_angle_gamma   120.00000019
_symmetry_Int_Tables_number   1
_chemical_formula_structural   Sc4USiRu6
_chemical_formula_sum   'Sc4 U1 Si1 Ru6'
_cell_volume   203.07380868
_cell_formula_units_Z   1
loop_
 _symmetry_equiv_pos_site_id
 _symmetry_equiv_pos_as_xyz
  1  'x, y, z'
loop_
 _atom_site_type_symbol
 _atom_site_label
 _atom_site_symmetry_multiplicity
 _atom_site_fract_x
 _atom_site_fract_y
 _atom_site_fract_z
 _atom_site_occupancy
  Sc  Sc0  1  0.333333  0.666667  0.566672  1
  Sc  Sc1  1  0.666667  0.333333  0.433328  1
  Sc  Sc2  1  0.666667  0.333333  0.055591  1
  Sc  Sc3  1  0.333333  0.666667  0.944409  1
  U  U4  1  0.000000  0.000000  0.500000  1
  Si  Si5  1  0.000000  0.000000  0.000000  1
  Ru  Ru6  1  0.830308  0.169692  0.753934  1
  Ru  Ru7  1  0.660618  0.830308  0.246066  1
  Ru  Ru8  1  0.169692  0.830308  0.246066  1
  Ru  Ru9  1  0.830308  0.660618  0.753934  1
  Ru  Ru10  1  0.169692  0.339382  0.246066  1
  Ru  Ru11  1  0.339382  0.169692  0.753934  1
