# generated using pymatgen
data_NaNdGeO4
_symmetry_space_group_name_H-M   'P 1'
_cell_length_a   5.40086000
_cell_length_b   6.74432800
_cell_length_c   11.85618200
_cell_angle_alpha   90.00000000
_cell_angle_beta   90.00000000
_cell_angle_gamma   90.00000000
_symmetry_Int_Tables_number   1
_chemical_formula_structural   NaNdGeO4
_chemical_formula_sum   'Na4 Nd4 Ge4 O16'
_cell_volume   431.86346058
_cell_formula_units_Z   4
loop_
 _symmetry_equiv_pos_site_id
 _symmetry_equiv_pos_as_xyz
  1  'x, y, z'
loop_
 _atom_site_type_symbol
 _atom_site_label
 _atom_site_symmetry_multiplicity
 _atom_site_fract_x
 _atom_site_fract_y
 _atom_site_fract_z
 _atom_site_occupancy
  Na  Na0  1  0.500000  0.500000  0.000000  1
  Na  Na1  1  0.500000  0.000000  0.000000  1
  Na  Na2  1  0.000000  0.000000  0.500000  1
  Na  Na3  1  0.000000  0.500000  0.500000  1
  Nd  Nd4  1  0.498175  0.250000  0.279806  1
  Nd  Nd5  1  0.501825  0.750000  0.720194  1
  Nd  Nd6  1  0.001825  0.250000  0.779806  1
  Nd  Nd7  1  0.998175  0.750000  0.220194  1
  Ge  Ge8  1  0.559464  0.750000  0.404131  1
  Ge  Ge9  1  0.940536  0.750000  0.904131  1
  Ge  Ge10  1  0.440536  0.250000  0.595869  1
  Ge  Ge11  1  0.059464  0.250000  0.095869  1
  O  O12  1  0.736263  0.250000  0.108452  1
  O  O13  1  0.263737  0.750000  0.891548  1
  O  O14  1  0.763737  0.250000  0.608452  1
  O  O15  1  0.236263  0.750000  0.391548  1
  O  O16  1  0.816273  0.750000  0.042113  1
  O  O17  1  0.183727  0.250000  0.957887  1
  O  O18  1  0.683727  0.750000  0.542113  1
  O  O19  1  0.316273  0.250000  0.457887  1
  O  O20  1  0.706316  0.547353  0.329349  1
  O  O21  1  0.293684  0.047353  0.670651  1
  O  O22  1  0.793684  0.547353  0.829349  1
  O  O23  1  0.206316  0.047353  0.170651  1
  O  O24  1  0.206316  0.452647  0.170651  1
  O  O25  1  0.793684  0.952647  0.829349  1
  O  O26  1  0.293684  0.452647  0.670651  1
  O  O27  1  0.706316  0.952647  0.329349  1
