# generated using pymatgen
data_DyHo3NiB16Ir3
_symmetry_space_group_name_H-M   'P 1'
_cell_length_a   6.96525530
_cell_length_b   6.96535382
_cell_length_c   6.96526215
_cell_angle_alpha   111.28842972
_cell_angle_beta   112.29257013
_cell_angle_gamma   104.92733969
_symmetry_Int_Tables_number   1
_chemical_formula_structural   DyHo3NiB16Ir3
_chemical_formula_sum   'Dy1 Ho3 Ni1 B16 Ir3'
_cell_volume   258.89870808
_cell_formula_units_Z   1
loop_
 _symmetry_equiv_pos_site_id
 _symmetry_equiv_pos_as_xyz
  1  'x, y, z'
loop_
 _atom_site_type_symbol
 _atom_site_label
 _atom_site_symmetry_multiplicity
 _atom_site_fract_x
 _atom_site_fract_y
 _atom_site_fract_z
 _atom_site_occupancy
  Dy  Dy0  1  0.787557  0.790594  0.003036  1
  Ho  Ho1  1  0.213256  0.216450  0.003196  1
  Ho  Ho2  1  0.751539  0.252230  0.500691  1
  Ho  Ho3  1  0.248258  0.748948  0.500692  1
  Ni  Ni4  1  0.499897  0.256147  0.756249  1
  B  B5  1  0.270063  0.108579  0.378515  1
  B  B6  1  0.735865  0.894033  0.629765  1
  B  B7  1  0.264266  0.894033  0.158168  1
  B  B8  1  0.730064  0.108579  0.838516  1
  B  B9  1  0.108172  0.731837  0.839936  1
  B  B10  1  0.891093  0.264572  0.155521  1
  B  B11  1  0.109050  0.264572  0.373479  1
  B  B12  1  0.891901  0.731837  0.623666  1
  B  B13  1  0.118186  0.112624  0.531916  1
  B  B14  1  0.584574  0.584026  0.474738  1
  B  B15  1  0.109289  0.584026  0.999452  1
  B  B16  1  0.580707  0.112624  0.994436  1
  B  B17  1  0.890640  0.890039  0.474717  1
  B  B18  1  0.419208  0.413686  0.531944  1
  B  B19  1  0.881742  0.413687  0.994479  1
  B  B20  1  0.415322  0.890039  0.999398  1
  Ir  Ir21  1  0.266320  0.496543  0.763370  1
  Ir  Ir22  1  0.733172  0.496543  0.230224  1
  Ir  Ir23  1  0.499856  0.743754  0.243897  1
