# generated using pymatgen
data_NaClF4
_symmetry_space_group_name_H-M   'P 1'
_cell_length_a   6.58732011
_cell_length_b   6.58732007
_cell_length_c   6.58732111
_cell_angle_alpha   127.95932053
_cell_angle_beta   127.95932389
_cell_angle_gamma   76.69093466
_symmetry_Int_Tables_number   1
_chemical_formula_structural   NaClF4
_chemical_formula_sum   'Na2 Cl2 F8'
_cell_volume   172.57412959
_cell_formula_units_Z   2
loop_
 _symmetry_equiv_pos_site_id
 _symmetry_equiv_pos_as_xyz
  1  'x, y, z'
loop_
 _atom_site_type_symbol
 _atom_site_label
 _atom_site_symmetry_multiplicity
 _atom_site_fract_x
 _atom_site_fract_y
 _atom_site_fract_z
 _atom_site_occupancy
  Na  Na0  1  0.250000  0.250000  0.000000  1
  Na  Na1  1  0.750000  0.750000  0.000000  1
  Cl  Cl2  1  0.500000  0.000000  0.500000  1
  Cl  Cl3  1  0.000000  0.500000  0.500000  1
  F  F4  1  0.467366  0.967366  0.182556  1
  F  F5  1  0.215191  0.715191  0.182556  1
  F  F6  1  0.532634  0.032634  0.817444  1
  F  F7  1  0.032634  0.215191  0.500000  1
  F  F8  1  0.784809  0.284809  0.817444  1
  F  F9  1  0.284809  0.467366  0.500000  1
  F  F10  1  0.967366  0.784809  0.500000  1
  F  F11  1  0.715191  0.532634  0.500000  1
