# generated using pymatgen
data_Pr4SiBr5
_symmetry_space_group_name_H-M   'P 1'
_cell_length_a   9.70515164
_cell_length_b   9.70515185
_cell_length_c   8.71271617
_cell_angle_alpha   77.80014884
_cell_angle_beta   77.80014744
_cell_angle_gamma   25.24795839
_symmetry_Int_Tables_number   1
_chemical_formula_structural   Pr4SiBr5
_chemical_formula_sum   'Pr4 Si1 Br5'
_cell_volume   341.73096023
_cell_formula_units_Z   1
loop_
 _symmetry_equiv_pos_site_id
 _symmetry_equiv_pos_as_xyz
  1  'x, y, z'
loop_
 _atom_site_type_symbol
 _atom_site_label
 _atom_site_symmetry_multiplicity
 _atom_site_fract_x
 _atom_site_fract_y
 _atom_site_fract_z
 _atom_site_occupancy
  Pr  Pr0  1  0.848889  0.848889  0.079784  1
  Pr  Pr1  1  0.151111  0.151111  0.920216  1
  Pr  Pr2  1  0.501097  0.501097  0.225238  1
  Pr  Pr3  1  0.498903  0.498903  0.774762  1
  Si  Si4  1  0.000000  0.000000  0.000000  1
  Br  Br5  1  0.671330  0.671330  0.161453  1
  Br  Br6  1  0.328670  0.328670  0.838547  1
  Br  Br7  1  0.664366  0.664366  0.670760  1
  Br  Br8  1  0.335634  0.335634  0.329240  1
  Br  Br9  1  0.000000  0.000000  0.500000  1
