# generated using pymatgen
data_Dy2CrFe3(PRh)6
_symmetry_space_group_name_H-M   'P 1'
_cell_length_a   3.79947400
_cell_length_b   10.62856200
_cell_length_c   12.38532400
_cell_angle_alpha   90.00000000
_cell_angle_beta   90.00000000
_cell_angle_gamma   90.00000000
_symmetry_Int_Tables_number   1
_chemical_formula_structural   Dy2CrFe3(PRh)6
_chemical_formula_sum   'Dy4 Cr2 Fe6 P12 Rh12'
_cell_volume   500.15585761
_cell_formula_units_Z   2
loop_
 _symmetry_equiv_pos_site_id
 _symmetry_equiv_pos_as_xyz
  1  'x, y, z'
loop_
 _atom_site_type_symbol
 _atom_site_label
 _atom_site_symmetry_multiplicity
 _atom_site_fract_x
 _atom_site_fract_y
 _atom_site_fract_z
 _atom_site_occupancy
  Dy  Dy0  1  0.250000  0.574504  0.710394  1
  Dy  Dy1  1  0.250000  0.925496  0.210394  1
  Dy  Dy2  1  0.750000  0.414355  0.290781  1
  Dy  Dy3  1  0.750000  0.085645  0.790781  1
  Cr  Cr4  1  0.750000  0.296047  0.009205  1
  Cr  Cr5  1  0.750000  0.203953  0.509205  1
  Fe  Fe6  1  0.750000  0.124062  0.304514  1
  Fe  Fe7  1  0.750000  0.375938  0.804514  1
  Fe  Fe8  1  0.250000  0.462228  0.935609  1
  Fe  Fe9  1  0.250000  0.037772  0.435609  1
  Fe  Fe10  1  0.750000  0.539592  0.062910  1
  Fe  Fe11  1  0.750000  0.960408  0.562910  1
  P  P12  1  0.250000  0.426644  0.105900  1
  P  P13  1  0.250000  0.073356  0.605900  1
  P  P14  1  0.750000  0.559591  0.887070  1
  P  P15  1  0.750000  0.940409  0.387070  1
  P  P16  1  0.250000  0.276214  0.864720  1
  P  P17  1  0.250000  0.223786  0.364720  1
  P  P18  1  0.750000  0.732127  0.131386  1
  P  P19  1  0.750000  0.767873  0.631386  1
  P  P20  1  0.250000  0.598223  0.390611  1
  P  P21  1  0.250000  0.901777  0.890611  1
  P  P22  1  0.750000  0.396810  0.618669  1
  P  P23  1  0.750000  0.103190  0.118669  1
  Rh  Rh24  1  0.250000  0.712362  0.990724  1
  Rh  Rh25  1  0.250000  0.787638  0.490724  1
  Rh  Rh26  1  0.250000  0.401126  0.479625  1
  Rh  Rh27  1  0.250000  0.098874  0.979625  1
  Rh  Rh28  1  0.750000  0.590872  0.517440  1
  Rh  Rh29  1  0.750000  0.909128  0.017440  1
  Rh  Rh30  1  0.250000  0.226143  0.174303  1
  Rh  Rh31  1  0.250000  0.273857  0.674303  1
  Rh  Rh32  1  0.750000  0.764891  0.824775  1
  Rh  Rh33  1  0.750000  0.735109  0.324775  1
  Rh  Rh34  1  0.250000  0.884024  0.701365  1
  Rh  Rh35  1  0.250000  0.615976  0.201365  1
