# generated using pymatgen
data_Mn(IrS4)2
_symmetry_space_group_name_H-M   'P 1'
_cell_length_a   5.64778982
_cell_length_b   5.64626549
_cell_length_c   5.63461955
_cell_angle_alpha   89.88702072
_cell_angle_beta   89.75862824
_cell_angle_gamma   89.58469232
_symmetry_Int_Tables_number   1
_chemical_formula_structural   Mn(IrS4)2
_chemical_formula_sum   'Mn1 Ir2 S8'
_cell_volume   179.67528325
_cell_formula_units_Z   1
loop_
 _symmetry_equiv_pos_site_id
 _symmetry_equiv_pos_as_xyz
  1  'x, y, z'
loop_
 _atom_site_type_symbol
 _atom_site_label
 _atom_site_symmetry_multiplicity
 _atom_site_fract_x
 _atom_site_fract_y
 _atom_site_fract_z
 _atom_site_occupancy
  Mn  Mn0  1  0.000000  0.500000  0.500000  1
  Ir  Ir1  1  0.500000  0.000000  0.500000  1
  Ir  Ir2  1  0.500000  0.500000  0.000000  1
  S  S3  1  0.390199  0.892718  0.107098  1
  S  S4  1  0.107824  0.401644  0.878642  1
  S  S5  1  0.892288  0.117446  0.400211  1
  S  S6  1  0.609801  0.107282  0.892902  1
  S  S7  1  0.892176  0.598356  0.121358  1
  S  S8  1  0.107712  0.882554  0.599789  1
  S  S9  1  0.627534  0.611408  0.610301  1
  S  S10  1  0.372466  0.388592  0.389699  1
