# generated using pymatgen
data_Ti6NbRe12Mo5
_symmetry_space_group_name_H-M   'P 1'
_cell_length_a   4.42588400
_cell_length_b   6.27604600
_cell_length_c   13.33805300
_cell_angle_alpha   90.00000000
_cell_angle_beta   89.99992250
_cell_angle_gamma   90.00000000
_symmetry_Int_Tables_number   1
_chemical_formula_structural   Ti6NbRe12Mo5
_chemical_formula_sum   'Ti6 Nb1 Re12 Mo5'
_cell_volume   370.49178609
_cell_formula_units_Z   1
loop_
 _symmetry_equiv_pos_site_id
 _symmetry_equiv_pos_as_xyz
  1  'x, y, z'
loop_
 _atom_site_type_symbol
 _atom_site_label
 _atom_site_symmetry_multiplicity
 _atom_site_fract_x
 _atom_site_fract_y
 _atom_site_fract_z
 _atom_site_occupancy
  Ti  Ti0  1  0.000000  0.500000  0.000000  1
  Ti  Ti1  1  0.499904  0.000000  0.167156  1
  Ti  Ti2  1  0.999905  0.500000  0.332869  1
  Ti  Ti3  1  0.500000  0.000000  0.500000  1
  Ti  Ti4  1  0.000094  0.500000  0.667131  1
  Ti  Ti5  1  0.500096  0.000000  0.832845  1
  Nb  Nb6  1  0.000000  0.000000  0.000000  1
  Re  Re7  1  0.500000  0.253160  0.000000  1
  Re  Re8  1  0.500000  0.746840  0.000000  1
  Re  Re9  1  0.999912  0.252248  0.168631  1
  Re  Re10  1  0.999912  0.747751  0.168631  1
  Re  Re11  1  0.499913  0.249105  0.333791  1
  Re  Re12  1  0.499913  0.750895  0.333791  1
  Re  Re13  1  0.000000  0.251031  0.500000  1
  Re  Re14  1  0.000000  0.748969  0.500000  1
  Re  Re15  1  0.500087  0.249105  0.666209  1
  Re  Re16  1  0.500087  0.750895  0.666209  1
  Re  Re17  1  0.000088  0.252248  0.831369  1
  Re  Re18  1  0.000088  0.747751  0.831369  1
  Mo  Mo19  1  0.499917  0.500000  0.166533  1
  Mo  Mo20  1  0.999909  0.000000  0.333433  1
  Mo  Mo21  1  0.500000  0.500000  0.500000  1
  Mo  Mo22  1  0.000091  0.000000  0.666567  1
  Mo  Mo23  1  0.500083  0.500000  0.833467  1
