# generated using pymatgen
data_Ac3AlZnS7
_symmetry_space_group_name_H-M   'P 1'
_cell_length_a   10.45453200
_cell_length_b   10.45509356
_cell_length_c   6.35470500
_cell_angle_alpha   90.00000000
_cell_angle_beta   90.00000000
_cell_angle_gamma   119.99930533
_symmetry_Int_Tables_number   1
_chemical_formula_structural   Ac3AlZnS7
_chemical_formula_sum   'Ac6 Al2 Zn2 S14'
_cell_volume   601.53594777
_cell_formula_units_Z   2
loop_
 _symmetry_equiv_pos_site_id
 _symmetry_equiv_pos_as_xyz
  1  'x, y, z'
loop_
 _atom_site_type_symbol
 _atom_site_label
 _atom_site_symmetry_multiplicity
 _atom_site_fract_x
 _atom_site_fract_y
 _atom_site_fract_z
 _atom_site_occupancy
  Ac  Ac0  1  0.140712  0.376065  0.241479  1
  Ac  Ac1  1  0.235355  0.859289  0.241476  1
  Ac  Ac2  1  0.623931  0.764647  0.241473  1
  Ac  Ac3  1  0.859288  0.623934  0.741479  1
  Ac  Ac4  1  0.764645  0.140712  0.741474  1
  Ac  Ac5  1  0.376068  0.235353  0.741476  1
  Al  Al6  1  0.666671  0.333343  0.163926  1
  Al  Al7  1  0.333329  0.666657  0.663925  1
  Zn  Zn8  1  0.000002  0.000003  0.333241  1
  Zn  Zn9  1  0.999998  0.999996  0.833240  1
  S  S10  1  0.894850  0.418184  0.024451  1
  S  S11  1  0.581812  0.476659  0.024461  1
  S  S12  1  0.523347  0.105161  0.024472  1
  S  S13  1  0.333326  0.666661  0.018864  1
  S  S14  1  0.847335  0.094089  0.289386  1
  S  S15  1  0.905914  0.753257  0.289387  1
  S  S16  1  0.246753  0.152658  0.289384  1
  S  S17  1  0.105150  0.581817  0.524451  1
  S  S18  1  0.418187  0.523340  0.524461  1
  S  S19  1  0.476653  0.894837  0.524473  1
  S  S20  1  0.666673  0.333338  0.518864  1
  S  S21  1  0.152667  0.905912  0.789385  1
  S  S22  1  0.094086  0.246743  0.789388  1
  S  S23  1  0.753247  0.847342  0.789383  1
