# generated using pymatgen
data_Dy4Lu16(HgBi3)3
_symmetry_space_group_name_H-M   'P 1'
_cell_length_a   8.11051695
_cell_length_b   9.34290700
_cell_length_c   11.86534498
_cell_angle_alpha   90.00000000
_cell_angle_beta   90.14933469
_cell_angle_gamma   90.00000000
_symmetry_Int_Tables_number   1
_chemical_formula_structural   Dy4Lu16(HgBi3)3
_chemical_formula_sum   'Dy4 Lu16 Hg3 Bi9'
_cell_volume   899.10302079
_cell_formula_units_Z   1
loop_
 _symmetry_equiv_pos_site_id
 _symmetry_equiv_pos_as_xyz
  1  'x, y, z'
loop_
 _atom_site_type_symbol
 _atom_site_label
 _atom_site_symmetry_multiplicity
 _atom_site_fract_x
 _atom_site_fract_y
 _atom_site_fract_z
 _atom_site_occupancy
  Dy  Dy0  1  0.317163  0.250000  0.212878  1
  Dy  Dy1  1  0.805931  0.250000  0.280202  1
  Dy  Dy2  1  0.684038  0.750000  0.785465  1
  Dy  Dy3  1  0.185719  0.750000  0.714083  1
  Lu  Lu4  1  0.342830  0.750000  0.207101  1
  Lu  Lu5  1  0.851701  0.750000  0.291518  1
  Lu  Lu6  1  0.653518  0.250000  0.789952  1
  Lu  Lu7  1  0.155698  0.250000  0.717058  1
  Lu  Lu8  1  0.686152  0.560928  0.057892  1
  Lu  Lu9  1  0.187962  0.928861  0.441705  1
  Lu  Lu10  1  0.314782  0.061772  0.944157  1
  Lu  Lu11  1  0.808059  0.445122  0.561616  1
  Lu  Lu12  1  0.314782  0.438228  0.944157  1
  Lu  Lu13  1  0.808059  0.054878  0.561616  1
  Lu  Lu14  1  0.686152  0.939072  0.057892  1
  Lu  Lu15  1  0.187962  0.571139  0.441705  1
  Lu  Lu16  1  0.480039  0.250000  0.491717  1
  Lu  Lu17  1  0.967548  0.250000  0.007704  1
  Lu  Lu18  1  0.534213  0.750000  0.507341  1
  Lu  Lu19  1  0.032951  0.750000  0.991321  1
  Hg  Hg20  1  0.405738  0.750000  0.962566  1
  Hg  Hg21  1  0.904873  0.750000  0.538243  1
  Hg  Hg22  1  0.596203  0.250000  0.036592  1
  Bi  Bi23  1  0.095299  0.250000  0.458340  1
  Bi  Bi24  1  0.554755  0.996385  0.323361  1
  Bi  Bi25  1  0.055650  0.501872  0.176328  1
  Bi  Bi26  1  0.441854  0.496846  0.676041  1
  Bi  Bi27  1  0.944054  0.002474  0.822859  1
  Bi  Bi28  1  0.441854  0.003154  0.676041  1
  Bi  Bi29  1  0.944054  0.497526  0.822859  1
  Bi  Bi30  1  0.554755  0.503615  0.323361  1
  Bi  Bi31  1  0.055650  0.998128  0.176328  1
