# generated using pymatgen
data_Tb2Ho2Al13Ga5Ir6
_symmetry_space_group_name_H-M   'P 1'
_cell_length_a   7.53091911
_cell_length_b   7.53172955
_cell_length_c   9.56528700
_cell_angle_alpha   90.00000000
_cell_angle_beta   90.00000000
_cell_angle_gamma   119.58179800
_symmetry_Int_Tables_number   1
_chemical_formula_structural   Tb2Ho2Al13Ga5Ir6
_chemical_formula_sum   'Tb2 Ho2 Al13 Ga5 Ir6'
_cell_volume   471.83060414
_cell_formula_units_Z   1
loop_
 _symmetry_equiv_pos_site_id
 _symmetry_equiv_pos_as_xyz
  1  'x, y, z'
loop_
 _atom_site_type_symbol
 _atom_site_label
 _atom_site_symmetry_multiplicity
 _atom_site_fract_x
 _atom_site_fract_y
 _atom_site_fract_z
 _atom_site_occupancy
  Tb  Tb0  1  0.995061  0.669866  0.250000  1
  Tb  Tb1  1  0.670176  0.996508  0.250000  1
  Ho  Ho2  1  0.000554  0.326356  0.750000  1
  Ho  Ho3  1  0.330423  0.006495  0.750000  1
  Al  Al4  1  0.002719  0.334907  0.071843  1
  Al  Al5  1  0.999421  0.665445  0.926993  1
  Al  Al6  1  0.999421  0.665445  0.573007  1
  Al  Al7  1  0.334777  0.002090  0.428329  1
  Al  Al8  1  0.002719  0.334907  0.428157  1
  Al  Al9  1  0.664771  0.997954  0.573244  1
  Al  Al10  1  0.664771  0.997954  0.926756  1
  Al  Al11  1  0.334777  0.002090  0.071671  1
  Al  Al12  1  0.333728  0.334156  0.557449  1
  Al  Al13  1  0.665750  0.665716  0.446847  1
  Al  Al14  1  0.665750  0.665716  0.053153  1
  Al  Al15  1  0.333728  0.334156  0.942551  1
  Al  Al16  1  0.450619  0.661769  0.750000  1
  Ga  Ga17  1  0.129097  0.129120  0.250000  1
  Ga  Ga18  1  0.869884  0.869107  0.750000  1
  Ga  Ga19  1  0.338554  0.546882  0.250000  1
  Ga  Ga20  1  0.661998  0.454304  0.750000  1
  Ga  Ga21  1  0.546687  0.339067  0.250000  1
  Ir  Ir22  1  0.672393  0.327938  0.999937  1
  Ir  Ir23  1  0.329273  0.671704  0.997518  1
  Ir  Ir24  1  0.329273  0.671704  0.502482  1
  Ir  Ir25  1  0.672393  0.327938  0.500063  1
  Ir  Ir26  1  0.000642  0.000352  0.999633  1
  Ir  Ir27  1  0.000642  0.000352  0.500367  1
