# generated using pymatgen
data_HfSc5Al8Si8Ir7
_symmetry_space_group_name_H-M   'P 1'
_cell_length_a   8.61246463
_cell_length_b   8.61246419
_cell_length_c   8.61490500
_cell_angle_alpha   59.99062079
_cell_angle_beta   59.99062248
_cell_angle_gamma   60.01874102
_symmetry_Int_Tables_number   1
_chemical_formula_structural   HfSc5Al8Si8Ir7
_chemical_formula_sum   'Hf1 Sc5 Al8 Si8 Ir7'
_cell_volume   451.84580474
_cell_formula_units_Z   1
loop_
 _symmetry_equiv_pos_site_id
 _symmetry_equiv_pos_as_xyz
  1  'x, y, z'
loop_
 _atom_site_type_symbol
 _atom_site_label
 _atom_site_symmetry_multiplicity
 _atom_site_fract_x
 _atom_site_fract_y
 _atom_site_fract_z
 _atom_site_occupancy
  Hf  Hf0  1  0.691946  0.691946  0.308054  1
  Sc  Sc1  1  0.691606  0.307328  0.308394  1
  Sc  Sc2  1  0.307328  0.691606  0.692672  1
  Sc  Sc3  1  0.307328  0.691606  0.308394  1
  Sc  Sc4  1  0.691606  0.307328  0.692672  1
  Sc  Sc5  1  0.306557  0.306557  0.693443  1
  Al  Al6  1  0.121843  0.121843  0.121161  1
  Al  Al7  1  0.878612  0.878612  0.877890  1
  Al  Al8  1  0.121843  0.121843  0.635152  1
  Al  Al9  1  0.122110  0.635115  0.121388  1
  Al  Al10  1  0.878612  0.878612  0.364885  1
  Al  Al11  1  0.878839  0.364848  0.878157  1
  Al  Al12  1  0.635115  0.122110  0.121388  1
  Al  Al13  1  0.364848  0.878839  0.878157  1
  Si  Si14  1  0.346910  0.346910  0.347388  1
  Si  Si15  1  0.653227  0.653227  0.653315  1
  Si  Si16  1  0.346910  0.346910  0.958792  1
  Si  Si17  1  0.346685  0.959769  0.346773  1
  Si  Si18  1  0.653227  0.653227  0.040231  1
  Si  Si19  1  0.652612  0.041208  0.653090  1
  Si  Si20  1  0.959769  0.346685  0.346773  1
  Si  Si21  1  0.041208  0.652612  0.653090  1
  Ir  Ir22  1  0.500866  0.999192  0.000808  1
  Ir  Ir23  1  0.999192  0.500866  0.499134  1
  Ir  Ir24  1  0.999192  0.500866  0.000808  1
  Ir  Ir25  1  0.500866  0.999192  0.499134  1
  Ir  Ir26  1  0.000692  0.000692  0.499308  1
  Ir  Ir27  1  0.500692  0.500692  0.999308  1
  Ir  Ir28  1  0.999757  0.999757  0.000243  1
