# generated using pymatgen
data_PmSi2Ir3
_symmetry_space_group_name_H-M   'P 1'
_cell_length_a   5.60112200
_cell_length_b   5.60105734
_cell_length_c   3.70083600
_cell_angle_alpha   90.00000000
_cell_angle_beta   90.00000000
_cell_angle_gamma   60.00088085
_symmetry_Int_Tables_number   1
_chemical_formula_structural   PmSi2Ir3
_chemical_formula_sum   'Pm1 Si2 Ir3'
_cell_volume   100.54937552
_cell_formula_units_Z   1
loop_
 _symmetry_equiv_pos_site_id
 _symmetry_equiv_pos_as_xyz
  1  'x, y, z'
loop_
 _atom_site_type_symbol
 _atom_site_label
 _atom_site_symmetry_multiplicity
 _atom_site_fract_x
 _atom_site_fract_y
 _atom_site_fract_z
 _atom_site_occupancy
  Pm  Pm0  1  0.999998  0.000000  0.000000  1
  Si  Si1  1  0.333345  0.333305  0.000000  1
  Si  Si2  1  0.666661  0.666682  0.000000  1
  Ir  Ir3  1  0.500269  0.000004  0.499999  1
  Ir  Ir4  1  0.999998  0.499735  0.499999  1
  Ir  Ir5  1  0.499723  0.500278  0.499999  1
