# generated using pymatgen
data_V9ReSi5Ge
_symmetry_space_group_name_H-M   'P 1'
_cell_length_a   4.80176513
_cell_length_b   7.06642015
_cell_length_c   7.08661785
_cell_angle_alpha   83.36697539
_cell_angle_beta   70.13967098
_cell_angle_gamma   70.13837625
_symmetry_Int_Tables_number   1
_chemical_formula_structural   V9ReSi5Ge
_chemical_formula_sum   'V9 Re1 Si5 Ge1'
_cell_volume   212.70378070
_cell_formula_units_Z   1
loop_
 _symmetry_equiv_pos_site_id
 _symmetry_equiv_pos_as_xyz
  1  'x, y, z'
loop_
 _atom_site_type_symbol
 _atom_site_label
 _atom_site_symmetry_multiplicity
 _atom_site_fract_x
 _atom_site_fract_y
 _atom_site_fract_z
 _atom_site_occupancy
  V  V0  1  0.723245  0.849972  0.700655  1
  V  V1  1  0.274578  0.147747  0.301022  1
  V  V2  1  0.776773  0.296667  0.150877  1
  V  V3  1  0.227080  0.703809  0.844577  1
  V  V4  1  0.573885  0.703377  0.150934  1
  V  V5  1  0.430572  0.296057  0.844697  1
  V  V6  1  0.073477  0.150166  0.700719  1
  V  V7  1  0.921784  0.852233  0.300992  1
  V  V8  1  0.748591  0.499881  0.503896  1
  Re  Re9  1  0.249457  0.500023  0.504714  1
  Si  Si10  1  0.826712  0.500028  0.837685  1
  Si  Si11  1  0.336464  0.836264  0.499141  1
  Si  Si12  1  0.672935  0.163756  0.499157  1
  Si  Si13  1  0.249871  0.000014  0.000180  1
  Si  Si14  1  0.749991  0.999988  0.999963  1
  Ge  Ge15  1  0.164584  0.500017  0.160792  1
