# generated using pymatgen
data_Yb3(HoPb2)2
_symmetry_space_group_name_H-M   'P 1'
_cell_length_a   7.92493000
_cell_length_b   8.55521800
_cell_length_c   16.19259100
_cell_angle_alpha   90.00000000
_cell_angle_beta   90.00000000
_cell_angle_gamma   90.00000000
_symmetry_Int_Tables_number   1
_chemical_formula_structural   Yb3(HoPb2)2
_chemical_formula_sum   'Yb12 Ho8 Pb16'
_cell_volume   1097.84963479
_cell_formula_units_Z   4
loop_
 _symmetry_equiv_pos_site_id
 _symmetry_equiv_pos_as_xyz
  1  'x, y, z'
loop_
 _atom_site_type_symbol
 _atom_site_label
 _atom_site_symmetry_multiplicity
 _atom_site_fract_x
 _atom_site_fract_y
 _atom_site_fract_z
 _atom_site_occupancy
  Yb  Yb0  1  0.499027  0.688418  0.592520  1
  Yb  Yb1  1  0.999027  0.811582  0.907480  1
  Yb  Yb2  1  0.500973  0.311582  0.092520  1
  Yb  Yb3  1  0.000973  0.188418  0.407480  1
  Yb  Yb4  1  0.500973  0.311582  0.407480  1
  Yb  Yb5  1  0.000973  0.188418  0.092520  1
  Yb  Yb6  1  0.499027  0.688418  0.907480  1
  Yb  Yb7  1  0.999027  0.811582  0.592520  1
  Yb  Yb8  1  0.830070  0.510038  0.750000  1
  Yb  Yb9  1  0.330070  0.989962  0.750000  1
  Yb  Yb10  1  0.169930  0.489962  0.250000  1
  Yb  Yb11  1  0.669930  0.010038  0.250000  1
  Ho  Ho12  1  0.670283  0.162685  0.621410  1
  Ho  Ho13  1  0.170283  0.337315  0.878590  1
  Ho  Ho14  1  0.329717  0.837315  0.121410  1
  Ho  Ho15  1  0.829717  0.662685  0.378590  1
  Ho  Ho16  1  0.329717  0.837315  0.378590  1
  Ho  Ho17  1  0.829717  0.662685  0.121410  1
  Ho  Ho18  1  0.670283  0.162685  0.878590  1
  Ho  Ho19  1  0.170283  0.337315  0.621410  1
  Pb  Pb20  1  0.679595  0.964437  0.458325  1
  Pb  Pb21  1  0.179595  0.535563  0.041675  1
  Pb  Pb22  1  0.320405  0.035563  0.958325  1
  Pb  Pb23  1  0.820405  0.464437  0.541675  1
  Pb  Pb24  1  0.320405  0.035563  0.541675  1
  Pb  Pb25  1  0.820405  0.464437  0.958325  1
  Pb  Pb26  1  0.679595  0.964437  0.041675  1
  Pb  Pb27  1  0.179595  0.535563  0.458325  1
  Pb  Pb28  1  0.469740  0.370678  0.750000  1
  Pb  Pb29  1  0.969740  0.129322  0.750000  1
  Pb  Pb30  1  0.530260  0.629322  0.250000  1
  Pb  Pb31  1  0.030260  0.870678  0.250000  1
  Pb  Pb32  1  0.706140  0.867241  0.750000  1
  Pb  Pb33  1  0.206140  0.632759  0.750000  1
  Pb  Pb34  1  0.293860  0.132759  0.250000  1
  Pb  Pb35  1  0.793860  0.367241  0.250000  1
