# generated using pymatgen
data_NaInSn5Ir4
_symmetry_space_group_name_H-M   'P 1'
_cell_length_a   7.07091777
_cell_length_b   6.96028521
_cell_length_c   6.99031096
_cell_angle_alpha   119.94359952
_cell_angle_beta   120.46686495
_cell_angle_gamma   89.85331505
_symmetry_Int_Tables_number   1
_chemical_formula_structural   NaInSn5Ir4
_chemical_formula_sum   'Na1 In1 Sn5 Ir4'
_cell_volume   242.06089429
_cell_formula_units_Z   1
loop_
 _symmetry_equiv_pos_site_id
 _symmetry_equiv_pos_as_xyz
  1  'x, y, z'
loop_
 _atom_site_type_symbol
 _atom_site_label
 _atom_site_symmetry_multiplicity
 _atom_site_fract_x
 _atom_site_fract_y
 _atom_site_fract_z
 _atom_site_occupancy
  Na  Na0  1  0.999671  0.999152  0.000000  1
  In  In1  1  0.886655  0.539697  0.000000  1
  Sn  Sn2  1  0.541521  0.878850  0.000000  1
  Sn  Sn3  1  0.118146  0.119490  0.659820  1
  Sn  Sn4  1  0.998532  0.500368  0.498969  1
  Sn  Sn5  1  0.458326  0.459669  0.340180  1
  Sn  Sn6  1  0.499564  0.001399  0.501031  1
  Ir  Ir7  1  0.256300  0.592529  0.000000  1
  Ir  Ir8  1  0.403054  0.405631  0.652132  1
  Ir  Ir9  1  0.587308  0.249717  0.000000  1
  Ir  Ir10  1  0.750921  0.753499  0.347868  1
