# generated using pymatgen
data_Tb2Th6TiS17
_symmetry_space_group_name_H-M   'P 1'
_cell_length_a   8.03693970
_cell_length_b   8.03693896
_cell_length_c   10.66275103
_cell_angle_alpha   80.72183453
_cell_angle_beta   80.72183528
_cell_angle_gamma   65.34321773
_symmetry_Int_Tables_number   1
_chemical_formula_structural   Tb2Th6TiS17
_chemical_formula_sum   'Tb2 Th6 Ti1 S17'
_cell_volume   614.34773328
_cell_formula_units_Z   1
loop_
 _symmetry_equiv_pos_site_id
 _symmetry_equiv_pos_as_xyz
  1  'x, y, z'
loop_
 _atom_site_type_symbol
 _atom_site_label
 _atom_site_symmetry_multiplicity
 _atom_site_fract_x
 _atom_site_fract_y
 _atom_site_fract_z
 _atom_site_occupancy
  Tb  Tb0  1  0.812493  0.304391  0.297092  1
  Tb  Tb1  1  0.304391  0.812493  0.297092  1
  Th  Th2  1  0.186388  0.698958  0.700542  1
  Th  Th3  1  0.698958  0.186388  0.700542  1
  Th  Th4  1  0.206403  0.206403  0.537974  1
  Th  Th5  1  0.794099  0.794099  0.454195  1
  Th  Th6  1  0.678971  0.678971  0.983262  1
  Th  Th7  1  0.319016  0.319016  0.025341  1
  Ti  Ti8  1  0.002992  0.002992  0.005966  1
  S  S9  1  0.824045  0.429394  0.532285  1
  S  S10  1  0.429394  0.824045  0.532285  1
  S  S11  1  0.176405  0.572209  0.466402  1
  S  S12  1  0.572209  0.176405  0.466402  1
  S  S13  1  0.941687  0.319101  0.026953  1
  S  S14  1  0.319101  0.941687  0.026953  1
  S  S15  1  0.058302  0.680952  0.971883  1
  S  S16  1  0.680952  0.058302  0.971883  1
  S  S17  1  0.205270  0.205270  0.276354  1
  S  S18  1  0.790332  0.790332  0.724506  1
  S  S19  1  0.059134  0.059134  0.776999  1
  S  S20  1  0.943650  0.943650  0.225224  1
  S  S21  1  0.303341  0.303341  0.754982  1
  S  S22  1  0.694454  0.694454  0.244449  1
  S  S23  1  0.519451  0.519451  0.832098  1
  S  S24  1  0.480838  0.480838  0.162886  1
  S  S25  1  0.997723  0.997723  0.505448  1
