# generated using pymatgen
data_Nd4Sm8Fe2I17
_symmetry_space_group_name_H-M   'P 1'
_cell_length_a   9.92964460
_cell_length_b   11.94097280
_cell_length_c   11.98239965
_cell_angle_alpha   93.48323212
_cell_angle_beta   104.74136505
_cell_angle_gamma   114.28935859
_symmetry_Int_Tables_number   1
_chemical_formula_structural   Nd4Sm8Fe2I17
_chemical_formula_sum   'Nd4 Sm8 Fe2 I17'
_cell_volume   1230.10673319
_cell_formula_units_Z   1
loop_
 _symmetry_equiv_pos_site_id
 _symmetry_equiv_pos_as_xyz
  1  'x, y, z'
loop_
 _atom_site_type_symbol
 _atom_site_label
 _atom_site_symmetry_multiplicity
 _atom_site_fract_x
 _atom_site_fract_y
 _atom_site_fract_z
 _atom_site_occupancy
  Nd  Nd0  1  0.057543  0.510154  0.321668  1
  Nd  Nd1  1  0.990451  0.809198  0.586767  1
  Nd  Nd2  1  0.652590  0.240440  0.280205  1
  Nd  Nd3  1  0.011223  0.188780  0.417359  1
  Sm  Sm4  1  0.219643  0.671749  0.982514  1
  Sm  Sm5  1  0.255206  0.978753  0.890074  1
  Sm  Sm6  1  0.348615  0.758833  0.718945  1
  Sm  Sm7  1  0.947774  0.496589  0.681055  1
  Sm  Sm8  1  0.743381  0.017784  0.108405  1
  Sm  Sm9  1  0.138753  0.285876  0.152320  1
  Sm  Sm10  1  0.777635  0.328140  0.012716  1
  Sm  Sm11  1  0.855313  0.713218  0.847772  1
  Fe  Fe12  1  0.103817  0.738204  0.786227  1
  Fe  Fe13  1  0.895512  0.261484  0.213715  1
  I  I14  1  0.784132  0.527406  0.419152  1
  I  I15  1  0.645147  0.420332  0.761383  1
  I  I16  1  0.840858  0.894145  0.322177  1
  I  I17  1  0.325721  0.213762  0.366513  1
  I  I18  1  0.159137  0.105539  0.677940  1
  I  I19  1  0.586720  0.052541  0.844350  1
  I  I20  1  0.757697  0.187513  0.539495  1
  I  I21  1  0.549655  0.710484  0.953472  1
  I  I22  1  0.356375  0.578371  0.236257  1
  I  I23  1  0.215980  0.472495  0.583818  1
  I  I24  1  0.054936  0.368522  0.898290  1
  I  I25  1  0.449696  0.289858  0.043946  1
  I  I26  1  0.000685  0.000794  0.000463  1
  I  I27  1  0.247357  0.815895  0.464278  1
  I  I28  1  0.413812  0.946037  0.154779  1
  I  I29  1  0.671692  0.786162  0.633286  1
  I  I30  1  0.942946  0.630941  0.100661  1
