# generated using pymatgen
data_Pu2Rh2Pb
_symmetry_space_group_name_H-M   'P 1'
_cell_length_a   7.71902100
_cell_length_b   7.71902100
_cell_length_c   3.51418500
_cell_angle_alpha   90.00000000
_cell_angle_beta   90.00000000
_cell_angle_gamma   90.00000000
_symmetry_Int_Tables_number   1
_chemical_formula_structural   Pu2Rh2Pb
_chemical_formula_sum   'Pu4 Rh4 Pb2'
_cell_volume   209.38668710
_cell_formula_units_Z   2
loop_
 _symmetry_equiv_pos_site_id
 _symmetry_equiv_pos_as_xyz
  1  'x, y, z'
loop_
 _atom_site_type_symbol
 _atom_site_label
 _atom_site_symmetry_multiplicity
 _atom_site_fract_x
 _atom_site_fract_y
 _atom_site_fract_z
 _atom_site_occupancy
  Pu  Pu0  1  0.666094  0.166094  0.500000  1
  Pu  Pu1  1  0.166094  0.333906  0.500000  1
  Pu  Pu2  1  0.833906  0.666094  0.500000  1
  Pu  Pu3  1  0.333906  0.833906  0.500000  1
  Rh  Rh4  1  0.863594  0.363594  0.000000  1
  Rh  Rh5  1  0.136406  0.636406  0.000000  1
  Rh  Rh6  1  0.636406  0.863594  0.000000  1
  Rh  Rh7  1  0.363594  0.136406  0.000000  1
  Pb  Pb8  1  0.000000  0.000000  0.000000  1
  Pb  Pb9  1  0.500000  0.500000  0.000000  1
