# generated using pymatgen
data_Lu12AlCo4Pb
_symmetry_space_group_name_H-M   'P 1'
_cell_length_a   8.18075042
_cell_length_b   8.18075041
_cell_length_c   8.18075104
_cell_angle_alpha   111.85528094
_cell_angle_beta   109.74426690
_cell_angle_gamma   106.85280640
_symmetry_Int_Tables_number   1
_chemical_formula_structural   Lu12AlCo4Pb
_chemical_formula_sum   'Lu12 Al1 Co4 Pb1'
_cell_volume   420.65478020
_cell_formula_units_Z   1
loop_
 _symmetry_equiv_pos_site_id
 _symmetry_equiv_pos_as_xyz
  1  'x, y, z'
loop_
 _atom_site_type_symbol
 _atom_site_label
 _atom_site_symmetry_multiplicity
 _atom_site_fract_x
 _atom_site_fract_y
 _atom_site_fract_z
 _atom_site_occupancy
  Lu  Lu0  1  0.438960  0.233839  0.205120  1
  Lu  Lu1  1  0.561040  0.766161  0.794880  1
  Lu  Lu2  1  0.028718  0.233839  0.794880  1
  Lu  Lu3  1  0.971282  0.766161  0.205120  1
  Lu  Lu4  1  0.181318  0.280014  0.461333  1
  Lu  Lu5  1  0.818682  0.719986  0.538667  1
  Lu  Lu6  1  0.181318  0.719986  0.901303  1
  Lu  Lu7  1  0.818682  0.280014  0.098697  1
  Lu  Lu8  1  0.322388  0.634572  0.312184  1
  Lu  Lu9  1  0.677612  0.365428  0.687816  1
  Lu  Lu10  1  0.322388  0.010204  0.687816  1
  Lu  Lu11  1  0.677612  0.989796  0.312184  1
  Al  Al12  1  0.000000  0.000000  0.000000  1
  Co  Co13  1  0.341448  0.000000  0.341448  1
  Co  Co14  1  0.658552  0.000000  0.658552  1
  Co  Co15  1  0.115450  0.615450  0.500000  1
  Co  Co16  1  0.884550  0.384550  0.500000  1
  Pb  Pb17  1  0.500000  0.500000  0.000000  1
