# generated using pymatgen
data_BaReIO4
_symmetry_space_group_name_H-M   'P 1'
_cell_length_a   6.15140200
_cell_length_b   10.53322400
_cell_length_c   4.90862600
_cell_angle_alpha   90.00000000
_cell_angle_beta   90.00000000
_cell_angle_gamma   90.00000000
_symmetry_Int_Tables_number   1
_chemical_formula_structural   BaReIO4
_chemical_formula_sum   'Ba2 Re2 I2 O8'
_cell_volume   318.04998025
_cell_formula_units_Z   2
loop_
 _symmetry_equiv_pos_site_id
 _symmetry_equiv_pos_as_xyz
  1  'x, y, z'
loop_
 _atom_site_type_symbol
 _atom_site_label
 _atom_site_symmetry_multiplicity
 _atom_site_fract_x
 _atom_site_fract_y
 _atom_site_fract_z
 _atom_site_occupancy
  Ba  Ba0  1  0.000000  0.709402  0.189390  1
  Ba  Ba1  1  0.500000  0.290598  0.689391  1
  Re  Re2  1  0.000000  0.126966  0.254678  1
  Re  Re3  1  0.500000  0.873034  0.754677  1
  I  I4  1  0.500000  0.540306  0.180725  1
  I  I5  1  0.000000  0.459693  0.680724  1
  O  O6  1  0.000000  0.968961  0.140619  1
  O  O7  1  0.238445  0.205590  0.147148  1
  O  O8  1  0.761555  0.205590  0.147148  1
  O  O9  1  0.500000  0.873468  0.109605  1
  O  O10  1  0.500000  0.031039  0.640618  1
  O  O11  1  0.261555  0.794410  0.647147  1
  O  O12  1  0.738445  0.794410  0.647147  1
  O  O13  1  0.000000  0.126532  0.609606  1
