# generated using pymatgen
data_Mg3ScCu2(B2Rh5)2
_symmetry_space_group_name_H-M   'P 1'
_cell_length_a   9.38513808
_cell_length_b   2.95372600
_cell_length_c   9.38513808
_cell_angle_alpha   90.00000000
_cell_angle_beta   90.36296418
_cell_angle_gamma   90.00000000
_symmetry_Int_Tables_number   1
_chemical_formula_structural   Mg3ScCu2(B2Rh5)2
_chemical_formula_sum   'Mg3 Sc1 Cu2 B4 Rh10'
_cell_volume   260.16137822
_cell_formula_units_Z   1
loop_
 _symmetry_equiv_pos_site_id
 _symmetry_equiv_pos_as_xyz
  1  'x, y, z'
loop_
 _atom_site_type_symbol
 _atom_site_label
 _atom_site_symmetry_multiplicity
 _atom_site_fract_x
 _atom_site_fract_y
 _atom_site_fract_z
 _atom_site_occupancy
  Mg  Mg0  1  0.823415  0.000000  0.325456  1
  Mg  Mg1  1  0.174544  0.000000  0.676585  1
  Mg  Mg2  1  0.678474  0.000000  0.821526  1
  Sc  Sc3  1  0.324087  0.000000  0.175913  1
  Cu  Cu4  1  0.000682  0.000000  0.999757  1
  Cu  Cu5  1  0.500242  0.000000  0.499317  1
  B  B6  1  0.628803  0.000000  0.127963  1
  B  B7  1  0.124350  0.000000  0.375650  1
  B  B8  1  0.871684  0.000000  0.628316  1
  B  B9  1  0.372037  0.000000  0.871197  1
  Rh  Rh10  1  0.501573  0.500001  0.998426  1
  Rh  Rh11  1  0.784822  0.500001  0.071439  1
  Rh  Rh12  1  0.071675  0.500001  0.216704  1
  Rh  Rh13  1  0.569653  0.500001  0.282665  1
  Rh  Rh14  1  0.283296  0.500001  0.428325  1
  Rh  Rh15  1  0.999429  0.500001  0.500570  1
  Rh  Rh16  1  0.715673  0.500001  0.570337  1
  Rh  Rh17  1  0.428561  0.500001  0.715179  1
  Rh  Rh18  1  0.929664  0.500001  0.784328  1
  Rh  Rh19  1  0.217335  0.500001  0.930348  1
