# generated using pymatgen
data_Y4Al18(IrRh)3
_symmetry_space_group_name_H-M   'P 1'
_cell_length_a   7.55805829
_cell_length_b   7.55805900
_cell_length_c   9.47932006
_cell_angle_alpha   90.00650084
_cell_angle_beta   90.00649643
_cell_angle_gamma   119.49576396
_symmetry_Int_Tables_number   1
_chemical_formula_structural   Y4Al18(IrRh)3
_chemical_formula_sum   'Y4 Al18 Ir3 Rh3'
_cell_volume   471.31648599
_cell_formula_units_Z   1
loop_
 _symmetry_equiv_pos_site_id
 _symmetry_equiv_pos_as_xyz
  1  'x, y, z'
loop_
 _atom_site_type_symbol
 _atom_site_label
 _atom_site_symmetry_multiplicity
 _atom_site_fract_x
 _atom_site_fract_y
 _atom_site_fract_z
 _atom_site_occupancy
  Y  Y0  1  0.994840  0.670729  0.248311  1
  Y  Y1  1  0.005160  0.329271  0.751689  1
  Y  Y2  1  0.670729  0.994840  0.248311  1
  Y  Y3  1  0.329271  0.005160  0.751689  1
  Al  Al4  1  0.128062  0.128062  0.250209  1
  Al  Al5  1  0.871938  0.871938  0.749791  1
  Al  Al6  1  0.001120  0.335027  0.074051  1
  Al  Al7  1  0.998880  0.664973  0.925949  1
  Al  Al8  1  0.999124  0.664675  0.573995  1
  Al  Al9  1  0.335325  0.000876  0.426005  1
  Al  Al10  1  0.000876  0.335325  0.426005  1
  Al  Al11  1  0.664675  0.999124  0.573995  1
  Al  Al12  1  0.664973  0.998880  0.925949  1
  Al  Al13  1  0.335027  0.001120  0.074051  1
  Al  Al14  1  0.333195  0.333195  0.551163  1
  Al  Al15  1  0.666805  0.666805  0.448837  1
  Al  Al16  1  0.666371  0.666371  0.050076  1
  Al  Al17  1  0.333629  0.333629  0.949924  1
  Al  Al18  1  0.339016  0.548735  0.250398  1
  Al  Al19  1  0.660984  0.451265  0.749602  1
  Al  Al20  1  0.548735  0.339016  0.250398  1
  Al  Al21  1  0.451265  0.660984  0.749602  1
  Ir  Ir22  1  0.671615  0.328385  0.000000  1
  Ir  Ir23  1  0.328385  0.671615  0.000000  1
  Ir  Ir24  1  0.000000  0.000000  0.000000  1
  Rh  Rh25  1  0.328399  0.671601  0.500000  1
  Rh  Rh26  1  0.671601  0.328399  0.500000  1
  Rh  Rh27  1  0.000000  0.000000  0.500000  1
