# generated using pymatgen
data_GaFeMo6(PtN)2
_symmetry_space_group_name_H-M   'P 1'
_cell_length_a   6.82154657
_cell_length_b   6.83763577
_cell_length_c   6.82637100
_cell_angle_alpha   90.00000000
_cell_angle_beta   90.00000000
_cell_angle_gamma   89.30483338
_symmetry_Int_Tables_number   1
_chemical_formula_structural   GaFeMo6(PtN)2
_chemical_formula_sum   'Ga2 Fe2 Mo12 Pt4 N4'
_cell_volume   318.38069947
_cell_formula_units_Z   2
loop_
 _symmetry_equiv_pos_site_id
 _symmetry_equiv_pos_as_xyz
  1  'x, y, z'
loop_
 _atom_site_type_symbol
 _atom_site_label
 _atom_site_symmetry_multiplicity
 _atom_site_fract_x
 _atom_site_fract_y
 _atom_site_fract_z
 _atom_site_occupancy
  Ga  Ga0  1  0.815552  0.320908  0.184875  1
  Ga  Ga1  1  0.684448  0.679092  0.684875  1
  Fe  Fe2  1  0.182568  0.813504  0.314212  1
  Fe  Fe3  1  0.317432  0.186496  0.814212  1
  Mo  Mo4  1  0.807986  0.959057  0.368624  1
  Mo  Mo5  1  0.692014  0.040943  0.868624  1
  Mo  Mo6  1  0.204211  0.461992  0.123891  1
  Mo  Mo7  1  0.295789  0.538008  0.623891  1
  Mo  Mo8  1  0.973675  0.369508  0.800161  1
  Mo  Mo9  1  0.049591  0.875997  0.696379  1
  Mo  Mo10  1  0.450409  0.124003  0.196379  1
  Mo  Mo11  1  0.526325  0.630492  0.300161  1
  Mo  Mo12  1  0.367503  0.810461  0.965774  1
  Mo  Mo13  1  0.881447  0.709602  0.047678  1
  Mo  Mo14  1  0.132497  0.189539  0.465774  1
  Mo  Mo15  1  0.618553  0.290398  0.547678  1
  Pt  Pt16  1  0.566620  0.434423  0.934481  1
  Pt  Pt17  1  0.436605  0.933613  0.562433  1
  Pt  Pt18  1  0.933380  0.565577  0.434481  1
  Pt  Pt19  1  0.063395  0.066387  0.062433  1
  N  N20  1  0.874937  0.124339  0.626781  1
  N  N21  1  0.625063  0.875661  0.126781  1
  N  N22  1  0.128135  0.628577  0.874710  1
  N  N23  1  0.371865  0.371423  0.374710  1
