# generated using pymatgen
data_Ho8Sb(Pd5Pt)4
_symmetry_space_group_name_H-M   'P 1'
_cell_length_a   8.39306900
_cell_length_b   8.38305900
_cell_length_c   8.40144700
_cell_angle_alpha   90.00000000
_cell_angle_beta   90.00000000
_cell_angle_gamma   90.00000000
_symmetry_Int_Tables_number   1
_chemical_formula_structural   Ho8Sb(Pd5Pt)4
_chemical_formula_sum   'Ho8 Sb1 Pd20 Pt4'
_cell_volume   591.12238832
_cell_formula_units_Z   1
loop_
 _symmetry_equiv_pos_site_id
 _symmetry_equiv_pos_as_xyz
  1  'x, y, z'
loop_
 _atom_site_type_symbol
 _atom_site_label
 _atom_site_symmetry_multiplicity
 _atom_site_fract_x
 _atom_site_fract_y
 _atom_site_fract_z
 _atom_site_occupancy
  Ho  Ho0  1  0.745322  0.745671  0.254779  1
  Ho  Ho1  1  0.745322  0.254329  0.745221  1
  Ho  Ho2  1  0.254674  0.744888  0.745221  1
  Ho  Ho3  1  0.745322  0.745671  0.745221  1
  Ho  Ho4  1  0.745322  0.254329  0.254779  1
  Ho  Ho5  1  0.254674  0.255112  0.745221  1
  Ho  Ho6  1  0.254674  0.744888  0.254779  1
  Ho  Ho7  1  0.254674  0.255112  0.254779  1
  Sb  Sb8  1  0.999929  0.000000  0.000000  1
  Pd  Pd9  1  0.000213  0.000000  0.305163  1
  Pd  Pd10  1  0.735552  0.500000  0.000000  1
  Pd  Pd11  1  0.499906  0.000000  0.735844  1
  Pd  Pd12  1  0.999915  0.735701  0.500000  1
  Pd  Pd13  1  0.499906  0.000000  0.264156  1
  Pd  Pd14  1  0.999915  0.264299  0.500000  1
  Pd  Pd15  1  0.500076  0.735702  0.000000  1
  Pd  Pd16  1  0.500203  0.254215  0.500000  1
  Pd  Pd17  1  0.500203  0.745785  0.500000  1
  Pd  Pd18  1  0.745632  0.500000  0.500000  1
  Pd  Pd19  1  0.305383  0.000000  0.000000  1
  Pd  Pd20  1  0.000213  0.000000  0.694837  1
  Pd  Pd21  1  0.000177  0.500000  0.264355  1
  Pd  Pd22  1  0.999862  0.305359  0.000000  1
  Pd  Pd23  1  0.999862  0.694641  0.000000  1
  Pd  Pd24  1  0.694613  0.000000  0.000000  1
  Pd  Pd25  1  0.264264  0.500000  0.000000  1
  Pd  Pd26  1  0.264036  0.000000  0.500000  1
  Pd  Pd27  1  0.000177  0.500000  0.735645  1
  Pd  Pd28  1  0.500076  0.264298  0.000000  1
  Pt  Pt29  1  0.735960  0.000000  0.500000  1
  Pt  Pt30  1  0.254202  0.500000  0.500000  1
  Pt  Pt31  1  0.499872  0.500000  0.745960  1
  Pt  Pt32  1  0.499872  0.500000  0.254040  1
