# generated using pymatgen
data_CaDy4Ho2FeI12
_symmetry_space_group_name_H-M   'P 1'
_cell_length_a   9.70780592
_cell_length_b   9.78098665
_cell_length_c   9.72566453
_cell_angle_alpha   107.01189114
_cell_angle_beta   106.76073374
_cell_angle_gamma   106.79343910
_symmetry_Int_Tables_number   1
_chemical_formula_structural   CaDy4Ho2FeI12
_chemical_formula_sum   'Ca1 Dy4 Ho2 Fe1 I12'
_cell_volume   772.08617499
_cell_formula_units_Z   1
loop_
 _symmetry_equiv_pos_site_id
 _symmetry_equiv_pos_as_xyz
  1  'x, y, z'
loop_
 _atom_site_type_symbol
 _atom_site_label
 _atom_site_symmetry_multiplicity
 _atom_site_fract_x
 _atom_site_fract_y
 _atom_site_fract_z
 _atom_site_occupancy
  Ca  Ca0  1  0.500136  0.499960  0.500022  1
  Dy  Dy1  1  0.714410  0.976782  0.907526  1
  Dy  Dy2  1  0.976412  0.907763  0.714473  1
  Dy  Dy3  1  0.096749  0.299682  0.024083  1
  Dy  Dy4  1  0.285477  0.023024  0.092687  1
  Ho  Ho5  1  0.903656  0.700726  0.976395  1
  Ho  Ho6  1  0.023419  0.091804  0.285191  1
  Fe  Fe7  1  0.999896  0.999708  0.999939  1
  I  I8  1  0.072671  0.222345  0.680711  1
  I  I9  1  0.376708  0.148898  0.454695  1
  I  I10  1  0.623072  0.851030  0.545256  1
  I  I11  1  0.226328  0.681886  0.074136  1
  I  I12  1  0.773491  0.318608  0.925812  1
  I  I13  1  0.683273  0.073338  0.223632  1
  I  I14  1  0.544513  0.624696  0.851871  1
  I  I15  1  0.852329  0.545990  0.622699  1
  I  I16  1  0.927015  0.777713  0.318677  1
  I  I17  1  0.316698  0.926789  0.776179  1
  I  I18  1  0.455949  0.375320  0.148285  1
  I  I19  1  0.147798  0.453939  0.377731  1
