# generated using pymatgen
data_Tb15Th(InPt)4
_symmetry_space_group_name_H-M   'P 1'
_cell_length_a   9.79174274
_cell_length_b   9.79174317
_cell_length_c   9.79174230
_cell_angle_alpha   60.12620660
_cell_angle_beta   60.12619555
_cell_angle_gamma   60.12620677
_symmetry_Int_Tables_number   1
_chemical_formula_structural   Tb15Th(InPt)4
_chemical_formula_sum   'Tb15 Th1 In4 Pt4'
_cell_volume   665.74035787
_cell_formula_units_Z   1
loop_
 _symmetry_equiv_pos_site_id
 _symmetry_equiv_pos_as_xyz
  1  'x, y, z'
loop_
 _atom_site_type_symbol
 _atom_site_label
 _atom_site_symmetry_multiplicity
 _atom_site_fract_x
 _atom_site_fract_y
 _atom_site_fract_z
 _atom_site_occupancy
  Tb  Tb0  1  0.351221  0.351221  0.943583  1
  Tb  Tb1  1  0.351221  0.943583  0.351221  1
  Tb  Tb2  1  0.943583  0.351221  0.351221  1
  Tb  Tb3  1  0.810855  0.190638  0.190638  1
  Tb  Tb4  1  0.194561  0.808700  0.808700  1
  Tb  Tb5  1  0.190638  0.810855  0.190638  1
  Tb  Tb6  1  0.808700  0.194561  0.808700  1
  Tb  Tb7  1  0.190638  0.190638  0.810855  1
  Tb  Tb8  1  0.808700  0.808700  0.194561  1
  Tb  Tb9  1  0.935858  0.563703  0.563703  1
  Tb  Tb10  1  0.562606  0.938251  0.938251  1
  Tb  Tb11  1  0.563703  0.935858  0.563703  1
  Tb  Tb12  1  0.938251  0.562606  0.938251  1
  Tb  Tb13  1  0.563703  0.563703  0.935858  1
  Tb  Tb14  1  0.938251  0.938251  0.562606  1
  Th  Th15  1  0.348286  0.348286  0.348286  1
  In  In16  1  0.585209  0.585209  0.585209  1
  In  In17  1  0.583346  0.583346  0.250985  1
  In  In18  1  0.583346  0.250985  0.583346  1
  In  In19  1  0.250985  0.583346  0.583346  1
  Pt  Pt20  1  0.143462  0.143462  0.143462  1
  Pt  Pt21  1  0.140767  0.140767  0.571343  1
  Pt  Pt22  1  0.140767  0.571343  0.140767  1
  Pt  Pt23  1  0.571343  0.140767  0.140767  1
