# generated using pymatgen
data_Ac3Al11Pd
_symmetry_space_group_name_H-M   'P 1'
_cell_length_a   8.92507050
_cell_length_b   8.92506934
_cell_length_c   8.92506918
_cell_angle_alpha   150.37696533
_cell_angle_beta   104.54013301
_cell_angle_gamma   83.08744147
_symmetry_Int_Tables_number   1
_chemical_formula_structural   Ac3Al11Pd
_chemical_formula_sum   'Ac3 Al11 Pd1'
_cell_volume   332.96271616
_cell_formula_units_Z   1
loop_
 _symmetry_equiv_pos_site_id
 _symmetry_equiv_pos_as_xyz
  1  'x, y, z'
loop_
 _atom_site_type_symbol
 _atom_site_label
 _atom_site_symmetry_multiplicity
 _atom_site_fract_x
 _atom_site_fract_y
 _atom_site_fract_z
 _atom_site_occupancy
  Ac  Ac0  1  0.993386  0.000000  0.993386  1
  Ac  Ac1  1  0.329953  0.331570  0.998383  1
  Ac  Ac2  1  0.666812  0.668430  0.998383  1
  Al  Al3  1  0.397735  0.000000  0.397735  1
  Al  Al4  1  0.251635  0.500000  0.751635  1
  Al  Al5  1  0.739676  0.500000  0.239676  1
  Al  Al6  1  0.588037  0.839334  0.748703  1
  Al  Al7  1  0.909371  0.160666  0.748703  1
  Al  Al8  1  0.290528  0.668839  0.621689  1
  Al  Al9  1  0.952850  0.331161  0.621689  1
  Al  Al10  1  0.047288  0.666282  0.381005  1
  Al  Al11  1  0.714720  0.333718  0.381005  1
  Al  Al12  1  0.086668  0.836641  0.250027  1
  Al  Al13  1  0.413386  0.163359  0.250027  1
  Pd  Pd14  1  0.628955  0.000000  0.628955  1
