# generated using pymatgen
data_Lu10In8CoPd3
_symmetry_space_group_name_H-M   'P 1'
_cell_length_a   3.53736100
_cell_length_b   7.97993306
_cell_length_c   17.90791338
_cell_angle_alpha   90.05901842
_cell_angle_beta   90.00000000
_cell_angle_gamma   90.00000000
_symmetry_Int_Tables_number   1
_chemical_formula_structural   Lu10In8CoPd3
_chemical_formula_sum   'Lu10 In8 Co1 Pd3'
_cell_volume   505.50259112
_cell_formula_units_Z   1
loop_
 _symmetry_equiv_pos_site_id
 _symmetry_equiv_pos_as_xyz
  1  'x, y, z'
loop_
 _atom_site_type_symbol
 _atom_site_label
 _atom_site_symmetry_multiplicity
 _atom_site_fract_x
 _atom_site_fract_y
 _atom_site_fract_z
 _atom_site_occupancy
  Lu  Lu0  1  0.000000  0.500164  0.499235  1
  Lu  Lu1  1  0.000000  0.000582  0.001041  1
  Lu  Lu2  1  0.000000  0.724054  0.275454  1
  Lu  Lu3  1  0.000000  0.261678  0.720339  1
  Lu  Lu4  1  0.000000  0.760717  0.779696  1
  Lu  Lu5  1  0.000000  0.257047  0.219582  1
  Lu  Lu6  1  0.000000  0.610515  0.090062  1
  Lu  Lu7  1  0.000000  0.385388  0.917268  1
  Lu  Lu8  1  0.000000  0.884581  0.583353  1
  Lu  Lu9  1  0.000000  0.115887  0.414978  1
  In  In10  1  0.500000  0.711585  0.933442  1
  In  In11  1  0.500000  0.291443  0.069984  1
  In  In12  1  0.500000  0.788658  0.431346  1
  In  In13  1  0.500000  0.212080  0.567424  1
  In  In14  1  0.500000  0.581896  0.648496  1
  In  In15  1  0.500000  0.420547  0.348925  1
  In  In16  1  0.500000  0.916783  0.149144  1
  In  In17  1  0.500000  0.081809  0.851870  1
  Co  Co18  1  0.500000  0.518094  0.194557  1
  Pd  Pd19  1  0.500000  0.477669  0.804284  1
  Pd  Pd20  1  0.500000  0.977882  0.696017  1
  Pd  Pd21  1  0.500000  0.020945  0.303505  1
