# generated using pymatgen
data_Tb2GdHo(MoO6)2
_symmetry_space_group_name_H-M   'P 1'
_cell_length_a   9.99195789
_cell_length_b   9.99195705
_cell_length_c   5.42212102
_cell_angle_alpha   75.03803213
_cell_angle_beta   75.03802965
_cell_angle_gamma   68.20181359
_symmetry_Int_Tables_number   1
_chemical_formula_structural   Tb2GdHo(MoO6)2
_chemical_formula_sum   'Tb4 Gd2 Ho2 Mo4 O24'
_cell_volume   477.57748341
_cell_formula_units_Z   2
loop_
 _symmetry_equiv_pos_site_id
 _symmetry_equiv_pos_as_xyz
  1  'x, y, z'
loop_
 _atom_site_type_symbol
 _atom_site_label
 _atom_site_symmetry_multiplicity
 _atom_site_fract_x
 _atom_site_fract_y
 _atom_site_fract_z
 _atom_site_occupancy
  Tb  Tb0  1  0.551627  0.784443  0.621838  1
  Tb  Tb1  1  0.215557  0.448373  0.878162  1
  Tb  Tb2  1  0.864024  0.135976  0.250000  1
  Tb  Tb3  1  0.136474  0.863526  0.750000  1
  Gd  Gd4  1  0.447479  0.215906  0.379513  1
  Gd  Gd5  1  0.784094  0.552521  0.120487  1
  Ho  Ho6  1  0.393914  0.606086  0.250000  1
  Ho  Ho7  1  0.605192  0.394808  0.750000  1
  Mo  Mo8  1  0.296344  0.010371  0.062596  1
  Mo  Mo9  1  0.989629  0.703656  0.437404  1
  Mo  Mo10  1  0.703834  0.989210  0.937592  1
  Mo  Mo11  1  0.010790  0.296166  0.562408  1
  O  O12  1  0.607285  0.572742  0.922062  1
  O  O13  1  0.427258  0.392715  0.577938  1
  O  O14  1  0.391284  0.428866  0.076386  1
  O  O15  1  0.571134  0.608716  0.423614  1
  O  O16  1  0.337592  0.806674  0.922346  1
  O  O17  1  0.193326  0.662408  0.577654  1
  O  O18  1  0.663271  0.192977  0.075919  1
  O  O19  1  0.807023  0.336729  0.424081  1
  O  O20  1  0.326078  0.884969  0.374438  1
  O  O21  1  0.115031  0.673922  0.125562  1
  O  O22  1  0.674388  0.114977  0.625993  1
  O  O23  1  0.885023  0.325612  0.874007  1
  O  O24  1  0.181926  0.289291  0.638252  1
  O  O25  1  0.710709  0.818074  0.861748  1
  O  O26  1  0.817087  0.712038  0.365689  1
  O  O27  1  0.287962  0.182913  0.134311  1
  O  O28  1  0.047880  0.111348  0.515200  1
  O  O29  1  0.888652  0.952120  0.984800  1
  O  O30  1  0.952969  0.888420  0.484802  1
  O  O31  1  0.111580  0.047031  0.015198  1
  O  O32  1  0.025597  0.431086  0.257882  1
  O  O33  1  0.568914  0.974403  0.242118  1
  O  O34  1  0.976793  0.567720  0.740802  1
  O  O35  1  0.432280  0.023207  0.759198  1
