# generated using pymatgen
data_Dy3LuHf3PtF28
_symmetry_space_group_name_H-M   'P 1'
_cell_length_a   5.64427345
_cell_length_b   8.96650798
_cell_length_c   12.06692257
_cell_angle_alpha   62.48678027
_cell_angle_beta   89.96529338
_cell_angle_gamma   89.94264934
_symmetry_Int_Tables_number   1
_chemical_formula_structural   Dy3LuHf3PtF28
_chemical_formula_sum   'Dy3 Lu1 Hf3 Pt1 F28'
_cell_volume   541.63214935
_cell_formula_units_Z   1
loop_
 _symmetry_equiv_pos_site_id
 _symmetry_equiv_pos_as_xyz
  1  'x, y, z'
loop_
 _atom_site_type_symbol
 _atom_site_label
 _atom_site_symmetry_multiplicity
 _atom_site_fract_x
 _atom_site_fract_y
 _atom_site_fract_z
 _atom_site_occupancy
  Dy  Dy0  1  0.257294  0.182283  0.732230  1
  Dy  Dy1  1  0.240734  0.184026  0.238557  1
  Dy  Dy2  1  0.743212  0.812741  0.267287  1
  Lu  Lu3  1  0.758231  0.814696  0.765809  1
  Hf  Hf4  1  0.756031  0.275360  0.955471  1
  Hf  Hf5  1  0.257003  0.725582  0.546917  1
  Hf  Hf6  1  0.244448  0.725583  0.042837  1
  Pt  Pt7  1  0.741084  0.271221  0.456544  1
  F  F8  1  0.464188  0.710447  0.918062  1
  F  F9  1  0.936286  0.294829  0.582797  1
  F  F10  1  0.537016  0.290621  0.080054  1
  F  F11  1  0.041311  0.711329  0.421135  1
  F  F12  1  0.445595  0.278774  0.541849  1
  F  F13  1  0.949160  0.724939  0.947433  1
  F  F14  1  0.550471  0.719062  0.454187  1
  F  F15  1  0.049216  0.277567  0.050030  1
  F  F16  1  0.772211  0.527097  0.858881  1
  F  F17  1  0.268680  0.474326  0.640575  1
  F  F18  1  0.223187  0.475494  0.141250  1
  F  F19  1  0.729722  0.518057  0.358077  1
  F  F20  1  0.758351  0.024985  0.057370  1
  F  F21  1  0.261061  0.975667  0.445540  1
  F  F22  1  0.242898  0.976133  0.940697  1
  F  F23  1  0.743678  0.023660  0.550424  1
  F  F24  1  0.981658  0.733584  0.649903  1
  F  F25  1  0.484855  0.267484  0.850997  1
  F  F26  1  0.028684  0.273069  0.363869  1
  F  F27  1  0.518894  0.731721  0.145378  1
  F  F28  1  0.039081  0.748249  0.170959  1
  F  F29  1  0.551868  0.256511  0.324359  1
  F  F30  1  0.966301  0.254104  0.827844  1
  F  F31  1  0.470025  0.747514  0.674037  1
  F  F32  1  0.420724  0.970737  0.234836  1
  F  F33  1  0.919789  0.029228  0.268954  1
  F  F34  1  0.577712  0.023474  0.763413  1
  F  F35  1  0.069339  0.969847  0.731444  1
