# generated using pymatgen
data_Mg2Ag3AuO6
_symmetry_space_group_name_H-M   'P 1'
_cell_length_a   5.43473300
_cell_length_b   5.43473375
_cell_length_c   18.82547000
_cell_angle_alpha   90.00000000
_cell_angle_beta   90.00000000
_cell_angle_gamma   119.99998932
_symmetry_Int_Tables_number   1
_chemical_formula_structural   Mg2Ag3AuO6
_chemical_formula_sum   'Mg6 Ag9 Au3 O18'
_cell_volume   481.54069120
_cell_formula_units_Z   3
loop_
 _symmetry_equiv_pos_site_id
 _symmetry_equiv_pos_as_xyz
  1  'x, y, z'
loop_
 _atom_site_type_symbol
 _atom_site_label
 _atom_site_symmetry_multiplicity
 _atom_site_fract_x
 _atom_site_fract_y
 _atom_site_fract_z
 _atom_site_occupancy
  Mg  Mg0  1  0.106688  0.893312  0.333333  1
  Mg  Mg1  1  0.106688  0.213375  0.666667  1
  Mg  Mg2  1  0.786625  0.893312  0.000000  1
  Mg  Mg3  1  0.773310  0.226690  0.333333  1
  Mg  Mg4  1  0.773310  0.546619  0.666667  1
  Mg  Mg5  1  0.453381  0.226690  0.000000  1
  Ag  Ag6  1  0.442695  0.221348  0.500000  1
  Ag  Ag7  1  0.778652  0.221348  0.833333  1
  Ag  Ag8  1  0.778652  0.557305  0.166667  1
  Ag  Ag9  1  0.118271  0.559135  0.500000  1
  Ag  Ag10  1  0.440865  0.559135  0.833333  1
  Ag  Ag11  1  0.440865  0.881729  0.166667  1
  Ag  Ag12  1  0.763030  0.881514  0.500000  1
  Ag  Ag13  1  0.118486  0.881514  0.833333  1
  Ag  Ag14  1  0.118486  0.236970  0.166667  1
  Au  Au15  1  0.440381  0.559619  0.333333  1
  Au  Au16  1  0.440381  0.880762  0.666667  1
  Au  Au17  1  0.119238  0.559619  0.000000  1
  O  O18  1  0.766820  0.559772  0.278241  1
  O  O19  1  0.440228  0.207047  0.611574  1
  O  O20  1  0.792953  0.233180  0.944908  1
  O  O21  1  0.766820  0.207047  0.721759  1
  O  O22  1  0.440228  0.233180  0.388426  1
  O  O23  1  0.792953  0.559772  0.055092  1
  O  O24  1  0.440213  0.886507  0.278108  1
  O  O25  1  0.113493  0.553706  0.611441  1
  O  O26  1  0.446294  0.559787  0.944775  1
  O  O27  1  0.440213  0.553706  0.721892  1
  O  O28  1  0.113493  0.559787  0.388559  1
  O  O29  1  0.446294  0.886507  0.055225  1
  O  O30  1  0.113372  0.233025  0.278123  1
  O  O31  1  0.766975  0.880346  0.611456  1
  O  O32  1  0.119654  0.886628  0.944789  1
  O  O33  1  0.113372  0.880346  0.721877  1
  O  O34  1  0.766975  0.886628  0.388544  1
  O  O35  1  0.119654  0.233025  0.055211  1
