# generated using pymatgen
data_YbSm6SBr12
_symmetry_space_group_name_H-M   'P 1'
_cell_length_a   9.22314961
_cell_length_b   9.22314971
_cell_length_c   9.22314900
_cell_angle_alpha   107.18079365
_cell_angle_beta   107.18079383
_cell_angle_gamma   107.18078119
_symmetry_Int_Tables_number   1
_chemical_formula_structural   YbSm6SBr12
_chemical_formula_sum   'Yb1 Sm6 S1 Br12'
_cell_volume   650.15714675
_cell_formula_units_Z   1
loop_
 _symmetry_equiv_pos_site_id
 _symmetry_equiv_pos_as_xyz
  1  'x, y, z'
loop_
 _atom_site_type_symbol
 _atom_site_label
 _atom_site_symmetry_multiplicity
 _atom_site_fract_x
 _atom_site_fract_y
 _atom_site_fract_z
 _atom_site_occupancy
  Yb  Yb0  1  0.000000  0.000000  0.000000  1
  Sm  Sm1  1  0.813008  0.527794  0.602042  1
  Sm  Sm2  1  0.527794  0.602042  0.813008  1
  Sm  Sm3  1  0.186992  0.472206  0.397958  1
  Sm  Sm4  1  0.472206  0.397958  0.186992  1
  Sm  Sm5  1  0.602042  0.813008  0.527794  1
  Sm  Sm6  1  0.397958  0.186992  0.472206  1
  S  S7  1  0.500000  0.500000  0.500000  1
  Br  Br8  1  0.727700  0.183980  0.574625  1
  Br  Br9  1  0.959167  0.880942  0.657273  1
  Br  Br10  1  0.574625  0.727700  0.183980  1
  Br  Br11  1  0.119058  0.342727  0.040833  1
  Br  Br12  1  0.657273  0.959167  0.880942  1
  Br  Br13  1  0.880942  0.657273  0.959167  1
  Br  Br14  1  0.040833  0.119058  0.342727  1
  Br  Br15  1  0.816020  0.425375  0.272300  1
  Br  Br16  1  0.342727  0.040833  0.119058  1
  Br  Br17  1  0.272300  0.816020  0.425375  1
  Br  Br18  1  0.183980  0.574625  0.727700  1
  Br  Br19  1  0.425375  0.272300  0.816020  1
