# generated using pymatgen
data_EuBi(IO4)2
_symmetry_space_group_name_H-M   'P 1'
_cell_length_a   5.70243958
_cell_length_b   5.75095000
_cell_length_c   11.14139900
_cell_angle_alpha   90.00000000
_cell_angle_beta   89.78924126
_cell_angle_gamma   90.00000000
_symmetry_Int_Tables_number   1
_chemical_formula_structural   EuBi(IO4)2
_chemical_formula_sum   'Eu2 Bi2 I4 O16'
_cell_volume   365.37352368
_cell_formula_units_Z   2
loop_
 _symmetry_equiv_pos_site_id
 _symmetry_equiv_pos_as_xyz
  1  'x, y, z'
loop_
 _atom_site_type_symbol
 _atom_site_label
 _atom_site_symmetry_multiplicity
 _atom_site_fract_x
 _atom_site_fract_y
 _atom_site_fract_z
 _atom_site_occupancy
  Eu  Eu0  1  0.493458  0.311118  0.884075  1
  Eu  Eu1  1  0.506542  0.811118  0.115925  1
  Bi  Bi2  1  0.014689  0.814474  0.900264  1
  Bi  Bi3  1  0.985311  0.314474  0.099736  1
  I  I4  1  0.005464  0.330592  0.635220  1
  I  I5  1  0.994536  0.830592  0.364780  1
  I  I6  1  0.496198  0.825379  0.636661  1
  I  I7  1  0.503802  0.325379  0.363339  1
  O  O8  1  0.242180  0.065513  0.007414  1
  O  O9  1  0.757820  0.565513  0.992586  1
  O  O10  1  0.251174  0.570902  0.005262  1
  O  O11  1  0.748826  0.070902  0.994738  1
  O  O12  1  0.135826  0.420955  0.779543  1
  O  O13  1  0.864174  0.920955  0.220457  1
  O  O14  1  0.377345  0.934130  0.781167  1
  O  O15  1  0.622655  0.434130  0.218833  1
  O  O16  1  0.835885  0.093517  0.710271  1
  O  O17  1  0.164115  0.593517  0.289729  1
  O  O18  1  0.642844  0.574189  0.711090  1
  O  O19  1  0.357156  0.074189  0.288910  1
  O  O20  1  0.247118  0.165080  0.563727  1
  O  O21  1  0.752882  0.665080  0.436273  1
  O  O22  1  0.246121  0.670973  0.567535  1
  O  O23  1  0.753879  0.170973  0.432465  1
