# generated using pymatgen
data_Ho3Sc2Co11(P3Ru2)4
_symmetry_space_group_name_H-M   'P 1'
_cell_length_a   12.15219998
_cell_length_b   12.16845129
_cell_length_c   3.71628200
_cell_angle_alpha   90.00000000
_cell_angle_beta   90.00000000
_cell_angle_gamma   119.89030592
_symmetry_Int_Tables_number   1
_chemical_formula_structural   Ho3Sc2Co11(P3Ru2)4
_chemical_formula_sum   'Ho3 Sc2 Co11 P12 Ru8'
_cell_volume   476.44030755
_cell_formula_units_Z   1
loop_
 _symmetry_equiv_pos_site_id
 _symmetry_equiv_pos_as_xyz
  1  'x, y, z'
loop_
 _atom_site_type_symbol
 _atom_site_label
 _atom_site_symmetry_multiplicity
 _atom_site_fract_x
 _atom_site_fract_y
 _atom_site_fract_z
 _atom_site_occupancy
  Ho  Ho0  1  0.666952  0.333322  0.000000  1
  Ho  Ho1  1  0.328807  0.663281  0.000000  1
  Ho  Ho2  1  0.999967  0.179133  0.500000  1
  Sc  Sc3  1  0.820805  0.820077  0.500000  1
  Sc  Sc4  1  0.178780  0.999766  0.500000  1
  Co  Co5  1  0.128736  0.481168  0.500000  1
  Co  Co6  1  0.804074  0.171305  0.000000  1
  Co  Co7  1  0.829666  0.633829  0.000000  1
  Co  Co8  1  0.365112  0.194015  0.000000  1
  Co  Co9  1  0.171864  0.806217  0.000000  1
  Co  Co10  1  0.633724  0.827024  0.000000  1
  Co  Co11  1  0.194494  0.371016  0.000000  1
  Co  Co12  1  0.278533  0.279910  0.500000  1
  Co  Co13  1  0.719819  0.998396  0.500000  1
  Co  Co14  1  0.000939  0.720863  0.500000  1
  Co  Co15  1  0.000366  0.997729  0.000000  1
  P  P16  1  0.685534  0.160638  0.500000  1
  P  P17  1  0.841988  0.525200  0.500000  1
  P  P18  1  0.475602  0.317543  0.500000  1
  P  P19  1  0.158725  0.680474  0.500000  1
  P  P20  1  0.522933  0.840066  0.500000  1
  P  P21  1  0.310612  0.475546  0.500000  1
  P  P22  1  0.176002  0.174683  0.000000  1
  P  P23  1  0.823247  0.996654  0.000000  1
  P  P24  1  0.000248  0.824158  0.000000  1
  P  P25  1  0.641343  0.641927  0.000000  1
  P  P26  1  0.357414  0.999919  0.000000  1
  P  P27  1  0.004142  0.362141  0.000000  1
  Ru  Ru28  1  0.877071  0.354036  0.500000  1
  Ru  Ru29  1  0.649792  0.521767  0.500000  1
  Ru  Ru30  1  0.479647  0.129037  0.500000  1
  Ru  Ru31  1  0.349654  0.870383  0.500000  1
  Ru  Ru32  1  0.516962  0.647604  0.500000  1
  Ru  Ru33  1  0.444876  0.445341  0.000000  1
  Ru  Ru34  1  0.554135  0.999376  0.000000  1
  Ru  Ru35  1  0.007435  0.556462  0.000000  1
