# generated using pymatgen
data_Zr5Sc3V11Si16Ni
_symmetry_space_group_name_H-M   'P 1'
_cell_length_a   6.63009682
_cell_length_b   6.63067332
_cell_length_c   12.24654245
_cell_angle_alpha   90.21256773
_cell_angle_beta   89.81163832
_cell_angle_gamma   89.87373708
_symmetry_Int_Tables_number   1
_chemical_formula_structural   Zr5Sc3V11Si16Ni
_chemical_formula_sum   'Zr5 Sc3 V11 Si16 Ni1'
_cell_volume   538.37463728
_cell_formula_units_Z   1
loop_
 _symmetry_equiv_pos_site_id
 _symmetry_equiv_pos_as_xyz
  1  'x, y, z'
loop_
 _atom_site_type_symbol
 _atom_site_label
 _atom_site_symmetry_multiplicity
 _atom_site_fract_x
 _atom_site_fract_y
 _atom_site_fract_z
 _atom_site_occupancy
  Zr  Zr0  1  0.003407  0.661288  0.031267  1
  Zr  Zr1  1  0.839203  0.502297  0.280865  1
  Zr  Zr2  1  0.160268  0.499608  0.781416  1
  Zr  Zr3  1  0.502057  0.839512  0.719380  1
  Zr  Zr4  1  0.499559  0.160722  0.218984  1
  Sc  Sc5  1  0.998377  0.337869  0.529943  1
  Sc  Sc6  1  0.662663  0.001542  0.970121  1
  Sc  Sc7  1  0.337801  0.998425  0.470115  1
  V  V8  1  0.166674  0.830731  0.249971  1
  V  V9  1  0.830514  0.166708  0.750181  1
  V  V10  1  0.667229  0.667257  0.500086  1
  V  V11  1  0.002910  0.159583  0.126170  1
  V  V12  1  0.342840  0.505584  0.375075  1
  V  V13  1  0.662356  0.495417  0.875152  1
  V  V14  1  0.505547  0.343060  0.624797  1
  V  V15  1  0.495386  0.662686  0.123819  1
  V  V16  1  0.993924  0.842722  0.627696  1
  V  V17  1  0.157847  0.002464  0.873116  1
  V  V18  1  0.842845  0.993821  0.372320  1
  Si  Si19  1  0.288845  0.959481  0.062078  1
  Si  Si20  1  0.538852  0.792865  0.315270  1
  Si  Si21  1  0.458528  0.209369  0.817359  1
  Si  Si22  1  0.793347  0.539171  0.684524  1
  Si  Si23  1  0.211266  0.457134  0.183455  1
  Si  Si24  1  0.708475  0.040352  0.563106  1
  Si  Si25  1  0.957072  0.286038  0.937041  1
  Si  Si26  1  0.040360  0.708462  0.436967  1
  Si  Si27  1  0.703527  0.376126  0.068903  1
  Si  Si28  1  0.128750  0.204402  0.320466  1
  Si  Si29  1  0.870630  0.795797  0.821731  1
  Si  Si30  1  0.204457  0.129483  0.679480  1
  Si  Si31  1  0.794518  0.872871  0.178902  1
  Si  Si32  1  0.294864  0.627793  0.570467  1
  Si  Si33  1  0.377383  0.705056  0.930336  1
  Si  Si34  1  0.627721  0.294577  0.429589  1
  Ni  Ni35  1  0.329994  0.329726  0.999851  1
