# generated using pymatgen
data_YHoLu2(Al3Rh)6
_symmetry_space_group_name_H-M   'P 1'
_cell_length_a   7.53258140
_cell_length_b   7.53054348
_cell_length_c   9.43835500
_cell_angle_alpha   90.00000000
_cell_angle_beta   90.00000000
_cell_angle_gamma   119.34806476
_symmetry_Int_Tables_number   1
_chemical_formula_structural   YHoLu2(Al3Rh)6
_chemical_formula_sum   'Y1 Ho1 Lu2 Al18 Rh6'
_cell_volume   466.67312995
_cell_formula_units_Z   1
loop_
 _symmetry_equiv_pos_site_id
 _symmetry_equiv_pos_as_xyz
  1  'x, y, z'
loop_
 _atom_site_type_symbol
 _atom_site_label
 _atom_site_symmetry_multiplicity
 _atom_site_fract_x
 _atom_site_fract_y
 _atom_site_fract_z
 _atom_site_occupancy
  Y  Y0  1  0.327863  0.005689  0.750000  1
  Ho  Ho1  1  0.005563  0.327776  0.750000  1
  Lu  Lu2  1  0.994401  0.673320  0.250000  1
  Lu  Lu3  1  0.673218  0.994709  0.250000  1
  Al  Al4  1  0.127938  0.128153  0.250000  1
  Al  Al5  1  0.870160  0.870477  0.750000  1
  Al  Al6  1  0.999901  0.335989  0.077326  1
  Al  Al7  1  0.998510  0.664179  0.926365  1
  Al  Al8  1  0.998510  0.664179  0.573635  1
  Al  Al9  1  0.335874  0.999874  0.422325  1
  Al  Al10  1  0.999901  0.335989  0.422674  1
  Al  Al11  1  0.664736  0.998667  0.573700  1
  Al  Al12  1  0.664736  0.998667  0.926300  1
  Al  Al13  1  0.335874  0.999874  0.077675  1
  Al  Al14  1  0.332748  0.332934  0.547790  1
  Al  Al15  1  0.667776  0.667850  0.445589  1
  Al  Al16  1  0.667776  0.667850  0.054411  1
  Al  Al17  1  0.332748  0.332934  0.952210  1
  Al  Al18  1  0.339968  0.552277  0.250000  1
  Al  Al19  1  0.660691  0.450496  0.750000  1
  Al  Al20  1  0.552065  0.340243  0.250000  1
  Al  Al21  1  0.450084  0.659546  0.750000  1
  Rh  Rh22  1  0.672482  0.327456  0.000808  1
  Rh  Rh23  1  0.327845  0.672603  0.000888  1
  Rh  Rh24  1  0.327845  0.672603  0.499112  1
  Rh  Rh25  1  0.672482  0.327456  0.499192  1
  Rh  Rh26  1  0.999153  0.999106  0.001195  1
  Rh  Rh27  1  0.999153  0.999106  0.498805  1
