# generated using pymatgen
data_Tm2Lu4Al24Ru3Rh5
_symmetry_space_group_name_H-M   'P 1'
_cell_length_a   8.74070600
_cell_length_b   8.76727594
_cell_length_c   9.48885902
_cell_angle_alpha   90.17534027
_cell_angle_beta   90.00000000
_cell_angle_gamma   119.89979973
_symmetry_Int_Tables_number   1
_chemical_formula_structural   Tm2Lu4Al24Ru3Rh5
_chemical_formula_sum   'Tm2 Lu4 Al24 Ru3 Rh5'
_cell_volume   630.36301435
_cell_formula_units_Z   1
loop_
 _symmetry_equiv_pos_site_id
 _symmetry_equiv_pos_as_xyz
  1  'x, y, z'
loop_
 _atom_site_type_symbol
 _atom_site_label
 _atom_site_symmetry_multiplicity
 _atom_site_fract_x
 _atom_site_fract_y
 _atom_site_fract_z
 _atom_site_occupancy
  Tm  Tm0  1  0.807185  0.614370  0.749818  1
  Tm  Tm1  1  0.192815  0.385630  0.250182  1
  Lu  Lu2  1  0.803197  0.191208  0.749589  1
  Lu  Lu3  1  0.196803  0.808792  0.250411  1
  Lu  Lu4  1  0.388011  0.191208  0.749589  1
  Lu  Lu5  1  0.611989  0.808792  0.250411  1
  Al  Al6  1  0.666453  0.332904  0.970161  1
  Al  Al7  1  0.333547  0.667096  0.029839  1
  Al  Al8  1  0.334243  0.668487  0.471331  1
  Al  Al9  1  0.665757  0.331513  0.528669  1
  Al  Al10  1  0.835392  0.162140  0.421717  1
  Al  Al11  1  0.164608  0.837860  0.578283  1
  Al  Al12  1  0.326747  0.162140  0.421717  1
  Al  Al13  1  0.162655  0.835525  0.921837  1
  Al  Al14  1  0.673253  0.837860  0.578283  1
  Al  Al15  1  0.837345  0.164475  0.078163  1
  Al  Al16  1  0.837195  0.674392  0.421537  1
  Al  Al17  1  0.672870  0.835525  0.921837  1
  Al  Al18  1  0.162805  0.325608  0.578463  1
  Al  Al19  1  0.327130  0.164475  0.078163  1
  Al  Al20  1  0.162763  0.325525  0.921117  1
  Al  Al21  1  0.837237  0.674475  0.078883  1
  Al  Al22  1  0.437610  0.560518  0.750790  1
  Al  Al23  1  0.562390  0.439482  0.249210  1
  Al  Al24  1  0.122906  0.560518  0.750790  1
  Al  Al25  1  0.877094  0.439482  0.249210  1
  Al  Al26  1  0.437599  0.875198  0.749730  1
  Al  Al27  1  0.562401  0.124802  0.250270  1
  Al  Al28  1  0.999691  0.999383  0.750042  1
  Al  Al29  1  0.000309  0.000617  0.249958  1
  Ru  Ru30  1  0.500000  0.000000  0.500000  1
  Ru  Ru31  1  0.000000  0.000000  0.000000  1
  Ru  Ru32  1  0.000000  0.000000  0.500000  1
  Rh  Rh33  1  0.500000  0.500000  0.000000  1
  Rh  Rh34  1  0.000000  0.500000  0.000000  1
  Rh  Rh35  1  0.500000  0.500000  0.500000  1
  Rh  Rh36  1  0.500000  0.000000  0.000000  1
  Rh  Rh37  1  0.000000  0.500000  0.500000  1
