# generated using pymatgen
data_Ba3Tb2UO9
_symmetry_space_group_name_H-M   'P 1'
_cell_length_a   6.24127700
_cell_length_b   6.24127587
_cell_length_c   15.17483200
_cell_angle_alpha   90.00000000
_cell_angle_beta   90.00000000
_cell_angle_gamma   119.99999007
_symmetry_Int_Tables_number   1
_chemical_formula_structural   Ba3Tb2UO9
_chemical_formula_sum   'Ba6 Tb4 U2 O18'
_cell_volume   511.91918320
_cell_formula_units_Z   2
loop_
 _symmetry_equiv_pos_site_id
 _symmetry_equiv_pos_as_xyz
  1  'x, y, z'
loop_
 _atom_site_type_symbol
 _atom_site_label
 _atom_site_symmetry_multiplicity
 _atom_site_fract_x
 _atom_site_fract_y
 _atom_site_fract_z
 _atom_site_occupancy
  Ba  Ba0  1  0.333333  0.666667  0.092500  1
  Ba  Ba1  1  0.666667  0.333333  0.907500  1
  Ba  Ba2  1  0.333333  0.666667  0.592500  1
  Ba  Ba3  1  0.666667  0.333333  0.407500  1
  Ba  Ba4  1  0.000000  0.000000  0.250000  1
  Ba  Ba5  1  0.000000  0.000000  0.750000  1
  Tb  Tb6  1  0.333333  0.666667  0.830322  1
  Tb  Tb7  1  0.666667  0.333333  0.169678  1
  Tb  Tb8  1  0.333333  0.666667  0.330322  1
  Tb  Tb9  1  0.666667  0.333333  0.669678  1
  U  U10  1  0.000000  0.000000  0.000000  1
  U  U11  1  0.000000  0.000000  0.500000  1
  O  O12  1  0.906806  0.686391  0.578062  1
  O  O13  1  0.000000  0.566508  0.250000  1
  O  O14  1  0.220415  0.313609  0.921938  1
  O  O15  1  0.906806  0.220415  0.078062  1
  O  O16  1  0.779585  0.093194  0.578062  1
  O  O17  1  0.779585  0.686391  0.078062  1
  O  O18  1  0.686391  0.779585  0.421938  1
  O  O19  1  0.433492  0.000000  0.750000  1
  O  O20  1  0.566508  0.566508  0.750000  1
  O  O21  1  0.313609  0.220415  0.578062  1
  O  O22  1  0.093194  0.313609  0.421938  1
  O  O23  1  0.220415  0.906806  0.421938  1
  O  O24  1  0.313609  0.093194  0.078062  1
  O  O25  1  0.566508  0.000000  0.250000  1
  O  O26  1  0.433492  0.433492  0.250000  1
  O  O27  1  0.000000  0.433492  0.750000  1
  O  O28  1  0.093194  0.779585  0.921938  1
  O  O29  1  0.686391  0.906806  0.921938  1
