# generated using pymatgen
data_Tb8Er2Ir5Au
_symmetry_space_group_name_H-M   'P 1'
_cell_length_a   11.07030253
_cell_length_b   11.01600000
_cell_length_c   6.34020631
_cell_angle_alpha   90.00000000
_cell_angle_beta   89.86039289
_cell_angle_gamma   90.00000000
_symmetry_Int_Tables_number   1
_chemical_formula_structural   Tb8Er2Ir5Au
_chemical_formula_sum   'Tb16 Er4 Ir10 Au2'
_cell_volume   773.18873478
_cell_formula_units_Z   2
loop_
 _symmetry_equiv_pos_site_id
 _symmetry_equiv_pos_as_xyz
  1  'x, y, z'
loop_
 _atom_site_type_symbol
 _atom_site_label
 _atom_site_symmetry_multiplicity
 _atom_site_fract_x
 _atom_site_fract_y
 _atom_site_fract_z
 _atom_site_occupancy
  Tb  Tb0  1  0.291577  0.088231  0.373083  1
  Tb  Tb1  1  0.291577  0.911769  0.873083  1
  Tb  Tb2  1  0.699430  0.091650  0.866379  1
  Tb  Tb3  1  0.699430  0.908350  0.366379  1
  Tb  Tb4  1  0.578685  0.788876  0.877785  1
  Tb  Tb5  1  0.578685  0.211124  0.377785  1
  Tb  Tb6  1  0.409390  0.790162  0.377150  1
  Tb  Tb7  1  0.409390  0.209838  0.877150  1
  Tb  Tb8  1  0.210090  0.411620  0.621306  1
  Tb  Tb9  1  0.210090  0.588380  0.121306  1
  Tb  Tb10  1  0.788817  0.419319  0.122265  1
  Tb  Tb11  1  0.788817  0.580681  0.622265  1
  Tb  Tb12  1  0.916611  0.705634  0.137539  1
  Tb  Tb13  1  0.916611  0.294366  0.637539  1
  Tb  Tb14  1  0.095448  0.704240  0.623541  1
  Tb  Tb15  1  0.095448  0.295760  0.123541  1
  Er  Er16  1  0.009164  0.998461  0.499949  1
  Er  Er17  1  0.009164  0.001539  0.999949  1
  Er  Er18  1  0.499564  0.499082  0.000519  1
  Er  Er19  1  0.499564  0.500918  0.500519  1
  Ir  Ir20  1  0.152288  0.152597  0.750404  1
  Ir  Ir21  1  0.152288  0.847403  0.250404  1
  Ir  Ir22  1  0.654392  0.346924  0.748907  1
  Ir  Ir23  1  0.654392  0.653076  0.248907  1
  Ir  Ir24  1  0.348191  0.347162  0.251330  1
  Ir  Ir25  1  0.348191  0.652838  0.751330  1
  Ir  Ir26  1  0.500356  0.999639  0.121371  1
  Ir  Ir27  1  0.500356  0.000361  0.621371  1
  Ir  Ir28  1  0.999584  0.500866  0.878561  1
  Ir  Ir29  1  0.999584  0.499134  0.378561  1
  Au  Au30  1  0.846413  0.153611  0.249911  1
  Au  Au31  1  0.846413  0.846389  0.749911  1
