# generated using pymatgen
data_NdPa2(Ga2Co3)3
_symmetry_space_group_name_H-M   'P 1'
_cell_length_a   4.18800500
_cell_length_b   8.59602305
_cell_length_c   8.59315727
_cell_angle_alpha   60.02826732
_cell_angle_beta   90.00000000
_cell_angle_gamma   90.00000000
_symmetry_Int_Tables_number   1
_chemical_formula_structural   NdPa2(Ga2Co3)3
_chemical_formula_sum   'Nd1 Pa2 Ga6 Co9'
_cell_volume   267.98580386
_cell_formula_units_Z   1
loop_
 _symmetry_equiv_pos_site_id
 _symmetry_equiv_pos_as_xyz
  1  'x, y, z'
loop_
 _atom_site_type_symbol
 _atom_site_label
 _atom_site_symmetry_multiplicity
 _atom_site_fract_x
 _atom_site_fract_y
 _atom_site_fract_z
 _atom_site_occupancy
  Nd  Nd0  1  0.500000  0.666794  0.666773  1
  Pa  Pa1  1  0.500000  0.333650  0.333160  1
  Pa  Pa2  1  0.000000  0.999696  0.000173  1
  Ga  Ga3  1  0.000000  0.496869  0.505863  1
  Ga  Ga4  1  0.000000  0.506143  0.997422  1
  Ga  Ga5  1  0.000000  0.997338  0.496730  1
  Ga  Ga6  1  0.500000  0.731247  0.274547  1
  Ga  Ga7  1  0.500000  0.274716  0.994324  1
  Ga  Ga8  1  0.500000  0.993766  0.731230  1
  Co  Co9  1  0.000000  0.182787  0.174980  1
  Co  Co10  1  0.000000  0.174979  0.642164  1
  Co  Co11  1  0.000000  0.642104  0.182809  1
  Co  Co12  1  0.000000  0.827481  0.833814  1
  Co  Co13  1  0.000000  0.338896  0.827561  1
  Co  Co14  1  0.000000  0.833650  0.338730  1
  Co  Co15  1  0.500000  0.306185  0.676924  1
  Co  Co16  1  0.500000  0.677042  0.016622  1
  Co  Co17  1  0.500000  0.016559  0.306274  1
