# generated using pymatgen
data_Y2(PaGa5)3
_symmetry_space_group_name_H-M   'P 1'
_cell_length_a   12.54387312
_cell_length_b   12.54387325
_cell_length_c   12.54387301
_cell_angle_alpha   28.27274359
_cell_angle_beta   28.27274428
_cell_angle_gamma   28.27274660
_symmetry_Int_Tables_number   1
_chemical_formula_structural   Y2(PaGa5)3
_chemical_formula_sum   'Y2 Pa3 Ga15'
_cell_volume   391.28247725
_cell_formula_units_Z   1
loop_
 _symmetry_equiv_pos_site_id
 _symmetry_equiv_pos_as_xyz
  1  'x, y, z'
loop_
 _atom_site_type_symbol
 _atom_site_label
 _atom_site_symmetry_multiplicity
 _atom_site_fract_x
 _atom_site_fract_y
 _atom_site_fract_z
 _atom_site_occupancy
  Y  Y0  1  0.999102  0.999102  0.999102  1
  Y  Y1  1  0.599577  0.599577  0.599577  1
  Pa  Pa2  1  0.130170  0.130170  0.130170  1
  Pa  Pa3  1  0.870190  0.870190  0.870190  1
  Pa  Pa4  1  0.401096  0.401096  0.401096  1
  Ga  Ga5  1  0.132254  0.635920  0.635920  1
  Ga  Ga6  1  0.635920  0.635920  0.132254  1
  Ga  Ga7  1  0.635920  0.132254  0.635920  1
  Ga  Ga8  1  0.363555  0.872753  0.363555  1
  Ga  Ga9  1  0.363555  0.363555  0.872753  1
  Ga  Ga10  1  0.872753  0.363555  0.363555  1
  Ga  Ga11  1  0.432719  0.881733  0.881733  1
  Ga  Ga12  1  0.881733  0.881733  0.432719  1
  Ga  Ga13  1  0.881733  0.432719  0.881733  1
  Ga  Ga14  1  0.118634  0.563181  0.118634  1
  Ga  Ga15  1  0.118634  0.118634  0.563181  1
  Ga  Ga16  1  0.563181  0.118634  0.118634  1
  Ga  Ga17  1  0.497301  0.497301  0.004672  1
  Ga  Ga18  1  0.497301  0.004672  0.497301  1
  Ga  Ga19  1  0.004672  0.497301  0.497301  1
