# generated using pymatgen
data_Zr8Tl3HgPd8
_symmetry_space_group_name_H-M   'P 1'
_cell_length_a   7.56781200
_cell_length_b   7.56781200
_cell_length_c   6.96821200
_cell_angle_alpha   90.00000000
_cell_angle_beta   90.00000000
_cell_angle_gamma   90.00000000
_symmetry_Int_Tables_number   1
_chemical_formula_structural   Zr8Tl3HgPd8
_chemical_formula_sum   'Zr8 Tl3 Hg1 Pd8'
_cell_volume   399.08189398
_cell_formula_units_Z   1
loop_
 _symmetry_equiv_pos_site_id
 _symmetry_equiv_pos_as_xyz
  1  'x, y, z'
loop_
 _atom_site_type_symbol
 _atom_site_label
 _atom_site_symmetry_multiplicity
 _atom_site_fract_x
 _atom_site_fract_y
 _atom_site_fract_z
 _atom_site_occupancy
  Zr  Zr0  1  0.654649  0.647589  0.499025  1
  Zr  Zr1  1  0.813792  0.191684  0.499259  1
  Zr  Zr2  1  0.691684  0.686208  0.000741  1
  Zr  Zr3  1  0.852411  0.154649  0.000975  1
  Zr  Zr4  1  0.186208  0.808316  0.499259  1
  Zr  Zr5  1  0.308316  0.313792  0.000741  1
  Zr  Zr6  1  0.147589  0.845351  0.000975  1
  Zr  Zr7  1  0.345351  0.352411  0.499025  1
  Tl  Tl8  1  0.500000  0.000000  0.750000  1
  Tl  Tl9  1  0.500000  0.000000  0.250000  1
  Tl  Tl10  1  0.000000  0.500000  0.750000  1
  Hg  Hg11  1  0.000000  0.500000  0.250000  1
  Pd  Pd12  1  0.627758  0.371032  0.213314  1
  Pd  Pd13  1  0.372760  0.629069  0.786838  1
  Pd  Pd14  1  0.870931  0.872760  0.713162  1
  Pd  Pd15  1  0.627240  0.370931  0.786838  1
  Pd  Pd16  1  0.372242  0.628968  0.213314  1
  Pd  Pd17  1  0.128968  0.127758  0.286686  1
  Pd  Pd18  1  0.871032  0.872242  0.286686  1
  Pd  Pd19  1  0.129069  0.127240  0.713162  1
