# generated using pymatgen
data_Tb8Th2In8CoNi3
_symmetry_space_group_name_H-M   'P 1'
_cell_length_a   3.63084500
_cell_length_b   8.01085047
_cell_length_c   18.02749708
_cell_angle_alpha   90.35785168
_cell_angle_beta   90.00000000
_cell_angle_gamma   90.00000000
_symmetry_Int_Tables_number   1
_chemical_formula_structural   Tb8Th2In8CoNi3
_chemical_formula_sum   'Tb8 Th2 In8 Co1 Ni3'
_cell_volume   524.34037198
_cell_formula_units_Z   1
loop_
 _symmetry_equiv_pos_site_id
 _symmetry_equiv_pos_as_xyz
  1  'x, y, z'
loop_
 _atom_site_type_symbol
 _atom_site_label
 _atom_site_symmetry_multiplicity
 _atom_site_fract_x
 _atom_site_fract_y
 _atom_site_fract_z
 _atom_site_occupancy
  Tb  Tb0  1  0.000000  0.500973  0.499499  1
  Tb  Tb1  1  0.000000  0.000865  0.999993  1
  Tb  Tb2  1  0.000000  0.756282  0.778366  1
  Tb  Tb3  1  0.000000  0.251100  0.220573  1
  Tb  Tb4  1  0.000000  0.615903  0.087501  1
  Tb  Tb5  1  0.000000  0.382701  0.913446  1
  Tb  Tb6  1  0.000000  0.883281  0.587434  1
  Tb  Tb7  1  0.000000  0.115639  0.411936  1
  Th  Th8  1  0.000000  0.739179  0.275135  1
  Th  Th9  1  0.000000  0.255694  0.723110  1
  In  In10  1  0.500000  0.705497  0.930712  1
  In  In11  1  0.500000  0.295055  0.069609  1
  In  In12  1  0.500000  0.795544  0.434236  1
  In  In13  1  0.500000  0.205163  0.564855  1
  In  In14  1  0.500000  0.579015  0.650557  1
  In  In15  1  0.500000  0.420380  0.348833  1
  In  In16  1  0.500000  0.933023  0.147837  1
  In  In17  1  0.500000  0.065402  0.852145  1
  Co  Co18  1  0.500000  0.538746  0.201572  1
  Ni  Ni19  1  0.500000  0.466962  0.801600  1
  Ni  Ni20  1  0.500000  0.984348  0.697130  1
  Ni  Ni21  1  0.500000  0.009249  0.303923  1
