# generated using pymatgen
data_Np2Zn3Ga
_symmetry_space_group_name_H-M   'P 1'
_cell_length_a   5.53307462
_cell_length_b   5.53307451
_cell_length_c   5.67189920
_cell_angle_alpha   59.20389056
_cell_angle_beta   59.20387649
_cell_angle_gamma   50.79874872
_symmetry_Int_Tables_number   1
_chemical_formula_structural   Np2Zn3Ga
_chemical_formula_sum   'Np2 Zn3 Ga1'
_cell_volume   110.86305377
_cell_formula_units_Z   1
loop_
 _symmetry_equiv_pos_site_id
 _symmetry_equiv_pos_as_xyz
  1  'x, y, z'
loop_
 _atom_site_type_symbol
 _atom_site_label
 _atom_site_symmetry_multiplicity
 _atom_site_fract_x
 _atom_site_fract_y
 _atom_site_fract_z
 _atom_site_occupancy
  Np  Np0  1  0.499958  0.499958  0.259177  1
  Np  Np1  1  0.499967  0.499967  0.740723  1
  Zn  Zn2  1  0.166112  0.166112  0.834151  1
  Zn  Zn3  1  0.829871  0.829871  0.670039  1
  Zn  Zn4  1  0.167376  0.167376  0.332752  1
  Ga  Ga5  1  0.836716  0.836716  0.163159  1
