# generated using pymatgen
data_Zr4Sc2TaNb3Al12Os7
_symmetry_space_group_name_H-M   'P 1'
_cell_length_a   8.88199179
_cell_length_b   8.88199197
_cell_length_c   8.88199200
_cell_angle_alpha   59.99923267
_cell_angle_beta   59.99923200
_cell_angle_gamma   59.99923278
_symmetry_Int_Tables_number   1
_chemical_formula_structural   Zr4Sc2TaNb3Al12Os7
_chemical_formula_sum   'Zr4 Sc2 Ta1 Nb3 Al12 Os7'
_cell_volume   495.45996320
_cell_formula_units_Z   1
loop_
 _symmetry_equiv_pos_site_id
 _symmetry_equiv_pos_as_xyz
  1  'x, y, z'
loop_
 _atom_site_type_symbol
 _atom_site_label
 _atom_site_symmetry_multiplicity
 _atom_site_fract_x
 _atom_site_fract_y
 _atom_site_fract_z
 _atom_site_occupancy
  Zr  Zr0  1  0.706859  0.706859  0.291367  1
  Zr  Zr1  1  0.299228  0.698909  0.298454  1
  Zr  Zr2  1  0.698909  0.299228  0.298454  1
  Zr  Zr3  1  0.296774  0.296774  0.699947  1
  Sc  Sc4  1  0.707223  0.291158  0.706252  1
  Sc  Sc5  1  0.291158  0.707223  0.706252  1
  Ta  Ta6  1  0.878931  0.878931  0.878284  1
  Nb  Nb7  1  0.879521  0.879521  0.361949  1
  Nb  Nb8  1  0.879326  0.362304  0.879182  1
  Nb  Nb9  1  0.362304  0.879326  0.879182  1
  Al  Al10  1  0.120783  0.120783  0.636638  1
  Al  Al11  1  0.121365  0.637123  0.120157  1
  Al  Al12  1  0.637123  0.121365  0.120157  1
  Al  Al13  1  0.121068  0.121068  0.120632  1
  Al  Al14  1  0.659662  0.659662  0.020672  1
  Al  Al15  1  0.659450  0.020449  0.659967  1
  Al  Al16  1  0.020449  0.659450  0.659967  1
  Al  Al17  1  0.662611  0.662611  0.663848  1
  Al  Al18  1  0.334736  0.334736  0.996056  1
  Al  Al19  1  0.333990  0.996057  0.335208  1
  Al  Al20  1  0.996057  0.333990  0.335208  1
  Al  Al21  1  0.334154  0.334154  0.335233  1
  Os  Os22  1  0.999644  0.999644  0.999475  1
  Os  Os23  1  0.997452  0.997452  0.503629  1
  Os  Os24  1  0.502578  0.994466  0.501788  1
  Os  Os25  1  0.994466  0.502578  0.501788  1
  Os  Os26  1  0.502334  0.502334  0.995274  1
  Os  Os27  1  0.998943  0.502901  0.997489  1
  Os  Os28  1  0.502901  0.998943  0.997489  1
