# generated using pymatgen
data_Er(TmC2)7
_symmetry_space_group_name_H-M   'P 1'
_cell_length_a   13.61547438
_cell_length_b   3.64774290
_cell_length_c   6.35694733
_cell_angle_alpha   74.94199325
_cell_angle_beta   90.02457979
_cell_angle_gamma   89.99508031
_symmetry_Int_Tables_number   1
_chemical_formula_structural   Er(TmC2)7
_chemical_formula_sum   'Er1 Tm7 C14'
_cell_volume   304.88165190
_cell_formula_units_Z   1
loop_
 _symmetry_equiv_pos_site_id
 _symmetry_equiv_pos_as_xyz
  1  'x, y, z'
loop_
 _atom_site_type_symbol
 _atom_site_label
 _atom_site_symmetry_multiplicity
 _atom_site_fract_x
 _atom_site_fract_y
 _atom_site_fract_z
 _atom_site_occupancy
  Er  Er0  1  0.445385  0.632499  0.239896  1
  Tm  Tm1  1  0.338635  0.945615  0.660519  1
  Tm  Tm2  1  0.661512  0.054237  0.340034  1
  Tm  Tm3  1  0.838701  0.054011  0.839843  1
  Tm  Tm4  1  0.161177  0.945803  0.160338  1
  Tm  Tm5  1  0.054292  0.632073  0.740522  1
  Tm  Tm6  1  0.945646  0.367926  0.259486  1
  Tm  Tm7  1  0.554565  0.368015  0.759648  1
  C  C8  1  0.895881  0.737609  0.548333  1
  C  C9  1  0.103921  0.261986  0.451658  1
  C  C10  1  0.395785  0.263355  0.949884  1
  C  C11  1  0.604579  0.738452  0.047688  1
  C  C12  1  0.214907  0.537915  0.925031  1
  C  C13  1  0.785203  0.461627  0.075386  1
  C  C14  1  0.715070  0.461981  0.575298  1
  C  C15  1  0.284523  0.537788  0.425568  1
  C  C16  1  0.803094  0.621455  0.545052  1
  C  C17  1  0.196629  0.378144  0.455454  1
  C  C18  1  0.302971  0.378319  0.954657  1
  C  C19  1  0.697236  0.621467  0.044871  1
  C  C20  1  0.500262  0.999748  0.500843  1
  C  C21  1  0.000024  0.999974  0.999992  1
