# generated using pymatgen
data_Pa4Ga19AgPt11
_symmetry_space_group_name_H-M   'P 1'
_cell_length_a   4.27738480
_cell_length_b   10.89032233
_cell_length_c   13.78024758
_cell_angle_alpha   82.23949141
_cell_angle_beta   80.91639882
_cell_angle_gamma   78.49716657
_symmetry_Int_Tables_number   1
_chemical_formula_structural   Pa4Ga19AgPt11
_chemical_formula_sum   'Pa4 Ga19 Ag1 Pt11'
_cell_volume   617.56456869
_cell_formula_units_Z   1
loop_
 _symmetry_equiv_pos_site_id
 _symmetry_equiv_pos_as_xyz
  1  'x, y, z'
loop_
 _atom_site_type_symbol
 _atom_site_label
 _atom_site_symmetry_multiplicity
 _atom_site_fract_x
 _atom_site_fract_y
 _atom_site_fract_z
 _atom_site_occupancy
  Pa  Pa0  1  0.122096  0.085174  0.670537  1
  Pa  Pa1  1  0.877905  0.914398  0.331707  1
  Pa  Pa2  1  0.773253  0.626479  0.821889  1
  Pa  Pa3  1  0.227420  0.373220  0.175906  1
  Ga  Ga4  1  0.983112  0.935363  0.094058  1
  Ga  Ga5  1  0.060520  0.678673  0.195129  1
  Ga  Ga6  1  0.938403  0.319612  0.805461  1
  Ga  Ga7  1  0.103590  0.342443  0.452711  1
  Ga  Ga8  1  0.897339  0.657866  0.547363  1
  Ga  Ga9  1  0.198635  0.603846  0.997092  1
  Ga  Ga10  1  0.801524  0.393041  0.003374  1
  Ga  Ga11  1  0.263210  0.776901  0.694028  1
  Ga  Ga12  1  0.737562  0.224593  0.305199  1
  Ga  Ga13  1  0.302402  0.900225  0.495397  1
  Ga  Ga14  1  0.699479  0.100474  0.504395  1
  Ga  Ga15  1  0.389054  0.520890  0.698004  1
  Ga  Ga16  1  0.610997  0.478427  0.302063  1
  Ga  Ga17  1  0.401078  0.197350  0.995458  1
  Ga  Ga18  1  0.602803  0.800416  0.999846  1
  Ga  Ga19  1  0.545164  0.286632  0.622513  1
  Ga  Ga20  1  0.456312  0.715618  0.372504  1
  Ga  Ga21  1  0.636424  0.930377  0.802263  1
  Ga  Ga22  1  0.360783  0.073201  0.203204  1
  Ag  Ag23  1  0.003264  0.067417  0.923958  1
  Pt  Pt24  1  0.502967  0.496146  0.497820  1
  Pt  Pt25  1  0.025088  0.578926  0.372224  1
  Pt  Pt26  1  0.972336  0.425022  0.628080  1
  Pt  Pt27  1  0.156657  0.813201  0.881056  1
  Pt  Pt28  1  0.848851  0.179507  0.118572  1
  Pt  Pt29  1  0.244200  0.126251  0.390591  1
  Pt  Pt30  1  0.758262  0.874086  0.608345  1
  Pt  Pt31  1  0.345520  0.421566  0.887795  1
  Pt  Pt32  1  0.653646  0.577545  0.111579  1
  Pt  Pt33  1  0.513552  0.170809  0.802721  1
  Pt  Pt34  1  0.486594  0.834305  0.187158  1
