# generated using pymatgen
data_Tb2DyIn3PtAu2
_symmetry_space_group_name_H-M   'P 1'
_cell_length_a   7.73985370
_cell_length_b   7.74573784
_cell_length_c   3.98144600
_cell_angle_alpha   90.00000000
_cell_angle_beta   90.00000000
_cell_angle_gamma   120.02342627
_symmetry_Int_Tables_number   1
_chemical_formula_structural   Tb2DyIn3PtAu2
_chemical_formula_sum   'Tb2 Dy1 In3 Pt1 Au2'
_cell_volume   206.66381356
_cell_formula_units_Z   1
loop_
 _symmetry_equiv_pos_site_id
 _symmetry_equiv_pos_as_xyz
  1  'x, y, z'
loop_
 _atom_site_type_symbol
 _atom_site_label
 _atom_site_symmetry_multiplicity
 _atom_site_fract_x
 _atom_site_fract_y
 _atom_site_fract_z
 _atom_site_occupancy
  Tb  Tb0  1  0.586945  0.989633  0.500000  1
  Tb  Tb1  1  0.402622  0.413101  0.500000  1
  Dy  Dy2  1  0.010520  0.597426  0.500000  1
  In  In3  1  0.737345  0.738102  0.000000  1
  In  In4  1  0.001009  0.263106  0.000000  1
  In  In5  1  0.261680  0.998708  0.000000  1
  Pt  Pt6  1  0.332598  0.666455  0.000000  1
  Au  Au7  1  0.667269  0.333790  0.000000  1
  Au  Au8  1  0.000011  0.999679  0.500000  1
