# generated using pymatgen
data_PrNd5FeBr10
_symmetry_space_group_name_H-M   'P 1'
_cell_length_a   7.68401897
_cell_length_b   9.48841151
_cell_length_c   9.50008956
_cell_angle_alpha   107.68813930
_cell_angle_beta   105.28399847
_cell_angle_gamma   96.44956570
_symmetry_Int_Tables_number   1
_chemical_formula_structural   PrNd5FeBr10
_chemical_formula_sum   'Pr1 Nd5 Fe1 Br10'
_cell_volume   622.44932246
_cell_formula_units_Z   1
loop_
 _symmetry_equiv_pos_site_id
 _symmetry_equiv_pos_as_xyz
  1  'x, y, z'
loop_
 _atom_site_type_symbol
 _atom_site_label
 _atom_site_symmetry_multiplicity
 _atom_site_fract_x
 _atom_site_fract_y
 _atom_site_fract_z
 _atom_site_occupancy
  Pr  Pr0  1  0.965995  0.089881  0.288156  1
  Nd  Nd1  1  0.361239  0.182898  0.133622  1
  Nd  Nd2  1  0.034598  0.911336  0.714644  1
  Nd  Nd3  1  0.124159  0.762238  0.049769  1
  Nd  Nd4  1  0.638430  0.816963  0.865322  1
  Nd  Nd5  1  0.874682  0.237598  0.950600  1
  Fe  Fe6  1  0.999375  0.999980  0.000379  1
  Br  Br7  1  0.454341  0.081334  0.821991  1
  Br  Br8  1  0.756401  0.546979  0.917564  1
  Br  Br9  1  0.242543  0.452017  0.079614  1
  Br  Br10  1  0.913564  0.171025  0.633346  1
  Br  Br11  1  0.658502  0.729673  0.553488  1
  Br  Br12  1  0.543654  0.917857  0.176434  1
  Br  Br13  1  0.087761  0.827609  0.368731  1
  Br  Br14  1  0.785564  0.346793  0.248964  1
  Br  Br15  1  0.212282  0.655169  0.750492  1
  Br  Br16  1  0.346905  0.270648  0.446882  1
