# generated using pymatgen
data_TaTi9Ge6P
_symmetry_space_group_name_H-M   'P 1'
_cell_length_a   7.74207500
_cell_length_b   7.74207557
_cell_length_c   5.24338000
_cell_angle_alpha   90.00000000
_cell_angle_beta   90.00000000
_cell_angle_gamma   120.00000183
_symmetry_Int_Tables_number   1
_chemical_formula_structural   TaTi9Ge6P
_chemical_formula_sum   'Ta1 Ti9 Ge6 P1'
_cell_volume   272.18033063
_cell_formula_units_Z   1
loop_
 _symmetry_equiv_pos_site_id
 _symmetry_equiv_pos_as_xyz
  1  'x, y, z'
loop_
 _atom_site_type_symbol
 _atom_site_label
 _atom_site_symmetry_multiplicity
 _atom_site_fract_x
 _atom_site_fract_y
 _atom_site_fract_z
 _atom_site_occupancy
  Ta  Ta0  1  0.666667  0.333333  0.500000  1
  Ti  Ti1  1  0.333333  0.666667  0.500000  1
  Ti  Ti2  1  0.333333  0.666667  0.000000  1
  Ti  Ti3  1  0.666667  0.333333  0.000000  1
  Ti  Ti4  1  0.742584  0.741090  0.242236  1
  Ti  Ti5  1  0.258910  0.001495  0.242236  1
  Ti  Ti6  1  0.998505  0.257416  0.242236  1
  Ti  Ti7  1  0.258910  0.257416  0.757764  1
  Ti  Ti8  1  0.742584  0.001495  0.757764  1
  Ti  Ti9  1  0.998505  0.741090  0.757764  1
  Ge  Ge10  1  0.390647  0.393350  0.246491  1
  Ge  Ge11  1  0.606650  0.997297  0.246491  1
  Ge  Ge12  1  0.002703  0.609353  0.246491  1
  Ge  Ge13  1  0.606650  0.609353  0.753509  1
  Ge  Ge14  1  0.390647  0.997297  0.753509  1
  Ge  Ge15  1  0.002703  0.393350  0.753509  1
  P  P16  1  0.000000  0.000000  0.500000  1
