# generated using pymatgen
data_Ca2Co9Tc3As7
_symmetry_space_group_name_H-M   'P 1'
_cell_length_a   3.82066900
_cell_length_b   9.37718352
_cell_length_c   9.37718500
_cell_angle_alpha   120.00000171
_cell_angle_beta   90.00000000
_cell_angle_gamma   90.00000000
_symmetry_Int_Tables_number   1
_chemical_formula_structural   Ca2Co9Tc3As7
_chemical_formula_sum   'Ca2 Co9 Tc3 As7'
_cell_volume   290.94770674
_cell_formula_units_Z   1
loop_
 _symmetry_equiv_pos_site_id
 _symmetry_equiv_pos_as_xyz
  1  'x, y, z'
loop_
 _atom_site_type_symbol
 _atom_site_label
 _atom_site_symmetry_multiplicity
 _atom_site_fract_x
 _atom_site_fract_y
 _atom_site_fract_z
 _atom_site_occupancy
  Ca  Ca0  1  0.000000  0.666667  0.333333  1
  Ca  Ca1  1  0.500000  0.333333  0.666667  1
  Co  Co2  1  0.000000  0.570784  0.943351  1
  Co  Co3  1  0.000000  0.372568  0.429216  1
  Co  Co4  1  0.000000  0.056649  0.627432  1
  Co  Co5  1  0.000000  0.876907  0.157057  1
  Co  Co6  1  0.000000  0.280149  0.123093  1
  Co  Co7  1  0.000000  0.842943  0.719851  1
  Co  Co8  1  0.500000  0.949776  0.382343  1
  Co  Co9  1  0.500000  0.432566  0.050224  1
  Co  Co10  1  0.500000  0.617657  0.567434  1
  Tc  Tc11  1  0.500000  0.783580  0.902692  1
  Tc  Tc12  1  0.500000  0.119112  0.216420  1
  Tc  Tc13  1  0.500000  0.097308  0.880888  1
  As  As14  1  0.000000  0.000000  0.000000  1
  As  As15  1  0.500000  0.707011  0.118319  1
  As  As16  1  0.500000  0.411309  0.292989  1
  As  As17  1  0.500000  0.881681  0.588691  1
  As  As18  1  0.000000  0.587552  0.701986  1
  As  As19  1  0.000000  0.114434  0.412448  1
  As  As20  1  0.000000  0.298014  0.885566  1
