# generated using pymatgen
data_Cs6Na4YTaAs6
_symmetry_space_group_name_H-M   'P 1'
_cell_length_a   11.24506400
_cell_length_b   11.24506622
_cell_length_c   16.98548800
_cell_angle_alpha   90.00000000
_cell_angle_beta   90.00000000
_cell_angle_gamma   143.06168613
_symmetry_Int_Tables_number   1
_chemical_formula_structural   Cs6Na4YTaAs6
_chemical_formula_sum   'Cs12 Na8 Y2 Ta2 As12'
_cell_volume   1290.75500206
_cell_formula_units_Z   2
loop_
 _symmetry_equiv_pos_site_id
 _symmetry_equiv_pos_as_xyz
  1  'x, y, z'
loop_
 _atom_site_type_symbol
 _atom_site_label
 _atom_site_symmetry_multiplicity
 _atom_site_fract_x
 _atom_site_fract_y
 _atom_site_fract_z
 _atom_site_occupancy
  Cs  Cs0  1  0.948770  0.608832  0.824014  1
  Cs  Cs1  1  0.551230  0.891168  0.324014  1
  Cs  Cs2  1  0.391168  0.051230  0.175986  1
  Cs  Cs3  1  0.049684  0.392129  0.174208  1
  Cs  Cs4  1  0.892129  0.549684  0.325792  1
  Cs  Cs5  1  0.450316  0.107871  0.674208  1
  Cs  Cs6  1  0.607871  0.950316  0.825792  1
  Cs  Cs7  1  0.282157  0.285114  0.316931  1
  Cs  Cs8  1  0.785114  0.782157  0.183069  1
  Cs  Cs9  1  0.217843  0.214886  0.816931  1
  Cs  Cs10  1  0.714886  0.717843  0.683069  1
  Cs  Cs11  1  0.108832  0.448770  0.675986  1
  Na  Na12  1  0.919192  0.080808  0.000000  1
  Na  Na13  1  0.580808  0.419192  0.500000  1
  Na  Na14  1  0.081133  0.918867  0.000000  1
  Na  Na15  1  0.418867  0.581133  0.500000  1
  Na  Na16  1  0.753518  0.246482  0.000000  1
  Na  Na17  1  0.746482  0.253518  0.500000  1
  Na  Na18  1  0.245703  0.754297  0.000000  1
  Na  Na19  1  0.254297  0.745703  0.500000  1
  Y  Y20  1  0.587178  0.412822  0.000000  1
  Y  Y21  1  0.912822  0.087178  0.500000  1
  Ta  Ta22  1  0.415377  0.584623  0.000000  1
  Ta  Ta23  1  0.084623  0.915377  0.500000  1
  As  As24  1  0.891986  0.570663  0.095949  1
  As  As25  1  0.429337  0.108014  0.904051  1
  As  As26  1  0.608014  0.929337  0.595949  1
  As  As27  1  0.947079  0.643608  0.586282  1
  As  As28  1  0.143608  0.447079  0.913718  1
  As  As29  1  0.552921  0.856392  0.086282  1
  As  As30  1  0.356392  0.052921  0.413718  1
  As  As31  1  0.208534  0.188257  0.583510  1
  As  As32  1  0.688257  0.708534  0.916490  1
  As  As33  1  0.291466  0.311743  0.083510  1
  As  As34  1  0.070663  0.391986  0.404051  1
  As  As35  1  0.811743  0.791466  0.416490  1
