# generated using pymatgen
data_Nd6Si4PtRh5
_symmetry_space_group_name_H-M   'P 1'
_cell_length_a   5.73441500
_cell_length_b   7.78157400
_cell_length_c   15.09193700
_cell_angle_alpha   90.00000000
_cell_angle_beta   90.00000000
_cell_angle_gamma   90.00000000
_symmetry_Int_Tables_number   1
_chemical_formula_structural   Nd6Si4PtRh5
_chemical_formula_sum   'Nd12 Si8 Pt2 Rh10'
_cell_volume   673.44410407
_cell_formula_units_Z   2
loop_
 _symmetry_equiv_pos_site_id
 _symmetry_equiv_pos_as_xyz
  1  'x, y, z'
loop_
 _atom_site_type_symbol
 _atom_site_label
 _atom_site_symmetry_multiplicity
 _atom_site_fract_x
 _atom_site_fract_y
 _atom_site_fract_z
 _atom_site_occupancy
  Nd  Nd0  1  0.137898  0.472342  0.893445  1
  Nd  Nd1  1  0.360833  0.970591  0.891428  1
  Nd  Nd2  1  0.607004  0.332676  0.750000  1
  Nd  Nd3  1  0.383240  0.668823  0.250000  1
  Nd  Nd4  1  0.637898  0.027658  0.393445  1
  Nd  Nd5  1  0.860833  0.529409  0.108572  1
  Nd  Nd6  1  0.860833  0.529409  0.391428  1
  Nd  Nd7  1  0.360833  0.970591  0.608572  1
  Nd  Nd8  1  0.883240  0.831177  0.750000  1
  Nd  Nd9  1  0.137898  0.472342  0.606555  1
  Nd  Nd10  1  0.637898  0.027658  0.106555  1
  Nd  Nd11  1  0.107004  0.167324  0.250000  1
  Si  Si12  1  0.362401  0.375515  0.097669  1
  Si  Si13  1  0.631989  0.625087  0.901637  1
  Si  Si14  1  0.862401  0.124485  0.902331  1
  Si  Si15  1  0.362401  0.375515  0.402331  1
  Si  Si16  1  0.862401  0.124485  0.597669  1
  Si  Si17  1  0.631989  0.625087  0.598363  1
  Si  Si18  1  0.131989  0.874913  0.401637  1
  Si  Si19  1  0.131989  0.874913  0.098363  1
  Pt  Pt20  1  0.589902  0.314394  0.250000  1
  Pt  Pt21  1  0.089902  0.185606  0.750000  1
  Rh  Rh22  1  0.601859  0.337299  0.963591  1
  Rh  Rh23  1  0.400679  0.664670  0.038431  1
  Rh  Rh24  1  0.400679  0.664670  0.461569  1
  Rh  Rh25  1  0.101859  0.162701  0.463591  1
  Rh  Rh26  1  0.428536  0.679838  0.750000  1
  Rh  Rh27  1  0.928536  0.820162  0.250000  1
  Rh  Rh28  1  0.101859  0.162701  0.036409  1
  Rh  Rh29  1  0.601859  0.337299  0.536409  1
  Rh  Rh30  1  0.900679  0.835330  0.538431  1
  Rh  Rh31  1  0.900679  0.835330  0.961569  1
