# generated using pymatgen
data_Tb4Sn4Sb2RuRh6
_symmetry_space_group_name_H-M   'P 1'
_cell_length_a   7.61494947
_cell_length_b   7.61261546
_cell_length_c   7.61261541
_cell_angle_alpha   109.35333002
_cell_angle_beta   109.52396491
_cell_angle_gamma   109.52396710
_symmetry_Int_Tables_number   1
_chemical_formula_structural   Tb4Sn4Sb2RuRh6
_chemical_formula_sum   'Tb4 Sn4 Sb2 Ru1 Rh6'
_cell_volume   339.76481099
_cell_formula_units_Z   1
loop_
 _symmetry_equiv_pos_site_id
 _symmetry_equiv_pos_as_xyz
  1  'x, y, z'
loop_
 _atom_site_type_symbol
 _atom_site_label
 _atom_site_symmetry_multiplicity
 _atom_site_fract_x
 _atom_site_fract_y
 _atom_site_fract_z
 _atom_site_occupancy
  Tb  Tb0  1  0.490940  0.998478  0.998478  1
  Tb  Tb1  1  0.997844  0.498922  0.998922  1
  Tb  Tb2  1  0.997844  0.998922  0.498922  1
  Tb  Tb3  1  0.490940  0.492462  0.492462  1
  Sn  Sn4  1  0.994004  0.313821  0.313821  1
  Sn  Sn5  1  0.688101  0.997052  0.691048  1
  Sn  Sn6  1  0.688101  0.691048  0.997052  1
  Sn  Sn7  1  0.994004  0.680184  0.680184  1
  Sb  Sb8  1  0.318962  0.997478  0.321484  1
  Sb  Sb9  1  0.318962  0.321484  0.997478  1
  Ru  Ru10  1  0.016321  0.008160  0.008160  1
  Rh  Rh11  1  0.502962  0.751481  0.251481  1
  Rh  Rh12  1  0.748325  0.501586  0.246738  1
  Rh  Rh13  1  0.250702  0.749166  0.501536  1
  Rh  Rh14  1  0.250702  0.501536  0.749166  1
  Rh  Rh15  1  0.502962  0.251481  0.751481  1
  Rh  Rh16  1  0.748325  0.246738  0.501586  1
