# generated using pymatgen
data_Th3Si4IrRh3
_symmetry_space_group_name_H-M   'P 1'
_cell_length_a   4.08444503
_cell_length_b   4.21984190
_cell_length_c   12.61755173
_cell_angle_alpha   80.37371084
_cell_angle_beta   80.68538357
_cell_angle_gamma   90.00000440
_symmetry_Int_Tables_number   1
_chemical_formula_structural   Th3Si4IrRh3
_chemical_formula_sum   'Th3 Si4 Ir1 Rh3'
_cell_volume   211.50134662
_cell_formula_units_Z   1
loop_
 _symmetry_equiv_pos_site_id
 _symmetry_equiv_pos_as_xyz
  1  'x, y, z'
loop_
 _atom_site_type_symbol
 _atom_site_label
 _atom_site_symmetry_multiplicity
 _atom_site_fract_x
 _atom_site_fract_y
 _atom_site_fract_z
 _atom_site_occupancy
  Th  Th0  1  0.000413  0.000413  0.999175  1
  Th  Th1  1  0.855109  0.355109  0.289785  1
  Th  Th2  1  0.144441  0.644441  0.711117  1
  Si  Si3  1  0.697609  0.197609  0.604783  1
  Si  Si4  1  0.302484  0.802484  0.395030  1
  Si  Si5  1  0.451072  0.451072  0.097856  1
  Si  Si6  1  0.548648  0.548648  0.902705  1
  Ir  Ir7  1  0.598556  0.098556  0.802888  1
  Rh  Rh8  1  0.401227  0.901227  0.197546  1
  Rh  Rh9  1  0.250036  0.250036  0.499930  1
  Rh  Rh10  1  0.750406  0.750406  0.499187  1
