# generated using pymatgen
data_Cs3Sc(AsSe2)6
_symmetry_space_group_name_H-M   'P 1'
_cell_length_a   9.96392400
_cell_length_b   9.96392460
_cell_length_c   8.70225500
_cell_angle_alpha   90.00000000
_cell_angle_beta   90.00000000
_cell_angle_gamma   119.99999800
_symmetry_Int_Tables_number   1
_chemical_formula_structural   Cs3Sc(AsSe2)6
_chemical_formula_sum   'Cs3 Sc1 As6 Se12'
_cell_volume   748.20961418
_cell_formula_units_Z   1
loop_
 _symmetry_equiv_pos_site_id
 _symmetry_equiv_pos_as_xyz
  1  'x, y, z'
loop_
 _atom_site_type_symbol
 _atom_site_label
 _atom_site_symmetry_multiplicity
 _atom_site_fract_x
 _atom_site_fract_y
 _atom_site_fract_z
 _atom_site_occupancy
  Cs  Cs0  1  0.000000  0.000000  0.000000  1
  Cs  Cs1  1  0.333333  0.666667  0.850324  1
  Cs  Cs2  1  0.666667  0.333333  0.149676  1
  Sc  Sc3  1  0.000000  0.000000  0.500000  1
  As  As4  1  0.282045  0.831514  0.387296  1
  As  As5  1  0.168486  0.450531  0.387296  1
  As  As6  1  0.549469  0.717955  0.387296  1
  As  As7  1  0.717955  0.168486  0.612704  1
  As  As8  1  0.831514  0.549469  0.612704  1
  As  As9  1  0.450531  0.282045  0.612704  1
  Se  Se10  1  0.243825  0.040984  0.316620  1
  Se  Se11  1  0.959016  0.202843  0.316620  1
  Se  Se12  1  0.797157  0.756175  0.316620  1
  Se  Se13  1  0.756175  0.959016  0.683380  1
  Se  Se14  1  0.040984  0.797157  0.683380  1
  Se  Se15  1  0.202843  0.243825  0.683380  1
  Se  Se16  1  0.520002  0.908991  0.231966  1
  Se  Se17  1  0.091009  0.611009  0.231966  1
  Se  Se18  1  0.388991  0.479998  0.231966  1
  Se  Se19  1  0.479998  0.091009  0.768034  1
  Se  Se20  1  0.908991  0.388991  0.768034  1
  Se  Se21  1  0.611009  0.520002  0.768034  1
