# generated using pymatgen
data_Li2PrNd3P4
_symmetry_space_group_name_H-M   'P 1'
_cell_length_a   4.17691200
_cell_length_b   4.17691072
_cell_length_c   14.57335700
_cell_angle_alpha   90.00000000
_cell_angle_beta   90.00000000
_cell_angle_gamma   119.99999430
_symmetry_Int_Tables_number   1
_chemical_formula_structural   Li2PrNd3P4
_chemical_formula_sum   'Li2 Pr1 Nd3 P4'
_cell_volume   220.19161582
_cell_formula_units_Z   1
loop_
 _symmetry_equiv_pos_site_id
 _symmetry_equiv_pos_as_xyz
  1  'x, y, z'
loop_
 _atom_site_type_symbol
 _atom_site_label
 _atom_site_symmetry_multiplicity
 _atom_site_fract_x
 _atom_site_fract_y
 _atom_site_fract_z
 _atom_site_occupancy
  Li  Li0  1  0.000000  0.000000  0.250321  1
  Li  Li1  1  0.000000  0.000000  0.750027  1
  Pr  Pr2  1  0.333333  0.666667  0.110662  1
  Nd  Nd3  1  0.333333  0.666667  0.389701  1
  Nd  Nd4  1  0.666667  0.333332  0.610497  1
  Nd  Nd5  1  0.666667  0.333332  0.889307  1
  P  P6  1  0.000000  0.000000  0.998816  1
  P  P7  1  0.666667  0.333332  0.250801  1
  P  P8  1  0.000000  0.000000  0.500023  1
  P  P9  1  0.333333  0.666667  0.749845  1
