# generated using pymatgen
data_CrPd3F20
_symmetry_space_group_name_H-M   'P 1'
_cell_length_a   5.65984775
_cell_length_b   7.95436702
_cell_length_c   8.49764665
_cell_angle_alpha   90.83338516
_cell_angle_beta   90.01623284
_cell_angle_gamma   90.05597441
_symmetry_Int_Tables_number   1
_chemical_formula_structural   CrPd3F20
_chemical_formula_sum   'Cr1 Pd3 F20'
_cell_volume   382.52768579
_cell_formula_units_Z   1
loop_
 _symmetry_equiv_pos_site_id
 _symmetry_equiv_pos_as_xyz
  1  'x, y, z'
loop_
 _atom_site_type_symbol
 _atom_site_label
 _atom_site_symmetry_multiplicity
 _atom_site_fract_x
 _atom_site_fract_y
 _atom_site_fract_z
 _atom_site_occupancy
  Cr  Cr0  1  0.750159  0.412235  0.251916  1
  Pd  Pd1  1  0.249937  0.601239  0.742550  1
  Pd  Pd2  1  0.249687  0.096423  0.256457  1
  Pd  Pd3  1  0.750068  0.904783  0.742222  1
  F  F4  1  0.750326  0.473529  0.447846  1
  F  F5  1  0.249934  0.206495  0.061187  1
  F  F6  1  0.250130  0.732738  0.929627  1
  F  F7  1  0.249824  0.003781  0.459917  1
  F  F8  1  0.001713  0.255095  0.336703  1
  F  F9  1  0.249723  0.488410  0.544821  1
  F  F10  1  0.750143  0.010255  0.543731  1
  F  F11  1  0.012240  0.457848  0.818264  1
  F  F12  1  0.527073  0.545288  0.190446  1
  F  F13  1  0.973249  0.545435  0.190413  1
  F  F14  1  0.487508  0.458088  0.818261  1
  F  F15  1  0.749879  0.277459  0.091490  1
  F  F16  1  0.498509  0.255115  0.336869  1
  F  F17  1  0.486507  0.945776  0.189038  1
  F  F18  1  0.749997  0.781186  0.930817  1
  F  F19  1  0.513271  0.051144  0.817209  1
  F  F20  1  0.987188  0.051333  0.817333  1
  F  F21  1  0.998825  0.750325  0.647018  1
  F  F22  1  0.501066  0.750354  0.646890  1
  F  F23  1  0.013044  0.945664  0.188974  1
