# generated using pymatgen
data_Ca13Sm(InN4)2
_symmetry_space_group_name_H-M   'P 1'
_cell_length_a   3.58645800
_cell_length_b   12.14390782
_cell_length_c   11.66797501
_cell_angle_alpha   90.04254838
_cell_angle_beta   90.00000000
_cell_angle_gamma   90.00000000
_symmetry_Int_Tables_number   1
_chemical_formula_structural   Ca13Sm(InN4)2
_chemical_formula_sum   'Ca13 Sm1 In2 N8'
_cell_volume   508.18235540
_cell_formula_units_Z   1
loop_
 _symmetry_equiv_pos_site_id
 _symmetry_equiv_pos_as_xyz
  1  'x, y, z'
loop_
 _atom_site_type_symbol
 _atom_site_label
 _atom_site_symmetry_multiplicity
 _atom_site_fract_x
 _atom_site_fract_y
 _atom_site_fract_z
 _atom_site_occupancy
  Ca  Ca0  1  0.500113  0.670579  0.238259  1
  Ca  Ca1  1  0.500113  0.329421  0.761741  1
  Ca  Ca2  1  0.500183  0.170182  0.264087  1
  Ca  Ca3  1  0.500183  0.829818  0.735913  1
  Ca  Ca4  1  0.500386  0.000000  0.500000  1
  Ca  Ca5  1  0.999201  0.929829  0.265176  1
  Ca  Ca6  1  0.999201  0.070171  0.734824  1
  Ca  Ca7  1  0.001444  0.425971  0.240621  1
  Ca  Ca8  1  0.001444  0.574029  0.759379  1
  Ca  Ca9  1  0.001484  0.766386  0.478454  1
  Ca  Ca10  1  0.001484  0.233614  0.521546  1
  Ca  Ca11  1  0.997994  0.260273  0.022785  1
  Ca  Ca12  1  0.997994  0.739727  0.977215  1
  Sm  Sm13  1  0.499550  0.500000  0.000000  1
  In  In14  1  0.531062  0.500000  0.500000  1
  In  In15  1  0.466756  0.000000  0.000000  1
  N  N16  1  0.000140  0.595812  0.122019  1
  N  N17  1  0.000140  0.404188  0.877981  1
  N  N18  1  0.000294  0.101827  0.370573  1
  N  N19  1  0.000294  0.898173  0.629427  1
  N  N20  1  0.500174  0.831285  0.356099  1
  N  N21  1  0.500174  0.168715  0.643901  1
  N  N22  1  0.500095  0.337107  0.138155  1
  N  N23  1  0.500095  0.662893  0.861845  1
