# generated using pymatgen
data_Y3HfAl16(GaIr3)2
_symmetry_space_group_name_H-M   'P 1'
_cell_length_a   7.53108280
_cell_length_b   7.52103313
_cell_length_c   9.44669400
_cell_angle_alpha   90.00000000
_cell_angle_beta   90.00000000
_cell_angle_gamma   119.54925591
_symmetry_Int_Tables_number   1
_chemical_formula_structural   Y3HfAl16(GaIr3)2
_chemical_formula_sum   'Y3 Hf1 Al16 Ga2 Ir6'
_cell_volume   465.47901059
_cell_formula_units_Z   1
loop_
 _symmetry_equiv_pos_site_id
 _symmetry_equiv_pos_as_xyz
  1  'x, y, z'
loop_
 _atom_site_type_symbol
 _atom_site_label
 _atom_site_symmetry_multiplicity
 _atom_site_fract_x
 _atom_site_fract_y
 _atom_site_fract_z
 _atom_site_occupancy
  Y  Y0  1  0.002122  0.323739  0.750000  1
  Y  Y1  1  0.671795  0.997753  0.250000  1
  Y  Y2  1  0.329762  0.009864  0.750000  1
  Hf  Hf3  1  0.998002  0.673171  0.250000  1
  Al  Al4  1  0.127186  0.124403  0.250000  1
  Al  Al5  1  0.000859  0.338615  0.079399  1
  Al  Al6  1  0.999223  0.665057  0.931415  1
  Al  Al7  1  0.999223  0.665057  0.568585  1
  Al  Al8  1  0.332825  0.997964  0.420967  1
  Al  Al9  1  0.000859  0.338615  0.420601  1
  Al  Al10  1  0.664032  0.996475  0.573170  1
  Al  Al11  1  0.664032  0.996475  0.926830  1
  Al  Al12  1  0.332825  0.997964  0.079033  1
  Al  Al13  1  0.334033  0.334707  0.546807  1
  Al  Al14  1  0.669300  0.667001  0.438399  1
  Al  Al15  1  0.669300  0.667001  0.061601  1
  Al  Al16  1  0.334033  0.334707  0.953193  1
  Al  Al17  1  0.334856  0.549555  0.250000  1
  Al  Al18  1  0.555363  0.344380  0.250000  1
  Al  Al19  1  0.448563  0.658285  0.750000  1
  Ga  Ga20  1  0.868996  0.866477  0.750000  1
  Ga  Ga21  1  0.659766  0.454110  0.750000  1
  Ir  Ir22  1  0.673093  0.328538  0.003311  1
  Ir  Ir23  1  0.328840  0.672108  0.001407  1
  Ir  Ir24  1  0.328840  0.672108  0.498593  1
  Ir  Ir25  1  0.673093  0.328538  0.496689  1
  Ir  Ir26  1  0.999588  0.998667  0.003862  1
  Ir  Ir27  1  0.999588  0.998667  0.496138  1
