# generated using pymatgen
data_Nd8AlZn7Rh8
_symmetry_space_group_name_H-M   'P 1'
_cell_length_a   4.01453900
_cell_length_b   7.36300711
_cell_length_c   16.61014837
_cell_angle_alpha   89.87859045
_cell_angle_beta   90.00000000
_cell_angle_gamma   90.00000000
_symmetry_Int_Tables_number   1
_chemical_formula_structural   Nd8AlZn7Rh8
_chemical_formula_sum   'Nd8 Al1 Zn7 Rh8'
_cell_volume   490.97958903
_cell_formula_units_Z   1
loop_
 _symmetry_equiv_pos_site_id
 _symmetry_equiv_pos_as_xyz
  1  'x, y, z'
loop_
 _atom_site_type_symbol
 _atom_site_label
 _atom_site_symmetry_multiplicity
 _atom_site_fract_x
 _atom_site_fract_y
 _atom_site_fract_z
 _atom_site_occupancy
  Nd  Nd0  1  0.250000  0.168971  0.940291  1
  Nd  Nd1  1  0.250000  0.664437  0.560695  1
  Nd  Nd2  1  0.750000  0.332826  0.436919  1
  Nd  Nd3  1  0.750000  0.950809  0.283764  1
  Nd  Nd4  1  0.750000  0.831337  0.060705  1
  Nd  Nd5  1  0.750000  0.452058  0.215443  1
  Nd  Nd6  1  0.250000  0.048120  0.718880  1
  Nd  Nd7  1  0.250000  0.549549  0.784120  1
  Al  Al8  1  0.750000  0.003773  0.560757  1
  Zn  Zn9  1  0.250000  0.626338  0.349112  1
  Zn  Zn10  1  0.750000  0.375264  0.652438  1
  Zn  Zn11  1  0.250000  0.498874  0.059976  1
  Zn  Zn12  1  0.750000  0.500907  0.940440  1
  Zn  Zn13  1  0.250000  0.997754  0.438164  1
  Zn  Zn14  1  0.250000  0.124351  0.150939  1
  Zn  Zn15  1  0.750000  0.875119  0.849710  1
  Rh  Rh16  1  0.750000  0.760422  0.437617  1
  Rh  Rh17  1  0.250000  0.246234  0.313433  1
  Rh  Rh18  1  0.750000  0.256308  0.813395  1
  Rh  Rh19  1  0.750000  0.763639  0.681545  1
  Rh  Rh20  1  0.250000  0.227983  0.564877  1
  Rh  Rh21  1  0.250000  0.745261  0.186972  1
  Rh  Rh22  1  0.750000  0.254596  0.065451  1
  Rh  Rh23  1  0.250000  0.745069  0.934358  1
