# generated using pymatgen
data_Ho4Er4B24IrRu3
_symmetry_space_group_name_H-M   'P 1'
_cell_length_a   3.64246100
_cell_length_b   9.11692767
_cell_length_c   11.47106985
_cell_angle_alpha   90.04399160
_cell_angle_beta   90.00000000
_cell_angle_gamma   90.00000000
_symmetry_Int_Tables_number   1
_chemical_formula_structural   Ho4Er4B24IrRu3
_chemical_formula_sum   'Ho4 Er4 B24 Ir1 Ru3'
_cell_volume   380.93178866
_cell_formula_units_Z   1
loop_
 _symmetry_equiv_pos_site_id
 _symmetry_equiv_pos_as_xyz
  1  'x, y, z'
loop_
 _atom_site_type_symbol
 _atom_site_label
 _atom_site_symmetry_multiplicity
 _atom_site_fract_x
 _atom_site_fract_y
 _atom_site_fract_z
 _atom_site_occupancy
  Ho  Ho0  1  0.000000  0.319452  0.414600  1
  Ho  Ho1  1  0.000000  0.678661  0.588564  1
  Ho  Ho2  1  0.000000  0.823305  0.084203  1
  Ho  Ho3  1  0.000000  0.178295  0.913465  1
  Er  Er4  1  0.000000  0.946014  0.373018  1
  Er  Er5  1  0.000000  0.055750  0.627117  1
  Er  Er6  1  0.000000  0.442134  0.125806  1
  Er  Er7  1  0.000000  0.555740  0.873043  1
  B  B8  1  0.500000  0.553795  0.433694  1
  B  B9  1  0.500000  0.445796  0.566908  1
  B  B10  1  0.500000  0.054334  0.066926  1
  B  B11  1  0.500000  0.945849  0.932991  1
  B  B12  1  0.500000  0.750019  0.420999  1
  B  B13  1  0.500000  0.251011  0.580094  1
  B  B14  1  0.500000  0.248504  0.079946  1
  B  B15  1  0.500000  0.751441  0.919993  1
  B  B16  1  0.500000  0.792644  0.265367  1
  B  B17  1  0.500000  0.208402  0.734004  1
  B  B18  1  0.500000  0.291877  0.234321  1
  B  B19  1  0.500000  0.708148  0.766037  1
  B  B20  1  0.500000  0.632143  0.183530  1
  B  B21  1  0.500000  0.368301  0.815057  1
  B  B22  1  0.500000  0.131990  0.315298  1
  B  B23  1  0.500000  0.867913  0.684975  1
  B  B24  1  0.500000  0.983420  0.213036  1
  B  B25  1  0.500000  0.016600  0.786840  1
  B  B26  1  0.500000  0.482148  0.286778  1
  B  B27  1  0.500000  0.516649  0.713209  1
  B  B28  1  0.500000  0.608416  0.030081  1
  B  B29  1  0.500000  0.391644  0.970275  1
  B  B30  1  0.500000  0.108227  0.470301  1
  B  B31  1  0.500000  0.891263  0.529424  1
  Ir  Ir32  1  0.000000  0.637747  0.321393  1
  Ru  Ru33  1  0.000000  0.362138  0.678499  1
  Ru  Ru34  1  0.000000  0.138419  0.179397  1
  Ru  Ru35  1  0.000000  0.861810  0.820814  1
