# generated using pymatgen
data_PrTa8GeS16
_symmetry_space_group_name_H-M   'P 1'
_cell_length_a   6.67783800
_cell_length_b   6.67783770
_cell_length_c   14.27559300
_cell_angle_alpha   90.00000000
_cell_angle_beta   90.00000000
_cell_angle_gamma   120.00000150
_symmetry_Int_Tables_number   1
_chemical_formula_structural   PrTa8GeS16
_chemical_formula_sum   'Pr1 Ta8 Ge1 S16'
_cell_volume   551.31082674
_cell_formula_units_Z   1
loop_
 _symmetry_equiv_pos_site_id
 _symmetry_equiv_pos_as_xyz
  1  'x, y, z'
loop_
 _atom_site_type_symbol
 _atom_site_label
 _atom_site_symmetry_multiplicity
 _atom_site_fract_x
 _atom_site_fract_y
 _atom_site_fract_z
 _atom_site_occupancy
  Pr  Pr0  1  0.000000  0.000000  0.500000  1
  Ta  Ta1  1  0.504041  0.495959  0.757602  1
  Ta  Ta2  1  0.008081  0.504041  0.242398  1
  Ta  Ta3  1  0.495959  0.991919  0.242398  1
  Ta  Ta4  1  0.504041  0.008081  0.757602  1
  Ta  Ta5  1  0.991919  0.495959  0.757602  1
  Ta  Ta6  1  0.495959  0.504041  0.242398  1
  Ta  Ta7  1  0.000000  0.000000  0.755444  1
  Ta  Ta8  1  0.000000  0.000000  0.244556  1
  Ge  Ge9  1  0.000000  0.000000  0.000000  1
  S  S10  1  0.831086  0.168914  0.353007  1
  S  S11  1  0.831086  0.662172  0.353007  1
  S  S12  1  0.337828  0.168914  0.353007  1
  S  S13  1  0.665993  0.832996  0.865812  1
  S  S14  1  0.168914  0.337828  0.646993  1
  S  S15  1  0.167004  0.832996  0.865812  1
  S  S16  1  0.167004  0.334007  0.865812  1
  S  S17  1  0.832996  0.167004  0.134188  1
  S  S18  1  0.334007  0.167004  0.134188  1
  S  S19  1  0.662172  0.831086  0.646993  1
  S  S20  1  0.333333  0.666667  0.131892  1
  S  S21  1  0.666667  0.333333  0.645646  1
  S  S22  1  0.666667  0.333333  0.868108  1
  S  S23  1  0.333333  0.666667  0.354354  1
  S  S24  1  0.832996  0.665993  0.134188  1
  S  S25  1  0.168914  0.831086  0.646993  1
