# generated using pymatgen
data_Eu4NiW3O14
_symmetry_space_group_name_H-M   'P 1'
_cell_length_a   7.55091593
_cell_length_b   7.40249042
_cell_length_c   7.55091800
_cell_angle_alpha   59.33447962
_cell_angle_beta   59.99999970
_cell_angle_gamma   59.33447712
_symmetry_Int_Tables_number   1
_chemical_formula_structural   Eu4NiW3O14
_chemical_formula_sum   'Eu4 Ni1 W3 O14'
_cell_volume   295.40611291
_cell_formula_units_Z   1
loop_
 _symmetry_equiv_pos_site_id
 _symmetry_equiv_pos_as_xyz
  1  'x, y, z'
loop_
 _atom_site_type_symbol
 _atom_site_label
 _atom_site_symmetry_multiplicity
 _atom_site_fract_x
 _atom_site_fract_y
 _atom_site_fract_z
 _atom_site_occupancy
  Eu  Eu0  1  0.125000  0.625000  0.125000  1
  Eu  Eu1  1  0.125000  0.125000  0.625000  1
  Eu  Eu2  1  0.625000  0.125000  0.125000  1
  Eu  Eu3  1  0.125000  0.125000  0.125000  1
  Ni  Ni4  1  0.625000  0.125000  0.625000  1
  W  W5  1  0.625000  0.625000  0.625000  1
  W  W6  1  0.125000  0.625000  0.625000  1
  W  W7  1  0.625000  0.625000  0.125000  1
  O  O8  1  0.298409  0.692882  0.710300  1
  O  O9  1  0.545625  0.943835  0.964914  1
  O  O10  1  0.710300  0.692882  0.298409  1
  O  O11  1  0.285086  0.306165  0.704375  1
  O  O12  1  0.998586  0.004243  0.998586  1
  O  O13  1  0.298409  0.692882  0.298409  1
  O  O14  1  0.704375  0.306165  0.704375  1
  O  O15  1  0.951591  0.557118  0.951591  1
  O  O16  1  0.539700  0.557118  0.951591  1
  O  O17  1  0.964914  0.943835  0.545625  1
  O  O18  1  0.251414  0.245757  0.251414  1
  O  O19  1  0.545625  0.943835  0.545625  1
  O  O20  1  0.704375  0.306165  0.285086  1
  O  O21  1  0.951591  0.557118  0.539700  1
