# generated using pymatgen
data_Hf4ZnTc24
_symmetry_space_group_name_H-M   'P 1'
_cell_length_a   8.38141959
_cell_length_b   8.38142064
_cell_length_c   8.38141900
_cell_angle_alpha   109.47122151
_cell_angle_beta   109.47122405
_cell_angle_gamma   109.47122151
_symmetry_Int_Tables_number   1
_chemical_formula_structural   Hf4ZnTc24
_chemical_formula_sum   'Hf4 Zn1 Tc24'
_cell_volume   453.24273691
_cell_formula_units_Z   1
loop_
 _symmetry_equiv_pos_site_id
 _symmetry_equiv_pos_as_xyz
  1  'x, y, z'
loop_
 _atom_site_type_symbol
 _atom_site_label
 _atom_site_symmetry_multiplicity
 _atom_site_fract_x
 _atom_site_fract_y
 _atom_site_fract_z
 _atom_site_occupancy
  Hf  Hf0  1  0.632674  0.000000  0.000000  1
  Hf  Hf1  1  0.000000  0.632674  0.000000  1
  Hf  Hf2  1  0.000000  0.000000  0.632674  1
  Hf  Hf3  1  0.367326  0.367326  0.367326  1
  Zn  Zn4  1  0.000000  0.000000  0.000000  1
  Tc  Tc5  1  0.392780  0.673890  0.000000  1
  Tc  Tc6  1  0.718890  0.326110  0.326110  1
  Tc  Tc7  1  0.392780  0.000000  0.673890  1
  Tc  Tc8  1  0.673890  0.392780  0.000000  1
  Tc  Tc9  1  0.000000  0.392780  0.673890  1
  Tc  Tc10  1  0.326110  0.718890  0.326110  1
  Tc  Tc11  1  0.326110  0.326110  0.718890  1
  Tc  Tc12  1  0.000000  0.673890  0.392780  1
  Tc  Tc13  1  0.673890  0.000000  0.392780  1
  Tc  Tc14  1  0.607220  0.607220  0.281110  1
  Tc  Tc15  1  0.281110  0.607220  0.607220  1
  Tc  Tc16  1  0.607220  0.281110  0.607220  1
  Tc  Tc17  1  0.373622  0.192968  0.000000  1
  Tc  Tc18  1  0.180654  0.807032  0.807032  1
  Tc  Tc19  1  0.373622  0.000000  0.192968  1
  Tc  Tc20  1  0.192968  0.373622  0.000000  1
  Tc  Tc21  1  0.000000  0.373622  0.192968  1
  Tc  Tc22  1  0.807032  0.180654  0.807032  1
  Tc  Tc23  1  0.807032  0.807032  0.180654  1
  Tc  Tc24  1  0.000000  0.192968  0.373622  1
  Tc  Tc25  1  0.192968  0.000000  0.373622  1
  Tc  Tc26  1  0.626378  0.626378  0.819346  1
  Tc  Tc27  1  0.819346  0.626378  0.626378  1
  Tc  Tc28  1  0.626378  0.819346  0.626378  1
