# generated using pymatgen
data_Hf6Ta(NbGa2)3
_symmetry_space_group_name_H-M   'P 1'
_cell_length_a   7.93431800
_cell_length_b   7.93431941
_cell_length_c   5.46225200
_cell_angle_alpha   90.00000000
_cell_angle_beta   90.00000000
_cell_angle_gamma   120.00000246
_symmetry_Int_Tables_number   1
_chemical_formula_structural   Hf6Ta(NbGa2)3
_chemical_formula_sum   'Hf6 Ta1 Nb3 Ga6'
_cell_volume   297.79790326
_cell_formula_units_Z   1
loop_
 _symmetry_equiv_pos_site_id
 _symmetry_equiv_pos_as_xyz
  1  'x, y, z'
loop_
 _atom_site_type_symbol
 _atom_site_label
 _atom_site_symmetry_multiplicity
 _atom_site_fract_x
 _atom_site_fract_y
 _atom_site_fract_z
 _atom_site_occupancy
  Hf  Hf0  1  0.753650  0.753601  0.249996  1
  Hf  Hf1  1  0.753650  0.000049  0.750004  1
  Hf  Hf2  1  0.999951  0.246350  0.249996  1
  Hf  Hf3  1  0.246399  0.246350  0.750004  1
  Hf  Hf4  1  0.246399  0.000049  0.249996  1
  Hf  Hf5  1  0.999951  0.753601  0.750004  1
  Ta  Ta6  1  0.666667  0.333333  0.000000  1
  Nb  Nb7  1  0.666667  0.333333  0.500000  1
  Nb  Nb8  1  0.333333  0.666667  0.500000  1
  Nb  Nb9  1  0.333333  0.666667  0.000000  1
  Ga  Ga10  1  0.603591  0.000088  0.249883  1
  Ga  Ga11  1  0.603591  0.603503  0.750117  1
  Ga  Ga12  1  0.999912  0.396409  0.750117  1
  Ga  Ga13  1  0.999912  0.603503  0.249883  1
  Ga  Ga14  1  0.396497  0.396409  0.249883  1
  Ga  Ga15  1  0.396497  0.000088  0.750117  1
