# generated using pymatgen
data_NaLuTi3Si7Pt9
_symmetry_space_group_name_H-M   'P 1'
_cell_length_a   9.90669200
_cell_length_b   9.90669069
_cell_length_c   3.91550800
_cell_angle_alpha   90.00000000
_cell_angle_beta   90.00000000
_cell_angle_gamma   119.99999771
_symmetry_Int_Tables_number   1
_chemical_formula_structural   NaLuTi3Si7Pt9
_chemical_formula_sum   'Na1 Lu1 Ti3 Si7 Pt9'
_cell_volume   332.79440916
_cell_formula_units_Z   1
loop_
 _symmetry_equiv_pos_site_id
 _symmetry_equiv_pos_as_xyz
  1  'x, y, z'
loop_
 _atom_site_type_symbol
 _atom_site_label
 _atom_site_symmetry_multiplicity
 _atom_site_fract_x
 _atom_site_fract_y
 _atom_site_fract_z
 _atom_site_occupancy
  Na  Na0  1  0.333333  0.666667  0.500000  1
  Lu  Lu1  1  0.000000  0.000000  0.000000  1
  Ti  Ti2  1  0.888720  0.455030  0.500000  1
  Ti  Ti3  1  0.566311  0.111280  0.500000  1
  Ti  Ti4  1  0.544970  0.433689  0.500000  1
  Si  Si5  1  0.251604  0.207389  0.500000  1
  Si  Si6  1  0.792611  0.044217  0.500000  1
  Si  Si7  1  0.955783  0.748396  0.500000  1
  Si  Si8  1  0.546583  0.637236  0.000000  1
  Si  Si9  1  0.362764  0.909347  0.000000  1
  Si  Si10  1  0.090653  0.453417  0.000000  1
  Si  Si11  1  0.666667  0.333333  0.000000  1
  Pt  Pt12  1  0.224308  0.945350  0.500000  1
  Pt  Pt13  1  0.054650  0.278959  0.500000  1
  Pt  Pt14  1  0.721041  0.775692  0.500000  1
  Pt  Pt15  1  0.304169  0.402640  0.000000  1
  Pt  Pt16  1  0.597360  0.901528  0.000000  1
  Pt  Pt17  1  0.098472  0.695831  0.000000  1
  Pt  Pt18  1  0.390484  0.172335  0.000000  1
  Pt  Pt19  1  0.827665  0.218150  0.000000  1
  Pt  Pt20  1  0.781850  0.609516  0.000000  1
