# generated using pymatgen
data_Tb3Lu3(BiO7)2
_symmetry_space_group_name_H-M   'P 1'
_cell_length_a   6.51753480
_cell_length_b   6.49885429
_cell_length_c   7.63656237
_cell_angle_alpha   106.92796234
_cell_angle_beta   89.75945983
_cell_angle_gamma   99.10091887
_symmetry_Int_Tables_number   1
_chemical_formula_structural   Tb3Lu3(BiO7)2
_chemical_formula_sum   'Tb3 Lu3 Bi2 O14'
_cell_volume   305.24759251
_cell_formula_units_Z   1
loop_
 _symmetry_equiv_pos_site_id
 _symmetry_equiv_pos_as_xyz
  1  'x, y, z'
loop_
 _atom_site_type_symbol
 _atom_site_label
 _atom_site_symmetry_multiplicity
 _atom_site_fract_x
 _atom_site_fract_y
 _atom_site_fract_z
 _atom_site_occupancy
  Tb  Tb0  1  0.725803  0.460722  0.115292  1
  Tb  Tb1  1  0.733184  0.476206  0.615286  1
  Tb  Tb2  1  0.265253  0.525011  0.387071  1
  Lu  Lu3  1  0.463369  0.006055  0.251382  1
  Lu  Lu4  1  0.535137  0.992696  0.748310  1
  Lu  Lu5  1  0.275054  0.539562  0.883643  1
  Bi  Bi6  1  0.001173  0.001949  0.501583  1
  Bi  Bi7  1  0.002119  0.000181  0.998700  1
  O  O8  1  0.444206  0.654806  0.163855  1
  O  O9  1  0.544340  0.343748  0.831351  1
  O  O10  1  0.305842  0.921368  0.950632  1
  O  O11  1  0.695897  0.074068  0.049344  1
  O  O12  1  0.303490  0.927985  0.514510  1
  O  O13  1  0.698209  0.071774  0.484654  1
  O  O14  1  0.542223  0.358255  0.343739  1
  O  O15  1  0.454452  0.641640  0.661082  1
  O  O16  1  0.930049  0.663563  0.956969  1
  O  O17  1  0.078473  0.335914  0.036040  1
  O  O18  1  0.072892  0.353334  0.625852  1
  O  O19  1  0.930474  0.649197  0.380410  1
  O  O20  1  0.866243  0.901877  0.724700  1
  O  O21  1  0.132118  0.100090  0.275594  1
