# generated using pymatgen
data_Sm6EuCoI12
_symmetry_space_group_name_H-M   'P 1'
_cell_length_a   9.92030926
_cell_length_b   9.92030853
_cell_length_c   9.92030937
_cell_angle_alpha   106.76752163
_cell_angle_beta   106.76751229
_cell_angle_gamma   106.76751975
_symmetry_Int_Tables_number   1
_chemical_formula_structural   Sm6EuCoI12
_chemical_formula_sum   'Sm6 Eu1 Co1 I12'
_cell_volume   818.15912925
_cell_formula_units_Z   1
loop_
 _symmetry_equiv_pos_site_id
 _symmetry_equiv_pos_as_xyz
  1  'x, y, z'
loop_
 _atom_site_type_symbol
 _atom_site_label
 _atom_site_symmetry_multiplicity
 _atom_site_fract_x
 _atom_site_fract_y
 _atom_site_fract_z
 _atom_site_occupancy
  Sm  Sm0  1  0.906736  0.979330  0.706120  1
  Sm  Sm1  1  0.706120  0.906736  0.979330  1
  Sm  Sm2  1  0.979330  0.706120  0.906736  1
  Sm  Sm3  1  0.093264  0.020670  0.293880  1
  Sm  Sm4  1  0.293880  0.093264  0.020670  1
  Sm  Sm5  1  0.020670  0.293880  0.093264  1
  Eu  Eu6  1  0.500000  0.500000  0.500000  1
  Co  Co7  1  0.000000  0.000000  0.000000  1
  I  I8  1  0.925369  0.320931  0.774577  1
  I  I9  1  0.774577  0.925369  0.320931  1
  I  I10  1  0.320931  0.774577  0.925369  1
  I  I11  1  0.074631  0.679069  0.225423  1
  I  I12  1  0.225423  0.074631  0.679069  1
  I  I13  1  0.679069  0.225423  0.074631  1
  I  I14  1  0.546823  0.856505  0.626234  1
  I  I15  1  0.626234  0.546823  0.856505  1
  I  I16  1  0.856505  0.626234  0.546823  1
  I  I17  1  0.453177  0.143495  0.373766  1
  I  I18  1  0.373766  0.453177  0.143495  1
  I  I19  1  0.143495  0.373766  0.453177  1
