# generated using pymatgen
data_Zr4NbTe4
_symmetry_space_group_name_H-M   'P 1'
_cell_length_a   7.83389497
_cell_length_b   7.83389455
_cell_length_c   7.83389426
_cell_angle_alpha   93.52394461
_cell_angle_beta   93.52394103
_cell_angle_gamma   151.29076720
_symmetry_Int_Tables_number   1
_chemical_formula_structural   Zr4NbTe4
_chemical_formula_sum   'Zr4 Nb1 Te4'
_cell_volume   223.73270108
_cell_formula_units_Z   1
loop_
 _symmetry_equiv_pos_site_id
 _symmetry_equiv_pos_as_xyz
  1  'x, y, z'
loop_
 _atom_site_type_symbol
 _atom_site_label
 _atom_site_symmetry_multiplicity
 _atom_site_fract_x
 _atom_site_fract_y
 _atom_site_fract_z
 _atom_site_occupancy
  Zr  Zr0  1  0.626458  0.314320  0.940778  1
  Zr  Zr1  1  0.373542  0.685680  0.059222  1
  Zr  Zr2  1  0.314320  0.373542  0.687862  1
  Zr  Zr3  1  0.685680  0.626458  0.312138  1
  Nb  Nb4  1  0.000000  0.000000  0.000000  1
  Te  Te5  1  0.717125  0.053381  0.770506  1
  Te  Te6  1  0.282875  0.946619  0.229494  1
  Te  Te7  1  0.053381  0.282875  0.336254  1
  Te  Te8  1  0.946619  0.717125  0.663746  1
