# generated using pymatgen
data_Na4DyRuO6
_symmetry_space_group_name_H-M   'P 1'
_cell_length_a   5.68277745
_cell_length_b   5.68277506
_cell_length_c   5.80764092
_cell_angle_alpha   99.25433855
_cell_angle_beta   99.25445154
_cell_angle_gamma   120.14153672
_symmetry_Int_Tables_number   1
_chemical_formula_structural   Na4DyRuO6
_chemical_formula_sum   'Na4 Dy1 Ru1 O6'
_cell_volume   153.53590730
_cell_formula_units_Z   1
loop_
 _symmetry_equiv_pos_site_id
 _symmetry_equiv_pos_as_xyz
  1  'x, y, z'
loop_
 _atom_site_type_symbol
 _atom_site_label
 _atom_site_symmetry_multiplicity
 _atom_site_fract_x
 _atom_site_fract_y
 _atom_site_fract_z
 _atom_site_occupancy
  Na  Na0  1  0.499208  0.500793  0.000000  1
  Na  Na1  1  0.015792  0.984209  0.500000  1
  Na  Na2  1  0.656374  0.343626  0.500001  1
  Na  Na3  1  0.334188  0.665812  0.500001  1
  Dy  Dy4  1  0.833534  0.166466  0.000000  1
  Ru  Ru5  1  0.166810  0.833191  0.000001  1
  O  O6  1  0.950458  0.601391  0.207400  1
  O  O7  1  0.534442  0.920288  0.212850  1
  O  O8  1  0.219961  0.189082  0.213123  1
  O  O9  1  0.810917  0.780039  0.786877  1
  O  O10  1  0.079713  0.465559  0.787150  1
  O  O11  1  0.398609  0.049543  0.792600  1
