# generated using pymatgen
data_Nd2Pa(SnRh)3
_symmetry_space_group_name_H-M   'P 1'
_cell_length_a   7.65633928
_cell_length_b   7.75693942
_cell_length_c   3.92819500
_cell_angle_alpha   90.00000000
_cell_angle_beta   90.00000000
_cell_angle_gamma   120.43560189
_symmetry_Int_Tables_number   1
_chemical_formula_structural   Nd2Pa(SnRh)3
_chemical_formula_sum   'Nd2 Pa1 Sn3 Rh3'
_cell_volume   201.14635056
_cell_formula_units_Z   1
loop_
 _symmetry_equiv_pos_site_id
 _symmetry_equiv_pos_as_xyz
  1  'x, y, z'
loop_
 _atom_site_type_symbol
 _atom_site_label
 _atom_site_symmetry_multiplicity
 _atom_site_fract_x
 _atom_site_fract_y
 _atom_site_fract_z
 _atom_site_occupancy
  Nd  Nd0  1  0.408433  0.407803  0.000000  1
  Nd  Nd1  1  0.591567  0.999370  0.000000  1
  Pa  Pa2  1  0.000000  0.585728  0.000000  1
  Sn  Sn3  1  0.738305  0.745094  0.500000  1
  Sn  Sn4  1  0.000000  0.243428  0.500000  1
  Sn  Sn5  1  0.261695  0.006789  0.500000  1
  Rh  Rh6  1  0.000000  0.981267  0.000000  1
  Rh  Rh7  1  0.709034  0.369777  0.500000  1
  Rh  Rh8  1  0.290966  0.660744  0.500000  1
