# generated using pymatgen
data_Y6Tm13Lu(Cd3Ru)2
_symmetry_space_group_name_H-M   'P 1'
_cell_length_a   9.52056600
_cell_length_b   9.52056685
_cell_length_c   9.73499000
_cell_angle_alpha   90.00000000
_cell_angle_beta   90.00000000
_cell_angle_gamma   119.99999703
_symmetry_Int_Tables_number   1
_chemical_formula_structural   Y6Tm13Lu(Cd3Ru)2
_chemical_formula_sum   'Y6 Tm13 Lu1 Cd6 Ru2'
_cell_volume   764.17307124
_cell_formula_units_Z   1
loop_
 _symmetry_equiv_pos_site_id
 _symmetry_equiv_pos_as_xyz
  1  'x, y, z'
loop_
 _atom_site_type_symbol
 _atom_site_label
 _atom_site_symmetry_multiplicity
 _atom_site_fract_x
 _atom_site_fract_y
 _atom_site_fract_z
 _atom_site_occupancy
  Y  Y0  1  0.540521  0.459479  0.249973  1
  Y  Y1  1  0.540521  0.081042  0.249973  1
  Y  Y2  1  0.918958  0.459479  0.249973  1
  Y  Y3  1  0.459479  0.540521  0.750027  1
  Y  Y4  1  0.459479  0.918958  0.750027  1
  Y  Y5  1  0.081042  0.540521  0.750027  1
  Tm  Tm6  1  0.000000  0.000000  0.500000  1
  Tm  Tm7  1  0.209997  0.790003  0.439960  1
  Tm  Tm8  1  0.209997  0.419995  0.439960  1
  Tm  Tm9  1  0.580005  0.790003  0.439960  1
  Tm  Tm10  1  0.790003  0.209997  0.560040  1
  Tm  Tm11  1  0.790003  0.580005  0.560040  1
  Tm  Tm12  1  0.419995  0.209997  0.560040  1
  Tm  Tm13  1  0.790113  0.209887  0.939967  1
  Tm  Tm14  1  0.790113  0.580224  0.939967  1
  Tm  Tm15  1  0.419776  0.209887  0.939967  1
  Tm  Tm16  1  0.209887  0.790113  0.060033  1
  Tm  Tm17  1  0.209887  0.419776  0.060033  1
  Tm  Tm18  1  0.580224  0.790113  0.060033  1
  Lu  Lu19  1  0.000000  0.000000  0.000000  1
  Cd  Cd20  1  0.886195  0.113805  0.249789  1
  Cd  Cd21  1  0.886195  0.772391  0.249789  1
  Cd  Cd22  1  0.227609  0.113805  0.249789  1
  Cd  Cd23  1  0.113805  0.886195  0.750211  1
  Cd  Cd24  1  0.113805  0.227609  0.750211  1
  Cd  Cd25  1  0.772391  0.886195  0.750211  1
  Ru  Ru26  1  0.333333  0.666667  0.249972  1
  Ru  Ru27  1  0.666667  0.333333  0.750028  1
