# generated using pymatgen
data_Tb2DyZn3RuAu2
_symmetry_space_group_name_H-M   'P 1'
_cell_length_a   7.45035212
_cell_length_b   7.44936086
_cell_length_c   3.85821100
_cell_angle_alpha   90.00000000
_cell_angle_beta   90.00000000
_cell_angle_gamma   119.98385276
_symmetry_Int_Tables_number   1
_chemical_formula_structural   Tb2DyZn3RuAu2
_chemical_formula_sum   'Tb2 Dy1 Zn3 Ru1 Au2'
_cell_volume   185.47400907
_cell_formula_units_Z   1
loop_
 _symmetry_equiv_pos_site_id
 _symmetry_equiv_pos_as_xyz
  1  'x, y, z'
loop_
 _atom_site_type_symbol
 _atom_site_label
 _atom_site_symmetry_multiplicity
 _atom_site_fract_x
 _atom_site_fract_y
 _atom_site_fract_z
 _atom_site_occupancy
  Tb  Tb0  1  0.581579  0.977657  0.000000  1
  Tb  Tb1  1  0.022331  0.603865  0.000000  1
  Dy  Dy2  1  0.395788  0.418236  0.000000  1
  Zn  Zn3  1  0.257708  0.987380  0.500000  1
  Zn  Zn4  1  0.013065  0.270540  0.500000  1
  Zn  Zn5  1  0.729287  0.742077  0.500000  1
  Ru  Ru6  1  0.333455  0.666332  0.500000  1
  Au  Au7  1  0.666324  0.333473  0.500000  1
  Au  Au8  1  0.000462  0.000441  0.000000  1
