# generated using pymatgen
data_CsV4Tc2Se7
_symmetry_space_group_name_H-M   'P 1'
_cell_length_a   9.54291102
_cell_length_b   9.59795363
_cell_length_c   9.55301000
_cell_angle_alpha   60.78554479
_cell_angle_beta   60.72072245
_cell_angle_gamma   60.53462540
_symmetry_Int_Tables_number   1
_chemical_formula_structural   CsV4Tc2Se7
_chemical_formula_sum   'Cs2 V8 Tc4 Se14'
_cell_volume   628.20138573
_cell_formula_units_Z   2
loop_
 _symmetry_equiv_pos_site_id
 _symmetry_equiv_pos_as_xyz
  1  'x, y, z'
loop_
 _atom_site_type_symbol
 _atom_site_label
 _atom_site_symmetry_multiplicity
 _atom_site_fract_x
 _atom_site_fract_y
 _atom_site_fract_z
 _atom_site_occupancy
  Cs  Cs0  1  0.120303  0.120339  0.122242  1
  Cs  Cs1  1  0.879479  0.884686  0.881694  1
  V  V2  1  0.690448  0.560360  0.383864  1
  V  V3  1  0.558623  0.385098  0.691720  1
  V  V4  1  0.383747  0.195503  0.499985  1
  V  V5  1  0.196568  0.494363  0.383587  1
  V  V6  1  0.502787  0.382360  0.192802  1
  V  V7  1  0.621061  0.821487  0.487295  1
  V  V8  1  0.824358  0.483771  0.619727  1
  V  V9  1  0.487296  0.621443  0.820422  1
  Tc  Tc10  1  0.619515  0.306841  0.436971  1
  Tc  Tc11  1  0.305283  0.439406  0.618000  1
  Tc  Tc12  1  0.435921  0.618770  0.306459  1
  Tc  Tc13  1  0.385919  0.693881  0.562609  1
  Se  Se14  1  0.665456  0.318485  0.912729  1
  Se  Se15  1  0.088179  0.316446  0.691120  1
  Se  Se16  1  0.279908  0.272222  0.272375  1
  Se  Se17  1  0.724783  0.719331  0.722145  1
  Se  Se18  1  0.865392  0.258464  0.515293  1
  Se  Se19  1  0.254113  0.519772  0.865566  1
  Se  Se20  1  0.511045  0.866768  0.258229  1
  Se  Se21  1  0.133176  0.740367  0.488100  1
  Se  Se22  1  0.738250  0.488539  0.135135  1
  Se  Se23  1  0.487757  0.137881  0.738081  1
  Se  Se24  1  0.317512  0.686106  0.087782  1
  Se  Se25  1  0.690147  0.086251  0.317620  1
  Se  Se26  1  0.915588  0.662450  0.317139  1
  Se  Se27  1  0.317390  0.918612  0.671311  1
