# generated using pymatgen
data_YbEr(BIr)8
_symmetry_space_group_name_H-M   'P 1'
_cell_length_a   7.61419800
_cell_length_b   7.61419800
_cell_length_c   4.00325700
_cell_angle_alpha   90.00000000
_cell_angle_beta   90.00000000
_cell_angle_gamma   90.00000000
_symmetry_Int_Tables_number   1
_chemical_formula_structural   YbEr(BIr)8
_chemical_formula_sum   'Yb1 Er1 B8 Ir8'
_cell_volume   232.09287260
_cell_formula_units_Z   1
loop_
 _symmetry_equiv_pos_site_id
 _symmetry_equiv_pos_as_xyz
  1  'x, y, z'
loop_
 _atom_site_type_symbol
 _atom_site_label
 _atom_site_symmetry_multiplicity
 _atom_site_fract_x
 _atom_site_fract_y
 _atom_site_fract_z
 _atom_site_occupancy
  Yb  Yb0  1  0.500000  0.500000  0.500000  1
  Er  Er1  1  0.000000  0.000000  0.000000  1
  B  B2  1  0.342902  0.777848  0.888815  1
  B  B3  1  0.657098  0.222152  0.888815  1
  B  B4  1  0.777848  0.657098  0.111185  1
  B  B5  1  0.222152  0.342902  0.111185  1
  B  B6  1  0.278684  0.157659  0.387993  1
  B  B7  1  0.721316  0.842341  0.387993  1
  B  B8  1  0.842341  0.278684  0.612007  1
  B  B9  1  0.157659  0.721316  0.612007  1
  Ir  Ir10  1  0.388974  0.155436  0.887449  1
  Ir  Ir11  1  0.611026  0.844564  0.887449  1
  Ir  Ir12  1  0.844564  0.388974  0.112551  1
  Ir  Ir13  1  0.155436  0.611026  0.112551  1
  Ir  Ir14  1  0.340617  0.888993  0.386192  1
  Ir  Ir15  1  0.659383  0.111007  0.386192  1
  Ir  Ir16  1  0.888993  0.659383  0.613808  1
  Ir  Ir17  1  0.111007  0.340617  0.613808  1
