# generated using pymatgen
data_Th8Si13Pd3
_symmetry_space_group_name_H-M   'P 1'
_cell_length_a   8.24802700
_cell_length_b   8.24802646
_cell_length_c   8.45798000
_cell_angle_alpha   90.00000000
_cell_angle_beta   90.00000000
_cell_angle_gamma   120.00000618
_symmetry_Int_Tables_number   1
_chemical_formula_structural   Th8Si13Pd3
_chemical_formula_sum   'Th8 Si13 Pd3'
_cell_volume   498.30744742
_cell_formula_units_Z   1
loop_
 _symmetry_equiv_pos_site_id
 _symmetry_equiv_pos_as_xyz
  1  'x, y, z'
loop_
 _atom_site_type_symbol
 _atom_site_label
 _atom_site_symmetry_multiplicity
 _atom_site_fract_x
 _atom_site_fract_y
 _atom_site_fract_z
 _atom_site_occupancy
  Th  Th0  1  0.497461  0.994923  0.242125  1
  Th  Th1  1  0.496980  0.993961  0.757898  1
  Th  Th2  1  0.005077  0.502539  0.242125  1
  Th  Th3  1  0.006039  0.503020  0.757898  1
  Th  Th4  1  0.497461  0.502539  0.242125  1
  Th  Th5  1  0.496980  0.503020  0.757898  1
  Th  Th6  1  0.000000  0.000000  0.247325  1
  Th  Th7  1  0.000000  0.000000  0.752610  1
  Si  Si8  1  0.333333  0.666667  0.000780  1
  Si  Si9  1  0.167995  0.335989  0.999901  1
  Si  Si10  1  0.834579  0.669159  0.000177  1
  Si  Si11  1  0.664011  0.832005  0.999901  1
  Si  Si12  1  0.834045  0.668092  0.500792  1
  Si  Si13  1  0.330841  0.165421  0.000177  1
  Si  Si14  1  0.164959  0.329920  0.499265  1
  Si  Si15  1  0.167995  0.832005  0.999901  1
  Si  Si16  1  0.331908  0.165955  0.500792  1
  Si  Si17  1  0.834579  0.165421  0.000177  1
  Si  Si18  1  0.670080  0.835041  0.499265  1
  Si  Si19  1  0.834045  0.165955  0.500792  1
  Si  Si20  1  0.164959  0.835041  0.499265  1
  Pd  Pd21  1  0.666667  0.333333  0.998768  1
  Pd  Pd22  1  0.666667  0.333333  0.500597  1
  Pd  Pd23  1  0.333333  0.666667  0.499443  1
