# generated using pymatgen
data_Hf12Zn9Pd3N4
_symmetry_space_group_name_H-M   'P 1'
_cell_length_a   8.51735563
_cell_length_b   8.51735569
_cell_length_c   8.51735590
_cell_angle_alpha   60.06243630
_cell_angle_beta   60.06243854
_cell_angle_gamma   60.06243948
_symmetry_Int_Tables_number   1
_chemical_formula_structural   Hf12Zn9Pd3N4
_chemical_formula_sum   'Hf12 Zn9 Pd3 N4'
_cell_volume   437.53568991
_cell_formula_units_Z   1
loop_
 _symmetry_equiv_pos_site_id
 _symmetry_equiv_pos_as_xyz
  1  'x, y, z'
loop_
 _atom_site_type_symbol
 _atom_site_label
 _atom_site_symmetry_multiplicity
 _atom_site_fract_x
 _atom_site_fract_y
 _atom_site_fract_z
 _atom_site_occupancy
  Hf  Hf0  1  0.813243  0.186885  0.186885  1
  Hf  Hf1  1  0.186885  0.813243  0.186885  1
  Hf  Hf2  1  0.813772  0.813772  0.184223  1
  Hf  Hf3  1  0.184223  0.813772  0.813772  1
  Hf  Hf4  1  0.813772  0.184223  0.813772  1
  Hf  Hf5  1  0.186885  0.186885  0.813243  1
  Hf  Hf6  1  0.436757  0.063115  0.063115  1
  Hf  Hf7  1  0.063115  0.436757  0.063115  1
  Hf  Hf8  1  0.436228  0.436228  0.065777  1
  Hf  Hf9  1  0.065777  0.436228  0.436228  1
  Hf  Hf10  1  0.436228  0.065777  0.436228  1
  Hf  Hf11  1  0.063115  0.063115  0.436757  1
  Zn  Zn12  1  0.417670  0.417670  0.749341  1
  Zn  Zn13  1  0.417380  0.417380  0.417380  1
  Zn  Zn14  1  0.749341  0.417670  0.417670  1
  Zn  Zn15  1  0.417670  0.749341  0.417670  1
  Zn  Zn16  1  0.832330  0.832330  0.500659  1
  Zn  Zn17  1  0.832620  0.832620  0.832620  1
  Zn  Zn18  1  0.500659  0.832330  0.832330  1
  Zn  Zn19  1  0.832330  0.500659  0.832330  1
  Zn  Zn20  1  0.625000  0.625000  0.625000  1
  Pd  Pd21  1  0.625000  0.625000  0.125000  1
  Pd  Pd22  1  0.125000  0.625000  0.625000  1
  Pd  Pd23  1  0.625000  0.125000  0.625000  1
  N  N24  1  0.125000  0.125000  0.625000  1
  N  N25  1  0.125000  0.125000  0.125000  1
  N  N26  1  0.625000  0.125000  0.125000  1
  N  N27  1  0.125000  0.625000  0.125000  1
