# generated using pymatgen
data_Gd2Er2HfIr3
_symmetry_space_group_name_H-M   'P 1'
_cell_length_a   10.78075000
_cell_length_b   10.78075000
_cell_length_c   6.22552900
_cell_angle_alpha   90.00000000
_cell_angle_beta   90.00000000
_cell_angle_gamma   90.00000000
_symmetry_Int_Tables_number   1
_chemical_formula_structural   Gd2Er2HfIr3
_chemical_formula_sum   'Gd8 Er8 Hf4 Ir12'
_cell_volume   723.55943455
_cell_formula_units_Z   4
loop_
 _symmetry_equiv_pos_site_id
 _symmetry_equiv_pos_as_xyz
  1  'x, y, z'
loop_
 _atom_site_type_symbol
 _atom_site_label
 _atom_site_symmetry_multiplicity
 _atom_site_fract_x
 _atom_site_fract_y
 _atom_site_fract_z
 _atom_site_occupancy
  Gd  Gd0  1  0.287179  0.087775  0.371363  1
  Gd  Gd1  1  0.287179  0.912225  0.871363  1
  Gd  Gd2  1  0.712821  0.087775  0.871363  1
  Gd  Gd3  1  0.712821  0.912225  0.371363  1
  Gd  Gd4  1  0.587775  0.787179  0.871363  1
  Gd  Gd5  1  0.587775  0.212821  0.371363  1
  Gd  Gd6  1  0.412225  0.787179  0.371363  1
  Gd  Gd7  1  0.412225  0.212821  0.871363  1
  Er  Er8  1  0.209778  0.415740  0.626007  1
  Er  Er9  1  0.209778  0.584260  0.126007  1
  Er  Er10  1  0.790222  0.415740  0.126007  1
  Er  Er11  1  0.790222  0.584260  0.626007  1
  Er  Er12  1  0.915740  0.709778  0.126007  1
  Er  Er13  1  0.915740  0.290222  0.626007  1
  Er  Er14  1  0.084260  0.709778  0.626007  1
  Er  Er15  1  0.084260  0.290222  0.126007  1
  Hf  Hf16  1  0.000000  0.000000  0.503081  1
  Hf  Hf17  1  0.000000  0.000000  0.003081  1
  Hf  Hf18  1  0.500000  0.500000  0.003081  1
  Hf  Hf19  1  0.500000  0.500000  0.503081  1
  Ir  Ir20  1  0.859241  0.145565  0.251371  1
  Ir  Ir21  1  0.859241  0.854435  0.751371  1
  Ir  Ir22  1  0.140759  0.145565  0.751371  1
  Ir  Ir23  1  0.140759  0.854435  0.251371  1
  Ir  Ir24  1  0.645565  0.359241  0.751371  1
  Ir  Ir25  1  0.645565  0.640759  0.251371  1
  Ir  Ir26  1  0.354435  0.359241  0.251371  1
  Ir  Ir27  1  0.354435  0.640759  0.751371  1
  Ir  Ir28  1  0.500000  0.000000  0.119301  1
  Ir  Ir29  1  0.500000  0.000000  0.619301  1
  Ir  Ir30  1  0.000000  0.500000  0.879566  1
  Ir  Ir31  1  0.000000  0.500000  0.379566  1
