# generated using pymatgen
data_Zr11Pa3Pd20
_symmetry_space_group_name_H-M   'P 1'
_cell_length_a   8.26757893
_cell_length_b   8.26028928
_cell_length_c   9.81144702
_cell_angle_alpha   90.09120907
_cell_angle_beta   90.10340837
_cell_angle_gamma   107.10657302
_symmetry_Int_Tables_number   1
_chemical_formula_structural   Zr11Pa3Pd20
_chemical_formula_sum   'Zr11 Pa3 Pd20'
_cell_volume   640.40308109
_cell_formula_units_Z   1
loop_
 _symmetry_equiv_pos_site_id
 _symmetry_equiv_pos_as_xyz
  1  'x, y, z'
loop_
 _atom_site_type_symbol
 _atom_site_label
 _atom_site_symmetry_multiplicity
 _atom_site_fract_x
 _atom_site_fract_y
 _atom_site_fract_z
 _atom_site_occupancy
  Zr  Zr0  1  0.686839  0.690935  0.311245  1
  Zr  Zr1  1  0.809168  0.188629  0.001026  1
  Zr  Zr2  1  0.997574  0.501614  0.751136  1
  Zr  Zr3  1  0.001395  0.498824  0.248286  1
  Zr  Zr4  1  0.807909  0.810806  0.812001  1
  Zr  Zr5  1  0.501438  0.499524  0.004795  1
  Zr  Zr6  1  0.499611  0.999544  0.250013  1
  Zr  Zr7  1  0.309096  0.694191  0.498359  1
  Zr  Zr8  1  0.504690  0.995853  0.751475  1
  Zr  Zr9  1  0.185272  0.188734  0.190319  1
  Zr  Zr10  1  0.996614  0.994223  0.499101  1
  Pa  Pa11  1  0.189052  0.810543  0.001120  1
  Pa  Pa12  1  0.694500  0.310313  0.497006  1
  Pa  Pa13  1  0.310826  0.313766  0.686796  1
  Pd  Pd14  1  0.894969  0.896344  0.104026  1
  Pd  Pd15  1  0.647277  0.351767  0.207338  1
  Pd  Pd16  1  0.062947  0.352768  0.497763  1
  Pd  Pd17  1  0.646609  0.354006  0.793271  1
  Pd  Pd18  1  0.853550  0.144064  0.292571  1
  Pd  Pd19  1  0.144309  0.852510  0.291986  1
  Pd  Pd20  1  0.603935  0.606081  0.602171  1
  Pd  Pd21  1  0.437124  0.145480  0.998354  1
  Pd  Pd22  1  0.354902  0.644964  0.793504  1
  Pd  Pd23  1  0.148972  0.856238  0.708475  1
  Pd  Pd24  1  0.146667  0.438029  0.999062  1
  Pd  Pd25  1  0.561315  0.852678  0.002550  1
  Pd  Pd26  1  0.939257  0.644031  0.500758  1
  Pd  Pd27  1  0.645454  0.938976  0.500542  1
  Pd  Pd28  1  0.104564  0.107152  0.895244  1
  Pd  Pd29  1  0.397139  0.398582  0.393605  1
  Pd  Pd30  1  0.853743  0.562158  0.002291  1
  Pd  Pd31  1  0.353605  0.062366  0.498243  1
  Pd  Pd32  1  0.856328  0.147632  0.707408  1
  Pd  Pd33  1  0.353349  0.646673  0.208159  1
