# generated using pymatgen
data_Ba3LuTc2O9
_symmetry_space_group_name_H-M   'P 1'
_cell_length_a   5.94702800
_cell_length_b   5.95016637
_cell_length_c   14.42459900
_cell_angle_alpha   90.00000000
_cell_angle_beta   90.00000000
_cell_angle_gamma   119.98440147
_symmetry_Int_Tables_number   1
_chemical_formula_structural   Ba3LuTc2O9
_chemical_formula_sum   'Ba6 Lu2 Tc4 O18'
_cell_volume   442.11140091
_cell_formula_units_Z   2
loop_
 _symmetry_equiv_pos_site_id
 _symmetry_equiv_pos_as_xyz
  1  'x, y, z'
loop_
 _atom_site_type_symbol
 _atom_site_label
 _atom_site_symmetry_multiplicity
 _atom_site_fract_x
 _atom_site_fract_y
 _atom_site_fract_z
 _atom_site_occupancy
  Ba  Ba0  1  0.666683  0.333355  0.593765  1
  Ba  Ba1  1  0.333317  0.666645  0.406235  1
  Ba  Ba2  1  0.666683  0.333355  0.906235  1
  Ba  Ba3  1  0.999961  0.999973  0.250000  1
  Ba  Ba4  1  0.333317  0.666645  0.093765  1
  Ba  Ba5  1  0.000039  0.000027  0.750000  1
  Lu  Lu6  1  0.000000  0.000000  0.500000  1
  Lu  Lu7  1  0.000000  0.000000  0.000000  1
  Tc  Tc8  1  0.333464  0.666840  0.663249  1
  Tc  Tc9  1  0.666536  0.333160  0.163249  1
  Tc  Tc10  1  0.333464  0.666840  0.836751  1
  Tc  Tc11  1  0.666536  0.333160  0.336751  1
  O  O12  1  0.826099  0.173700  0.413029  1
  O  O13  1  0.826236  0.652561  0.087003  1
  O  O14  1  0.652308  0.826210  0.586963  1
  O  O15  1  0.826099  0.173700  0.086971  1
  O  O16  1  0.173764  0.347439  0.912997  1
  O  O17  1  0.826236  0.652561  0.412997  1
  O  O18  1  0.509012  0.492048  0.250000  1
  O  O19  1  0.347692  0.173790  0.413037  1
  O  O20  1  0.173901  0.826300  0.913029  1
  O  O21  1  0.508475  0.016515  0.250000  1
  O  O22  1  0.173901  0.826300  0.586971  1
  O  O23  1  0.491525  0.983485  0.750000  1
  O  O24  1  0.017205  0.508288  0.750000  1
  O  O25  1  0.490988  0.507952  0.750000  1
  O  O26  1  0.173764  0.347439  0.587003  1
  O  O27  1  0.652308  0.826210  0.913037  1
  O  O28  1  0.982795  0.491712  0.250000  1
  O  O29  1  0.347692  0.173790  0.086963  1
