# generated using pymatgen
data_Tb6YbSm(Pt2Pb)4
_symmetry_space_group_name_H-M   'P 1'
_cell_length_a   7.95230749
_cell_length_b   7.95230690
_cell_length_c   7.30585700
_cell_angle_alpha   90.00000000
_cell_angle_beta   90.00000000
_cell_angle_gamma   90.39088969
_symmetry_Int_Tables_number   1
_chemical_formula_structural   Tb6YbSm(Pt2Pb)4
_chemical_formula_sum   'Tb6 Yb1 Sm1 Pt8 Pb4'
_cell_volume   462.00572507
_cell_formula_units_Z   1
loop_
 _symmetry_equiv_pos_site_id
 _symmetry_equiv_pos_as_xyz
  1  'x, y, z'
loop_
 _atom_site_type_symbol
 _atom_site_label
 _atom_site_symmetry_multiplicity
 _atom_site_fract_x
 _atom_site_fract_y
 _atom_site_fract_z
 _atom_site_occupancy
  Tb  Tb0  1  0.674406  0.673539  0.000000  1
  Tb  Tb1  1  0.336423  0.337716  0.500000  1
  Tb  Tb2  1  0.826356  0.173644  0.500000  1
  Tb  Tb3  1  0.662284  0.663577  0.500000  1
  Tb  Tb4  1  0.326461  0.325594  0.000000  1
  Tb  Tb5  1  0.175535  0.824465  0.500000  1
  Yb  Yb6  1  0.162563  0.837437  0.000000  1
  Sm  Sm7  1  0.835909  0.164091  0.000000  1
  Pt  Pt8  1  0.872134  0.871203  0.735666  1
  Pt  Pt9  1  0.128797  0.127866  0.735666  1
  Pt  Pt10  1  0.627174  0.372826  0.758373  1
  Pt  Pt11  1  0.627174  0.372826  0.241627  1
  Pt  Pt12  1  0.372942  0.627058  0.237133  1
  Pt  Pt13  1  0.128797  0.127866  0.264334  1
  Pt  Pt14  1  0.872134  0.871203  0.264334  1
  Pt  Pt15  1  0.372942  0.627058  0.762867  1
  Pb  Pb16  1  0.497322  0.998337  0.751491  1
  Pb  Pb17  1  0.497322  0.998337  0.248509  1
  Pb  Pb18  1  0.001663  0.502678  0.751491  1
  Pb  Pb19  1  0.001663  0.502678  0.248509  1
