# generated using pymatgen
data_Zr8Tc3Os4Rh
_symmetry_space_group_name_H-M   'P 1'
_cell_length_a   6.57202000
_cell_length_b   4.67124900
_cell_length_c   9.32845600
_cell_angle_alpha   90.00000000
_cell_angle_beta   89.99991599
_cell_angle_gamma   90.00000000
_symmetry_Int_Tables_number   1
_chemical_formula_structural   Zr8Tc3Os4Rh
_chemical_formula_sum   'Zr8 Tc3 Os4 Rh1'
_cell_volume   286.37932540
_cell_formula_units_Z   1
loop_
 _symmetry_equiv_pos_site_id
 _symmetry_equiv_pos_as_xyz
  1  'x, y, z'
loop_
 _atom_site_type_symbol
 _atom_site_label
 _atom_site_symmetry_multiplicity
 _atom_site_fract_x
 _atom_site_fract_y
 _atom_site_fract_z
 _atom_site_occupancy
  Zr  Zr0  1  0.003702  0.749999  0.125006  1
  Zr  Zr1  1  0.496387  0.749999  0.125008  1
  Zr  Zr2  1  0.001834  0.249999  0.377289  1
  Zr  Zr3  1  0.498284  0.249999  0.377295  1
  Zr  Zr4  1  0.500152  0.749999  0.625013  1
  Zr  Zr5  1  0.999728  0.749999  0.625018  1
  Zr  Zr6  1  0.498174  0.249999  0.872690  1
  Zr  Zr7  1  0.001728  0.249999  0.872693  1
  Tc  Tc8  1  0.250044  0.749999  0.373907  1
  Tc  Tc9  1  0.749954  0.249999  0.624997  1
  Tc  Tc10  1  0.249950  0.749999  0.876098  1
  Os  Os11  1  0.250047  0.249999  0.124991  1
  Os  Os12  1  0.750053  0.749999  0.374129  1
  Os  Os13  1  0.249958  0.249999  0.624994  1
  Os  Os14  1  0.749947  0.749999  0.875873  1
  Rh  Rh15  1  0.750058  0.249999  0.124999  1
