# generated using pymatgen
data_Pr2Be(PN2)7
_symmetry_space_group_name_H-M   'P 1'
_cell_length_a   7.55000501
_cell_length_b   7.78158280
_cell_length_c   5.27443584
_cell_angle_alpha   77.15181945
_cell_angle_beta   78.84990224
_cell_angle_gamma   68.58305834
_symmetry_Int_Tables_number   1
_chemical_formula_structural   Pr2Be(PN2)7
_chemical_formula_sum   'Pr2 Be1 P7 N14'
_cell_volume   279.10124769
_cell_formula_units_Z   1
loop_
 _symmetry_equiv_pos_site_id
 _symmetry_equiv_pos_as_xyz
  1  'x, y, z'
loop_
 _atom_site_type_symbol
 _atom_site_label
 _atom_site_symmetry_multiplicity
 _atom_site_fract_x
 _atom_site_fract_y
 _atom_site_fract_z
 _atom_site_occupancy
  Pr  Pr0  1  0.780778  0.208309  0.221032  1
  Pr  Pr1  1  0.200641  0.796880  0.777194  1
  Be  Be2  1  0.309448  0.457080  0.307429  1
  P  P3  1  0.543304  0.706213  0.192517  1
  P  P4  1  0.104541  0.258896  0.710218  1
  P  P5  1  0.729382  0.913807  0.791795  1
  P  P6  1  0.913001  0.745270  0.292775  1
  P  P7  1  0.264588  0.090657  0.220982  1
  P  P8  1  0.445768  0.297553  0.807535  1
  P  P9  1  0.719684  0.461087  0.597101  1
  N  N10  1  0.260751  0.368114  0.640944  1
  N  N11  1  0.592716  0.788404  0.887950  1
  N  N12  1  0.734046  0.648804  0.370232  1
  N  N13  1  0.389042  0.236737  0.126291  1
  N  N14  1  0.886518  0.395177  0.788917  1
  N  N15  1  0.618864  0.132207  0.674934  1
  N  N16  1  0.117575  0.616433  0.196989  1
  N  N17  1  0.375365  0.873303  0.333430  1
  N  N18  1  0.900760  0.847161  0.545130  1
  N  N19  1  0.152573  0.095958  0.975041  1
  N  N20  1  0.508509  0.512407  0.255984  1
  N  N21  1  0.514392  0.477562  0.778485  1
  N  N22  1  0.837966  0.913829  0.038062  1
  N  N23  1  0.099788  0.158151  0.469032  1
