# generated using pymatgen
data_La12Pr2Rh5Au
_symmetry_space_group_name_H-M   'P 1'
_cell_length_a   10.27231900
_cell_length_b   10.23414753
_cell_length_c   6.59702775
_cell_angle_alpha   90.24582120
_cell_angle_beta   90.00000000
_cell_angle_gamma   120.12346138
_symmetry_Int_Tables_number   1
_chemical_formula_structural   La12Pr2Rh5Au
_chemical_formula_sum   'La12 Pr2 Rh5 Au1'
_cell_volume   599.86307442
_cell_formula_units_Z   1
loop_
 _symmetry_equiv_pos_site_id
 _symmetry_equiv_pos_as_xyz
  1  'x, y, z'
loop_
 _atom_site_type_symbol
 _atom_site_label
 _atom_site_symmetry_multiplicity
 _atom_site_fract_x
 _atom_site_fract_y
 _atom_site_fract_z
 _atom_site_occupancy
  La  La0  1  0.877174  0.754349  0.785260  1
  La  La1  1  0.259032  0.117344  0.784496  1
  La  La2  1  0.858312  0.117344  0.784496  1
  La  La3  1  0.125599  0.251199  0.301425  1
  La  La4  1  0.750829  0.875597  0.283593  1
  La  La5  1  0.124768  0.875597  0.283593  1
  La  La6  1  0.457324  0.914648  0.589321  1
  La  La7  1  0.067973  0.544541  0.593328  1
  La  La8  1  0.476566  0.544541  0.593328  1
  La  La9  1  0.538889  0.077776  0.101509  1
  La  La10  1  0.920289  0.462324  0.094414  1
  La  La11  1  0.542036  0.462324  0.094414  1
  Pr  Pr12  1  0.665291  0.330581  0.563618  1
  Pr  Pr13  1  0.337032  0.674065  0.073396  1
  Rh  Rh14  1  0.625571  0.809395  0.828212  1
  Rh  Rh15  1  0.183823  0.809395  0.828212  1
  Rh  Rh16  1  0.813168  0.626339  0.333121  1
  Rh  Rh17  1  0.372908  0.189221  0.330446  1
  Rh  Rh18  1  0.816312  0.189221  0.330446  1
  Au  Au19  1  0.187100  0.374199  0.838422  1
