# generated using pymatgen
data_La6YbRuBr12
_symmetry_space_group_name_H-M   'P 1'
_cell_length_a   9.56239339
_cell_length_b   9.88113996
_cell_length_c   9.90285439
_cell_angle_alpha   107.65736311
_cell_angle_beta   107.23609850
_cell_angle_gamma   106.80888739
_symmetry_Int_Tables_number   1
_chemical_formula_structural   La6YbRuBr12
_chemical_formula_sum   'La6 Yb1 Ru1 Br12'
_cell_volume   774.19197543
_cell_formula_units_Z   1
loop_
 _symmetry_equiv_pos_site_id
 _symmetry_equiv_pos_as_xyz
  1  'x, y, z'
loop_
 _atom_site_type_symbol
 _atom_site_label
 _atom_site_symmetry_multiplicity
 _atom_site_fract_x
 _atom_site_fract_y
 _atom_site_fract_z
 _atom_site_occupancy
  La  La0  1  0.299356  0.102469  0.025694  1
  La  La1  1  0.024512  0.323183  0.113940  1
  La  La2  1  0.116342  0.027735  0.323540  1
  La  La3  1  0.883658  0.972265  0.676461  1
  La  La4  1  0.975488  0.676818  0.886061  1
  La  La5  1  0.700645  0.897531  0.974307  1
  Yb  Yb6  1  0.500000  0.500000  0.500000  1
  Ru  Ru7  1  0.000000  0.000000  0.000000  1
  Br  Br8  1  0.678870  0.214852  0.066493  1
  Br  Br9  1  0.380944  0.458331  0.177182  1
  Br  Br10  1  0.068089  0.683997  0.213035  1
  Br  Br11  1  0.785535  0.932594  0.315873  1
  Br  Br12  1  0.466043  0.177981  0.382526  1
  Br  Br13  1  0.170426  0.378093  0.459272  1
  Br  Br14  1  0.829574  0.621908  0.540728  1
  Br  Br15  1  0.533957  0.822020  0.617474  1
  Br  Br16  1  0.214466  0.067407  0.684127  1
  Br  Br17  1  0.931911  0.316003  0.786966  1
  Br  Br18  1  0.619057  0.541669  0.822818  1
  Br  Br19  1  0.321131  0.785148  0.933507  1
