# generated using pymatgen
data_Rb4Na2TmGaAs4
_symmetry_space_group_name_H-M   'P 1'
_cell_length_a   9.41204562
_cell_length_b   9.41204628
_cell_length_c   9.41204526
_cell_angle_alpha   135.89780165
_cell_angle_beta   62.57120475
_cell_angle_gamma   137.94878080
_symmetry_Int_Tables_number   1
_chemical_formula_structural   Rb4Na2TmGaAs4
_chemical_formula_sum   'Rb4 Na2 Tm1 Ga1 As4'
_cell_volume   383.91662689
_cell_formula_units_Z   1
loop_
 _symmetry_equiv_pos_site_id
 _symmetry_equiv_pos_as_xyz
  1  'x, y, z'
loop_
 _atom_site_type_symbol
 _atom_site_label
 _atom_site_symmetry_multiplicity
 _atom_site_fract_x
 _atom_site_fract_y
 _atom_site_fract_z
 _atom_site_occupancy
  Rb  Rb0  1  0.815104  0.257984  0.090558  1
  Rb  Rb1  1  0.684896  0.775454  0.442880  1
  Rb  Rb2  1  0.332574  0.242016  0.557120  1
  Rb  Rb3  1  0.167426  0.724547  0.909443  1
  Na  Na4  1  0.749999  0.249999  0.500000  1
  Na  Na5  1  0.249999  0.749999  0.499999  1
  Tm  Tm6  1  0.249999  0.249999  0.000000  1
  Ga  Ga7  1  0.750000  0.750000  0.000000  1
  As  As8  1  0.421376  0.727001  0.117866  1
  As  As9  1  0.078625  0.196490  0.305626  1
  As  As10  1  0.890864  0.772998  0.694374  1
  As  As11  1  0.609137  0.303509  0.882134  1
