# generated using pymatgen
data_Rb2SmPa(AuSe3)2
_symmetry_space_group_name_H-M   'P 1'
_cell_length_a   8.05197704
_cell_length_b   8.05197698
_cell_length_c   10.82188100
_cell_angle_alpha   89.17978326
_cell_angle_beta   89.17978327
_cell_angle_gamma   30.45943286
_symmetry_Int_Tables_number   1
_chemical_formula_structural   Rb2SmPa(AuSe3)2
_chemical_formula_sum   'Rb2 Sm1 Pa1 Au2 Se6'
_cell_volume   355.63658930
_cell_formula_units_Z   1
loop_
 _symmetry_equiv_pos_site_id
 _symmetry_equiv_pos_as_xyz
  1  'x, y, z'
loop_
 _atom_site_type_symbol
 _atom_site_label
 _atom_site_symmetry_multiplicity
 _atom_site_fract_x
 _atom_site_fract_y
 _atom_site_fract_z
 _atom_site_occupancy
  Rb  Rb0  1  0.748249  0.748249  0.236318  1
  Rb  Rb1  1  0.251751  0.251751  0.763681  1
  Sm  Sm2  1  0.000000  0.000000  0.000000  1
  Pa  Pa3  1  0.000000  0.000000  0.500001  1
  Au  Au4  1  0.455248  0.455248  0.249493  1
  Au  Au5  1  0.544752  0.544752  0.750506  1
  Se  Se6  1  0.065422  0.065422  0.261109  1
  Se  Se7  1  0.934578  0.934578  0.738890  1
  Se  Se8  1  0.372001  0.372001  0.047173  1
  Se  Se9  1  0.621104  0.621104  0.535147  1
  Se  Se10  1  0.627999  0.627999  0.952826  1
  Se  Se11  1  0.378896  0.378896  0.464853  1
