# generated using pymatgen
data_Ac8Ho11MgPb16
_symmetry_space_group_name_H-M   'P 1'
_cell_length_a   8.36002600
_cell_length_b   8.45804545
_cell_length_c   16.04808700
_cell_angle_alpha   90.00000000
_cell_angle_beta   90.00000000
_cell_angle_gamma   89.75166014
_symmetry_Int_Tables_number   1
_chemical_formula_structural   Ac8Ho11MgPb16
_chemical_formula_sum   'Ac8 Ho11 Mg1 Pb16'
_cell_volume   1134.74122549
_cell_formula_units_Z   1
loop_
 _symmetry_equiv_pos_site_id
 _symmetry_equiv_pos_as_xyz
  1  'x, y, z'
loop_
 _atom_site_type_symbol
 _atom_site_label
 _atom_site_symmetry_multiplicity
 _atom_site_fract_x
 _atom_site_fract_y
 _atom_site_fract_z
 _atom_site_occupancy
  Ac  Ac0  1  0.508587  0.327215  0.905617  1
  Ac  Ac1  1  0.016345  0.181518  0.596373  1
  Ac  Ac2  1  0.486897  0.674649  0.404961  1
  Ac  Ac3  1  0.984186  0.825160  0.094681  1
  Ac  Ac4  1  0.486897  0.674649  0.095039  1
  Ac  Ac5  1  0.984186  0.825160  0.405319  1
  Ac  Ac6  1  0.508587  0.327215  0.594383  1
  Ac  Ac7  1  0.016345  0.181518  0.903627  1
  Ho  Ho8  1  0.353471  0.838150  0.876806  1
  Ho  Ho9  1  0.858716  0.658702  0.625170  1
  Ho  Ho10  1  0.646684  0.156859  0.376725  1
  Ho  Ho11  1  0.147707  0.338959  0.124369  1
  Ho  Ho12  1  0.646684  0.156859  0.123275  1
  Ho  Ho13  1  0.147707  0.338959  0.375631  1
  Ho  Ho14  1  0.353471  0.838150  0.623194  1
  Ho  Ho15  1  0.858716  0.658702  0.874830  1
  Ho  Ho16  1  0.689595  0.993899  0.750000  1
  Ho  Ho17  1  0.811448  0.493353  0.250000  1
  Ho  Ho18  1  0.309787  0.003288  0.250000  1
  Mg  Mg19  1  0.188820  0.509958  0.750000  1
  Pb  Pb20  1  0.309848  0.044751  0.044735  1
  Pb  Pb21  1  0.811538  0.451391  0.456410  1
  Pb  Pb22  1  0.691147  0.955831  0.546965  1
  Pb  Pb23  1  0.187592  0.550702  0.958355  1
  Pb  Pb24  1  0.691147  0.955831  0.953035  1
  Pb  Pb25  1  0.187592  0.550702  0.541645  1
  Pb  Pb26  1  0.309848  0.044751  0.455265  1
  Pb  Pb27  1  0.811538  0.451391  0.043590  1
  Pb  Pb28  1  0.549940  0.633244  0.750000  1
  Pb  Pb29  1  0.052921  0.869491  0.750000  1
  Pb  Pb30  1  0.451241  0.362917  0.250000  1
  Pb  Pb31  1  0.950662  0.135128  0.250000  1
  Pb  Pb32  1  0.328326  0.137406  0.750000  1
  Pb  Pb33  1  0.811129  0.356013  0.750000  1
  Pb  Pb34  1  0.674986  0.855605  0.250000  1
  Pb  Pb35  1  0.175712  0.641928  0.250000  1
