# generated using pymatgen
data_Ho9ErSi5Bi
_symmetry_space_group_name_H-M   'P 1'
_cell_length_a   8.49176104
_cell_length_b   8.53337467
_cell_length_c   6.32994401
_cell_angle_alpha   90.00152137
_cell_angle_beta   90.00390527
_cell_angle_gamma   119.82793892
_symmetry_Int_Tables_number   1
_chemical_formula_structural   Ho9ErSi5Bi
_chemical_formula_sum   'Ho9 Er1 Si5 Bi1'
_cell_volume   397.92337337
_cell_formula_units_Z   1
loop_
 _symmetry_equiv_pos_site_id
 _symmetry_equiv_pos_as_xyz
  1  'x, y, z'
loop_
 _atom_site_type_symbol
 _atom_site_label
 _atom_site_symmetry_multiplicity
 _atom_site_fract_x
 _atom_site_fract_y
 _atom_site_fract_z
 _atom_site_occupancy
  Ho  Ho0  1  0.984913  0.744917  0.749930  1
  Ho  Ho1  1  0.998165  0.243233  0.250103  1
  Ho  Ho2  1  0.754834  0.756861  0.250141  1
  Ho  Ho3  1  0.767824  0.999911  0.749919  1
  Ho  Ho4  1  0.239952  0.255190  0.749894  1
  Ho  Ho5  1  0.240252  0.999936  0.250061  1
  Ho  Ho6  1  0.677021  0.346493  0.004981  1
  Ho  Ho7  1  0.676964  0.346364  0.495029  1
  Ho  Ho8  1  0.330538  0.653539  0.004915  1
  Er  Er9  1  0.330566  0.653429  0.495022  1
  Si  Si10  1  0.392951  0.390607  0.250399  1
  Si  Si11  1  0.003068  0.609759  0.250330  1
  Si  Si12  1  0.999009  0.394790  0.749668  1
  Si  Si13  1  0.603895  0.605592  0.749635  1
  Si  Si14  1  0.606650  0.999721  0.250224  1
  Bi  Bi15  1  0.393398  0.999659  0.749751  1
