# generated using pymatgen
data_Dy6Lu6CuNi4Sn
_symmetry_space_group_name_H-M   'P 1'
_cell_length_a   8.24236175
_cell_length_b   8.24236138
_cell_length_c   8.24236248
_cell_angle_alpha   111.94039844
_cell_angle_beta   109.58492492
_cell_angle_gamma   106.92708966
_symmetry_Int_Tables_number   1
_chemical_formula_structural   Dy6Lu6CuNi4Sn
_chemical_formula_sum   'Dy6 Lu6 Cu1 Ni4 Sn1'
_cell_volume   430.23076275
_cell_formula_units_Z   1
loop_
 _symmetry_equiv_pos_site_id
 _symmetry_equiv_pos_as_xyz
  1  'x, y, z'
loop_
 _atom_site_type_symbol
 _atom_site_label
 _atom_site_symmetry_multiplicity
 _atom_site_fract_x
 _atom_site_fract_y
 _atom_site_fract_z
 _atom_site_occupancy
  Dy  Dy0  1  0.322907  0.129263  0.806356  1
  Dy  Dy1  1  0.677093  0.483450  0.806356  1
  Dy  Dy2  1  0.180902  0.205687  0.386589  1
  Dy  Dy3  1  0.819098  0.205687  0.024783  1
  Dy  Dy4  1  0.183003  0.792530  0.975535  1
  Dy  Dy5  1  0.816997  0.792530  0.609527  1
  Lu  Lu6  1  0.023271  0.717519  0.304896  1
  Lu  Lu7  1  0.976729  0.281627  0.694249  1
  Lu  Lu8  1  0.587378  0.281627  0.304896  1
  Lu  Lu9  1  0.412622  0.717519  0.694249  1
  Lu  Lu10  1  0.676022  0.868890  0.192867  1
  Lu  Lu11  1  0.323978  0.516844  0.192867  1
  Cu  Cu12  1  0.000000  0.499081  0.499081  1
  Ni  Ni13  1  0.639442  0.503890  0.143331  1
  Ni  Ni14  1  0.360558  0.503890  0.864448  1
  Ni  Ni15  1  0.872719  0.873813  0.001094  1
  Ni  Ni16  1  0.127281  0.128375  0.001094  1
  Sn  Sn17  1  0.500000  0.997780  0.497780  1
