# generated using pymatgen
data_Ho2Er(SiIr)2
_symmetry_space_group_name_H-M   'P 1'
_cell_length_a   5.55453919
_cell_length_b   5.55453941
_cell_length_c   13.19368800
_cell_angle_alpha   90.00000000
_cell_angle_beta   90.00000000
_cell_angle_gamma   136.95358044
_symmetry_Int_Tables_number   1
_chemical_formula_structural   Ho2Er(SiIr)2
_chemical_formula_sum   'Ho4 Er2 Si4 Ir4'
_cell_volume   277.85782932
_cell_formula_units_Z   2
loop_
 _symmetry_equiv_pos_site_id
 _symmetry_equiv_pos_as_xyz
  1  'x, y, z'
loop_
 _atom_site_type_symbol
 _atom_site_label
 _atom_site_symmetry_multiplicity
 _atom_site_fract_x
 _atom_site_fract_y
 _atom_site_fract_z
 _atom_site_occupancy
  Ho  Ho0  1  0.774184  0.225816  0.604429  1
  Ho  Ho1  1  0.225816  0.774184  0.395571  1
  Ho  Ho2  1  0.774184  0.225816  0.895571  1
  Ho  Ho3  1  0.225816  0.774184  0.104429  1
  Er  Er4  1  0.517657  0.482343  0.250000  1
  Er  Er5  1  0.482343  0.517657  0.750000  1
  Si  Si6  1  0.061821  0.938179  0.590403  1
  Si  Si7  1  0.061821  0.938179  0.909597  1
  Si  Si8  1  0.938179  0.061821  0.409597  1
  Si  Si9  1  0.938179  0.061821  0.090403  1
  Ir  Ir10  1  0.811150  0.188850  0.250000  1
  Ir  Ir11  1  0.188850  0.811150  0.750000  1
  Ir  Ir12  1  0.500000  0.500000  0.000000  1
  Ir  Ir13  1  0.500000  0.500000  0.500000  1
