# generated using pymatgen
data_CeZn4IrAu
_symmetry_space_group_name_H-M   'P 1'
_cell_length_a   5.10931900
_cell_length_b   8.48147600
_cell_length_c   11.10813100
_cell_angle_alpha   90.00000000
_cell_angle_beta   90.00000000
_cell_angle_gamma   90.00000000
_symmetry_Int_Tables_number   1
_chemical_formula_structural   CeZn4IrAu
_chemical_formula_sum   'Ce4 Zn16 Ir4 Au4'
_cell_volume   481.36604123
_cell_formula_units_Z   4
loop_
 _symmetry_equiv_pos_site_id
 _symmetry_equiv_pos_as_xyz
  1  'x, y, z'
loop_
 _atom_site_type_symbol
 _atom_site_label
 _atom_site_symmetry_multiplicity
 _atom_site_fract_x
 _atom_site_fract_y
 _atom_site_fract_z
 _atom_site_occupancy
  Ce  Ce0  1  0.250000  0.246881  0.557418  1
  Ce  Ce1  1  0.750000  0.753119  0.442582  1
  Ce  Ce2  1  0.250000  0.746881  0.942582  1
  Ce  Ce3  1  0.750000  0.253119  0.057418  1
  Zn  Zn4  1  0.509453  0.569015  0.180954  1
  Zn  Zn5  1  0.009453  0.430985  0.819046  1
  Zn  Zn6  1  0.990547  0.069015  0.319046  1
  Zn  Zn7  1  0.490547  0.930985  0.680954  1
  Zn  Zn8  1  0.490547  0.430985  0.819046  1
  Zn  Zn9  1  0.990547  0.569015  0.180954  1
  Zn  Zn10  1  0.009453  0.930985  0.680954  1
  Zn  Zn11  1  0.509453  0.069015  0.319046  1
  Zn  Zn12  1  0.750000  0.939134  0.906172  1
  Zn  Zn13  1  0.250000  0.060866  0.093828  1
  Zn  Zn14  1  0.750000  0.439134  0.593828  1
  Zn  Zn15  1  0.250000  0.560866  0.406172  1
  Zn  Zn16  1  0.750000  0.680474  0.743480  1
  Zn  Zn17  1  0.250000  0.319526  0.256520  1
  Zn  Zn18  1  0.750000  0.180474  0.756520  1
  Zn  Zn19  1  0.250000  0.819526  0.243480  1
  Ir  Ir20  1  0.750000  0.635520  0.973745  1
  Ir  Ir21  1  0.250000  0.364480  0.026255  1
  Ir  Ir22  1  0.750000  0.135520  0.526255  1
  Ir  Ir23  1  0.250000  0.864480  0.473745  1
  Au  Au24  1  0.250000  0.113384  0.857300  1
  Au  Au25  1  0.750000  0.886616  0.142700  1
  Au  Au26  1  0.250000  0.613384  0.642700  1
  Au  Au27  1  0.750000  0.386616  0.357300  1
