# generated using pymatgen
data_BaReNiP2
_symmetry_space_group_name_H-M   'P 1'
_cell_length_a   6.99329211
_cell_length_b   6.99329261
_cell_length_c   6.99329401
_cell_angle_alpha   147.41652947
_cell_angle_beta   147.41653893
_cell_angle_gamma   46.74743266
_symmetry_Int_Tables_number   1
_chemical_formula_structural   BaReNiP2
_chemical_formula_sum   'Ba1 Re1 Ni1 P2'
_cell_volume   98.82594884
_cell_formula_units_Z   1
loop_
 _symmetry_equiv_pos_site_id
 _symmetry_equiv_pos_as_xyz
  1  'x, y, z'
loop_
 _atom_site_type_symbol
 _atom_site_label
 _atom_site_symmetry_multiplicity
 _atom_site_fract_x
 _atom_site_fract_y
 _atom_site_fract_z
 _atom_site_occupancy
  Ba  Ba0  1  0.000000  0.000000  0.000000  1
  Re  Re1  1  0.750000  0.250000  0.500000  1
  Ni  Ni2  1  0.250000  0.750000  0.500000  1
  P  P3  1  0.652292  0.652292  0.000000  1
  P  P4  1  0.347708  0.347708  0.000000  1
