# generated using pymatgen
data_CeMn4MoP3
_symmetry_space_group_name_H-M   'P 1'
_cell_length_a   3.73358700
_cell_length_b   10.79561200
_cell_length_c   12.23995400
_cell_angle_alpha   90.00000000
_cell_angle_beta   90.00000000
_cell_angle_gamma   90.00000000
_symmetry_Int_Tables_number   1
_chemical_formula_structural   CeMn4MoP3
_chemical_formula_sum   'Ce4 Mn16 Mo4 P12'
_cell_volume   493.34795094
_cell_formula_units_Z   4
loop_
 _symmetry_equiv_pos_site_id
 _symmetry_equiv_pos_as_xyz
  1  'x, y, z'
loop_
 _atom_site_type_symbol
 _atom_site_label
 _atom_site_symmetry_multiplicity
 _atom_site_fract_x
 _atom_site_fract_y
 _atom_site_fract_z
 _atom_site_occupancy
  Ce  Ce0  1  0.250000  0.587950  0.706388  1
  Ce  Ce1  1  0.250000  0.912050  0.206388  1
  Ce  Ce2  1  0.750000  0.412050  0.293612  1
  Ce  Ce3  1  0.750000  0.087950  0.793612  1
  Mn  Mn4  1  0.250000  0.410812  0.493727  1
  Mn  Mn5  1  0.250000  0.089188  0.993727  1
  Mn  Mn6  1  0.750000  0.589188  0.506273  1
  Mn  Mn7  1  0.750000  0.910812  0.006273  1
  Mn  Mn8  1  0.250000  0.210240  0.183019  1
  Mn  Mn9  1  0.250000  0.289760  0.683019  1
  Mn  Mn10  1  0.750000  0.789760  0.816981  1
  Mn  Mn11  1  0.750000  0.710240  0.316981  1
  Mn  Mn12  1  0.250000  0.885239  0.691915  1
  Mn  Mn13  1  0.250000  0.614761  0.191915  1
  Mn  Mn14  1  0.750000  0.114761  0.308085  1
  Mn  Mn15  1  0.750000  0.385239  0.808085  1
  Mn  Mn16  1  0.250000  0.467612  0.934822  1
  Mn  Mn17  1  0.250000  0.032388  0.434822  1
  Mn  Mn18  1  0.750000  0.532388  0.065178  1
  Mn  Mn19  1  0.750000  0.967612  0.565178  1
  Mo  Mo20  1  0.250000  0.709090  0.982560  1
  Mo  Mo21  1  0.250000  0.790910  0.482560  1
  Mo  Mo22  1  0.750000  0.290910  0.017440  1
  Mo  Mo23  1  0.750000  0.209090  0.517440  1
  P  P24  1  0.250000  0.413364  0.115199  1
  P  P25  1  0.250000  0.086636  0.615199  1
  P  P26  1  0.750000  0.586636  0.884801  1
  P  P27  1  0.750000  0.913364  0.384801  1
  P  P28  1  0.250000  0.267935  0.874690  1
  P  P29  1  0.250000  0.232065  0.374690  1
  P  P30  1  0.750000  0.732065  0.125310  1
  P  P31  1  0.750000  0.767935  0.625310  1
  P  P32  1  0.250000  0.592891  0.384671  1
  P  P33  1  0.250000  0.907109  0.884671  1
  P  P34  1  0.750000  0.407109  0.615329  1
  P  P35  1  0.750000  0.092891  0.115329  1
