# generated using pymatgen
data_Y2TiCo16
_symmetry_space_group_name_H-M   'P 1'
_cell_length_a   6.29564397
_cell_length_b   6.29564367
_cell_length_c   6.29564317
_cell_angle_alpha   83.00460087
_cell_angle_beta   83.00460495
_cell_angle_gamma   83.00460967
_symmetry_Int_Tables_number   1
_chemical_formula_structural   Y2TiCo16
_chemical_formula_sum   'Y2 Ti1 Co16'
_cell_volume   244.37440058
_cell_formula_units_Z   1
loop_
 _symmetry_equiv_pos_site_id
 _symmetry_equiv_pos_as_xyz
  1  'x, y, z'
loop_
 _atom_site_type_symbol
 _atom_site_label
 _atom_site_symmetry_multiplicity
 _atom_site_fract_x
 _atom_site_fract_y
 _atom_site_fract_z
 _atom_site_occupancy
  Y  Y0  1  0.655940  0.655940  0.655940  1
  Y  Y1  1  0.351863  0.351863  0.351863  1
  Ti  Ti2  1  0.092387  0.092387  0.092387  1
  Co  Co3  1  0.291792  0.707464  0.997914  1
  Co  Co4  1  0.707464  0.997914  0.291792  1
  Co  Co5  1  0.997914  0.291792  0.707464  1
  Co  Co6  1  0.291792  0.997914  0.707464  1
  Co  Co7  1  0.997914  0.707464  0.291792  1
  Co  Co8  1  0.707464  0.291792  0.997914  1
  Co  Co9  1  0.998693  0.998693  0.504547  1
  Co  Co10  1  0.998693  0.504547  0.998693  1
  Co  Co11  1  0.504547  0.998693  0.998693  1
  Co  Co12  1  0.347420  0.347420  0.848480  1
  Co  Co13  1  0.347420  0.848480  0.347420  1
  Co  Co14  1  0.848480  0.347420  0.347420  1
  Co  Co15  1  0.655021  0.655021  0.149884  1
  Co  Co16  1  0.655021  0.149884  0.655021  1
  Co  Co17  1  0.149884  0.655021  0.655021  1
  Co  Co18  1  0.900289  0.900289  0.900289  1
