# generated using pymatgen
data_Ce8Nb12Si15As
_symmetry_space_group_name_H-M   'P 1'
_cell_length_a   7.13899743
_cell_length_b   7.14454548
_cell_length_c   13.22601600
_cell_angle_alpha   89.89819222
_cell_angle_beta   89.96371560
_cell_angle_gamma   89.90309987
_symmetry_Int_Tables_number   1
_chemical_formula_structural   Ce8Nb12Si15As
_chemical_formula_sum   'Ce8 Nb12 Si15 As1'
_cell_volume   674.58935201
_cell_formula_units_Z   1
loop_
 _symmetry_equiv_pos_site_id
 _symmetry_equiv_pos_as_xyz
  1  'x, y, z'
loop_
 _atom_site_type_symbol
 _atom_site_label
 _atom_site_symmetry_multiplicity
 _atom_site_fract_x
 _atom_site_fract_y
 _atom_site_fract_z
 _atom_site_occupancy
  Ce  Ce0  1  0.998284  0.337123  0.217460  1
  Ce  Ce1  1  0.004290  0.663279  0.716987  1
  Ce  Ce2  1  0.161917  0.498283  0.467792  1
  Ce  Ce3  1  0.504279  0.834797  0.031514  1
  Ce  Ce4  1  0.836375  0.502969  0.966561  1
  Ce  Ce5  1  0.496453  0.163152  0.533319  1
  Ce  Ce6  1  0.336763  0.996165  0.782931  1
  Ce  Ce7  1  0.661966  0.003868  0.282986  1
  Nb  Nb8  1  0.168728  0.169397  0.998352  1
  Nb  Nb9  1  0.831135  0.830682  0.499823  1
  Nb  Nb10  1  0.330068  0.666838  0.249691  1
  Nb  Nb11  1  0.669490  0.330261  0.749997  1
  Nb  Nb12  1  0.156750  0.997564  0.375403  1
  Nb  Nb13  1  0.843180  0.004700  0.874034  1
  Nb  Nb14  1  0.505305  0.656526  0.624543  1
  Nb  Nb15  1  0.343597  0.494350  0.875550  1
  Nb  Nb16  1  0.495171  0.343918  0.124852  1
  Nb  Nb17  1  0.659343  0.507430  0.377010  1
  Nb  Nb18  1  0.995880  0.156779  0.625969  1
  Nb  Nb19  1  0.999678  0.839530  0.123818  1
  Si  Si20  1  0.708794  0.956886  0.685785  1
  Si  Si21  1  0.456776  0.791894  0.436569  1
  Si  Si22  1  0.208070  0.542119  0.063202  1
  Si  Si23  1  0.542681  0.207803  0.935743  1
  Si  Si24  1  0.791448  0.456843  0.564824  1
  Si  Si25  1  0.042897  0.291486  0.813659  1
  Si  Si26  1  0.957686  0.709244  0.313827  1
  Si  Si27  1  0.375099  0.305459  0.318658  1
  Si  Si28  1  0.628816  0.702961  0.813749  1
  Si  Si29  1  0.203208  0.871891  0.564548  1
  Si  Si30  1  0.128267  0.795789  0.935071  1
  Si  Si31  1  0.796763  0.129017  0.063863  1
  Si  Si32  1  0.871520  0.203710  0.436213  1
  Si  Si33  1  0.297241  0.371235  0.685736  1
  Si  Si34  1  0.702835  0.627973  0.185789  1
  As  As35  1  0.289253  0.038079  0.184171  1
