# generated using pymatgen
data_Ho3LuMg2Ir3
_symmetry_space_group_name_H-M   'P 1'
_cell_length_a   7.39101200
_cell_length_b   7.37768306
_cell_length_c   4.08390000
_cell_angle_alpha   90.00000000
_cell_angle_beta   90.00000000
_cell_angle_gamma   120.05979072
_symmetry_Int_Tables_number   1
_chemical_formula_structural   Ho3LuMg2Ir3
_chemical_formula_sum   'Ho3 Lu1 Mg2 Ir3'
_cell_volume   192.73813783
_cell_formula_units_Z   1
loop_
 _symmetry_equiv_pos_site_id
 _symmetry_equiv_pos_as_xyz
  1  'x, y, z'
loop_
 _atom_site_type_symbol
 _atom_site_label
 _atom_site_symmetry_multiplicity
 _atom_site_fract_x
 _atom_site_fract_y
 _atom_site_fract_z
 _atom_site_occupancy
  Ho  Ho0  1  0.392787  0.000000  0.500001  1
  Ho  Ho1  1  0.015198  0.427190  0.500001  1
  Ho  Ho2  1  0.588009  0.572811  0.500001  1
  Lu  Lu3  1  0.751404  0.000000  0.000000  1
  Mg  Mg4  1  0.248587  0.249767  0.000000  1
  Mg  Mg5  1  0.998821  0.750234  0.000000  1
  Ir  Ir6  1  0.668115  0.329338  0.000000  1
  Ir  Ir7  1  0.338776  0.670662  0.000000  1
  Ir  Ir8  1  0.998304  0.000000  0.500001  1
