# generated using pymatgen
data_Li2Ni6P7Ru6
_symmetry_space_group_name_H-M   'P 1'
_cell_length_a   9.21900500
_cell_length_b   9.21900479
_cell_length_c   3.65919700
_cell_angle_alpha   90.00000000
_cell_angle_beta   90.00000000
_cell_angle_gamma   120.00001055
_symmetry_Int_Tables_number   1
_chemical_formula_structural   Li2Ni6P7Ru6
_chemical_formula_sum   'Li2 Ni6 P7 Ru6'
_cell_volume   269.32983687
_cell_formula_units_Z   1
loop_
 _symmetry_equiv_pos_site_id
 _symmetry_equiv_pos_as_xyz
  1  'x, y, z'
loop_
 _atom_site_type_symbol
 _atom_site_label
 _atom_site_symmetry_multiplicity
 _atom_site_fract_x
 _atom_site_fract_y
 _atom_site_fract_z
 _atom_site_occupancy
  Li  Li0  1  0.000000  0.000000  0.000000  1
  Li  Li1  1  0.333333  0.666667  0.500000  1
  Ni  Ni2  1  0.103323  0.404166  0.000000  1
  Ni  Ni3  1  0.300843  0.896677  0.000000  1
  Ni  Ni4  1  0.595834  0.699157  0.000000  1
  Ni  Ni5  1  0.826692  0.614929  0.000000  1
  Ni  Ni6  1  0.788238  0.173308  0.000000  1
  Ni  Ni7  1  0.385071  0.211762  0.000000  1
  P  P8  1  0.666667  0.333333  0.000000  1
  P  P9  1  0.079488  0.627699  0.000000  1
  P  P10  1  0.548211  0.920512  0.000000  1
  P  P11  1  0.372301  0.451789  0.000000  1
  P  P12  1  0.792614  0.744144  0.500000  1
  P  P13  1  0.951530  0.207386  0.500000  1
  P  P14  1  0.255856  0.048470  0.500000  1
  Ru  Ru15  1  0.059388  0.772149  0.500000  1
  Ru  Ru16  1  0.712762  0.940612  0.500000  1
  Ru  Ru17  1  0.227851  0.287238  0.500000  1
  Ru  Ru18  1  0.879261  0.417903  0.500000  1
  Ru  Ru19  1  0.538643  0.120739  0.500000  1
  Ru  Ru20  1  0.582097  0.461357  0.500000  1
