# generated using pymatgen
data_Zr5Sn2GeBi
_symmetry_space_group_name_H-M   'P 1'
_cell_length_a   8.77691710
_cell_length_b   8.77691575
_cell_length_c   5.95133800
_cell_angle_alpha   90.00000000
_cell_angle_beta   90.00000000
_cell_angle_gamma   119.98121743
_symmetry_Int_Tables_number   1
_chemical_formula_structural   Zr5Sn2GeBi
_chemical_formula_sum   'Zr10 Sn4 Ge2 Bi2'
_cell_volume   397.11047193
_cell_formula_units_Z   2
loop_
 _symmetry_equiv_pos_site_id
 _symmetry_equiv_pos_as_xyz
  1  'x, y, z'
loop_
 _atom_site_type_symbol
 _atom_site_label
 _atom_site_symmetry_multiplicity
 _atom_site_fract_x
 _atom_site_fract_y
 _atom_site_fract_z
 _atom_site_occupancy
  Zr  Zr0  1  0.666430  0.334980  0.996896  1
  Zr  Zr1  1  0.334980  0.666430  0.996896  1
  Zr  Zr2  1  0.334980  0.666430  0.503104  1
  Zr  Zr3  1  0.666430  0.334980  0.503104  1
  Zr  Zr4  1  0.736075  0.736075  0.750000  1
  Zr  Zr5  1  0.262586  0.000424  0.750000  1
  Zr  Zr6  1  0.000424  0.262586  0.750000  1
  Zr  Zr7  1  0.262966  0.262966  0.250000  1
  Zr  Zr8  1  0.738112  0.995834  0.250000  1
  Zr  Zr9  1  0.995834  0.738112  0.250000  1
  Sn  Sn10  1  0.393195  0.393195  0.750000  1
  Sn  Sn11  1  0.608687  0.000080  0.750000  1
  Sn  Sn12  1  0.000080  0.608687  0.750000  1
  Sn  Sn13  1  0.605208  0.605208  0.250000  1
  Ge  Ge14  1  0.999969  0.999969  0.998524  1
  Ge  Ge15  1  0.999969  0.999969  0.501476  1
  Bi  Bi16  1  0.394287  0.999789  0.250000  1
  Bi  Bi17  1  0.999789  0.394287  0.250000  1
