# generated using pymatgen
data_Er9Tm(In2Bi)2
_symmetry_space_group_name_H-M   'P 1'
_cell_length_a   6.58214502
_cell_length_b   8.96833599
_cell_length_c   8.92619601
_cell_angle_alpha   119.84626688
_cell_angle_beta   89.99797560
_cell_angle_gamma   90.00789817
_symmetry_Int_Tables_number   1
_chemical_formula_structural   Er9Tm(In2Bi)2
_chemical_formula_sum   'Er9 Tm1 In4 Bi2'
_cell_volume   457.03246778
_cell_formula_units_Z   1
loop_
 _symmetry_equiv_pos_site_id
 _symmetry_equiv_pos_as_xyz
  1  'x, y, z'
loop_
 _atom_site_type_symbol
 _atom_site_label
 _atom_site_symmetry_multiplicity
 _atom_site_fract_x
 _atom_site_fract_y
 _atom_site_fract_z
 _atom_site_occupancy
  Er  Er0  1  0.493065  0.328765  0.667422  1
  Er  Er1  1  0.492892  0.671276  0.338727  1
  Er  Er2  1  0.006956  0.671243  0.338614  1
  Er  Er3  1  0.750073  0.228228  0.990548  1
  Er  Er4  1  0.750026  0.771646  0.762346  1
  Er  Er5  1  0.750075  0.000030  0.238387  1
  Er  Er6  1  0.249886  0.765635  0.000487  1
  Er  Er7  1  0.249911  0.234413  0.235070  1
  Er  Er8  1  0.249902  0.000132  0.763712  1
  Tm  Tm9  1  0.007318  0.328637  0.667329  1
  In  In10  1  0.750174  0.000212  0.595632  1
  In  In11  1  0.249770  0.398259  0.003044  1
  In  In12  1  0.249783  0.601581  0.605010  1
  In  In13  1  0.249764  0.000219  0.398116  1
  Bi  Bi14  1  0.750206  0.603806  0.999555  1
  Bi  Bi15  1  0.750197  0.395919  0.396001  1
