# generated using pymatgen
data_Ho8Ti3Si16MoW8
_symmetry_space_group_name_H-M   'P 1'
_cell_length_a   6.89456016
_cell_length_b   6.89644417
_cell_length_c   12.79378026
_cell_angle_alpha   89.94892285
_cell_angle_beta   89.98769279
_cell_angle_gamma   89.86725588
_symmetry_Int_Tables_number   1
_chemical_formula_structural   Ho8Ti3Si16MoW8
_chemical_formula_sum   'Ho8 Ti3 Si16 Mo1 W8'
_cell_volume   608.31612539
_cell_formula_units_Z   1
loop_
 _symmetry_equiv_pos_site_id
 _symmetry_equiv_pos_as_xyz
  1  'x, y, z'
loop_
 _atom_site_type_symbol
 _atom_site_label
 _atom_site_symmetry_multiplicity
 _atom_site_fract_x
 _atom_site_fract_y
 _atom_site_fract_z
 _atom_site_occupancy
  Ho  Ho0  1  0.339542  0.001912  0.468719  1
  Ho  Ho1  1  0.496805  0.838285  0.719157  1
  Ho  Ho2  1  0.499712  0.161638  0.217532  1
  Ho  Ho3  1  0.838309  0.497050  0.280840  1
  Ho  Ho4  1  0.161662  0.499090  0.782543  1
  Ho  Ho5  1  0.659514  0.999038  0.968952  1
  Ho  Ho6  1  0.001953  0.339588  0.531293  1
  Ho  Ho7  1  0.999121  0.659867  0.031181  1
  Ti  Ti8  1  0.170503  0.831611  0.248527  1
  Ti  Ti9  1  0.830974  0.170801  0.751274  1
  Ti  Ti10  1  0.668900  0.669056  0.499969  1
  Si  Si11  1  0.200314  0.129763  0.682946  1
  Si  Si12  1  0.372609  0.698188  0.933494  1
  Si  Si13  1  0.629277  0.299029  0.433246  1
  Si  Si14  1  0.698712  0.372889  0.066833  1
  Si  Si15  1  0.298945  0.629397  0.566779  1
  Si  Si16  1  0.797212  0.871441  0.183611  1
  Si  Si17  1  0.129635  0.200209  0.317033  1
  Si  Si18  1  0.871717  0.796977  0.816024  1
  Si  Si19  1  0.289211  0.962961  0.062028  1
  Si  Si20  1  0.539989  0.791714  0.313985  1
  Si  Si21  1  0.458625  0.208984  0.814439  1
  Si  Si22  1  0.791762  0.540345  0.686081  1
  Si  Si23  1  0.209095  0.459410  0.185837  1
  Si  Si24  1  0.709302  0.040810  0.563906  1
  Si  Si25  1  0.963395  0.288558  0.937533  1
  Si  Si26  1  0.040908  0.709281  0.435994  1
  Mo  Mo27  1  0.157649  0.001686  0.873193  1
  W  W28  1  0.331876  0.332369  0.000382  1
  W  W29  1  0.495036  0.664977  0.125123  1
  W  W30  1  0.505651  0.340521  0.624684  1
  W  W31  1  0.664607  0.494543  0.875160  1
  W  W32  1  0.340496  0.505381  0.375247  1
  W  W33  1  0.839963  0.994045  0.374242  1
  W  W34  1  0.002931  0.158264  0.126474  1
  W  W35  1  0.994085  0.840320  0.625739  1
