# generated using pymatgen
data_CeNd3(B4W)4
_symmetry_space_group_name_H-M   'P 1'
_cell_length_a   3.69961700
_cell_length_b   6.12058318
_cell_length_c   11.84567986
_cell_angle_alpha   90.02444438
_cell_angle_beta   90.00000000
_cell_angle_gamma   90.00000000
_symmetry_Int_Tables_number   1
_chemical_formula_structural   CeNd3(B4W)4
_chemical_formula_sum   'Ce1 Nd3 B16 W4'
_cell_volume   268.23134238
_cell_formula_units_Z   1
loop_
 _symmetry_equiv_pos_site_id
 _symmetry_equiv_pos_as_xyz
  1  'x, y, z'
loop_
 _atom_site_type_symbol
 _atom_site_label
 _atom_site_symmetry_multiplicity
 _atom_site_fract_x
 _atom_site_fract_y
 _atom_site_fract_z
 _atom_site_occupancy
  Ce  Ce0  1  0.000000  0.375073  0.651025  1
  Nd  Nd1  1  0.000000  0.125184  0.150343  1
  Nd  Nd2  1  0.000000  0.874912  0.849704  1
  Nd  Nd3  1  0.000000  0.625371  0.349171  1
  B  B4  1  0.500000  0.475294  0.190418  1
  B  B5  1  0.500000  0.522427  0.807926  1
  B  B6  1  0.500000  0.976133  0.309729  1
  B  B7  1  0.500000  0.028220  0.690824  1
  B  B8  1  0.500000  0.282081  0.315368  1
  B  B9  1  0.500000  0.713798  0.684277  1
  B  B10  1  0.500000  0.782557  0.184524  1
  B  B11  1  0.500000  0.217814  0.813657  1
  B  B12  1  0.500000  0.362907  0.469264  1
  B  B13  1  0.500000  0.636708  0.534148  1
  B  B14  1  0.500000  0.863089  0.032088  1
  B  B15  1  0.500000  0.137011  0.966902  1
  B  B16  1  0.500000  0.387253  0.045390  1
  B  B17  1  0.500000  0.611677  0.953376  1
  B  B18  1  0.500000  0.887942  0.454850  1
  B  B19  1  0.500000  0.113906  0.547360  1
  W  W20  1  0.000000  0.129676  0.417492  1
  W  W21  1  0.000000  0.870499  0.584953  1
  W  W22  1  0.000000  0.628591  0.082904  1
  W  W23  1  0.000000  0.371880  0.914308  1
