# generated using pymatgen
data_Nd3NbZn2Ir3
_symmetry_space_group_name_H-M   'P 1'
_cell_length_a   7.22031209
_cell_length_b   6.99162591
_cell_length_c   4.30924700
_cell_angle_alpha   90.00000000
_cell_angle_beta   90.00000000
_cell_angle_gamma   118.95768488
_symmetry_Int_Tables_number   1
_chemical_formula_structural   Nd3NbZn2Ir3
_chemical_formula_sum   'Nd3 Nb1 Zn2 Ir3'
_cell_volume   190.34103920
_cell_formula_units_Z   1
loop_
 _symmetry_equiv_pos_site_id
 _symmetry_equiv_pos_as_xyz
  1  'x, y, z'
loop_
 _atom_site_type_symbol
 _atom_site_label
 _atom_site_symmetry_multiplicity
 _atom_site_fract_x
 _atom_site_fract_y
 _atom_site_fract_z
 _atom_site_occupancy
  Nd  Nd0  1  0.569193  0.580862  0.000000  1
  Nd  Nd1  1  0.430807  0.011668  0.000000  1
  Nd  Nd2  1  0.000000  0.393904  0.000000  1
  Nb  Nb3  1  0.000000  0.763892  0.500000  1
  Zn  Zn4  1  0.239438  0.241273  0.500000  1
  Zn  Zn5  1  0.760562  0.001835  0.500000  1
  Ir  Ir6  1  0.000000  0.966487  0.000000  1
  Ir  Ir7  1  0.683328  0.361704  0.500000  1
  Ir  Ir8  1  0.316672  0.678377  0.500000  1
