# generated using pymatgen
data_Tm3HfCo8(SiP2)2
_symmetry_space_group_name_H-M   'P 1'
_cell_length_a   3.73377600
_cell_length_b   10.70828700
_cell_length_c   12.41646800
_cell_angle_alpha   90.00000000
_cell_angle_beta   90.00000000
_cell_angle_gamma   90.00000000
_symmetry_Int_Tables_number   1
_chemical_formula_structural   Tm3HfCo8(SiP2)2
_chemical_formula_sum   'Tm6 Hf2 Co16 Si4 P8'
_cell_volume   496.43950728
_cell_formula_units_Z   2
loop_
 _symmetry_equiv_pos_site_id
 _symmetry_equiv_pos_as_xyz
  1  'x, y, z'
loop_
 _atom_site_type_symbol
 _atom_site_label
 _atom_site_symmetry_multiplicity
 _atom_site_fract_x
 _atom_site_fract_y
 _atom_site_fract_z
 _atom_site_occupancy
  Tm  Tm0  1  0.000000  0.500000  0.532191  1
  Tm  Tm1  1  0.500000  0.000000  0.467809  1
  Tm  Tm2  1  0.500000  0.821682  0.207014  1
  Tm  Tm3  1  0.500000  0.178318  0.207014  1
  Tm  Tm4  1  0.000000  0.678318  0.792986  1
  Tm  Tm5  1  0.000000  0.321682  0.792986  1
  Hf  Hf6  1  0.500000  0.500000  0.154935  1
  Hf  Hf7  1  0.000000  0.000000  0.845065  1
  Co  Co8  1  0.500000  0.500000  0.698737  1
  Co  Co9  1  0.000000  0.000000  0.301263  1
  Co  Co10  1  0.000000  0.500000  0.990650  1
  Co  Co11  1  0.500000  0.000000  0.009350  1
  Co  Co12  1  0.500000  0.329426  0.996147  1
  Co  Co13  1  0.500000  0.670574  0.996147  1
  Co  Co14  1  0.000000  0.170574  0.003853  1
  Co  Co15  1  0.000000  0.829426  0.003853  1
  Co  Co16  1  0.500000  0.293042  0.434351  1
  Co  Co17  1  0.500000  0.706958  0.434351  1
  Co  Co18  1  0.000000  0.206958  0.565649  1
  Co  Co19  1  0.000000  0.793042  0.565649  1
  Co  Co20  1  0.500000  0.877095  0.703240  1
  Co  Co21  1  0.500000  0.122905  0.703240  1
  Co  Co22  1  0.000000  0.622905  0.296760  1
  Co  Co23  1  0.000000  0.377095  0.296760  1
  Si  Si24  1  0.500000  0.500000  0.884191  1
  Si  Si25  1  0.000000  0.000000  0.115809  1
  Si  Si26  1  0.500000  0.500000  0.362078  1
  Si  Si27  1  0.000000  0.000000  0.637922  1
  P  P28  1  0.500000  0.308383  0.616062  1
  P  P29  1  0.500000  0.691617  0.616062  1
  P  P30  1  0.000000  0.191617  0.383938  1
  P  P31  1  0.000000  0.808383  0.383938  1
  P  P32  1  0.500000  0.837471  0.893108  1
  P  P33  1  0.500000  0.162529  0.893108  1
  P  P34  1  0.000000  0.662529  0.106892  1
  P  P35  1  0.000000  0.337471  0.106892  1
