# generated using pymatgen
data_Ho3Mo(P3Rh4)2
_symmetry_space_group_name_H-M   'P 1'
_cell_length_a   3.93281100
_cell_length_b   11.13615800
_cell_length_c   12.78195600
_cell_angle_alpha   90.00000000
_cell_angle_beta   90.00000000
_cell_angle_gamma   90.00000000
_symmetry_Int_Tables_number   1
_chemical_formula_structural   Ho3Mo(P3Rh4)2
_chemical_formula_sum   'Ho6 Mo2 P12 Rh16'
_cell_volume   559.80371758
_cell_formula_units_Z   2
loop_
 _symmetry_equiv_pos_site_id
 _symmetry_equiv_pos_as_xyz
  1  'x, y, z'
loop_
 _atom_site_type_symbol
 _atom_site_label
 _atom_site_symmetry_multiplicity
 _atom_site_fract_x
 _atom_site_fract_y
 _atom_site_fract_z
 _atom_site_occupancy
  Ho  Ho0  1  0.000000  0.500000  0.522330  1
  Ho  Ho1  1  0.500000  0.000000  0.477670  1
  Ho  Ho2  1  0.500000  0.816759  0.203240  1
  Ho  Ho3  1  0.500000  0.183241  0.203240  1
  Ho  Ho4  1  0.000000  0.683241  0.796760  1
  Ho  Ho5  1  0.000000  0.316759  0.796760  1
  Mo  Mo6  1  0.500000  0.500000  0.157875  1
  Mo  Mo7  1  0.000000  0.000000  0.842125  1
  P  P8  1  0.500000  0.315104  0.618153  1
  P  P9  1  0.500000  0.684896  0.618153  1
  P  P10  1  0.000000  0.184896  0.381847  1
  P  P11  1  0.000000  0.815104  0.381847  1
  P  P12  1  0.500000  0.500000  0.875581  1
  P  P13  1  0.000000  0.000000  0.124419  1
  P  P14  1  0.500000  0.846946  0.887750  1
  P  P15  1  0.500000  0.153054  0.887750  1
  P  P16  1  0.000000  0.653054  0.112250  1
  P  P17  1  0.000000  0.346946  0.112250  1
  P  P18  1  0.500000  0.500000  0.346680  1
  P  P19  1  0.000000  0.000000  0.653320  1
  Rh  Rh20  1  0.000000  0.500000  0.988093  1
  Rh  Rh21  1  0.500000  0.000000  0.011907  1
  Rh  Rh22  1  0.500000  0.295452  0.432114  1
  Rh  Rh23  1  0.500000  0.704548  0.432114  1
  Rh  Rh24  1  0.000000  0.204548  0.567886  1
  Rh  Rh25  1  0.000000  0.795452  0.567886  1
  Rh  Rh26  1  0.500000  0.874736  0.708470  1
  Rh  Rh27  1  0.500000  0.125264  0.708470  1
  Rh  Rh28  1  0.000000  0.625264  0.291530  1
  Rh  Rh29  1  0.000000  0.374736  0.291530  1
  Rh  Rh30  1  0.500000  0.331796  0.985163  1
  Rh  Rh31  1  0.500000  0.668204  0.985163  1
  Rh  Rh32  1  0.000000  0.168204  0.014837  1
  Rh  Rh33  1  0.000000  0.831796  0.014837  1
  Rh  Rh34  1  0.500000  0.500000  0.698790  1
  Rh  Rh35  1  0.000000  0.000000  0.301210  1
