# generated using pymatgen
data_YHo5(TcB7)2
_symmetry_space_group_name_H-M   'P 1'
_cell_length_a   8.05678019
_cell_length_b   8.05677970
_cell_length_c   9.33190000
_cell_angle_alpha   90.00000000
_cell_angle_beta   90.00000000
_cell_angle_gamma   154.68921552
_symmetry_Int_Tables_number   1
_chemical_formula_structural   YHo5(TcB7)2
_chemical_formula_sum   'Y1 Ho5 Tc2 B14'
_cell_volume   258.97489781
_cell_formula_units_Z   1
loop_
 _symmetry_equiv_pos_site_id
 _symmetry_equiv_pos_as_xyz
  1  'x, y, z'
loop_
 _atom_site_type_symbol
 _atom_site_label
 _atom_site_symmetry_multiplicity
 _atom_site_fract_x
 _atom_site_fract_y
 _atom_site_fract_z
 _atom_site_occupancy
  Y  Y0  1  0.242509  0.757491  0.250000  1
  Ho  Ho1  1  0.895338  0.104662  0.440296  1
  Ho  Ho2  1  0.104830  0.895170  0.560005  1
  Ho  Ho3  1  0.895338  0.104662  0.059704  1
  Ho  Ho4  1  0.104830  0.895170  0.939995  1
  Ho  Ho5  1  0.758366  0.241634  0.750000  1
  Tc  Tc6  1  0.052548  0.947452  0.250000  1
  Tc  Tc7  1  0.947281  0.052719  0.750000  1
  B  B8  1  0.727081  0.272919  0.467661  1
  B  B9  1  0.272824  0.727176  0.533731  1
  B  B10  1  0.727081  0.272919  0.032339  1
  B  B11  1  0.272824  0.727176  0.966269  1
  B  B12  1  0.631573  0.368427  0.150608  1
  B  B13  1  0.368082  0.631918  0.849051  1
  B  B14  1  0.631573  0.368427  0.349392  1
  B  B15  1  0.368082  0.631918  0.650949  1
  B  B16  1  0.520648  0.479352  0.095415  1
  B  B17  1  0.479314  0.520686  0.904483  1
  B  B18  1  0.520648  0.479352  0.404585  1
  B  B19  1  0.479314  0.520686  0.595517  1
  B  B20  1  0.456907  0.543093  0.250000  1
  B  B21  1  0.543008  0.456992  0.750000  1
