# generated using pymatgen
data_Zr2NpUF15
_symmetry_space_group_name_H-M   'P 1'
_cell_length_a   7.65009860
_cell_length_b   7.64513118
_cell_length_c   7.65009831
_cell_angle_alpha   112.45474484
_cell_angle_beta   113.15114252
_cell_angle_gamma   112.45474151
_symmetry_Int_Tables_number   1
_chemical_formula_structural   Zr2NpUF15
_chemical_formula_sum   'Zr2 Np1 U1 F15'
_cell_volume   296.42800446
_cell_formula_units_Z   1
loop_
 _symmetry_equiv_pos_site_id
 _symmetry_equiv_pos_as_xyz
  1  'x, y, z'
loop_
 _atom_site_type_symbol
 _atom_site_label
 _atom_site_symmetry_multiplicity
 _atom_site_fract_x
 _atom_site_fract_y
 _atom_site_fract_z
 _atom_site_occupancy
  Zr  Zr0  1  0.358774  0.362062  0.789112  1
  Zr  Zr1  1  0.789112  0.362062  0.358774  1
  Np  Np2  1  0.001839  0.998126  0.001839  1
  U  U3  1  0.363108  0.795595  0.363108  1
  F  F4  1  0.642656  0.431478  0.107574  1
  F  F5  1  0.092972  0.639371  0.436583  1
  F  F6  1  0.107574  0.431478  0.642656  1
  F  F7  1  0.439209  0.123004  0.665760  1
  F  F8  1  0.436583  0.639371  0.092972  1
  F  F9  1  0.665760  0.123004  0.439209  1
  F  F10  1  0.083242  0.753551  0.083242  1
  F  F11  1  0.108801  0.109680  0.768103  1
  F  F12  1  0.768103  0.109680  0.108801  1
  F  F13  1  0.655805  0.865333  0.655805  1
  F  F14  1  0.639240  0.641332  0.862286  1
  F  F15  1  0.862286  0.641332  0.639240  1
  F  F16  1  0.170571  0.398302  0.170571  1
  F  F17  1  0.181671  0.179084  0.415621  1
  F  F18  1  0.415621  0.179084  0.181671  1
