# generated using pymatgen
data_ErCu4AgO8
_symmetry_space_group_name_H-M   'P 1'
_cell_length_a   6.22740346
_cell_length_b   6.22740405
_cell_length_c   6.22740449
_cell_angle_alpha   125.00942645
_cell_angle_beta   125.00943111
_cell_angle_gamma   81.52242164
_symmetry_Int_Tables_number   1
_chemical_formula_structural   ErCu4AgO8
_chemical_formula_sum   'Er1 Cu4 Ag1 O8'
_cell_volume   155.95584936
_cell_formula_units_Z   1
loop_
 _symmetry_equiv_pos_site_id
 _symmetry_equiv_pos_as_xyz
  1  'x, y, z'
loop_
 _atom_site_type_symbol
 _atom_site_label
 _atom_site_symmetry_multiplicity
 _atom_site_fract_x
 _atom_site_fract_y
 _atom_site_fract_z
 _atom_site_occupancy
  Er  Er0  1  0.250000  0.750000  0.500000  1
  Cu  Cu1  1  0.373259  0.113868  0.238242  1
  Cu  Cu2  1  0.875626  0.135017  0.761758  1
  Cu  Cu3  1  0.864983  0.626741  0.740609  1
  Cu  Cu4  1  0.886132  0.124374  0.259391  1
  Ag  Ag5  1  0.500000  0.500000  0.000000  1
  O  O6  1  0.926794  0.338642  0.157678  1
  O  O7  1  0.180963  0.769115  0.842322  1
  O  O8  1  0.855196  0.923572  0.380003  1
  O  O9  1  0.543570  0.475194  0.619997  1
  O  O10  1  0.524806  0.144804  0.068376  1
  O  O11  1  0.076428  0.456430  0.931624  1
  O  O12  1  0.661358  0.819037  0.588152  1
  O  O13  1  0.230885  0.073206  0.411848  1
