# generated using pymatgen
data_NdDy3Ga20Pt11
_symmetry_space_group_name_H-M   'P 1'
_cell_length_a   4.19299154
_cell_length_b   10.96691089
_cell_length_c   13.69284936
_cell_angle_alpha   82.02261932
_cell_angle_beta   81.19288153
_cell_angle_gamma   78.97919162
_symmetry_Int_Tables_number   1
_chemical_formula_structural   NdDy3Ga20Pt11
_chemical_formula_sum   'Nd1 Dy3 Ga20 Pt11'
_cell_volume   606.84985644
_cell_formula_units_Z   1
loop_
 _symmetry_equiv_pos_site_id
 _symmetry_equiv_pos_as_xyz
  1  'x, y, z'
loop_
 _atom_site_type_symbol
 _atom_site_label
 _atom_site_symmetry_multiplicity
 _atom_site_fract_x
 _atom_site_fract_y
 _atom_site_fract_z
 _atom_site_occupancy
  Nd  Nd0  1  0.124414  0.086968  0.664205  1
  Dy  Dy1  1  0.876639  0.912229  0.334494  1
  Dy  Dy2  1  0.774731  0.629234  0.821303  1
  Dy  Dy3  1  0.225097  0.370586  0.179221  1
  Ga  Ga4  1  0.008665  0.069825  0.912846  1
  Ga  Ga5  1  0.990752  0.929939  0.088556  1
  Ga  Ga6  1  0.066053  0.674290  0.193604  1
  Ga  Ga7  1  0.933510  0.326534  0.806445  1
  Ga  Ga8  1  0.101835  0.342309  0.454020  1
  Ga  Ga9  1  0.898923  0.656886  0.545268  1
  Ga  Ga10  1  0.202383  0.603881  0.991352  1
  Ga  Ga11  1  0.797281  0.396413  0.009026  1
  Ga  Ga12  1  0.260041  0.778897  0.701021  1
  Ga  Ga13  1  0.740925  0.219928  0.298222  1
  Ga  Ga14  1  0.303728  0.898075  0.494467  1
  Ga  Ga15  1  0.698583  0.100713  0.502121  1
  Ga  Ga16  1  0.386762  0.525418  0.701057  1
  Ga  Ga17  1  0.612936  0.474920  0.299207  1
  Ga  Ga18  1  0.395832  0.204576  0.003759  1
  Ga  Ga19  1  0.603225  0.795897  0.997653  1
  Ga  Ga20  1  0.542652  0.285691  0.629006  1
  Ga  Ga21  1  0.456201  0.717244  0.370353  1
  Ga  Ga22  1  0.636746  0.932791  0.793717  1
  Ga  Ga23  1  0.362996  0.066007  0.207999  1
  Pt  Pt24  1  0.499541  0.501287  0.499630  1
  Pt  Pt25  1  0.027666  0.575449  0.369219  1
  Pt  Pt26  1  0.971982  0.425658  0.630377  1
  Pt  Pt27  1  0.139235  0.833404  0.888126  1
  Pt  Pt28  1  0.860968  0.165902  0.112162  1
  Pt  Pt29  1  0.240369  0.128255  0.391006  1
  Pt  Pt30  1  0.761788  0.869226  0.607199  1
  Pt  Pt31  1  0.344798  0.417766  0.892637  1
  Pt  Pt32  1  0.654635  0.582899  0.107832  1
  Pt  Pt33  1  0.504280  0.169302  0.822138  1
  Pt  Pt34  1  0.493825  0.831597  0.180752  1
