# generated using pymatgen
data_Tb17Y3Sn16
_symmetry_space_group_name_H-M   'P 1'
_cell_length_a   8.06944902
_cell_length_b   8.21926802
_cell_length_c   15.54723300
_cell_angle_alpha   90.00000000
_cell_angle_beta   90.00000000
_cell_angle_gamma   89.99117088
_symmetry_Int_Tables_number   1
_chemical_formula_structural   Tb17Y3Sn16
_chemical_formula_sum   'Tb17 Y3 Sn16'
_cell_volume   1031.16966202
_cell_formula_units_Z   1
loop_
 _symmetry_equiv_pos_site_id
 _symmetry_equiv_pos_as_xyz
  1  'x, y, z'
loop_
 _atom_site_type_symbol
 _atom_site_label
 _atom_site_symmetry_multiplicity
 _atom_site_fract_x
 _atom_site_fract_y
 _atom_site_fract_z
 _atom_site_occupancy
  Tb  Tb0  1  0.367623  0.835679  0.878607  1
  Tb  Tb1  1  0.867655  0.664371  0.621368  1
  Tb  Tb2  1  0.632335  0.164355  0.378566  1
  Tb  Tb3  1  0.132370  0.335585  0.121408  1
  Tb  Tb4  1  0.632335  0.164355  0.121434  1
  Tb  Tb5  1  0.132370  0.335585  0.378592  1
  Tb  Tb6  1  0.367623  0.835679  0.621393  1
  Tb  Tb7  1  0.867655  0.664371  0.878632  1
  Tb  Tb8  1  0.520190  0.319642  0.902236  1
  Tb  Tb9  1  0.020238  0.180333  0.597791  1
  Tb  Tb10  1  0.479795  0.680371  0.402197  1
  Tb  Tb11  1  0.979822  0.819638  0.097795  1
  Tb  Tb12  1  0.479795  0.680371  0.097803  1
  Tb  Tb13  1  0.979822  0.819638  0.402205  1
  Tb  Tb14  1  0.520190  0.319642  0.597764  1
  Tb  Tb15  1  0.020238  0.180333  0.902209  1
  Tb  Tb16  1  0.301795  0.002139  0.250000  1
  Y  Y17  1  0.198302  0.502029  0.750000  1
  Y  Y18  1  0.698325  0.997932  0.750000  1
  Y  Y19  1  0.801613  0.497921  0.250000  1
  Sn  Sn20  1  0.291911  0.033900  0.042081  1
  Sn  Sn21  1  0.791915  0.466067  0.457856  1
  Sn  Sn22  1  0.708093  0.966134  0.542172  1
  Sn  Sn23  1  0.208088  0.533908  0.957829  1
  Sn  Sn24  1  0.708093  0.966134  0.957828  1
  Sn  Sn25  1  0.208088  0.533908  0.542171  1
  Sn  Sn26  1  0.291911  0.033900  0.457919  1
  Sn  Sn27  1  0.791915  0.466067  0.042144  1
  Sn  Sn28  1  0.565321  0.618721  0.750000  1
  Sn  Sn29  1  0.065253  0.881248  0.750000  1
  Sn  Sn30  1  0.434710  0.381325  0.250000  1
  Sn  Sn31  1  0.934462  0.118802  0.250000  1
  Sn  Sn32  1  0.327895  0.145509  0.750000  1
  Sn  Sn33  1  0.827798  0.354593  0.750000  1
  Sn  Sn34  1  0.672184  0.854498  0.250000  1
  Sn  Sn35  1  0.172271  0.645320  0.250000  1
