# generated using pymatgen
data_Ce2Hf2TaSi4
_symmetry_space_group_name_H-M   'P 1'
_cell_length_a   7.25571700
_cell_length_b   7.25571700
_cell_length_c   13.39512000
_cell_angle_alpha   90.00000000
_cell_angle_beta   90.00000000
_cell_angle_gamma   90.00000000
_symmetry_Int_Tables_number   1
_chemical_formula_structural   Ce2Hf2TaSi4
_chemical_formula_sum   'Ce8 Hf8 Ta4 Si16'
_cell_volume   705.19184137
_cell_formula_units_Z   4
loop_
 _symmetry_equiv_pos_site_id
 _symmetry_equiv_pos_as_xyz
  1  'x, y, z'
loop_
 _atom_site_type_symbol
 _atom_site_label
 _atom_site_symmetry_multiplicity
 _atom_site_fract_x
 _atom_site_fract_y
 _atom_site_fract_z
 _atom_site_occupancy
  Ce  Ce0  1  0.495568  0.158252  0.535225  1
  Ce  Ce1  1  0.504432  0.841748  0.035225  1
  Ce  Ce2  1  0.658252  0.004432  0.285225  1
  Ce  Ce3  1  0.341748  0.995568  0.785225  1
  Ce  Ce4  1  0.841748  0.504432  0.964775  1
  Ce  Ce5  1  0.158252  0.495568  0.464775  1
  Ce  Ce6  1  0.004432  0.658252  0.714775  1
  Ce  Ce7  1  0.995568  0.341748  0.214775  1
  Hf  Hf8  1  0.495793  0.349567  0.123841  1
  Hf  Hf9  1  0.504207  0.650433  0.623841  1
  Hf  Hf10  1  0.849567  0.004207  0.873841  1
  Hf  Hf11  1  0.150433  0.995793  0.373841  1
  Hf  Hf12  1  0.650433  0.504207  0.376159  1
  Hf  Hf13  1  0.349567  0.495793  0.876159  1
  Hf  Hf14  1  0.004207  0.849567  0.126159  1
  Hf  Hf15  1  0.995793  0.150433  0.626159  1
  Ta  Ta16  1  0.673620  0.326380  0.750000  1
  Ta  Ta17  1  0.326380  0.673620  0.250000  1
  Ta  Ta18  1  0.826380  0.826380  0.500000  1
  Ta  Ta19  1  0.173620  0.173620  0.000000  1
  Si  Si20  1  0.799653  0.137746  0.063848  1
  Si  Si21  1  0.200347  0.862254  0.563848  1
  Si  Si22  1  0.637746  0.700347  0.813848  1
  Si  Si23  1  0.362254  0.299653  0.313848  1
  Si  Si24  1  0.862254  0.200347  0.436152  1
  Si  Si25  1  0.137746  0.799653  0.936152  1
  Si  Si26  1  0.700347  0.637746  0.186152  1
  Si  Si27  1  0.299653  0.362254  0.686152  1
  Si  Si28  1  0.546964  0.205357  0.933708  1
  Si  Si29  1  0.453036  0.794643  0.433708  1
  Si  Si30  1  0.705357  0.953036  0.683708  1
  Si  Si31  1  0.294643  0.046964  0.183708  1
  Si  Si32  1  0.794643  0.453036  0.566292  1
  Si  Si33  1  0.205357  0.546964  0.066292  1
  Si  Si34  1  0.953036  0.705357  0.316292  1
  Si  Si35  1  0.046964  0.294643  0.816292  1
