# generated using pymatgen
data_Ho8ErLu11Pb16
_symmetry_space_group_name_H-M   'P 1'
_cell_length_a   8.11992201
_cell_length_b   8.18760820
_cell_length_c   15.44099000
_cell_angle_alpha   90.01034984
_cell_angle_beta   89.99788314
_cell_angle_gamma   90.08527640
_symmetry_Int_Tables_number   1
_chemical_formula_structural   Ho8ErLu11Pb16
_chemical_formula_sum   'Ho8 Er1 Lu11 Pb16'
_cell_volume   1026.55816926
_cell_formula_units_Z   1
loop_
 _symmetry_equiv_pos_site_id
 _symmetry_equiv_pos_as_xyz
  1  'x, y, z'
loop_
 _atom_site_type_symbol
 _atom_site_label
 _atom_site_symmetry_multiplicity
 _atom_site_fract_x
 _atom_site_fract_y
 _atom_site_fract_z
 _atom_site_occupancy
  Ho  Ho0  1  0.876375  0.658810  0.878705  1
  Ho  Ho1  1  0.537267  0.322899  0.900875  1
  Ho  Ho2  1  0.037405  0.176596  0.598894  1
  Ho  Ho3  1  0.462654  0.676713  0.400762  1
  Ho  Ho4  1  0.962499  0.824058  0.100067  1
  Ho  Ho5  1  0.463110  0.676344  0.099385  1
  Ho  Ho6  1  0.962617  0.823395  0.400692  1
  Ho  Ho7  1  0.536940  0.323099  0.599099  1
  Er  Er8  1  0.037270  0.176453  0.900528  1
  Lu  Lu9  1  0.375585  0.841646  0.878058  1
  Lu  Lu10  1  0.875663  0.657869  0.621650  1
  Lu  Lu11  1  0.624379  0.157835  0.378169  1
  Lu  Lu12  1  0.124159  0.342245  0.121783  1
  Lu  Lu13  1  0.623637  0.157990  0.122476  1
  Lu  Lu14  1  0.124137  0.341992  0.378147  1
  Lu  Lu15  1  0.376186  0.842098  0.621379  1
  Lu  Lu16  1  0.207765  0.505059  0.749648  1
  Lu  Lu17  1  0.707094  0.994932  0.749610  1
  Lu  Lu18  1  0.792523  0.494474  0.250408  1
  Lu  Lu19  1  0.292425  0.005053  0.250010  1
  Pb  Pb20  1  0.282855  0.034991  0.042629  1
  Pb  Pb21  1  0.783370  0.464946  0.457294  1
  Pb  Pb22  1  0.716648  0.964823  0.542595  1
  Pb  Pb23  1  0.218946  0.533599  0.957176  1
  Pb  Pb24  1  0.716025  0.967719  0.957243  1
  Pb  Pb25  1  0.216435  0.535123  0.542794  1
  Pb  Pb26  1  0.283286  0.035316  0.457030  1
  Pb  Pb27  1  0.783057  0.464320  0.044041  1
  Pb  Pb28  1  0.569250  0.627220  0.749427  1
  Pb  Pb29  1  0.070514  0.873772  0.748960  1
  Pb  Pb30  1  0.429989  0.372243  0.250382  1
  Pb  Pb31  1  0.930499  0.127836  0.250187  1
  Pb  Pb32  1  0.348281  0.154389  0.749868  1
  Pb  Pb33  1  0.848273  0.344165  0.749666  1
  Pb  Pb34  1  0.651336  0.845136  0.250193  1
  Pb  Pb35  1  0.151543  0.654844  0.250169  1
