# generated using pymatgen
data_HoNb9Se16
_symmetry_space_group_name_H-M   'P 1'
_cell_length_a   7.00833000
_cell_length_b   7.00833116
_cell_length_c   13.84116400
_cell_angle_alpha   90.00000000
_cell_angle_beta   90.00000000
_cell_angle_gamma   120.00001342
_symmetry_Int_Tables_number   1
_chemical_formula_structural   HoNb9Se16
_chemical_formula_sum   'Ho1 Nb9 Se16'
_cell_volume   588.75193242
_cell_formula_units_Z   1
loop_
 _symmetry_equiv_pos_site_id
 _symmetry_equiv_pos_as_xyz
  1  'x, y, z'
loop_
 _atom_site_type_symbol
 _atom_site_label
 _atom_site_symmetry_multiplicity
 _atom_site_fract_x
 _atom_site_fract_y
 _atom_site_fract_z
 _atom_site_occupancy
  Ho  Ho0  1  0.000000  0.000000  0.000000  1
  Nb  Nb1  1  0.000000  0.000000  0.258525  1
  Nb  Nb2  1  0.000000  0.000000  0.741475  1
  Nb  Nb3  1  0.506841  0.013683  0.259332  1
  Nb  Nb4  1  0.493159  0.986317  0.740668  1
  Nb  Nb5  1  0.986317  0.493159  0.259332  1
  Nb  Nb6  1  0.013683  0.506841  0.740668  1
  Nb  Nb7  1  0.506841  0.493159  0.259332  1
  Nb  Nb8  1  0.493159  0.506841  0.740668  1
  Nb  Nb9  1  0.000000  0.000000  0.500000  1
  Se  Se10  1  0.333333  0.666667  0.616660  1
  Se  Se11  1  0.666667  0.333333  0.383340  1
  Se  Se12  1  0.666667  0.333333  0.134040  1
  Se  Se13  1  0.333333  0.666667  0.865960  1
  Se  Se14  1  0.169858  0.339717  0.138523  1
  Se  Se15  1  0.830142  0.660283  0.861477  1
  Se  Se16  1  0.660283  0.830142  0.138523  1
  Se  Se17  1  0.832139  0.664278  0.620662  1
  Se  Se18  1  0.339717  0.169858  0.861477  1
  Se  Se19  1  0.167861  0.335722  0.379338  1
  Se  Se20  1  0.169858  0.830142  0.138523  1
  Se  Se21  1  0.335722  0.167861  0.620662  1
  Se  Se22  1  0.830142  0.169858  0.861477  1
  Se  Se23  1  0.664278  0.832139  0.379338  1
  Se  Se24  1  0.832139  0.167861  0.620662  1
  Se  Se25  1  0.167861  0.832139  0.379338  1
