# generated using pymatgen
data_Li4Nd2GdSn4
_symmetry_space_group_name_H-M   'P 1'
_cell_length_a   4.64981783
_cell_length_b   7.13149645
_cell_length_c   8.72521500
_cell_angle_alpha   114.12141350
_cell_angle_beta   105.45364172
_cell_angle_gamma   90.00000876
_symmetry_Int_Tables_number   1
_chemical_formula_structural   Li4Nd2GdSn4
_chemical_formula_sum   'Li4 Nd2 Gd1 Sn4'
_cell_volume   252.56118968
_cell_formula_units_Z   1
loop_
 _symmetry_equiv_pos_site_id
 _symmetry_equiv_pos_as_xyz
  1  'x, y, z'
loop_
 _atom_site_type_symbol
 _atom_site_label
 _atom_site_symmetry_multiplicity
 _atom_site_fract_x
 _atom_site_fract_y
 _atom_site_fract_z
 _atom_site_occupancy
  Li  Li0  1  0.326921  0.017356  0.653842  1
  Li  Li1  1  0.673079  0.982644  0.346158  1
  Li  Li2  1  0.326921  0.636486  0.653842  1
  Li  Li3  1  0.673079  0.363514  0.346158  1
  Nd  Nd4  1  0.870744  0.370744  0.741488  1
  Nd  Nd5  1  0.129256  0.629256  0.258512  1
  Gd  Gd6  1  0.000000  0.000000  0.000000  1
  Sn  Sn7  1  0.212492  0.212492  0.424984  1
  Sn  Sn8  1  0.787508  0.787508  0.575016  1
  Sn  Sn9  1  0.500000  0.298471  0.000000  1
  Sn  Sn10  1  0.500000  0.701529  0.000000  1
