# generated using pymatgen
data_CaHfTh2Bi5
_symmetry_space_group_name_H-M   'P 1'
_cell_length_a   9.56863000
_cell_length_b   9.74584197
_cell_length_c   6.58387400
_cell_angle_alpha   90.00000000
_cell_angle_beta   90.00000000
_cell_angle_gamma   119.40030092
_symmetry_Int_Tables_number   1
_chemical_formula_structural   CaHfTh2Bi5
_chemical_formula_sum   'Ca2 Hf2 Th4 Bi10'
_cell_volume   534.90185485
_cell_formula_units_Z   2
loop_
 _symmetry_equiv_pos_site_id
 _symmetry_equiv_pos_as_xyz
  1  'x, y, z'
loop_
 _atom_site_type_symbol
 _atom_site_label
 _atom_site_symmetry_multiplicity
 _atom_site_fract_x
 _atom_site_fract_y
 _atom_site_fract_z
 _atom_site_occupancy
  Ca  Ca0  1  0.612943  0.000000  0.250000  1
  Ca  Ca1  1  0.387057  0.000000  0.750000  1
  Hf  Hf2  1  0.000000  0.000000  0.000000  1
  Hf  Hf3  1  0.000000  0.000000  0.500000  1
  Th  Th4  1  0.007795  0.622488  0.250000  1
  Th  Th5  1  0.992205  0.377512  0.750000  1
  Th  Th6  1  0.385307  0.377512  0.250000  1
  Th  Th7  1  0.614693  0.622488  0.750000  1
  Bi  Bi8  1  0.267064  0.000000  0.250000  1
  Bi  Bi9  1  0.732936  0.000000  0.750000  1
  Bi  Bi10  1  0.995725  0.264266  0.250000  1
  Bi  Bi11  1  0.004275  0.735734  0.750000  1
  Bi  Bi12  1  0.731460  0.735734  0.250000  1
  Bi  Bi13  1  0.268540  0.264266  0.750000  1
  Bi  Bi14  1  0.328282  0.656564  0.000000  1
  Bi  Bi15  1  0.671718  0.343436  0.000000  1
  Bi  Bi16  1  0.671718  0.343436  0.500000  1
  Bi  Bi17  1  0.328282  0.656564  0.500000  1
