# generated using pymatgen
data_Zr6Ti3Al13Pd6Rh
_symmetry_space_group_name_H-M   'P 1'
_cell_length_a   8.84121846
_cell_length_b   8.84121762
_cell_length_c   8.84121796
_cell_angle_alpha   59.82781991
_cell_angle_beta   59.82782256
_cell_angle_gamma   59.82782133
_symmetry_Int_Tables_number   1
_chemical_formula_structural   Zr6Ti3Al13Pd6Rh
_chemical_formula_sum   'Zr6 Ti3 Al13 Pd6 Rh1'
_cell_volume   486.76661539
_cell_formula_units_Z   1
loop_
 _symmetry_equiv_pos_site_id
 _symmetry_equiv_pos_as_xyz
  1  'x, y, z'
loop_
 _atom_site_type_symbol
 _atom_site_label
 _atom_site_symmetry_multiplicity
 _atom_site_fract_x
 _atom_site_fract_y
 _atom_site_fract_z
 _atom_site_occupancy
  Zr  Zr0  1  0.690209  0.690209  0.308810  1
  Zr  Zr1  1  0.310248  0.688939  0.310248  1
  Zr  Zr2  1  0.688939  0.310248  0.310248  1
  Zr  Zr3  1  0.310248  0.310248  0.688939  1
  Zr  Zr4  1  0.690209  0.308810  0.690209  1
  Zr  Zr5  1  0.308810  0.690209  0.690209  1
  Ti  Ti6  1  0.880541  0.880541  0.356186  1
  Ti  Ti7  1  0.880541  0.356186  0.880541  1
  Ti  Ti8  1  0.356186  0.880541  0.880541  1
  Al  Al9  1  0.882728  0.882728  0.882728  1
  Al  Al10  1  0.119139  0.119139  0.643264  1
  Al  Al11  1  0.119139  0.643264  0.119139  1
  Al  Al12  1  0.643264  0.119139  0.119139  1
  Al  Al13  1  0.119981  0.119981  0.119981  1
  Al  Al14  1  0.665802  0.665802  0.002058  1
  Al  Al15  1  0.665802  0.002058  0.665802  1
  Al  Al16  1  0.002058  0.665802  0.665802  1
  Al  Al17  1  0.664817  0.664817  0.664817  1
  Al  Al18  1  0.334444  0.334444  0.996724  1
  Al  Al19  1  0.334444  0.996724  0.334444  1
  Al  Al20  1  0.996724  0.334444  0.334444  1
  Al  Al21  1  0.334044  0.334044  0.334044  1
  Pd  Pd22  1  0.999332  0.999332  0.501218  1
  Pd  Pd23  1  0.499824  0.999851  0.499824  1
  Pd  Pd24  1  0.999851  0.499824  0.499824  1
  Pd  Pd25  1  0.499824  0.499824  0.999851  1
  Pd  Pd26  1  0.999332  0.501218  0.999332  1
  Pd  Pd27  1  0.501218  0.999332  0.999332  1
  Rh  Rh28  1  0.002302  0.002302  0.002302  1
