# generated using pymatgen
data_La6ZnGa3Pt13
_symmetry_space_group_name_H-M   'P 1'
_cell_length_a   8.49560981
_cell_length_b   8.49561132
_cell_length_c   8.49561102
_cell_angle_alpha   109.58567397
_cell_angle_beta   109.58567539
_cell_angle_gamma   109.58566595
_symmetry_Int_Tables_number   1
_chemical_formula_structural   La6ZnGa3Pt13
_chemical_formula_sum   'La6 Zn1 Ga3 Pt13'
_cell_volume   470.01085043
_cell_formula_units_Z   1
loop_
 _symmetry_equiv_pos_site_id
 _symmetry_equiv_pos_as_xyz
  1  'x, y, z'
loop_
 _atom_site_type_symbol
 _atom_site_label
 _atom_site_symmetry_multiplicity
 _atom_site_fract_x
 _atom_site_fract_y
 _atom_site_fract_z
 _atom_site_occupancy
  La  La0  1  0.697004  0.697004  0.999066  1
  La  La1  1  0.302996  0.000934  0.302996  1
  La  La2  1  0.000934  0.302996  0.302996  1
  La  La3  1  0.302996  0.302996  0.000934  1
  La  La4  1  0.697004  0.999066  0.697004  1
  La  La5  1  0.999066  0.697004  0.697004  1
  Zn  Zn6  1  0.500000  0.500000  0.500000  1
  Ga  Ga7  1  0.000000  0.000000  0.500000  1
  Ga  Ga8  1  0.000000  0.500000  0.000000  1
  Ga  Ga9  1  0.500000  0.000000  0.000000  1
  Pt  Pt10  1  0.322277  0.322277  0.645163  1
  Pt  Pt11  1  0.679204  0.000000  0.320796  1
  Pt  Pt12  1  0.000000  0.679204  0.320796  1
  Pt  Pt13  1  0.679204  0.320796  0.000000  1
  Pt  Pt14  1  0.322277  0.645163  0.322277  1
  Pt  Pt15  1  0.000000  0.320796  0.679204  1
  Pt  Pt16  1  0.320796  0.679204  0.000000  1
  Pt  Pt17  1  0.320796  0.000000  0.679204  1
  Pt  Pt18  1  0.645163  0.322277  0.322277  1
  Pt  Pt19  1  0.677723  0.677723  0.354837  1
  Pt  Pt20  1  0.677723  0.354837  0.677723  1
  Pt  Pt21  1  0.354837  0.677723  0.677723  1
  Pt  Pt22  1  0.000000  0.000000  0.000000  1
