# generated using pymatgen
data_V2Co2SiP
_symmetry_space_group_name_H-M   'P 1'
_cell_length_a   3.51439100
_cell_length_b   5.92339402
_cell_length_c   6.77354602
_cell_angle_alpha   90.00893384
_cell_angle_beta   90.00000000
_cell_angle_gamma   90.00000000
_symmetry_Int_Tables_number   1
_chemical_formula_structural   V2Co2SiP
_chemical_formula_sum   'V4 Co4 Si2 P2'
_cell_volume   141.00573641
_cell_formula_units_Z   2
loop_
 _symmetry_equiv_pos_site_id
 _symmetry_equiv_pos_as_xyz
  1  'x, y, z'
loop_
 _atom_site_type_symbol
 _atom_site_label
 _atom_site_symmetry_multiplicity
 _atom_site_fract_x
 _atom_site_fract_y
 _atom_site_fract_z
 _atom_site_occupancy
  V  V0  1  0.250000  0.025478  0.173826  1
  V  V1  1  0.250000  0.525544  0.326040  1
  V  V2  1  0.750000  0.970509  0.831145  1
  V  V3  1  0.750000  0.470501  0.668949  1
  Co  Co4  1  0.250000  0.145081  0.554079  1
  Co  Co5  1  0.250000  0.645022  0.945894  1
  Co  Co6  1  0.750000  0.858972  0.433789  1
  Co  Co7  1  0.750000  0.358945  0.066272  1
  Si  Si8  1  0.250000  0.767933  0.626746  1
  Si  Si9  1  0.250000  0.267779  0.873290  1
  P  P10  1  0.750000  0.232134  0.374719  1
  P  P11  1  0.750000  0.732102  0.125254  1
