# generated using pymatgen
data_LaTi(Sb4Os)3
_symmetry_space_group_name_H-M   'P 1'
_cell_length_a   8.17934860
_cell_length_b   8.25494971
_cell_length_c   8.25495022
_cell_angle_alpha   109.65599305
_cell_angle_beta   109.28580040
_cell_angle_gamma   109.28581321
_symmetry_Int_Tables_number   1
_chemical_formula_structural   LaTi(Sb4Os)3
_chemical_formula_sum   'La1 Ti1 Sb12 Os3'
_cell_volume   430.04549225
_cell_formula_units_Z   1
loop_
 _symmetry_equiv_pos_site_id
 _symmetry_equiv_pos_as_xyz
  1  'x, y, z'
loop_
 _atom_site_type_symbol
 _atom_site_label
 _atom_site_symmetry_multiplicity
 _atom_site_fract_x
 _atom_site_fract_y
 _atom_site_fract_z
 _atom_site_occupancy
  La  La0  1  0.000000  0.000000  0.000000  1
  Ti  Ti1  1  0.500000  0.000000  0.000000  1
  Sb  Sb2  1  0.334926  0.187647  0.839679  1
  Sb  Sb3  1  0.665074  0.812353  0.160321  1
  Sb  Sb4  1  0.661731  0.505561  0.842185  1
  Sb  Sb5  1  0.338269  0.494439  0.157815  1
  Sb  Sb6  1  0.180453  0.842185  0.336623  1
  Sb  Sb7  1  0.819547  0.157815  0.663377  1
  Sb  Sb8  1  0.504753  0.839679  0.652032  1
  Sb  Sb9  1  0.495247  0.160321  0.347968  1
  Sb  Sb10  1  0.852721  0.347968  0.187647  1
  Sb  Sb11  1  0.147279  0.652032  0.812353  1
  Sb  Sb12  1  0.843830  0.663377  0.505561  1
  Sb  Sb13  1  0.156170  0.336623  0.494439  1
  Os  Os14  1  0.000000  0.000000  0.500000  1
  Os  Os15  1  0.000000  0.500000  0.000000  1
  Os  Os16  1  0.500000  0.500000  0.500000  1
