# generated using pymatgen
data_Ho9ScGa3Bi2Pt
_symmetry_space_group_name_H-M   'P 1'
_cell_length_a   8.56885959
_cell_length_b   8.56885917
_cell_length_c   8.69604586
_cell_angle_alpha   124.84492539
_cell_angle_beta   124.62978507
_cell_angle_gamma   80.99363957
_symmetry_Int_Tables_number   1
_chemical_formula_structural   Ho9ScGa3Bi2Pt
_chemical_formula_sum   'Ho9 Sc1 Ga3 Bi2 Pt1'
_cell_volume   417.61089077
_cell_formula_units_Z   1
loop_
 _symmetry_equiv_pos_site_id
 _symmetry_equiv_pos_as_xyz
  1  'x, y, z'
loop_
 _atom_site_type_symbol
 _atom_site_label
 _atom_site_symmetry_multiplicity
 _atom_site_fract_x
 _atom_site_fract_y
 _atom_site_fract_z
 _atom_site_occupancy
  Ho  Ho0  1  0.501508  0.503598  0.005106  1
  Ho  Ho1  1  0.787504  0.294750  0.801564  1
  Ho  Ho2  1  0.201610  0.716363  0.198387  1
  Ho  Ho3  1  0.482025  0.996777  0.198387  1
  Ho  Ho4  1  0.298062  0.465469  0.495544  1
  Ho  Ho5  1  0.030075  0.197482  0.495544  1
  Ho  Ho6  1  0.506813  0.014059  0.801564  1
  Ho  Ho7  1  0.705415  0.516281  0.503154  1
  Ho  Ho8  1  0.986873  0.797738  0.503154  1
  Sc  Sc9  1  0.995391  0.998248  0.993639  1
  Ga  Ga10  1  0.142436  0.649097  0.791533  1
  Ga  Ga11  1  0.856727  0.352301  0.209029  1
  Ga  Ga12  1  0.642412  0.861679  0.504091  1
  Bi  Bi13  1  0.243505  0.250678  0.999455  1
  Bi  Bi14  1  0.748777  0.755950  0.999455  1
  Pt  Pt15  1  0.370864  0.129532  0.500397  1
