# generated using pymatgen
data_Na2CdI4
_symmetry_space_group_name_H-M   'P 1'
_cell_length_a   7.63862800
_cell_length_b   9.39653300
_cell_length_c   16.14746600
_cell_angle_alpha   90.00000000
_cell_angle_beta   90.00000000
_cell_angle_gamma   90.00000000
_symmetry_Int_Tables_number   1
_chemical_formula_structural   Na2CdI4
_chemical_formula_sum   'Na8 Cd4 I16'
_cell_volume   1159.01053228
_cell_formula_units_Z   4
loop_
 _symmetry_equiv_pos_site_id
 _symmetry_equiv_pos_as_xyz
  1  'x, y, z'
loop_
 _atom_site_type_symbol
 _atom_site_label
 _atom_site_symmetry_multiplicity
 _atom_site_fract_x
 _atom_site_fract_y
 _atom_site_fract_z
 _atom_site_occupancy
  Na  Na0  1  0.000000  0.000000  0.000000  1
  Na  Na1  1  0.500000  0.000000  0.500000  1
  Na  Na2  1  0.000000  0.500000  0.000000  1
  Na  Na3  1  0.500000  0.500000  0.500000  1
  Na  Na4  1  0.999560  0.750000  0.265031  1
  Na  Na5  1  0.499560  0.250000  0.234969  1
  Na  Na6  1  0.000440  0.250000  0.734969  1
  Na  Na7  1  0.500440  0.750000  0.765031  1
  Cd  Cd8  1  0.595245  0.750000  0.087126  1
  Cd  Cd9  1  0.095245  0.250000  0.412874  1
  Cd  Cd10  1  0.404755  0.250000  0.912874  1
  Cd  Cd11  1  0.904755  0.750000  0.587126  1
  I  I12  1  0.228585  0.750000  0.090465  1
  I  I13  1  0.728585  0.250000  0.409535  1
  I  I14  1  0.771415  0.250000  0.909535  1
  I  I15  1  0.271415  0.750000  0.590465  1
  I  I16  1  0.748789  0.750000  0.426826  1
  I  I17  1  0.248789  0.250000  0.073174  1
  I  I18  1  0.251211  0.250000  0.573174  1
  I  I19  1  0.751211  0.750000  0.926826  1
  I  I20  1  0.753903  0.988115  0.166240  1
  I  I21  1  0.253903  0.011885  0.333760  1
  I  I22  1  0.246097  0.488115  0.833760  1
  I  I23  1  0.746097  0.511885  0.666240  1
  I  I24  1  0.246097  0.011885  0.833760  1
  I  I25  1  0.746097  0.988115  0.666240  1
  I  I26  1  0.753903  0.511885  0.166240  1
  I  I27  1  0.253903  0.488115  0.333760  1
