# generated using pymatgen
data_Ta9V2SiIr2
_symmetry_space_group_name_H-M   'P 1'
_cell_length_a   5.11192777
_cell_length_b   9.93883646
_cell_length_c   9.93883600
_cell_angle_alpha   86.27515941
_cell_angle_beta   75.12374336
_cell_angle_gamma   75.12376369
_symmetry_Int_Tables_number   1
_chemical_formula_structural   Ta9V2SiIr2
_chemical_formula_sum   'Ta18 V4 Si2 Ir4'
_cell_volume   471.67584056
_cell_formula_units_Z   2
loop_
 _symmetry_equiv_pos_site_id
 _symmetry_equiv_pos_as_xyz
  1  'x, y, z'
loop_
 _atom_site_type_symbol
 _atom_site_label
 _atom_site_symmetry_multiplicity
 _atom_site_fract_x
 _atom_site_fract_y
 _atom_site_fract_z
 _atom_site_occupancy
  Ta  Ta0  1  0.750000  0.500006  0.499994  1
  Ta  Ta1  1  0.250000  0.499994  0.500006  1
  Ta  Ta2  1  0.794699  0.771080  0.639261  1
  Ta  Ta3  1  0.205301  0.228920  0.360739  1
  Ta  Ta4  1  0.705301  0.360739  0.228920  1
  Ta  Ta5  1  0.294699  0.639261  0.771080  1
  Ta  Ta6  1  0.566081  0.639191  0.228689  1
  Ta  Ta7  1  0.433919  0.360809  0.771311  1
  Ta  Ta8  1  0.066081  0.228689  0.639191  1
  Ta  Ta9  1  0.933919  0.771311  0.360809  1
  Ta  Ta10  1  0.582231  0.073851  0.761655  1
  Ta  Ta11  1  0.417769  0.926149  0.238345  1
  Ta  Ta12  1  0.917769  0.238345  0.926149  1
  Ta  Ta13  1  0.082231  0.761655  0.073851  1
  Ta  Ta14  1  0.655887  0.761908  0.925955  1
  Ta  Ta15  1  0.344113  0.238092  0.074045  1
  Ta  Ta16  1  0.155887  0.925955  0.761908  1
  Ta  Ta17  1  0.844113  0.074045  0.238092  1
  V  V18  1  0.500000  0.000000  0.500000  1
  V  V19  1  0.000000  0.000000  0.500000  1
  V  V20  1  0.500000  0.500000  0.000000  1
  V  V21  1  0.000000  0.500000  0.000000  1
  Si  Si22  1  0.250000  0.999816  0.000184  1
  Si  Si23  1  0.750000  0.000184  0.999816  1
  Ir  Ir24  1  0.130839  0.500104  0.238197  1
  Ir  Ir25  1  0.869161  0.499896  0.761803  1
  Ir  Ir26  1  0.369161  0.761803  0.499896  1
  Ir  Ir27  1  0.630839  0.238197  0.500104  1
