# generated using pymatgen
data_La8Cd2TcPd
_symmetry_space_group_name_H-M   'P 1'
_cell_length_a   10.15098022
_cell_length_b   10.15097982
_cell_length_c   10.27541800
_cell_angle_alpha   59.59364896
_cell_angle_beta   59.59365027
_cell_angle_gamma   59.31768820
_symmetry_Int_Tables_number   1
_chemical_formula_structural   La8Cd2TcPd
_chemical_formula_sum   'La16 Cd4 Tc2 Pd2'
_cell_volume   740.19047922
_cell_formula_units_Z   2
loop_
 _symmetry_equiv_pos_site_id
 _symmetry_equiv_pos_as_xyz
  1  'x, y, z'
loop_
 _atom_site_type_symbol
 _atom_site_label
 _atom_site_symmetry_multiplicity
 _atom_site_fract_x
 _atom_site_fract_y
 _atom_site_fract_z
 _atom_site_occupancy
  La  La0  1  0.346168  0.346168  0.357120  1
  La  La1  1  0.346168  0.346168  0.950543  1
  La  La2  1  0.342813  0.958710  0.349238  1
  La  La3  1  0.958710  0.342813  0.349238  1
  La  La4  1  0.819105  0.190061  0.189154  1
  La  La5  1  0.190061  0.819105  0.801681  1
  La  La6  1  0.190061  0.819105  0.189154  1
  La  La7  1  0.819105  0.190061  0.801681  1
  La  La8  1  0.188289  0.188289  0.811711  1
  La  La9  1  0.804430  0.804430  0.195570  1
  La  La10  1  0.939047  0.555752  0.564761  1
  La  La11  1  0.555752  0.939047  0.940440  1
  La  La12  1  0.555752  0.939047  0.564761  1
  La  La13  1  0.939047  0.555752  0.940440  1
  La  La14  1  0.561923  0.561923  0.938077  1
  La  La15  1  0.941694  0.941694  0.558306  1
  Cd  Cd16  1  0.579332  0.579332  0.579933  1
  Cd  Cd17  1  0.579332  0.579332  0.261404  1
  Cd  Cd18  1  0.579223  0.260870  0.579954  1
  Cd  Cd19  1  0.260870  0.579223  0.579954  1
  Tc  Tc20  1  0.139543  0.139543  0.134231  1
  Tc  Tc21  1  0.139543  0.139543  0.586683  1
  Pd  Pd22  1  0.146921  0.577113  0.137984  1
  Pd  Pd23  1  0.577113  0.146921  0.137984  1
