# generated using pymatgen
data_Sr2Ga5SiPd2
_symmetry_space_group_name_H-M   'P 1'
_cell_length_a   6.17892924
_cell_length_b   6.17892848
_cell_length_c   5.97795400
_cell_angle_alpha   90.00000000
_cell_angle_beta   90.00000000
_cell_angle_gamma   115.93844108
_symmetry_Int_Tables_number   1
_chemical_formula_structural   Sr2Ga5SiPd2
_chemical_formula_sum   'Sr2 Ga5 Si1 Pd2'
_cell_volume   205.24208387
_cell_formula_units_Z   1
loop_
 _symmetry_equiv_pos_site_id
 _symmetry_equiv_pos_as_xyz
  1  'x, y, z'
loop_
 _atom_site_type_symbol
 _atom_site_label
 _atom_site_symmetry_multiplicity
 _atom_site_fract_x
 _atom_site_fract_y
 _atom_site_fract_z
 _atom_site_occupancy
  Sr  Sr0  1  0.233318  0.766682  0.750000  1
  Sr  Sr1  1  0.766677  0.233323  0.250000  1
  Ga  Ga2  1  0.339627  0.660373  0.250000  1
  Ga  Ga3  1  0.721351  0.716747  0.994831  1
  Ga  Ga4  1  0.721351  0.716747  0.505169  1
  Ga  Ga5  1  0.283253  0.278649  0.994831  1
  Ga  Ga6  1  0.283253  0.278649  0.505169  1
  Si  Si7  1  0.660420  0.339580  0.750000  1
  Pd  Pd8  1  0.893707  0.106293  0.750000  1
  Pd  Pd9  1  0.097041  0.902959  0.250000  1
