# generated using pymatgen
data_Sr6Sc2RhO12
_symmetry_space_group_name_H-M   'P 1'
_cell_length_a   9.02262660
_cell_length_b   9.02262542
_cell_length_c   7.00138501
_cell_angle_alpha   67.31716874
_cell_angle_beta   67.31717854
_cell_angle_gamma   36.87818295
_symmetry_Int_Tables_number   1
_chemical_formula_structural   Sr6Sc2RhO12
_chemical_formula_sum   'Sr6 Sc2 Rh1 O12'
_cell_volume   312.51098622
_cell_formula_units_Z   1
loop_
 _symmetry_equiv_pos_site_id
 _symmetry_equiv_pos_as_xyz
  1  'x, y, z'
loop_
 _atom_site_type_symbol
 _atom_site_label
 _atom_site_symmetry_multiplicity
 _atom_site_fract_x
 _atom_site_fract_y
 _atom_site_fract_z
 _atom_site_occupancy
  Sr  Sr0  1  0.878219  0.878219  0.710690  1
  Sr  Sr1  1  0.218219  0.218219  0.711537  1
  Sr  Sr2  1  0.547553  0.547553  0.707464  1
  Sr  Sr3  1  0.452447  0.452447  0.292536  1
  Sr  Sr4  1  0.781781  0.781781  0.288463  1
  Sr  Sr5  1  0.121781  0.121781  0.289310  1
  Sc  Sc6  1  0.667447  0.667447  0.998972  1
  Sc  Sc7  1  0.332553  0.332553  0.001028  1
  Rh  Rh8  1  0.000000  0.000000  0.000000  1
  O  O9  1  0.947563  0.947563  0.317349  1
  O  O10  1  0.281632  0.281632  0.332934  1
  O  O11  1  0.607069  0.607069  0.331710  1
  O  O12  1  0.392931  0.392931  0.668290  1
  O  O13  1  0.718368  0.718368  0.667066  1
  O  O14  1  0.052437  0.052437  0.682651  1
  O  O15  1  0.500000  0.000000  0.000000  1
  O  O16  1  0.839335  0.319899  0.000344  1
  O  O17  1  0.160665  0.680101  0.999656  1
  O  O18  1  0.000000  0.500000  0.000000  1
  O  O19  1  0.319899  0.839335  0.000344  1
  O  O20  1  0.680101  0.160665  0.999656  1
