# generated using pymatgen
data_HoEr2Co3(NiP)6
_symmetry_space_group_name_H-M   'P 1'
_cell_length_a   3.73325900
_cell_length_b   10.43196000
_cell_length_c   12.22061000
_cell_angle_alpha   90.00000000
_cell_angle_beta   90.00000000
_cell_angle_gamma   90.00000000
_symmetry_Int_Tables_number   1
_chemical_formula_structural   HoEr2Co3(NiP)6
_chemical_formula_sum   'Ho2 Er4 Co6 Ni12 P12'
_cell_volume   475.93420515
_cell_formula_units_Z   2
loop_
 _symmetry_equiv_pos_site_id
 _symmetry_equiv_pos_as_xyz
  1  'x, y, z'
loop_
 _atom_site_type_symbol
 _atom_site_label
 _atom_site_symmetry_multiplicity
 _atom_site_fract_x
 _atom_site_fract_y
 _atom_site_fract_z
 _atom_site_occupancy
  Ho  Ho0  1  0.000000  0.500000  0.520392  1
  Ho  Ho1  1  0.500000  0.000000  0.479608  1
  Er  Er2  1  0.500000  0.815488  0.205914  1
  Er  Er3  1  0.500000  0.184512  0.205914  1
  Er  Er4  1  0.000000  0.684512  0.794086  1
  Er  Er5  1  0.000000  0.315488  0.794086  1
  Co  Co6  1  0.000000  0.500000  0.983605  1
  Co  Co7  1  0.500000  0.000000  0.016395  1
  Co  Co8  1  0.500000  0.334276  0.994779  1
  Co  Co9  1  0.500000  0.665724  0.994779  1
  Co  Co10  1  0.000000  0.165724  0.005221  1
  Co  Co11  1  0.000000  0.834276  0.005221  1
  Ni  Ni12  1  0.500000  0.300435  0.429886  1
  Ni  Ni13  1  0.500000  0.699565  0.429886  1
  Ni  Ni14  1  0.000000  0.199565  0.570114  1
  Ni  Ni15  1  0.000000  0.800435  0.570114  1
  Ni  Ni16  1  0.500000  0.878722  0.713820  1
  Ni  Ni17  1  0.500000  0.121278  0.713820  1
  Ni  Ni18  1  0.000000  0.621278  0.286180  1
  Ni  Ni19  1  0.000000  0.378722  0.286180  1
  Ni  Ni20  1  0.500000  0.500000  0.157479  1
  Ni  Ni21  1  0.000000  0.000000  0.842521  1
  Ni  Ni22  1  0.500000  0.500000  0.703206  1
  Ni  Ni23  1  0.000000  0.000000  0.296794  1
  P  P24  1  0.500000  0.313604  0.616700  1
  P  P25  1  0.500000  0.686396  0.616700  1
  P  P26  1  0.000000  0.186396  0.383300  1
  P  P27  1  0.000000  0.813604  0.383300  1
  P  P28  1  0.500000  0.500000  0.880705  1
  P  P29  1  0.000000  0.000000  0.119295  1
  P  P30  1  0.500000  0.845576  0.897073  1
  P  P31  1  0.500000  0.154424  0.897073  1
  P  P32  1  0.000000  0.654424  0.102927  1
  P  P33  1  0.000000  0.345576  0.102927  1
  P  P34  1  0.500000  0.500000  0.343480  1
  P  P35  1  0.000000  0.000000  0.656520  1
