# generated using pymatgen
data_Ba6CaSc(BO3)6
_symmetry_space_group_name_H-M   'P 1'
_cell_length_a   8.19466946
_cell_length_b   8.19466894
_cell_length_c   8.19467021
_cell_angle_alpha   105.64798072
_cell_angle_beta   105.64798523
_cell_angle_gamma   105.64798407
_symmetry_Int_Tables_number   1
_chemical_formula_structural   Ba6CaSc(BO3)6
_chemical_formula_sum   'Ba6 Ca1 Sc1 B6 O18'
_cell_volume   474.17820776
_cell_formula_units_Z   1
loop_
 _symmetry_equiv_pos_site_id
 _symmetry_equiv_pos_as_xyz
  1  'x, y, z'
loop_
 _atom_site_type_symbol
 _atom_site_label
 _atom_site_symmetry_multiplicity
 _atom_site_fract_x
 _atom_site_fract_y
 _atom_site_fract_z
 _atom_site_occupancy
  Ba  Ba0  1  0.348906  0.733622  0.839273  1
  Ba  Ba1  1  0.839273  0.348906  0.733622  1
  Ba  Ba2  1  0.733622  0.839273  0.348906  1
  Ba  Ba3  1  0.651094  0.266378  0.160727  1
  Ba  Ba4  1  0.160727  0.651094  0.266378  1
  Ba  Ba5  1  0.266378  0.160727  0.651094  1
  Ca  Ca6  1  0.000000  0.000000  0.000000  1
  Sc  Sc7  1  0.500000  0.500000  0.500000  1
  B  B8  1  0.377565  0.052627  0.296608  1
  B  B9  1  0.296608  0.377565  0.052627  1
  B  B10  1  0.052627  0.296608  0.377565  1
  B  B11  1  0.703392  0.622435  0.947373  1
  B  B12  1  0.947373  0.703392  0.622435  1
  B  B13  1  0.622435  0.947373  0.703392  1
  O  O14  1  0.425730  0.492252  0.227691  1
  O  O15  1  0.227691  0.425730  0.492252  1
  O  O16  1  0.804546  0.012053  0.727168  1
  O  O17  1  0.012053  0.727168  0.804546  1
  O  O18  1  0.727168  0.804546  0.012053  1
  O  O19  1  0.272832  0.195454  0.987947  1
  O  O20  1  0.195454  0.987947  0.272832  1
  O  O21  1  0.987947  0.272832  0.195454  1
  O  O22  1  0.547708  0.054603  0.797355  1
  O  O23  1  0.054603  0.797355  0.547708  1
  O  O24  1  0.797355  0.547708  0.054603  1
  O  O25  1  0.452292  0.945397  0.202645  1
  O  O26  1  0.945397  0.202645  0.452292  1
  O  O27  1  0.202645  0.452292  0.945397  1
  O  O28  1  0.507748  0.772309  0.574270  1
  O  O29  1  0.772309  0.574270  0.507748  1
  O  O30  1  0.574270  0.507748  0.772309  1
  O  O31  1  0.492252  0.227691  0.425730  1
