# generated using pymatgen
data_Dy4Si10Ir5Os
_symmetry_space_group_name_H-M   'P 1'
_cell_length_a   5.84505198
_cell_length_b   8.14705960
_cell_length_c   8.14706067
_cell_angle_alpha   75.12155160
_cell_angle_beta   68.97829622
_cell_angle_gamma   68.97829337
_symmetry_Int_Tables_number   1
_chemical_formula_structural   Dy4Si10Ir5Os
_chemical_formula_sum   'Dy4 Si10 Ir5 Os1'
_cell_volume   334.36685825
_cell_formula_units_Z   1
loop_
 _symmetry_equiv_pos_site_id
 _symmetry_equiv_pos_as_xyz
  1  'x, y, z'
loop_
 _atom_site_type_symbol
 _atom_site_label
 _atom_site_symmetry_multiplicity
 _atom_site_fract_x
 _atom_site_fract_y
 _atom_site_fract_z
 _atom_site_occupancy
  Dy  Dy0  1  0.871744  0.860903  0.401313  1
  Dy  Dy1  1  0.133958  0.139097  0.598687  1
  Dy  Dy2  1  0.366042  0.401313  0.860903  1
  Dy  Dy3  1  0.628256  0.598687  0.139097  1
  Si  Si4  1  0.250000  0.500000  0.500000  1
  Si  Si5  1  0.750000  0.500000  0.500000  1
  Si  Si6  1  0.027697  0.222303  0.222303  1
  Si  Si7  1  0.472303  0.777697  0.777697  1
  Si  Si8  1  0.974655  0.775345  0.775345  1
  Si  Si9  1  0.525345  0.224655  0.224655  1
  Si  Si10  1  0.602829  0.051495  0.740844  1
  Si  Si11  1  0.395166  0.948505  0.259156  1
  Si  Si12  1  0.104834  0.740844  0.051495  1
  Si  Si13  1  0.897171  0.259156  0.948505  1
  Ir  Ir14  1  0.750000  0.000000  0.000000  1
  Ir  Ir15  1  0.643181  0.246197  0.472511  1
  Ir  Ir16  1  0.361892  0.753803  0.527489  1
  Ir  Ir17  1  0.138108  0.472511  0.246197  1
  Ir  Ir18  1  0.856819  0.527489  0.753803  1
  Os  Os19  1  0.250000  0.000000  0.000000  1
