# generated using pymatgen
data_DyEr4(FeB3)2
_symmetry_space_group_name_H-M   'P 1'
_cell_length_a   8.22042904
_cell_length_b   8.22042970
_cell_length_c   8.22042847
_cell_angle_alpha   38.33925836
_cell_angle_beta   38.33926821
_cell_angle_gamma   38.33925514
_symmetry_Int_Tables_number   1
_chemical_formula_structural   DyEr4(FeB3)2
_chemical_formula_sum   'Dy1 Er4 Fe2 B6'
_cell_volume   191.99364420
_cell_formula_units_Z   1
loop_
 _symmetry_equiv_pos_site_id
 _symmetry_equiv_pos_as_xyz
  1  'x, y, z'
loop_
 _atom_site_type_symbol
 _atom_site_label
 _atom_site_symmetry_multiplicity
 _atom_site_fract_x
 _atom_site_fract_y
 _atom_site_fract_z
 _atom_site_occupancy
  Dy  Dy0  1  0.000000  0.000000  0.000000  1
  Er  Er1  1  0.583203  0.583203  0.583203  1
  Er  Er2  1  0.416797  0.416797  0.416797  1
  Er  Er3  1  0.749091  0.749091  0.749091  1
  Er  Er4  1  0.250909  0.250909  0.250909  1
  Fe  Fe5  1  0.882508  0.882508  0.882508  1
  Fe  Fe6  1  0.117492  0.117492  0.117492  1
  B  B7  1  0.500000  0.831874  0.168126  1
  B  B8  1  0.168126  0.500000  0.831874  1
  B  B9  1  0.831874  0.168126  0.500000  1
  B  B10  1  0.500000  0.168126  0.831874  1
  B  B11  1  0.831874  0.500000  0.168126  1
  B  B12  1  0.168126  0.831874  0.500000  1
