# generated using pymatgen
data_Ac2Fe2Si2C
_symmetry_space_group_name_H-M   'P 1'
_cell_length_a   4.07844617
_cell_length_b   5.95452026
_cell_length_c   6.34779965
_cell_angle_alpha   73.23103734
_cell_angle_beta   71.26154168
_cell_angle_gamma   69.97280037
_symmetry_Int_Tables_number   1
_chemical_formula_structural   Ac2Fe2Si2C
_chemical_formula_sum   'Ac2 Fe2 Si2 C1'
_cell_volume   134.37009644
_cell_formula_units_Z   1
loop_
 _symmetry_equiv_pos_site_id
 _symmetry_equiv_pos_as_xyz
  1  'x, y, z'
loop_
 _atom_site_type_symbol
 _atom_site_label
 _atom_site_symmetry_multiplicity
 _atom_site_fract_x
 _atom_site_fract_y
 _atom_site_fract_z
 _atom_site_occupancy
  Ac  Ac0  1  0.443672  0.805105  0.307552  1
  Ac  Ac1  1  0.556328  0.194895  0.692448  1
  Fe  Fe2  1  0.814320  0.296555  0.074805  1
  Fe  Fe3  1  0.185680  0.703445  0.925195  1
  Si  Si4  1  0.802692  0.623280  0.771336  1
  Si  Si5  1  0.197309  0.376720  0.228664  1
  C  C6  1  0.000000  0.000000  0.000000  1
