# generated using pymatgen
data_Ho4Al24Pt4Rh3Au2
_symmetry_space_group_name_H-M   'P 1'
_cell_length_a   7.52709751
_cell_length_b   7.55269478
_cell_length_c   13.19923165
_cell_angle_alpha   84.65503297
_cell_angle_beta   79.18689516
_cell_angle_gamma   59.87417611
_symmetry_Int_Tables_number   1
_chemical_formula_structural   Ho4Al24Pt4Rh3Au2
_chemical_formula_sum   'Ho4 Al24 Pt4 Rh3 Au2'
_cell_volume   637.49380384
_cell_formula_units_Z   1
loop_
 _symmetry_equiv_pos_site_id
 _symmetry_equiv_pos_as_xyz
  1  'x, y, z'
loop_
 _atom_site_type_symbol
 _atom_site_label
 _atom_site_symmetry_multiplicity
 _atom_site_fract_x
 _atom_site_fract_y
 _atom_site_fract_z
 _atom_site_occupancy
  Ho  Ho0  1  0.392085  0.169446  0.810302  1
  Ho  Ho1  1  0.607915  0.830554  0.189698  1
  Ho  Ho2  1  0.733912  0.498640  0.811145  1
  Ho  Ho3  1  0.266088  0.501360  0.188855  1
  Al  Al4  1  0.681707  0.834551  0.947868  1
  Al  Al5  1  0.318293  0.165449  0.052132  1
  Al  Al6  1  0.146188  0.838298  0.561570  1
  Al  Al7  1  0.853812  0.161702  0.438430  1
  Al  Al8  1  0.488244  0.158813  0.558931  1
  Al  Al9  1  0.511756  0.841187  0.441069  1
  Al  Al10  1  0.222867  0.160429  0.323066  1
  Al  Al11  1  0.777133  0.839571  0.676934  1
  Al  Al12  1  0.437720  0.508012  0.676644  1
  Al  Al13  1  0.562280  0.491988  0.323356  1
  Al  Al14  1  0.107773  0.153540  0.674919  1
  Al  Al15  1  0.892227  0.846460  0.325081  1
  Al  Al16  1  0.352811  0.498569  0.947775  1
  Al  Al17  1  0.647189  0.501431  0.052225  1
  Al  Al18  1  0.014085  0.168496  0.958388  1
  Al  Al19  1  0.985915  0.831504  0.041612  1
  Al  Al20  1  0.195784  0.499309  0.438028  1
  Al  Al21  1  0.804216  0.500691  0.561972  1
  Al  Al22  1  0.732140  0.164311  0.179922  1
  Al  Al23  1  0.267860  0.835689  0.820078  1
  Al  Al24  1  0.059343  0.632412  0.821582  1
  Al  Al25  1  0.940657  0.367588  0.178418  1
  Al  Al26  1  0.851230  0.044762  0.819853  1
  Al  Al27  1  0.148770  0.955238  0.180147  1
  Pt  Pt28  1  0.537520  0.166859  0.362254  1
  Pt  Pt29  1  0.462480  0.833141  0.637746  1
  Pt  Pt30  1  0.779178  0.175139  0.636425  1
  Pt  Pt31  1  0.220822  0.824861  0.363575  1
  Rh  Rh32  1  0.656929  0.171740  0.999958  1
  Rh  Rh33  1  0.343071  0.828260  0.000042  1
  Rh  Rh34  1  0.000000  0.500000  0.000000  1
  Au  Au35  1  0.119841  0.491103  0.637719  1
  Au  Au36  1  0.880159  0.508897  0.362281  1
