# generated using pymatgen
data_YbEr3PdPt3O14
_symmetry_space_group_name_H-M   'P 1'
_cell_length_a   7.24077342
_cell_length_b   7.24077224
_cell_length_c   7.24077230
_cell_angle_alpha   59.77062965
_cell_angle_beta   59.77062257
_cell_angle_gamma   59.77062557
_symmetry_Int_Tables_number   1
_chemical_formula_structural   YbEr3PdPt3O14
_chemical_formula_sum   'Yb1 Er3 Pd1 Pt3 O14'
_cell_volume   267.03737435
_cell_formula_units_Z   1
loop_
 _symmetry_equiv_pos_site_id
 _symmetry_equiv_pos_as_xyz
  1  'x, y, z'
loop_
 _atom_site_type_symbol
 _atom_site_label
 _atom_site_symmetry_multiplicity
 _atom_site_fract_x
 _atom_site_fract_y
 _atom_site_fract_z
 _atom_site_occupancy
  Yb  Yb0  1  0.625000  0.625000  0.625000  1
  Er  Er1  1  0.625000  0.625000  0.125000  1
  Er  Er2  1  0.625000  0.125000  0.625000  1
  Er  Er3  1  0.125000  0.625000  0.625000  1
  Pd  Pd4  1  0.125000  0.125000  0.125000  1
  Pt  Pt5  1  0.625000  0.125000  0.125000  1
  Pt  Pt6  1  0.125000  0.625000  0.125000  1
  Pt  Pt7  1  0.125000  0.125000  0.625000  1
  O  O8  1  0.043954  0.462449  0.462449  1
  O  O9  1  0.787551  0.787551  0.206046  1
  O  O10  1  0.783692  0.215466  0.215466  1
  O  O11  1  0.752630  0.752630  0.752630  1
  O  O12  1  0.034534  0.466308  0.034534  1
  O  O13  1  0.462449  0.043954  0.462449  1
  O  O14  1  0.034534  0.034534  0.466308  1
  O  O15  1  0.497370  0.497370  0.497370  1
  O  O16  1  0.215466  0.215466  0.783692  1
  O  O17  1  0.215466  0.783692  0.215466  1
  O  O18  1  0.787551  0.206046  0.787551  1
  O  O19  1  0.466308  0.034534  0.034534  1
  O  O20  1  0.462449  0.462449  0.043954  1
  O  O21  1  0.206046  0.787551  0.787551  1
