# generated using pymatgen
data_Dy8Ti11Si16Os
_symmetry_space_group_name_H-M   'P 1'
_cell_length_a   7.02870816
_cell_length_b   7.01814146
_cell_length_c   12.91626841
_cell_angle_alpha   90.21117222
_cell_angle_beta   90.13143829
_cell_angle_gamma   90.04447745
_symmetry_Int_Tables_number   1
_chemical_formula_structural   Dy8Ti11Si16Os
_chemical_formula_sum   'Dy8 Ti11 Si16 Os1'
_cell_volume   637.13353527
_cell_formula_units_Z   1
loop_
 _symmetry_equiv_pos_site_id
 _symmetry_equiv_pos_as_xyz
  1  'x, y, z'
loop_
 _atom_site_type_symbol
 _atom_site_label
 _atom_site_symmetry_multiplicity
 _atom_site_fract_x
 _atom_site_fract_y
 _atom_site_fract_z
 _atom_site_occupancy
  Dy  Dy0  1  0.998709  0.658131  0.035505  1
  Dy  Dy1  1  0.001413  0.341695  0.530795  1
  Dy  Dy2  1  0.660587  0.996390  0.967060  1
  Dy  Dy3  1  0.158834  0.501092  0.783343  1
  Dy  Dy4  1  0.840052  0.495708  0.283057  1
  Dy  Dy5  1  0.500871  0.159795  0.218802  1
  Dy  Dy6  1  0.497208  0.839279  0.715183  1
  Dy  Dy7  1  0.341183  0.001957  0.466906  1
  Ti  Ti8  1  0.844737  0.990578  0.376084  1
  Ti  Ti9  1  0.010737  0.157077  0.127704  1
  Ti  Ti10  1  0.995713  0.842478  0.621087  1
  Ti  Ti11  1  0.508336  0.345694  0.625876  1
  Ti  Ti12  1  0.153187  0.008095  0.874637  1
  Ti  Ti13  1  0.669218  0.670211  0.498410  1
  Ti  Ti14  1  0.825953  0.172744  0.750170  1
  Ti  Ti15  1  0.177185  0.824226  0.251160  1
  Ti  Ti16  1  0.328624  0.328158  0.001151  1
  Ti  Ti17  1  0.496185  0.654576  0.124166  1
  Ti  Ti18  1  0.653436  0.493297  0.875077  1
  Si  Si19  1  0.047899  0.710304  0.434838  1
  Si  Si20  1  0.954446  0.290725  0.935964  1
  Si  Si21  1  0.709611  0.046753  0.564877  1
  Si  Si22  1  0.210647  0.456136  0.187981  1
  Si  Si23  1  0.790549  0.546611  0.684866  1
  Si  Si24  1  0.454678  0.208227  0.815057  1
  Si  Si25  1  0.543250  0.787252  0.313503  1
  Si  Si26  1  0.291582  0.953658  0.064389  1
  Si  Si27  1  0.797623  0.871052  0.184384  1
  Si  Si28  1  0.299190  0.629712  0.562909  1
  Si  Si29  1  0.702137  0.368361  0.066495  1
  Si  Si30  1  0.624418  0.302365  0.434067  1
  Si  Si31  1  0.369019  0.702506  0.934125  1
  Si  Si32  1  0.129572  0.205943  0.317774  1
  Si  Si33  1  0.200849  0.130541  0.682970  1
  Si  Si34  1  0.869809  0.797964  0.814801  1
  Os  Os35  1  0.342553  0.510712  0.374830  1
