# generated using pymatgen
data_Sr10CrW3N14
_symmetry_space_group_name_H-M   'P 1'
_cell_length_a   6.49017264
_cell_length_b   9.26457325
_cell_length_c   9.33358735
_cell_angle_alpha   114.99707750
_cell_angle_beta   96.49381908
_cell_angle_gamma   89.29274528
_symmetry_Int_Tables_number   1
_chemical_formula_structural   Sr10CrW3N14
_chemical_formula_sum   'Sr10 Cr1 W3 N14'
_cell_volume   504.99164229
_cell_formula_units_Z   1
loop_
 _symmetry_equiv_pos_site_id
 _symmetry_equiv_pos_as_xyz
  1  'x, y, z'
loop_
 _atom_site_type_symbol
 _atom_site_label
 _atom_site_symmetry_multiplicity
 _atom_site_fract_x
 _atom_site_fract_y
 _atom_site_fract_z
 _atom_site_occupancy
  Sr  Sr0  1  0.845711  0.588032  0.327338  1
  Sr  Sr1  1  0.263503  0.984162  0.555117  1
  Sr  Sr2  1  0.702918  0.412691  0.845457  1
  Sr  Sr3  1  0.297020  0.583611  0.147817  1
  Sr  Sr4  1  0.403950  0.790822  0.922527  1
  Sr  Sr5  1  0.597253  0.210244  0.084965  1
  Sr  Sr6  1  0.152788  0.410852  0.671844  1
  Sr  Sr7  1  0.897518  0.846470  0.759587  1
  Sr  Sr8  1  0.107052  0.159359  0.242309  1
  Sr  Sr9  1  0.736298  0.019503  0.443663  1
  Cr  Cr10  1  0.574519  0.355381  0.475023  1
  W  W11  1  0.423866  0.636555  0.523781  1
  W  W12  1  0.122109  0.215236  0.914254  1
  W  W13  1  0.880839  0.785101  0.085660  1
  N  N14  1  0.529936  0.543956  0.670708  1
  N  N15  1  0.466880  0.444141  0.328194  1
  N  N16  1  0.151493  0.698282  0.549990  1
  N  N17  1  0.827053  0.304074  0.449699  1
  N  N18  1  0.418167  0.201305  0.467487  1
  N  N19  1  0.588965  0.806535  0.534438  1
  N  N20  1  0.954744  0.134590  0.714671  1
  N  N21  1  0.050070  0.869703  0.284350  1
  N  N22  1  0.233774  0.050572  0.962785  1
  N  N23  1  0.767055  0.949587  0.038262  1
  N  N24  1  0.353189  0.329134  0.900382  1
  N  N25  1  0.967442  0.346412  0.080324  1
  N  N26  1  0.036040  0.653015  0.919937  1
  N  N27  1  0.649848  0.670676  0.099433  1
