# generated using pymatgen
data_Cs6InBi3
_symmetry_space_group_name_H-M   'P 1'
_cell_length_a   6.71646200
_cell_length_b   11.61733193
_cell_length_c   13.68546324
_cell_angle_alpha   78.58554476
_cell_angle_beta   90.00000000
_cell_angle_gamma   90.00000000
_symmetry_Int_Tables_number   1
_chemical_formula_structural   Cs6InBi3
_chemical_formula_sum   'Cs12 In2 Bi6'
_cell_volume   1046.72015644
_cell_formula_units_Z   2
loop_
 _symmetry_equiv_pos_site_id
 _symmetry_equiv_pos_as_xyz
  1  'x, y, z'
loop_
 _atom_site_type_symbol
 _atom_site_label
 _atom_site_symmetry_multiplicity
 _atom_site_fract_x
 _atom_site_fract_y
 _atom_site_fract_z
 _atom_site_occupancy
  Cs  Cs0  1  0.750000  0.458734  0.079103  1
  Cs  Cs1  1  0.250000  0.541266  0.920897  1
  Cs  Cs2  1  0.750000  0.739361  0.229067  1
  Cs  Cs3  1  0.250000  0.260639  0.770933  1
  Cs  Cs4  1  0.250000  0.565963  0.537082  1
  Cs  Cs5  1  0.750000  0.434037  0.462918  1
  Cs  Cs6  1  0.250000  0.866864  0.017186  1
  Cs  Cs7  1  0.750000  0.133136  0.982814  1
  Cs  Cs8  1  0.250000  0.872629  0.673337  1
  Cs  Cs9  1  0.750000  0.127371  0.326663  1
  Cs  Cs10  1  0.250000  0.921552  0.369291  1
  Cs  Cs11  1  0.750000  0.078448  0.630709  1
  In  In12  1  0.250000  0.322949  0.280261  1
  In  In13  1  0.750000  0.677051  0.719739  1
  Bi  Bi14  1  0.250000  0.175349  0.125516  1
  Bi  Bi15  1  0.750000  0.824651  0.874484  1
  Bi  Bi16  1  0.250000  0.209391  0.491377  1
  Bi  Bi17  1  0.750000  0.790609  0.508623  1
  Bi  Bi18  1  0.250000  0.576498  0.224273  1
  Bi  Bi19  1  0.750000  0.423502  0.775727  1
