# generated using pymatgen
data_Ho19TmPb16
_symmetry_space_group_name_H-M   'P 1'
_cell_length_a   8.17849204
_cell_length_b   8.24468404
_cell_length_c   15.60258900
_cell_angle_alpha   90.00000000
_cell_angle_beta   90.00000000
_cell_angle_gamma   90.01118486
_symmetry_Int_Tables_number   1
_chemical_formula_structural   Ho19TmPb16
_chemical_formula_sum   'Ho19 Tm1 Pb16'
_cell_volume   1052.06824520
_cell_formula_units_Z   1
loop_
 _symmetry_equiv_pos_site_id
 _symmetry_equiv_pos_as_xyz
  1  'x, y, z'
loop_
 _atom_site_type_symbol
 _atom_site_label
 _atom_site_symmetry_multiplicity
 _atom_site_fract_x
 _atom_site_fract_y
 _atom_site_fract_z
 _atom_site_occupancy
  Ho  Ho0  1  0.377130  0.840964  0.879137  1
  Ho  Ho1  1  0.877140  0.659025  0.620884  1
  Ho  Ho2  1  0.622705  0.158937  0.379107  1
  Ho  Ho3  1  0.122954  0.340886  0.120887  1
  Ho  Ho4  1  0.622705  0.158937  0.120893  1
  Ho  Ho5  1  0.122954  0.340886  0.379113  1
  Ho  Ho6  1  0.377130  0.840964  0.620863  1
  Ho  Ho7  1  0.877140  0.659025  0.879116  1
  Ho  Ho8  1  0.536774  0.323235  0.900146  1
  Ho  Ho9  1  0.036756  0.176771  0.599834  1
  Ho  Ho10  1  0.463179  0.676861  0.400158  1
  Ho  Ho11  1  0.963303  0.823285  0.099854  1
  Ho  Ho12  1  0.463179  0.676861  0.099842  1
  Ho  Ho13  1  0.963303  0.823285  0.400146  1
  Ho  Ho14  1  0.536774  0.323235  0.599854  1
  Ho  Ho15  1  0.036756  0.176771  0.900166  1
  Ho  Ho16  1  0.208526  0.504181  0.750000  1
  Ho  Ho17  1  0.708513  0.995852  0.750000  1
  Ho  Ho18  1  0.791493  0.495857  0.250000  1
  Tm  Tm19  1  0.291390  0.004247  0.250000  1
  Pb  Pb20  1  0.280586  0.032198  0.042470  1
  Pb  Pb21  1  0.780581  0.467792  0.457667  1
  Pb  Pb22  1  0.719418  0.967774  0.542302  1
  Pb  Pb23  1  0.219412  0.532209  0.957700  1
  Pb  Pb24  1  0.719418  0.967774  0.957698  1
  Pb  Pb25  1  0.219412  0.532209  0.542300  1
  Pb  Pb26  1  0.280586  0.032198  0.457530  1
  Pb  Pb27  1  0.780581  0.467792  0.042333  1
  Pb  Pb28  1  0.571546  0.626711  0.750000  1
  Pb  Pb29  1  0.071540  0.873288  0.750000  1
  Pb  Pb30  1  0.428395  0.373055  0.250000  1
  Pb  Pb31  1  0.928833  0.126548  0.250000  1
  Pb  Pb32  1  0.348070  0.153509  0.750000  1
  Pb  Pb33  1  0.848084  0.346424  0.750000  1
  Pb  Pb34  1  0.651769  0.846515  0.250000  1
  Pb  Pb35  1  0.151964  0.653940  0.250000  1
