# generated using pymatgen
data_Eu3(SiPd)2
_symmetry_space_group_name_H-M   'P 1'
_cell_length_a   5.82217900
_cell_length_b   8.26955100
_cell_length_c   13.44520200
_cell_angle_alpha   90.00000000
_cell_angle_beta   90.00000000
_cell_angle_gamma   90.00000000
_symmetry_Int_Tables_number   1
_chemical_formula_structural   Eu3(SiPd)2
_chemical_formula_sum   'Eu12 Si8 Pd8'
_cell_volume   647.34353463
_cell_formula_units_Z   4
loop_
 _symmetry_equiv_pos_site_id
 _symmetry_equiv_pos_as_xyz
  1  'x, y, z'
loop_
 _atom_site_type_symbol
 _atom_site_label
 _atom_site_symmetry_multiplicity
 _atom_site_fract_x
 _atom_site_fract_y
 _atom_site_fract_z
 _atom_site_occupancy
  Eu  Eu0  1  0.130402  0.387341  0.602857  1
  Eu  Eu1  1  0.869598  0.612659  0.102857  1
  Eu  Eu2  1  0.130402  0.112659  0.397143  1
  Eu  Eu3  1  0.869598  0.887341  0.897143  1
  Eu  Eu4  1  0.869598  0.612659  0.397143  1
  Eu  Eu5  1  0.130402  0.387341  0.897143  1
  Eu  Eu6  1  0.869598  0.887341  0.602857  1
  Eu  Eu7  1  0.130402  0.112659  0.102857  1
  Eu  Eu8  1  0.656814  0.242948  0.750000  1
  Eu  Eu9  1  0.343186  0.757052  0.250000  1
  Eu  Eu10  1  0.656814  0.257052  0.250000  1
  Eu  Eu11  1  0.343186  0.742948  0.750000  1
  Si  Si12  1  0.625653  0.250000  0.500000  1
  Si  Si13  1  0.374347  0.750000  0.000000  1
  Si  Si14  1  0.374347  0.750000  0.500000  1
  Si  Si15  1  0.625653  0.250000  0.000000  1
  Si  Si16  1  0.168986  0.095859  0.750000  1
  Si  Si17  1  0.831014  0.904141  0.250000  1
  Si  Si18  1  0.168986  0.404141  0.250000  1
  Si  Si19  1  0.831014  0.595859  0.750000  1
  Pd  Pd20  1  0.382451  0.034056  0.589883  1
  Pd  Pd21  1  0.617549  0.965944  0.089883  1
  Pd  Pd22  1  0.382451  0.465944  0.410117  1
  Pd  Pd23  1  0.617549  0.534056  0.910117  1
  Pd  Pd24  1  0.617549  0.965944  0.410117  1
  Pd  Pd25  1  0.382451  0.034056  0.910117  1
  Pd  Pd26  1  0.617549  0.534056  0.589883  1
  Pd  Pd27  1  0.382451  0.465944  0.089883  1
