# generated using pymatgen
data_Dy3Th(CdNi2)2
_symmetry_space_group_name_H-M   'P 1'
_cell_length_a   7.44027101
_cell_length_b   7.44027176
_cell_length_c   3.66183400
_cell_angle_alpha   90.00000000
_cell_angle_beta   90.00000000
_cell_angle_gamma   91.35878541
_symmetry_Int_Tables_number   1
_chemical_formula_structural   Dy3Th(CdNi2)2
_chemical_formula_sum   'Dy3 Th1 Cd2 Ni4'
_cell_volume   202.65348092
_cell_formula_units_Z   1
loop_
 _symmetry_equiv_pos_site_id
 _symmetry_equiv_pos_as_xyz
  1  'x, y, z'
loop_
 _atom_site_type_symbol
 _atom_site_label
 _atom_site_symmetry_multiplicity
 _atom_site_fract_x
 _atom_site_fract_y
 _atom_site_fract_z
 _atom_site_occupancy
  Dy  Dy0  1  0.826256  0.672170  0.500000  1
  Dy  Dy1  1  0.172170  0.326256  0.500000  1
  Dy  Dy2  1  0.675216  0.175216  0.500000  1
  Th  Th3  1  0.326317  0.826317  0.500000  1
  Cd  Cd4  1  0.990844  0.005619  0.000000  1
  Cd  Cd5  1  0.505619  0.490844  0.000000  1
  Ni  Ni6  1  0.375953  0.116194  0.000000  1
  Ni  Ni7  1  0.884694  0.384694  0.000000  1
  Ni  Ni8  1  0.126738  0.626738  0.000000  1
  Ni  Ni9  1  0.616194  0.875953  0.000000  1
