# generated using pymatgen
data_Y4Tc3MoF28
_symmetry_space_group_name_H-M   'P 1'
_cell_length_a   5.61571398
_cell_length_b   8.93962537
_cell_length_c   12.05477600
_cell_angle_alpha   62.55658088
_cell_angle_beta   90.05901277
_cell_angle_gamma   90.03184402
_symmetry_Int_Tables_number   1
_chemical_formula_structural   Y4Tc3MoF28
_chemical_formula_sum   'Y4 Tc3 Mo1 F28'
_cell_volume   537.07523274
_cell_formula_units_Z   1
loop_
 _symmetry_equiv_pos_site_id
 _symmetry_equiv_pos_as_xyz
  1  'x, y, z'
loop_
 _atom_site_type_symbol
 _atom_site_label
 _atom_site_symmetry_multiplicity
 _atom_site_fract_x
 _atom_site_fract_y
 _atom_site_fract_z
 _atom_site_occupancy
  Y  Y0  1  0.258807  0.813266  0.264897  1
  Y  Y1  1  0.740795  0.184458  0.735927  1
  Y  Y2  1  0.758797  0.187836  0.234416  1
  Y  Y3  1  0.239759  0.812779  0.765260  1
  Tc  Tc4  1  0.757092  0.726433  0.043349  1
  Tc  Tc5  1  0.242679  0.273191  0.956639  1
  Tc  Tc6  1  0.258045  0.273640  0.456466  1
  Mo  Mo7  1  0.742874  0.726563  0.543073  1
  F  F8  1  0.946507  0.706316  0.416240  1
  F  F9  1  0.053153  0.293007  0.580767  1
  F  F10  1  0.447930  0.293016  0.080671  1
  F  F11  1  0.550899  0.706624  0.919928  1
  F  F12  1  0.478828  0.729964  0.140430  1
  F  F13  1  0.522110  0.269985  0.859851  1
  F  F14  1  0.978326  0.271060  0.359497  1
  F  F15  1  0.034470  0.729219  0.640686  1
  F  F16  1  0.958500  0.745150  0.170410  1
  F  F17  1  0.042559  0.254217  0.828848  1
  F  F18  1  0.457358  0.255466  0.328350  1
  F  F19  1  0.544289  0.746527  0.673366  1
  F  F20  1  0.770073  0.479828  0.141136  1
  F  F21  1  0.230100  0.519405  0.859178  1
  F  F22  1  0.271446  0.519948  0.358807  1
  F  F23  1  0.730136  0.478147  0.642247  1
  F  F24  1  0.952572  0.280307  0.046392  1
  F  F25  1  0.046399  0.719157  0.953354  1
  F  F26  1  0.438890  0.721806  0.453203  1
  F  F27  1  0.548916  0.280339  0.546320  1
  F  F28  1  0.741243  0.974592  0.447595  1
  F  F29  1  0.258677  0.028090  0.551779  1
  F  F30  1  0.242860  0.027554  0.052584  1
  F  F31  1  0.757759  0.972174  0.947516  1
  F  F32  1  0.581160  0.971246  0.233163  1
  F  F33  1  0.418335  0.029054  0.767792  1
  F  F34  1  0.079387  0.028489  0.268631  1
  F  F35  1  0.918275  0.971149  0.731233  1
