# generated using pymatgen
data_DyHo2Lu5Pt4
_symmetry_space_group_name_H-M   'P 1'
_cell_length_a   4.72953000
_cell_length_b   7.06291824
_cell_length_c   8.60292905
_cell_angle_alpha   90.25980529
_cell_angle_beta   90.00000000
_cell_angle_gamma   90.00000000
_symmetry_Int_Tables_number   1
_chemical_formula_structural   DyHo2Lu5Pt4
_chemical_formula_sum   'Dy1 Ho2 Lu5 Pt4'
_cell_volume   287.37172843
_cell_formula_units_Z   1
loop_
 _symmetry_equiv_pos_site_id
 _symmetry_equiv_pos_as_xyz
  1  'x, y, z'
loop_
 _atom_site_type_symbol
 _atom_site_label
 _atom_site_symmetry_multiplicity
 _atom_site_fract_x
 _atom_site_fract_y
 _atom_site_fract_z
 _atom_site_occupancy
  Dy  Dy0  1  0.250000  0.487919  0.170731  1
  Ho  Ho1  1  0.750000  0.012962  0.670324  1
  Ho  Ho2  1  0.750000  0.512004  0.829621  1
  Lu  Lu3  1  0.250000  0.856570  0.923190  1
  Lu  Lu4  1  0.250000  0.357389  0.576810  1
  Lu  Lu5  1  0.750000  0.142664  0.079258  1
  Lu  Lu6  1  0.750000  0.644289  0.422279  1
  Lu  Lu7  1  0.250000  0.987591  0.331214  1
  Pt  Pt8  1  0.250000  0.254706  0.903815  1
  Pt  Pt9  1  0.250000  0.756223  0.591322  1
  Pt  Pt10  1  0.750000  0.744497  0.095159  1
  Pt  Pt11  1  0.750000  0.243184  0.406277  1
