# generated using pymatgen
data_Y3Ho3Tc2
_symmetry_space_group_name_H-M   'P 1'
_cell_length_a   6.26316140
_cell_length_b   7.47299381
_cell_length_c   9.20108300
_cell_angle_alpha   89.99080721
_cell_angle_beta   89.89558398
_cell_angle_gamma   90.07676093
_symmetry_Int_Tables_number   1
_chemical_formula_structural   Y3Ho3Tc2
_chemical_formula_sum   'Y6 Ho6 Tc4'
_cell_volume   430.65159243
_cell_formula_units_Z   2
loop_
 _symmetry_equiv_pos_site_id
 _symmetry_equiv_pos_as_xyz
  1  'x, y, z'
loop_
 _atom_site_type_symbol
 _atom_site_label
 _atom_site_symmetry_multiplicity
 _atom_site_fract_x
 _atom_site_fract_y
 _atom_site_fract_z
 _atom_site_occupancy
  Y  Y0  1  0.625923  0.041297  0.249433  1
  Y  Y1  1  0.374077  0.958703  0.750567  1
  Y  Y2  1  0.126708  0.458748  0.750807  1
  Y  Y3  1  0.873292  0.541252  0.249193  1
  Y  Y4  1  0.340124  0.675429  0.437260  1
  Y  Y5  1  0.659876  0.324571  0.562740  1
  Ho  Ho6  1  0.158871  0.174688  0.062908  1
  Ho  Ho7  1  0.841129  0.825312  0.937092  1
  Ho  Ho8  1  0.659439  0.325040  0.937284  1
  Ho  Ho9  1  0.840030  0.826011  0.563083  1
  Ho  Ho10  1  0.340561  0.674960  0.062716  1
  Ho  Ho11  1  0.159970  0.173989  0.436917  1
  Tc  Tc12  1  0.452628  0.384942  0.248028  1
  Tc  Tc13  1  0.547372  0.615058  0.751972  1
  Tc  Tc14  1  0.955210  0.113380  0.750808  1
  Tc  Tc15  1  0.044790  0.886620  0.249192  1
