# generated using pymatgen
data_Dy2Ho3Lu(Al3Os)8
_symmetry_space_group_name_H-M   'P 1'
_cell_length_a   8.80413367
_cell_length_b   8.79517796
_cell_length_c   9.58020500
_cell_angle_alpha   90.00000000
_cell_angle_beta   90.00000000
_cell_angle_gamma   119.88237387
_symmetry_Int_Tables_number   1
_chemical_formula_structural   Dy2Ho3Lu(Al3Os)8
_chemical_formula_sum   'Dy2 Ho3 Lu1 Al24 Os8'
_cell_volume   643.20621783
_cell_formula_units_Z   1
loop_
 _symmetry_equiv_pos_site_id
 _symmetry_equiv_pos_as_xyz
  1  'x, y, z'
loop_
 _atom_site_type_symbol
 _atom_site_label
 _atom_site_symmetry_multiplicity
 _atom_site_fract_x
 _atom_site_fract_y
 _atom_site_fract_z
 _atom_site_occupancy
  Dy  Dy0  1  0.192730  0.386717  0.250000  1
  Dy  Dy1  1  0.807204  0.613009  0.750000  1
  Ho  Ho2  1  0.388684  0.193556  0.750000  1
  Ho  Ho3  1  0.192913  0.807014  0.250000  1
  Ho  Ho4  1  0.807122  0.193228  0.750000  1
  Lu  Lu5  1  0.606806  0.803817  0.250000  1
  Al  Al6  1  0.333311  0.667096  0.019033  1
  Al  Al7  1  0.667099  0.333277  0.981707  1
  Al  Al8  1  0.667099  0.333277  0.518293  1
  Al  Al9  1  0.333311  0.667096  0.480967  1
  Al  Al10  1  0.164590  0.327654  0.574844  1
  Al  Al11  1  0.835520  0.673068  0.424405  1
  Al  Al12  1  0.672908  0.835877  0.574183  1
  Al  Al13  1  0.835520  0.673068  0.075595  1
  Al  Al14  1  0.327864  0.164520  0.424472  1
  Al  Al15  1  0.164590  0.327654  0.925156  1
  Al  Al16  1  0.163996  0.836295  0.572987  1
  Al  Al17  1  0.327864  0.164520  0.075528  1
  Al  Al18  1  0.835996  0.163052  0.426550  1
  Al  Al19  1  0.672908  0.835877  0.925817  1
  Al  Al20  1  0.835996  0.163052  0.073450  1
  Al  Al21  1  0.163996  0.836295  0.927013  1
  Al  Al22  1  0.560969  0.122566  0.250000  1
  Al  Al23  1  0.439358  0.876756  0.750000  1
  Al  Al24  1  0.876525  0.438974  0.250000  1
  Al  Al25  1  0.123509  0.561015  0.750000  1
  Al  Al26  1  0.561466  0.439600  0.250000  1
  Al  Al27  1  0.438932  0.561305  0.750000  1
  Al  Al28  1  0.995378  0.998561  0.250000  1
  Al  Al29  1  0.001568  0.999649  0.750000  1
  Os  Os30  1  0.500718  0.999836  0.000415  1
  Os  Os31  1  0.000165  0.500187  0.000101  1
  Os  Os32  1  0.500718  0.999836  0.499585  1
  Os  Os33  1  0.500463  0.500812  0.000527  1
  Os  Os34  1  0.000165  0.500187  0.499899  1
  Os  Os35  1  0.500463  0.500812  0.499473  1
  Os  Os36  1  0.000788  0.000442  0.999787  1
  Os  Os37  1  0.000788  0.000442  0.500213  1
