# generated using pymatgen
data_YErFe8Ni4P7
_symmetry_space_group_name_H-M   'P 1'
_cell_length_a   9.00571246
_cell_length_b   9.04694376
_cell_length_c   3.63473900
_cell_angle_alpha   90.00000000
_cell_angle_beta   90.00000000
_cell_angle_gamma   119.91690285
_symmetry_Int_Tables_number   1
_chemical_formula_structural   YErFe8Ni4P7
_chemical_formula_sum   'Y1 Er1 Fe8 Ni4 P7'
_cell_volume   256.67695211
_cell_formula_units_Z   1
loop_
 _symmetry_equiv_pos_site_id
 _symmetry_equiv_pos_as_xyz
  1  'x, y, z'
loop_
 _atom_site_type_symbol
 _atom_site_label
 _atom_site_symmetry_multiplicity
 _atom_site_fract_x
 _atom_site_fract_y
 _atom_site_fract_z
 _atom_site_occupancy
  Y  Y0  1  0.999117  0.997671  0.000000  1
  Er  Er1  1  0.333624  0.669307  0.500000  1
  Fe  Fe2  1  0.825978  0.215054  0.000000  1
  Fe  Fe3  1  0.782694  0.604417  0.000000  1
  Fe  Fe4  1  0.394416  0.179180  0.000000  1
  Fe  Fe5  1  0.711411  0.766491  0.500000  1
  Fe  Fe6  1  0.231506  0.946228  0.500000  1
  Fe  Fe7  1  0.888266  0.458073  0.500000  1
  Fe  Fe8  1  0.548034  0.428545  0.500000  1
  Fe  Fe9  1  0.570701  0.115503  0.500000  1
  Ni  Ni10  1  0.096648  0.703159  0.000000  1
  Ni  Ni11  1  0.296945  0.397536  0.000000  1
  Ni  Ni12  1  0.601283  0.902403  0.000000  1
  Ni  Ni13  1  0.056535  0.285154  0.500000  1
  P  P14  1  0.073482  0.446996  0.000000  1
  P  P15  1  0.557689  0.633292  0.000000  1
  P  P16  1  0.365341  0.926237  0.000000  1
  P  P17  1  0.778879  0.043924  0.500000  1
  P  P18  1  0.948620  0.735198  0.500000  1
  P  P19  1  0.269709  0.213622  0.500000  1
  P  P20  1  0.669125  0.332009  0.000000  1
