# generated using pymatgen
data_Dy4Ho(SiSb)2
_symmetry_space_group_name_H-M   'P 1'
_cell_length_a   8.50243100
_cell_length_b   8.50243143
_cell_length_c   7.82740100
_cell_angle_alpha   90.00000000
_cell_angle_beta   90.00000000
_cell_angle_gamma   125.39626790
_symmetry_Int_Tables_number   1
_chemical_formula_structural   Dy4Ho(SiSb)2
_chemical_formula_sum   'Dy8 Ho2 Si4 Sb4'
_cell_volume   461.26408747
_cell_formula_units_Z   2
loop_
 _symmetry_equiv_pos_site_id
 _symmetry_equiv_pos_as_xyz
  1  'x, y, z'
loop_
 _atom_site_type_symbol
 _atom_site_label
 _atom_site_symmetry_multiplicity
 _atom_site_fract_x
 _atom_site_fract_y
 _atom_site_fract_z
 _atom_site_occupancy
  Dy  Dy0  1  0.041105  0.293771  0.333274  1
  Dy  Dy1  1  0.958895  0.706229  0.666726  1
  Dy  Dy2  1  0.458895  0.206229  0.833274  1
  Dy  Dy3  1  0.793771  0.541105  0.166726  1
  Dy  Dy4  1  0.541105  0.793771  0.166726  1
  Dy  Dy5  1  0.206229  0.458895  0.833274  1
  Dy  Dy6  1  0.706229  0.958895  0.666726  1
  Dy  Dy7  1  0.293771  0.041105  0.333274  1
  Ho  Ho8  1  0.000000  0.000000  0.000000  1
  Ho  Ho9  1  0.500000  0.500000  0.500000  1
  Si  Si10  1  0.369661  0.369661  0.129890  1
  Si  Si11  1  0.630339  0.630339  0.870110  1
  Si  Si12  1  0.130339  0.130339  0.629890  1
  Si  Si13  1  0.869661  0.869661  0.370110  1
  Sb  Sb14  1  0.793895  0.206105  0.000000  1
  Sb  Sb15  1  0.206105  0.793895  0.000000  1
  Sb  Sb16  1  0.706105  0.293895  0.500000  1
  Sb  Sb17  1  0.293895  0.706105  0.500000  1
