# generated using pymatgen
data_Tb4Ga4Ir3Au
_symmetry_space_group_name_H-M   'P 1'
_cell_length_a   4.42600400
_cell_length_b   6.90132525
_cell_length_c   7.80509041
_cell_angle_alpha   89.41214817
_cell_angle_beta   90.00000000
_cell_angle_gamma   90.00000000
_symmetry_Int_Tables_number   1
_chemical_formula_structural   Tb4Ga4Ir3Au
_chemical_formula_sum   'Tb4 Ga4 Ir3 Au1'
_cell_volume   238.39622650
_cell_formula_units_Z   1
loop_
 _symmetry_equiv_pos_site_id
 _symmetry_equiv_pos_as_xyz
  1  'x, y, z'
loop_
 _atom_site_type_symbol
 _atom_site_label
 _atom_site_symmetry_multiplicity
 _atom_site_fract_x
 _atom_site_fract_y
 _atom_site_fract_z
 _atom_site_occupancy
  Tb  Tb0  1  0.250000  0.019366  0.318427  1
  Tb  Tb1  1  0.250000  0.534602  0.190675  1
  Tb  Tb2  1  0.750000  0.976404  0.688473  1
  Tb  Tb3  1  0.750000  0.484389  0.802850  1
  Ga  Ga4  1  0.250000  0.151190  0.925020  1
  Ga  Ga5  1  0.250000  0.658935  0.570319  1
  Ga  Ga6  1  0.750000  0.827192  0.067115  1
  Ga  Ga7  1  0.750000  0.348386  0.438266  1
  Ir  Ir8  1  0.250000  0.272158  0.608671  1
  Ir  Ir9  1  0.250000  0.770113  0.889702  1
  Ir  Ir10  1  0.750000  0.730801  0.389703  1
  Au  Au11  1  0.750000  0.226467  0.110780  1
