# generated using pymatgen
data_Pr2Al2Te
_symmetry_space_group_name_H-M   'P 1'
_cell_length_a   4.39772100
_cell_length_b   4.39772203
_cell_length_c   16.98092000
_cell_angle_alpha   90.00000000
_cell_angle_beta   90.00000000
_cell_angle_gamma   119.99999981
_symmetry_Int_Tables_number   1
_chemical_formula_structural   Pr2Al2Te
_chemical_formula_sum   'Pr4 Al4 Te2'
_cell_volume   284.41159412
_cell_formula_units_Z   2
loop_
 _symmetry_equiv_pos_site_id
 _symmetry_equiv_pos_as_xyz
  1  'x, y, z'
loop_
 _atom_site_type_symbol
 _atom_site_label
 _atom_site_symmetry_multiplicity
 _atom_site_fract_x
 _atom_site_fract_y
 _atom_site_fract_z
 _atom_site_occupancy
  Pr  Pr0  1  0.000000  0.000000  0.127288  1
  Pr  Pr1  1  0.000000  0.000000  0.372712  1
  Pr  Pr2  1  0.000000  0.000000  0.627289  1
  Pr  Pr3  1  0.000000  0.000000  0.872711  1
  Al  Al4  1  0.333334  0.666668  0.007869  1
  Al  Al5  1  0.333334  0.666668  0.492131  1
  Al  Al6  1  0.666667  0.333334  0.507870  1
  Al  Al7  1  0.666667  0.333334  0.992130  1
  Te  Te8  1  0.666667  0.333334  0.250000  1
  Te  Te9  1  0.333334  0.666668  0.750000  1
