# generated using pymatgen
data_Tm2Fe8Ni4P7
_symmetry_space_group_name_H-M   'P 1'
_cell_length_a   8.98961130
_cell_length_b   9.02898115
_cell_length_c   3.62228100
_cell_angle_alpha   90.00000000
_cell_angle_beta   90.00000000
_cell_angle_gamma   119.87801088
_symmetry_Int_Tables_number   1
_chemical_formula_structural   Tm2Fe8Ni4P7
_chemical_formula_sum   'Tm2 Fe8 Ni4 P7'
_cell_volume   254.93236336
_cell_formula_units_Z   1
loop_
 _symmetry_equiv_pos_site_id
 _symmetry_equiv_pos_as_xyz
  1  'x, y, z'
loop_
 _atom_site_type_symbol
 _atom_site_label
 _atom_site_symmetry_multiplicity
 _atom_site_fract_x
 _atom_site_fract_y
 _atom_site_fract_z
 _atom_site_occupancy
  Tm  Tm0  1  0.999052  0.997320  0.000000  1
  Tm  Tm1  1  0.333791  0.669395  0.500000  1
  Fe  Fe2  1  0.826625  0.214745  0.000000  1
  Fe  Fe3  1  0.782900  0.605050  0.000000  1
  Fe  Fe4  1  0.393667  0.178805  0.000000  1
  Fe  Fe5  1  0.712554  0.767652  0.500000  1
  Fe  Fe6  1  0.230105  0.946063  0.500000  1
  Fe  Fe7  1  0.888472  0.458464  0.500000  1
  Fe  Fe8  1  0.547585  0.428355  0.500000  1
  Fe  Fe9  1  0.570818  0.115186  0.500000  1
  Ni  Ni10  1  0.097015  0.703757  0.000000  1
  Ni  Ni11  1  0.296567  0.397484  0.000000  1
  Ni  Ni12  1  0.601020  0.902231  0.000000  1
  Ni  Ni13  1  0.056901  0.283895  0.500000  1
  P  P14  1  0.073876  0.447640  0.000000  1
  P  P15  1  0.557137  0.633010  0.000000  1
  P  P16  1  0.365578  0.925950  0.000000  1
  P  P17  1  0.780448  0.043774  0.500000  1
  P  P18  1  0.948877  0.736927  0.500000  1
  P  P19  1  0.267901  0.212350  0.500000  1
  P  P20  1  0.669113  0.331947  0.000000  1
