# generated using pymatgen
data_Tb4Y12MgIn3Pt4
_symmetry_space_group_name_H-M   'P 1'
_cell_length_a   9.80593560
_cell_length_b   9.76859211
_cell_length_c   9.76859300
_cell_angle_alpha   60.00000037
_cell_angle_beta   60.12589663
_cell_angle_gamma   60.12589762
_symmetry_Int_Tables_number   1
_chemical_formula_structural   Tb4Y12MgIn3Pt4
_chemical_formula_sum   'Tb4 Y12 Mg1 In3 Pt4'
_cell_volume   662.92111124
_cell_formula_units_Z   1
loop_
 _symmetry_equiv_pos_site_id
 _symmetry_equiv_pos_as_xyz
  1  'x, y, z'
loop_
 _atom_site_type_symbol
 _atom_site_label
 _atom_site_symmetry_multiplicity
 _atom_site_fract_x
 _atom_site_fract_y
 _atom_site_fract_z
 _atom_site_occupancy
  Tb  Tb0  1  0.600452  0.599576  0.599576  1
  Tb  Tb1  1  0.600452  0.599576  0.200396  1
  Tb  Tb2  1  0.600452  0.200396  0.599576  1
  Tb  Tb3  1  0.197616  0.600795  0.600795  1
  Y  Y4  1  0.058386  0.441011  0.441011  1
  Y  Y5  1  0.438151  0.061502  0.061502  1
  Y  Y6  1  0.438151  0.061502  0.438844  1
  Y  Y7  1  0.058386  0.441011  0.059593  1
  Y  Y8  1  0.438151  0.438844  0.061502  1
  Y  Y9  1  0.058386  0.059593  0.441011  1
  Y  Y10  1  0.185473  0.813786  0.813786  1
  Y  Y11  1  0.813793  0.187090  0.187090  1
  Y  Y12  1  0.813793  0.187090  0.812027  1
  Y  Y13  1  0.185473  0.813786  0.186954  1
  Y  Y14  1  0.813793  0.812027  0.187090  1
  Y  Y15  1  0.185473  0.186954  0.813786  1
  Mg  Mg16  1  0.517060  0.827646  0.827646  1
  In  In17  1  0.832797  0.833376  0.833376  1
  In  In18  1  0.832797  0.833376  0.500450  1
  In  In19  1  0.832797  0.500450  0.833376  1
  Pt  Pt20  1  0.392096  0.393238  0.393238  1
  Pt  Pt21  1  0.392096  0.393238  0.821430  1
  Pt  Pt22  1  0.392096  0.821430  0.393238  1
  Pt  Pt23  1  0.821882  0.392707  0.392707  1
