# generated using pymatgen
data_Nd2TmSn6Ru
_symmetry_space_group_name_H-M   'P 1'
_cell_length_a   8.57456341
_cell_length_b   8.57456355
_cell_length_c   13.44416100
_cell_angle_alpha   90.00000000
_cell_angle_beta   90.00000000
_cell_angle_gamma   148.24676605
_symmetry_Int_Tables_number   1
_chemical_formula_structural   Nd2TmSn6Ru
_chemical_formula_sum   'Nd4 Tm2 Sn12 Ru2'
_cell_volume   520.18723355
_cell_formula_units_Z   2
loop_
 _symmetry_equiv_pos_site_id
 _symmetry_equiv_pos_as_xyz
  1  'x, y, z'
loop_
 _atom_site_type_symbol
 _atom_site_label
 _atom_site_symmetry_multiplicity
 _atom_site_fract_x
 _atom_site_fract_y
 _atom_site_fract_z
 _atom_site_occupancy
  Nd  Nd0  1  0.400517  0.599483  0.404472  1
  Nd  Nd1  1  0.599483  0.400517  0.595528  1
  Nd  Nd2  1  0.400517  0.599483  0.095528  1
  Nd  Nd3  1  0.599483  0.400517  0.904472  1
  Tm  Tm4  1  0.603252  0.396748  0.250000  1
  Tm  Tm5  1  0.396748  0.603252  0.750000  1
  Sn  Sn6  1  0.925649  0.074351  0.922010  1
  Sn  Sn7  1  0.074351  0.925649  0.077990  1
  Sn  Sn8  1  0.925649  0.074351  0.577990  1
  Sn  Sn9  1  0.074351  0.925649  0.422010  1
  Sn  Sn10  1  0.960938  0.039062  0.250000  1
  Sn  Sn11  1  0.039062  0.960938  0.750000  1
  Sn  Sn12  1  0.744478  0.255523  0.432500  1
  Sn  Sn13  1  0.255523  0.744477  0.567500  1
  Sn  Sn14  1  0.744478  0.255523  0.067500  1
  Sn  Sn15  1  0.255523  0.744477  0.932500  1
  Sn  Sn16  1  0.230068  0.769932  0.250000  1
  Sn  Sn17  1  0.769932  0.230068  0.750000  1
  Ru  Ru18  1  0.799891  0.200109  0.250000  1
  Ru  Ru19  1  0.200109  0.799891  0.750000  1
