# generated using pymatgen
data_DyZr7(Si4Mo3)4
_symmetry_space_group_name_H-M   'P 1'
_cell_length_a   6.63655622
_cell_length_b   6.79175352
_cell_length_c   12.72875915
_cell_angle_alpha   90.08779042
_cell_angle_beta   90.01180369
_cell_angle_gamma   90.02083630
_symmetry_Int_Tables_number   1
_chemical_formula_structural   DyZr7(Si4Mo3)4
_chemical_formula_sum   'Dy1 Zr7 Si16 Mo12'
_cell_volume   573.73350904
_cell_formula_units_Z   1
loop_
 _symmetry_equiv_pos_site_id
 _symmetry_equiv_pos_as_xyz
  1  'x, y, z'
loop_
 _atom_site_type_symbol
 _atom_site_label
 _atom_site_symmetry_multiplicity
 _atom_site_fract_x
 _atom_site_fract_y
 _atom_site_fract_z
 _atom_site_occupancy
  Dy  Dy0  1  0.997545  0.167978  0.091315  1
  Zr  Zr1  1  0.498338  0.329449  0.093049  1
  Zr  Zr2  1  0.997253  0.172173  0.406930  1
  Zr  Zr3  1  0.503525  0.671874  0.593646  1
  Zr  Zr4  1  0.003879  0.825853  0.903608  1
  Zr  Zr5  1  0.504411  0.671329  0.905194  1
  Zr  Zr6  1  0.003375  0.828617  0.594078  1
  Zr  Zr7  1  0.496385  0.328836  0.408344  1
  Si  Si8  1  0.665935  0.041678  0.543230  1
  Si  Si9  1  0.167226  0.461247  0.955017  1
  Si  Si10  1  0.339420  0.955872  0.042113  1
  Si  Si11  1  0.834248  0.541703  0.457883  1
  Si  Si12  1  0.333410  0.958218  0.457915  1
  Si  Si13  1  0.833343  0.544879  0.042211  1
  Si  Si14  1  0.663795  0.040219  0.954859  1
  Si  Si15  1  0.165559  0.458370  0.543631  1
  Si  Si16  1  0.532035  0.376190  0.749316  1
  Si  Si17  1  0.032474  0.125217  0.750493  1
  Si  Si18  1  0.466826  0.624767  0.250556  1
  Si  Si19  1  0.966453  0.872222  0.251908  1
  Si  Si20  1  0.797886  0.636212  0.749127  1
  Si  Si21  1  0.299310  0.864337  0.749325  1
  Si  Si22  1  0.202532  0.364133  0.251464  1
  Si  Si23  1  0.697897  0.137645  0.251641  1
  Mo  Mo24  1  0.831242  0.335054  0.623673  1
  Mo  Mo25  1  0.333412  0.165297  0.875394  1
  Mo  Mo26  1  0.168601  0.664428  0.124131  1
  Mo  Mo27  1  0.666585  0.834545  0.377403  1
  Mo  Mo28  1  0.169169  0.663435  0.377326  1
  Mo  Mo29  1  0.665912  0.833923  0.124849  1
  Mo  Mo30  1  0.829797  0.337040  0.874723  1
  Mo  Mo31  1  0.331222  0.165100  0.623699  1
  Mo  Mo32  1  0.666585  0.988582  0.748757  1
  Mo  Mo33  1  0.165793  0.512838  0.749869  1
  Mo  Mo34  1  0.334644  0.008533  0.251756  1
  Mo  Mo35  1  0.833981  0.492204  0.251564  1
