# generated using pymatgen
data_Dy4Ho8Ni4SnAu
_symmetry_space_group_name_H-M   'P 1'
_cell_length_a   8.34365077
_cell_length_b   8.34365091
_cell_length_c   8.34365108
_cell_angle_alpha   112.83238779
_cell_angle_beta   109.04546181
_cell_angle_gamma   106.59741607
_symmetry_Int_Tables_number   1
_chemical_formula_structural   Dy4Ho8Ni4SnAu
_chemical_formula_sum   'Dy4 Ho8 Ni4 Sn1 Au1'
_cell_volume   445.79015170
_cell_formula_units_Z   1
loop_
 _symmetry_equiv_pos_site_id
 _symmetry_equiv_pos_as_xyz
  1  'x, y, z'
loop_
 _atom_site_type_symbol
 _atom_site_label
 _atom_site_symmetry_multiplicity
 _atom_site_fract_x
 _atom_site_fract_y
 _atom_site_fract_z
 _atom_site_occupancy
  Dy  Dy0  1  0.180547  0.205282  0.385830  1
  Dy  Dy1  1  0.819453  0.205282  0.024734  1
  Dy  Dy2  1  0.180547  0.794718  0.975266  1
  Dy  Dy3  1  0.819453  0.794718  0.614170  1
  Ho  Ho4  1  0.023328  0.721179  0.302148  1
  Ho  Ho5  1  0.976672  0.278821  0.697852  1
  Ho  Ho6  1  0.580969  0.278821  0.302148  1
  Ho  Ho7  1  0.419031  0.721179  0.697852  1
  Ho  Ho8  1  0.675712  0.867736  0.192023  1
  Ho  Ho9  1  0.324288  0.516310  0.192023  1
  Ho  Ho10  1  0.324288  0.132264  0.807977  1
  Ho  Ho11  1  0.675712  0.483690  0.807977  1
  Ni  Ni12  1  0.640218  0.500000  0.140218  1
  Ni  Ni13  1  0.359782  0.500000  0.859782  1
  Ni  Ni14  1  0.874624  0.874624  0.000000  1
  Ni  Ni15  1  0.125376  0.125376  0.000000  1
  Sn  Sn16  1  0.500000  0.000000  0.500000  1
  Au  Au17  1  0.000000  0.500000  0.500000  1
