# generated using pymatgen
data_Lu4MgSc2AlPt4
_symmetry_space_group_name_H-M   'P 1'
_cell_length_a   4.40458500
_cell_length_b   6.95937802
_cell_length_c   8.19751939
_cell_angle_alpha   88.84317668
_cell_angle_beta   90.00000000
_cell_angle_gamma   90.00000000
_symmetry_Int_Tables_number   1
_chemical_formula_structural   Lu4MgSc2AlPt4
_chemical_formula_sum   'Lu4 Mg1 Sc2 Al1 Pt4'
_cell_volume   251.22875651
_cell_formula_units_Z   1
loop_
 _symmetry_equiv_pos_site_id
 _symmetry_equiv_pos_as_xyz
  1  'x, y, z'
loop_
 _atom_site_type_symbol
 _atom_site_label
 _atom_site_symmetry_multiplicity
 _atom_site_fract_x
 _atom_site_fract_y
 _atom_site_fract_z
 _atom_site_occupancy
  Lu  Lu0  1  0.250000  0.048994  0.674788  1
  Lu  Lu1  1  0.250000  0.516317  0.819701  1
  Lu  Lu2  1  0.750000  0.991317  0.340729  1
  Lu  Lu3  1  0.750000  0.456017  0.175437  1
  Mg  Mg4  1  0.250000  0.136728  0.069105  1
  Sc  Sc5  1  0.250000  0.641508  0.436391  1
  Sc  Sc6  1  0.750000  0.862830  0.936165  1
  Al  Al7  1  0.750000  0.366743  0.561426  1
  Pt  Pt8  1  0.250000  0.261234  0.386649  1
  Pt  Pt9  1  0.250000  0.732696  0.108807  1
  Pt  Pt10  1  0.750000  0.739916  0.620195  1
  Pt  Pt11  1  0.750000  0.245702  0.870606  1
