# generated using pymatgen
data_Yb3CeOs5Ru3
_symmetry_space_group_name_H-M   'P 1'
_cell_length_a   5.27587952
_cell_length_b   5.16460364
_cell_length_c   9.03309256
_cell_angle_alpha   90.08800700
_cell_angle_beta   89.80792472
_cell_angle_gamma   119.41667327
_symmetry_Int_Tables_number   1
_chemical_formula_structural   Yb3CeOs5Ru3
_chemical_formula_sum   'Yb3 Ce1 Os5 Ru3'
_cell_volume   214.39734256
_cell_formula_units_Z   1
loop_
 _symmetry_equiv_pos_site_id
 _symmetry_equiv_pos_as_xyz
  1  'x, y, z'
loop_
 _atom_site_type_symbol
 _atom_site_label
 _atom_site_symmetry_multiplicity
 _atom_site_fract_x
 _atom_site_fract_y
 _atom_site_fract_z
 _atom_site_occupancy
  Yb  Yb0  1  0.332715  0.666769  0.431329  1
  Yb  Yb1  1  0.332117  0.666169  0.065034  1
  Yb  Yb2  1  0.666102  0.333024  0.939062  1
  Ce  Ce3  1  0.666806  0.333654  0.565731  1
  Os  Os4  1  0.171404  0.340482  0.751882  1
  Os  Os5  1  0.172272  0.830009  0.752087  1
  Os  Os6  1  0.659432  0.829625  0.751943  1
  Os  Os7  1  0.837072  0.663142  0.247851  1
  Os  Os8  1  0.837489  0.174467  0.247467  1
  Ru  Ru9  1  0.986866  0.993670  0.497810  1
  Ru  Ru10  1  0.989074  0.994394  0.999547  1
  Ru  Ru11  1  0.348649  0.174595  0.250258  1
