# generated using pymatgen
data_Mn(CrSe2)4
_symmetry_space_group_name_H-M   'P 1'
_cell_length_a   6.91299524
_cell_length_b   6.91299505
_cell_length_c   8.52593301
_cell_angle_alpha   55.16637864
_cell_angle_beta   55.16638038
_cell_angle_gamma   63.28252706
_symmetry_Int_Tables_number   1
_chemical_formula_structural   Mn(CrSe2)4
_chemical_formula_sum   'Mn1 Cr4 Se8'
_cell_volume   269.87547003
_cell_formula_units_Z   1
loop_
 _symmetry_equiv_pos_site_id
 _symmetry_equiv_pos_as_xyz
  1  'x, y, z'
loop_
 _atom_site_type_symbol
 _atom_site_label
 _atom_site_symmetry_multiplicity
 _atom_site_fract_x
 _atom_site_fract_y
 _atom_site_fract_z
 _atom_site_occupancy
  Mn  Mn0  1  0.000000  0.000000  0.000000  1
  Cr  Cr1  1  0.266743  0.266743  0.991949  1
  Cr  Cr2  1  0.733257  0.733257  0.008051  1
  Cr  Cr3  1  0.274844  0.725156  0.500000  1
  Cr  Cr4  1  0.725156  0.274844  0.500000  1
  Se  Se5  1  0.979437  0.979437  0.325819  1
  Se  Se6  1  0.020563  0.020563  0.674181  1
  Se  Se7  1  0.458111  0.458111  0.326631  1
  Se  Se8  1  0.541889  0.541889  0.673369  1
  Se  Se9  1  0.028623  0.542296  0.172344  1
  Se  Se10  1  0.542296  0.028623  0.172344  1
  Se  Se11  1  0.971377  0.457704  0.827656  1
  Se  Se12  1  0.457704  0.971377  0.827656  1
