# generated using pymatgen
data_LiAc4FeC8
_symmetry_space_group_name_H-M   'P 1'
_cell_length_a   7.29786670
_cell_length_b   7.29787397
_cell_length_c   7.29788828
_cell_angle_alpha   133.39111571
_cell_angle_beta   115.88366029
_cell_angle_gamma   82.90517599
_symmetry_Int_Tables_number   1
_chemical_formula_structural   LiAc4FeC8
_chemical_formula_sum   'Li1 Ac4 Fe1 C8'
_cell_volume   244.68788735
_cell_formula_units_Z   1
loop_
 _symmetry_equiv_pos_site_id
 _symmetry_equiv_pos_as_xyz
  1  'x, y, z'
loop_
 _atom_site_type_symbol
 _atom_site_label
 _atom_site_symmetry_multiplicity
 _atom_site_fract_x
 _atom_site_fract_y
 _atom_site_fract_z
 _atom_site_occupancy
  Li  Li0  1  0.000000  0.250004  0.250003  1
  Ac  Ac1  1  0.186913  0.355384  0.831398  1
  Ac  Ac2  1  0.813087  0.644485  0.168470  1
  Ac  Ac3  1  0.523985  0.855516  0.668601  1
  Ac  Ac4  1  0.476015  0.144618  0.331531  1
  Fe  Fe5  1  0.999978  0.749980  0.749983  1
  C  C6  1  0.801155  0.127010  0.688830  1
  C  C7  1  0.198843  0.887680  0.325861  1
  C  C8  1  0.438182  0.612323  0.811166  1
  C  C9  1  0.561824  0.372989  0.174146  1
  C  C10  1  0.913618  0.010019  0.763402  1
  C  C11  1  0.086387  0.849787  0.096402  1
  C  C12  1  0.246622  0.650216  0.736603  1
  C  C13  1  0.753390  0.489989  0.403605  1
