# generated using pymatgen
data_HoEr9In8(CuPd)2
_symmetry_space_group_name_H-M   'P 1'
_cell_length_a   3.61405800
_cell_length_b   8.06097498
_cell_length_c   18.07527974
_cell_angle_alpha   90.13744598
_cell_angle_beta   90.00000000
_cell_angle_gamma   90.00000000
_symmetry_Int_Tables_number   1
_chemical_formula_structural   HoEr9In8(CuPd)2
_chemical_formula_sum   'Ho1 Er9 In8 Cu2 Pd2'
_cell_volume   526.58255688
_cell_formula_units_Z   1
loop_
 _symmetry_equiv_pos_site_id
 _symmetry_equiv_pos_as_xyz
  1  'x, y, z'
loop_
 _atom_site_type_symbol
 _atom_site_label
 _atom_site_symmetry_multiplicity
 _atom_site_fract_x
 _atom_site_fract_y
 _atom_site_fract_z
 _atom_site_occupancy
  Ho  Ho0  1  0.000000  0.500000  0.500000  1
  Er  Er1  1  0.000000  0.000000  0.000000  1
  Er  Er2  1  0.000000  0.742950  0.280237  1
  Er  Er3  1  0.000000  0.257050  0.719763  1
  Er  Er4  1  0.000000  0.757584  0.781176  1
  Er  Er5  1  0.000000  0.242416  0.218824  1
  Er  Er6  1  0.000000  0.617449  0.083783  1
  Er  Er7  1  0.000000  0.382551  0.916217  1
  Er  Er8  1  0.000000  0.881819  0.583290  1
  Er  Er9  1  0.000000  0.118181  0.416710  1
  In  In10  1  0.500000  0.707520  0.932025  1
  In  In11  1  0.500000  0.292480  0.067975  1
  In  In12  1  0.500000  0.792660  0.432216  1
  In  In13  1  0.500000  0.207340  0.567784  1
  In  In14  1  0.500000  0.577821  0.651474  1
  In  In15  1  0.500000  0.422179  0.348526  1
  In  In16  1  0.500000  0.921170  0.148582  1
  In  In17  1  0.500000  0.078830  0.851418  1
  Cu  Cu18  1  0.500000  0.528362  0.196566  1
  Cu  Cu19  1  0.500000  0.471638  0.803434  1
  Pd  Pd20  1  0.500000  0.972053  0.696929  1
  Pd  Pd21  1  0.500000  0.027947  0.303071  1
