# generated using pymatgen
data_Cs2NiMoS4
_symmetry_space_group_name_H-M   'P 1'
_cell_length_a   14.41420460
_cell_length_b   12.79456119
_cell_length_c   7.66414002
_cell_angle_alpha   85.71001287
_cell_angle_beta   62.26981844
_cell_angle_gamma   32.02017055
_symmetry_Int_Tables_number   1
_chemical_formula_structural   Cs2NiMoS4
_chemical_formula_sum   'Cs4 Ni2 Mo2 S8'
_cell_volume   485.63077067
_cell_formula_units_Z   2
loop_
 _symmetry_equiv_pos_site_id
 _symmetry_equiv_pos_as_xyz
  1  'x, y, z'
loop_
 _atom_site_type_symbol
 _atom_site_label
 _atom_site_symmetry_multiplicity
 _atom_site_fract_x
 _atom_site_fract_y
 _atom_site_fract_z
 _atom_site_occupancy
  Cs  Cs0  1  0.573546  0.573546  0.926454  1
  Cs  Cs1  1  0.926454  0.926454  0.573546  1
  Cs  Cs2  1  0.323546  0.323546  0.676454  1
  Cs  Cs3  1  0.676454  0.676454  0.323546  1
  Ni  Ni4  1  0.000000  0.000000  0.000000  1
  Ni  Ni5  1  0.250000  0.250000  0.250000  1
  Mo  Mo6  1  0.750000  0.750000  0.750000  1
  Mo  Mo7  1  0.500000  0.500000  0.500000  1
  S  S8  1  0.212687  0.888612  0.609228  1
  S  S9  1  0.289472  0.609228  0.888612  1
  S  S10  1  0.609228  0.289472  0.212687  1
  S  S11  1  0.888612  0.212687  0.289472  1
  S  S12  1  0.361388  0.037313  0.960528  1
  S  S13  1  0.960528  0.640772  0.361388  1
  S  S14  1  0.640772  0.960528  0.037313  1
  S  S15  1  0.037313  0.361388  0.640772  1
