# generated using pymatgen
data_Y8CdHgIrPt
_symmetry_space_group_name_H-M   'P 1'
_cell_length_a   9.67327948
_cell_length_b   9.67327836
_cell_length_c   9.66220500
_cell_angle_alpha   60.03785696
_cell_angle_beta   60.03786078
_cell_angle_gamma   60.13889011
_symmetry_Int_Tables_number   1
_chemical_formula_structural   Y8CdHgIrPt
_chemical_formula_sum   'Y16 Cd2 Hg2 Ir2 Pt2'
_cell_volume   640.34093362
_cell_formula_units_Z   2
loop_
 _symmetry_equiv_pos_site_id
 _symmetry_equiv_pos_as_xyz
  1  'x, y, z'
loop_
 _atom_site_type_symbol
 _atom_site_label
 _atom_site_symmetry_multiplicity
 _atom_site_fract_x
 _atom_site_fract_y
 _atom_site_fract_z
 _atom_site_occupancy
  Y  Y0  1  0.351472  0.351472  0.346831  1
  Y  Y1  1  0.351472  0.351472  0.950226  1
  Y  Y2  1  0.357927  0.939515  0.351279  1
  Y  Y3  1  0.939515  0.357927  0.351279  1
  Y  Y4  1  0.806350  0.190077  0.191478  1
  Y  Y5  1  0.190077  0.806350  0.812094  1
  Y  Y6  1  0.190077  0.806350  0.191478  1
  Y  Y7  1  0.806350  0.190077  0.812094  1
  Y  Y8  1  0.191077  0.191077  0.808923  1
  Y  Y9  1  0.809864  0.809864  0.190136  1
  Y  Y10  1  0.937002  0.563770  0.562036  1
  Y  Y11  1  0.563770  0.937002  0.937192  1
  Y  Y12  1  0.563770  0.937002  0.562036  1
  Y  Y13  1  0.937002  0.563770  0.937192  1
  Y  Y14  1  0.562499  0.562499  0.937501  1
  Y  Y15  1  0.936975  0.936975  0.563025  1
  Cd  Cd16  1  0.579875  0.257597  0.581264  1
  Cd  Cd17  1  0.257597  0.579875  0.581264  1
  Hg  Hg18  1  0.584609  0.584609  0.586910  1
  Hg  Hg19  1  0.584609  0.584609  0.243873  1
  Ir  Ir20  1  0.140663  0.573333  0.143002  1
  Ir  Ir21  1  0.573333  0.140663  0.143002  1
  Pt  Pt22  1  0.142059  0.142059  0.145242  1
  Pt  Pt23  1  0.142059  0.142059  0.570640  1
