# generated using pymatgen
data_BaAc(Ni9P5)2
_symmetry_space_group_name_H-M   'P 1'
_cell_length_a   6.50617600
_cell_length_b   6.50617626
_cell_length_c   10.84308400
_cell_angle_alpha   90.00000000
_cell_angle_beta   90.00000000
_cell_angle_gamma   119.99999867
_symmetry_Int_Tables_number   1
_chemical_formula_structural   BaAc(Ni9P5)2
_chemical_formula_sum   'Ba1 Ac1 Ni18 P10'
_cell_volume   397.49813177
_cell_formula_units_Z   1
loop_
 _symmetry_equiv_pos_site_id
 _symmetry_equiv_pos_as_xyz
  1  'x, y, z'
loop_
 _atom_site_type_symbol
 _atom_site_label
 _atom_site_symmetry_multiplicity
 _atom_site_fract_x
 _atom_site_fract_y
 _atom_site_fract_z
 _atom_site_occupancy
  Ba  Ba0  1  0.000000  0.000000  0.000000  1
  Ac  Ac1  1  0.000000  0.000000  0.500000  1
  Ni  Ni2  1  0.464705  0.929410  0.891946  1
  Ni  Ni3  1  0.929410  0.464705  0.108054  1
  Ni  Ni4  1  0.535295  0.070590  0.108054  1
  Ni  Ni5  1  0.071990  0.535996  0.605896  1
  Ni  Ni6  1  0.202515  0.405028  0.252568  1
  Ni  Ni7  1  0.797485  0.202515  0.747432  1
  Ni  Ni8  1  0.405028  0.202515  0.747432  1
  Ni  Ni9  1  0.594972  0.797485  0.252568  1
  Ni  Ni10  1  0.202515  0.797485  0.252568  1
  Ni  Ni11  1  0.797485  0.594972  0.747432  1
  Ni  Ni12  1  0.464004  0.928010  0.605896  1
  Ni  Ni13  1  0.535996  0.464004  0.394104  1
  Ni  Ni14  1  0.928010  0.464004  0.394104  1
  Ni  Ni15  1  0.070590  0.535295  0.891946  1
  Ni  Ni16  1  0.464705  0.535295  0.891946  1
  Ni  Ni17  1  0.535996  0.071990  0.394104  1
  Ni  Ni18  1  0.535295  0.464705  0.108054  1
  Ni  Ni19  1  0.464004  0.535996  0.605896  1
  P  P20  1  0.175627  0.351255  0.748726  1
  P  P21  1  0.824373  0.175627  0.251274  1
  P  P22  1  0.175627  0.824373  0.748726  1
  P  P23  1  0.824373  0.648745  0.251274  1
  P  P24  1  0.333333  0.666667  0.437912  1
  P  P25  1  0.666667  0.333333  0.938927  1
  P  P26  1  0.666667  0.333333  0.562088  1
  P  P27  1  0.333333  0.666667  0.061073  1
  P  P28  1  0.351255  0.175627  0.251274  1
  P  P29  1  0.648745  0.824373  0.748726  1
