# generated using pymatgen
data_LiNb4Tl3(P4O13)4
_symmetry_space_group_name_H-M   'P 1'
_cell_length_a   8.15296645
_cell_length_b   10.55302328
_cell_length_c   15.76397780
_cell_angle_alpha   103.53727018
_cell_angle_beta   93.59621911
_cell_angle_gamma   98.71142127
_symmetry_Int_Tables_number   1
_chemical_formula_structural   LiNb4Tl3(P4O13)4
_chemical_formula_sum   'Li1 Nb4 Tl3 P16 O52'
_cell_volume   1296.59521820
_cell_formula_units_Z   1
loop_
 _symmetry_equiv_pos_site_id
 _symmetry_equiv_pos_as_xyz
  1  'x, y, z'
loop_
 _atom_site_type_symbol
 _atom_site_label
 _atom_site_symmetry_multiplicity
 _atom_site_fract_x
 _atom_site_fract_y
 _atom_site_fract_z
 _atom_site_occupancy
  Li  Li0  1  0.402849  0.266262  0.518266  1
  Nb  Nb1  1  0.049942  0.398982  0.249434  1
  Nb  Nb2  1  0.045859  0.898088  0.243622  1
  Nb  Nb3  1  0.951337  0.594438  0.747058  1
  Nb  Nb4  1  0.940842  0.094510  0.752295  1
  Tl  Tl5  1  0.668958  0.872086  0.509215  1
  Tl  Tl6  1  0.400819  0.360255  0.983947  1
  Tl  Tl7  1  0.404147  0.860921  0.980914  1
  P  P8  1  0.585237  0.670639  0.690162  1
  P  P9  1  0.113494  0.836473  0.647883  1
  P  P10  1  0.336209  0.540858  0.787551  1
  P  P11  1  0.658900  0.956661  0.217718  1
  P  P12  1  0.209204  0.633588  0.141389  1
  P  P13  1  0.887312  0.160705  0.352434  1
  P  P14  1  0.657824  0.447896  0.222729  1
  P  P15  1  0.578260  0.180187  0.689314  1
  P  P16  1  0.781506  0.852878  0.853379  1
  P  P17  1  0.779596  0.360517  0.852707  1
  P  P18  1  0.218154  0.137930  0.147160  1
  P  P19  1  0.329987  0.042720  0.785409  1
  P  P20  1  0.405635  0.315285  0.314918  1
  P  P21  1  0.123384  0.330821  0.652628  1
  P  P22  1  0.404133  0.813959  0.304739  1
  P  P23  1  0.886049  0.662069  0.350902  1
  O  O24  1  0.132988  0.503568  0.165590  1
  O  O25  1  0.565182  0.713087  0.608429  1
  O  O26  1  0.627131  0.790252  0.776536  1
  O  O27  1  0.913738  0.759850  0.830290  1
  O  O28  1  0.866606  0.486991  0.828714  1
  O  O29  1  0.998462  0.431737  0.665045  1
  O  O30  1  0.528576  0.438743  0.151128  1
  O  O31  1  0.014913  0.565721  0.329709  1
  O  O32  1  0.550847  0.220386  0.606780  1
  O  O33  1  0.852492  0.986295  0.831405  1
  O  O34  1  0.361339  0.192584  0.230830  1
  O  O35  1  0.810009  0.886591  0.193340  1
  O  O36  1  0.404355  0.104044  0.708117  1
  O  O37  1  0.458013  0.554055  0.863154  1
  O  O38  1  0.254740  0.893979  0.734175  1
  O  O39  1  0.175711  0.112106  0.805696  1
  O  O40  1  0.532004  0.952306  0.146051  1
  O  O41  1  0.081424  0.731297  0.162089  1
  O  O42  1  0.731767  0.597664  0.272856  1
  O  O43  1  0.709464  0.088397  0.693724  1
  O  O44  1  0.723726  0.866706  0.941234  1
  O  O45  1  0.956658  0.792132  0.326283  1
  O  O46  1  0.258236  0.389845  0.740714  1
  O  O47  1  0.903064  0.258711  0.834084  1
  O  O48  1  0.033078  0.200935  0.669913  1
  O  O49  1  0.016135  0.063984  0.325342  1
  O  O50  1  0.716873  0.579473  0.695625  1
  O  O51  1  0.826093  0.677692  0.438525  1
  O  O52  1  0.414859  0.274922  0.398199  1
  O  O53  1  0.586926  0.385899  0.300904  1
  O  O54  1  0.411298  0.591699  0.706423  1
  O  O55  1  0.811649  0.381120  0.199388  1
  O  O56  1  0.267646  0.615455  0.053244  1
  O  O57  1  0.134678  0.002279  0.160901  1
  O  O58  1  0.452356  0.052504  0.860230  1
  O  O59  1  0.282252  0.410646  0.304585  1
  O  O60  1  0.716625  0.379224  0.939464  1
  O  O61  1  0.209665  0.316673  0.572234  1
  O  O62  1  0.088314  0.234140  0.167404  1
  O  O63  1  0.364856  0.697501  0.216980  1
  O  O64  1  0.416688  0.767370  0.385491  1
  O  O65  1  0.627149  0.301672  0.773599  1
  O  O66  1  0.036057  0.702064  0.666006  1
  O  O67  1  0.183831  0.834439  0.564598  1
  O  O68  1  0.735488  0.103790  0.271376  1
  O  O69  1  0.584304  0.891011  0.293348  1
  O  O70  1  0.827868  0.165534  0.438839  1
  O  O71  1  0.288593  0.129991  0.062438  1
  O  O72  1  0.278099  0.908860  0.298231  1
  O  O73  1  0.184635  0.613811  0.804483  1
  O  O74  1  0.963541  0.293598  0.332401  1
  O  O75  1  0.978584  0.930037  0.670531  1
