# generated using pymatgen
data_TmZr5Zn23As
_symmetry_space_group_name_H-M   'P 1'
_cell_length_a   8.82379735
_cell_length_b   8.82549435
_cell_length_c   8.82549400
_cell_angle_alpha   59.98728659
_cell_angle_beta   60.00635551
_cell_angle_gamma   60.00635767
_symmetry_Int_Tables_number   1
_chemical_formula_structural   TmZr5Zn23As
_chemical_formula_sum   'Tm1 Zr5 Zn23 As1'
_cell_volume   485.98018233
_cell_formula_units_Z   1
loop_
 _symmetry_equiv_pos_site_id
 _symmetry_equiv_pos_as_xyz
  1  'x, y, z'
loop_
 _atom_site_type_symbol
 _atom_site_label
 _atom_site_symmetry_multiplicity
 _atom_site_fract_x
 _atom_site_fract_y
 _atom_site_fract_z
 _atom_site_occupancy
  Tm  Tm0  1  0.715569  0.284431  0.284431  1
  Zr  Zr1  1  0.284918  0.715082  0.715082  1
  Zr  Zr2  1  0.286166  0.713834  0.289429  1
  Zr  Zr3  1  0.710571  0.289429  0.713834  1
  Zr  Zr4  1  0.286166  0.289429  0.713834  1
  Zr  Zr5  1  0.710571  0.713834  0.289429  1
  Zn  Zn6  1  0.128164  0.121125  0.121125  1
  Zn  Zn7  1  0.877079  0.876675  0.876675  1
  Zn  Zn8  1  0.123325  0.122921  0.630431  1
  Zn  Zn9  1  0.123325  0.630431  0.122921  1
  Zn  Zn10  1  0.878875  0.871836  0.370412  1
  Zn  Zn11  1  0.878875  0.370412  0.871836  1
  Zn  Zn12  1  0.629588  0.121125  0.121125  1
  Zn  Zn13  1  0.369569  0.876675  0.876675  1
  Zn  Zn14  1  0.499694  0.000306  0.000306  1
  Zn  Zn15  1  0.999694  0.500306  0.500306  1
  Zn  Zn16  1  0.000562  0.500767  0.999438  1
  Zn  Zn17  1  0.499233  0.999438  0.500767  1
  Zn  Zn18  1  0.000562  0.999438  0.500767  1
  Zn  Zn19  1  0.499233  0.500767  0.999438  1
  Zn  Zn20  1  0.332182  0.334451  0.334451  1
  Zn  Zn21  1  0.664183  0.665425  0.665425  1
  Zn  Zn22  1  0.334575  0.335817  0.995036  1
  Zn  Zn23  1  0.334575  0.995036  0.335817  1
  Zn  Zn24  1  0.665549  0.667818  0.001083  1
  Zn  Zn25  1  0.665549  0.001083  0.667818  1
  Zn  Zn26  1  0.998917  0.334451  0.334451  1
  Zn  Zn27  1  0.004964  0.665425  0.665425  1
  Zn  Zn28  1  0.000178  0.999822  0.999822  1
  As  As29  1  0.497592  0.502408  0.502408  1
