# generated using pymatgen
data_Sr21Mg(Ga4Hg3)2
_symmetry_space_group_name_H-M   'P 1'
_cell_length_a   12.15638542
_cell_length_b   12.15638572
_cell_length_c   12.15638500
_cell_angle_alpha   60.00000467
_cell_angle_beta   60.00000386
_cell_angle_gamma   60.00000496
_symmetry_Int_Tables_number   1
_chemical_formula_structural   Sr21Mg(Ga4Hg3)2
_chemical_formula_sum   'Sr21 Mg1 Ga8 Hg6'
_cell_volume   1270.27697155
_cell_formula_units_Z   1
loop_
 _symmetry_equiv_pos_site_id
 _symmetry_equiv_pos_as_xyz
  1  'x, y, z'
loop_
 _atom_site_type_symbol
 _atom_site_label
 _atom_site_symmetry_multiplicity
 _atom_site_fract_x
 _atom_site_fract_y
 _atom_site_fract_z
 _atom_site_occupancy
  Sr  Sr0  1  0.867647  0.867647  0.397059  1
  Sr  Sr1  1  0.602941  0.132353  0.132353  1
  Sr  Sr2  1  0.867647  0.397059  0.867647  1
  Sr  Sr3  1  0.132353  0.132353  0.132353  1
  Sr  Sr4  1  0.397059  0.867647  0.867647  1
  Sr  Sr5  1  0.867647  0.867647  0.867647  1
  Sr  Sr6  1  0.171495  0.828505  0.500000  1
  Sr  Sr7  1  0.828505  0.500000  0.500000  1
  Sr  Sr8  1  0.132353  0.132353  0.602941  1
  Sr  Sr9  1  0.828505  0.171495  0.500000  1
  Sr  Sr10  1  0.171495  0.500000  0.500000  1
  Sr  Sr11  1  0.132353  0.602941  0.132353  1
  Sr  Sr12  1  0.500000  0.500000  0.171495  1
  Sr  Sr13  1  0.500000  0.171495  0.828505  1
  Sr  Sr14  1  0.500000  0.828505  0.171495  1
  Sr  Sr15  1  0.500000  0.500000  0.828505  1
  Sr  Sr16  1  0.500000  0.171495  0.500000  1
  Sr  Sr17  1  0.171495  0.500000  0.828505  1
  Sr  Sr18  1  0.000000  0.000000  0.000000  1
  Sr  Sr19  1  0.500000  0.828505  0.500000  1
  Sr  Sr20  1  0.828505  0.500000  0.171495  1
  Mg  Mg21  1  0.500000  0.500000  0.500000  1
  Ga  Ga22  1  0.693364  0.919907  0.693364  1
  Ga  Ga23  1  0.693364  0.693364  0.919907  1
  Ga  Ga24  1  0.693364  0.693364  0.693364  1
  Ga  Ga25  1  0.306636  0.080093  0.306636  1
  Ga  Ga26  1  0.919907  0.693364  0.693364  1
  Ga  Ga27  1  0.306636  0.306636  0.080093  1
  Ga  Ga28  1  0.080093  0.306636  0.306636  1
  Ga  Ga29  1  0.306636  0.306636  0.306636  1
  Hg  Hg30  1  0.784783  0.215217  0.784783  1
  Hg  Hg31  1  0.784783  0.215217  0.215217  1
  Hg  Hg32  1  0.215217  0.784783  0.215217  1
  Hg  Hg33  1  0.215217  0.784783  0.784783  1
  Hg  Hg34  1  0.784783  0.784783  0.215217  1
  Hg  Hg35  1  0.215217  0.215217  0.784783  1
