# generated using pymatgen
data_Dy5Ti3Co16(SiP5)2
_symmetry_space_group_name_H-M   'P 1'
_cell_length_a   12.18823992
_cell_length_b   12.16788339
_cell_length_c   3.69415400
_cell_angle_alpha   90.00000000
_cell_angle_beta   90.00000000
_cell_angle_gamma   119.94475928
_symmetry_Int_Tables_number   1
_chemical_formula_structural   Dy5Ti3Co16(SiP5)2
_chemical_formula_sum   'Dy5 Ti3 Co16 Si2 P10'
_cell_volume   474.72613202
_cell_formula_units_Z   1
loop_
 _symmetry_equiv_pos_site_id
 _symmetry_equiv_pos_as_xyz
  1  'x, y, z'
loop_
 _atom_site_type_symbol
 _atom_site_label
 _atom_site_symmetry_multiplicity
 _atom_site_fract_x
 _atom_site_fract_y
 _atom_site_fract_z
 _atom_site_occupancy
  Dy  Dy0  1  0.665518  0.332244  0.000000  1
  Dy  Dy1  1  0.334482  0.666727  0.000000  1
  Dy  Dy2  1  0.182682  0.183410  0.500000  1
  Dy  Dy3  1  0.817318  0.000729  0.500000  1
  Dy  Dy4  1  0.000000  0.814462  0.500000  1
  Ti  Ti5  1  0.565231  0.563976  0.000000  1
  Ti  Ti6  1  0.434769  0.998745  0.000000  1
  Ti  Ti7  1  0.000000  0.438963  0.000000  1
  Co  Co8  1  0.824451  0.201341  0.000000  1
  Co  Co9  1  0.803541  0.624168  0.000000  1
  Co  Co10  1  0.374878  0.174831  0.000000  1
  Co  Co11  1  0.196459  0.820628  0.000000  1
  Co  Co12  1  0.625122  0.799953  0.000000  1
  Co  Co13  1  0.175549  0.376890  0.000000  1
  Co  Co14  1  0.642858  0.126141  0.500000  1
  Co  Co15  1  0.875706  0.519417  0.500000  1
  Co  Co16  1  0.483259  0.356789  0.500000  1
  Co  Co17  1  0.124294  0.643712  0.500000  1
  Co  Co18  1  0.516741  0.873531  0.500000  1
  Co  Co19  1  0.357142  0.483282  0.500000  1
  Co  Co20  1  0.719994  0.717792  0.500000  1
  Co  Co21  1  0.280006  0.997798  0.500000  1
  Co  Co22  1  0.000000  0.283200  0.500000  1
  Co  Co23  1  0.000000  0.000096  0.000000  1
  Si  Si24  1  0.360089  0.360558  0.000000  1
  Si  Si25  1  0.639911  0.000468  0.000000  1
  P  P26  1  0.000000  0.640010  0.000000  1
  P  P27  1  0.831335  0.311585  0.500000  1
  P  P28  1  0.688923  0.519949  0.500000  1
  P  P29  1  0.478497  0.167523  0.500000  1
  P  P30  1  0.311077  0.831025  0.500000  1
  P  P31  1  0.521503  0.689026  0.500000  1
  P  P32  1  0.168665  0.480249  0.500000  1
  P  P33  1  0.820452  0.820072  0.000000  1
  P  P34  1  0.179548  0.999621  0.000000  1
  P  P35  1  0.000000  0.181090  0.000000  1
