# generated using pymatgen
data_Tb7Y(Er3Pt4)4
_symmetry_space_group_name_H-M   'P 1'
_cell_length_a   7.46642901
_cell_length_b   7.54171702
_cell_length_c   14.68117201
_cell_angle_alpha   90.00431571
_cell_angle_beta   90.00237963
_cell_angle_gamma   90.00619981
_symmetry_Int_Tables_number   1
_chemical_formula_structural   Tb7Y(Er3Pt4)4
_chemical_formula_sum   'Tb7 Y1 Er12 Pt16'
_cell_volume   826.69230655
_cell_formula_units_Z   1
loop_
 _symmetry_equiv_pos_site_id
 _symmetry_equiv_pos_as_xyz
  1  'x, y, z'
loop_
 _atom_site_type_symbol
 _atom_site_label
 _atom_site_symmetry_multiplicity
 _atom_site_fract_x
 _atom_site_fract_y
 _atom_site_fract_z
 _atom_site_occupancy
  Tb  Tb0  1  0.998235  0.820191  0.406904  1
  Tb  Tb1  1  0.498177  0.679917  0.093016  1
  Tb  Tb2  1  0.501809  0.320181  0.593048  1
  Tb  Tb3  1  0.001823  0.179775  0.907015  1
  Tb  Tb4  1  0.001802  0.179821  0.593040  1
  Tb  Tb5  1  0.501787  0.320164  0.906952  1
  Tb  Tb6  1  0.498206  0.679835  0.406947  1
  Y  Y7  1  0.998181  0.820191  0.093049  1
  Er  Er8  1  0.681137  0.989071  0.249968  1
  Er  Er9  1  0.180988  0.510908  0.249991  1
  Er  Er10  1  0.818919  0.489102  0.749991  1
  Er  Er11  1  0.318983  0.010904  0.750018  1
  Er  Er12  1  0.656273  0.832438  0.622491  1
  Er  Er13  1  0.156196  0.667655  0.877579  1
  Er  Er14  1  0.843811  0.332383  0.377484  1
  Er  Er15  1  0.343626  0.167477  0.122481  1
  Er  Er16  1  0.343711  0.167512  0.377461  1
  Er  Er17  1  0.843815  0.332394  0.122475  1
  Er  Er18  1  0.156278  0.667580  0.622483  1
  Er  Er19  1  0.656348  0.832455  0.877561  1
  Pt  Pt20  1  0.816032  0.641772  0.250079  1
  Pt  Pt21  1  0.316119  0.858180  0.250005  1
  Pt  Pt22  1  0.683873  0.141841  0.749967  1
  Pt  Pt23  1  0.183852  0.358161  0.749975  1
  Pt  Pt24  1  0.546439  0.385757  0.250021  1
  Pt  Pt25  1  0.046408  0.114351  0.250043  1
  Pt  Pt26  1  0.953607  0.885689  0.749973  1
  Pt  Pt27  1  0.453612  0.614278  0.749976  1
  Pt  Pt28  1  0.817307  0.533199  0.542111  1
  Pt  Pt29  1  0.317363  0.966770  0.957921  1
  Pt  Pt30  1  0.682688  0.033204  0.457905  1
  Pt  Pt31  1  0.182727  0.466802  0.042099  1
  Pt  Pt32  1  0.182652  0.466804  0.457922  1
  Pt  Pt33  1  0.682596  0.033238  0.042078  1
  Pt  Pt34  1  0.317328  0.966833  0.542121  1
  Pt  Pt35  1  0.817294  0.533167  0.957849  1
