# generated using pymatgen
data_ErTm2ThPt4
_symmetry_space_group_name_H-M   'P 1'
_cell_length_a   4.55400400
_cell_length_b   5.60076005
_cell_length_c   7.00234554
_cell_angle_alpha   89.83610132
_cell_angle_beta   90.00000000
_cell_angle_gamma   90.00000000
_symmetry_Int_Tables_number   1
_chemical_formula_structural   ErTm2ThPt4
_chemical_formula_sum   'Er1 Tm2 Th1 Pt4'
_cell_volume   178.60028014
_cell_formula_units_Z   1
loop_
 _symmetry_equiv_pos_site_id
 _symmetry_equiv_pos_as_xyz
  1  'x, y, z'
loop_
 _atom_site_type_symbol
 _atom_site_label
 _atom_site_symmetry_multiplicity
 _atom_site_fract_x
 _atom_site_fract_y
 _atom_site_fract_z
 _atom_site_occupancy
  Er  Er0  1  0.750000  0.356195  0.813694  1
  Tm  Tm1  1  0.750000  0.142681  0.321541  1
  Tm  Tm2  1  0.250000  0.859137  0.682767  1
  Th  Th3  1  0.250000  0.641489  0.182767  1
  Pt  Pt4  1  0.250000  0.157812  0.042362  1
  Pt  Pt5  1  0.750000  0.843388  0.950321  1
  Pt  Pt6  1  0.750000  0.659982  0.461628  1
  Pt  Pt7  1  0.250000  0.339315  0.544920  1
