# generated using pymatgen
data_CeTmB6W
_symmetry_space_group_name_H-M   'P 1'
_cell_length_a   3.69247000
_cell_length_b   9.24961300
_cell_length_c   11.65751000
_cell_angle_alpha   90.00000000
_cell_angle_beta   90.00000000
_cell_angle_gamma   90.00000000
_symmetry_Int_Tables_number   1
_chemical_formula_structural   CeTmB6W
_chemical_formula_sum   'Ce4 Tm4 B24 W4'
_cell_volume   398.14964662
_cell_formula_units_Z   4
loop_
 _symmetry_equiv_pos_site_id
 _symmetry_equiv_pos_as_xyz
  1  'x, y, z'
loop_
 _atom_site_type_symbol
 _atom_site_label
 _atom_site_symmetry_multiplicity
 _atom_site_fract_x
 _atom_site_fract_y
 _atom_site_fract_z
 _atom_site_occupancy
  Ce  Ce0  1  0.000000  0.321592  0.414074  1
  Ce  Ce1  1  0.000000  0.678408  0.585926  1
  Ce  Ce2  1  0.000000  0.821592  0.085926  1
  Ce  Ce3  1  0.000000  0.178408  0.914074  1
  Tm  Tm4  1  0.000000  0.944359  0.372088  1
  Tm  Tm5  1  0.000000  0.055641  0.627912  1
  Tm  Tm6  1  0.000000  0.444359  0.127912  1
  Tm  Tm7  1  0.000000  0.555641  0.872088  1
  B  B8  1  0.500000  0.553193  0.432980  1
  B  B9  1  0.500000  0.446807  0.567020  1
  B  B10  1  0.500000  0.053193  0.067020  1
  B  B11  1  0.500000  0.946807  0.932980  1
  B  B12  1  0.500000  0.751731  0.419210  1
  B  B13  1  0.500000  0.248269  0.580790  1
  B  B14  1  0.500000  0.251731  0.080790  1
  B  B15  1  0.500000  0.748269  0.919210  1
  B  B16  1  0.500000  0.794456  0.264909  1
  B  B17  1  0.500000  0.205544  0.735091  1
  B  B18  1  0.500000  0.294456  0.235091  1
  B  B19  1  0.500000  0.705544  0.764909  1
  B  B20  1  0.500000  0.631112  0.184052  1
  B  B21  1  0.500000  0.368888  0.815948  1
  B  B22  1  0.500000  0.131112  0.315948  1
  B  B23  1  0.500000  0.868888  0.684052  1
  B  B24  1  0.500000  0.980952  0.213566  1
  B  B25  1  0.500000  0.019048  0.786434  1
  B  B26  1  0.500000  0.480952  0.286434  1
  B  B27  1  0.500000  0.519048  0.713566  1
  B  B28  1  0.500000  0.600811  0.028069  1
  B  B29  1  0.500000  0.399189  0.971931  1
  B  B30  1  0.500000  0.100811  0.471931  1
  B  B31  1  0.500000  0.899189  0.528069  1
  W  W32  1  0.000000  0.639773  0.320335  1
  W  W33  1  0.000000  0.360227  0.679665  1
  W  W34  1  0.000000  0.139773  0.179665  1
  W  W35  1  0.000000  0.860227  0.820335  1
