# generated using pymatgen
data_PaTe28
_symmetry_space_group_name_H-M   'P 1'
_cell_length_a   11.93491943
_cell_length_b   10.68667793
_cell_length_c   12.44500700
_cell_angle_alpha   115.56274690
_cell_angle_beta   121.20208998
_cell_angle_gamma   89.00410682
_symmetry_Int_Tables_number   1
_chemical_formula_structural   PaTe28
_chemical_formula_sum   'Pa1 Te28'
_cell_volume   1180.26015739
_cell_formula_units_Z   1
loop_
 _symmetry_equiv_pos_site_id
 _symmetry_equiv_pos_as_xyz
  1  'x, y, z'
loop_
 _atom_site_type_symbol
 _atom_site_label
 _atom_site_symmetry_multiplicity
 _atom_site_fract_x
 _atom_site_fract_y
 _atom_site_fract_z
 _atom_site_occupancy
  Pa  Pa0  1  0.500000  0.000000  0.000000  1
  Te  Te1  1  0.218746  0.089428  0.418971  1
  Te  Te2  1  0.581914  0.152522  0.432678  1
  Te  Te3  1  0.276252  0.268624  0.887538  1
  Te  Te4  1  0.927142  0.315020  0.904978  1
  Te  Te5  1  0.196671  0.529325  0.698782  1
  Te  Te6  1  0.804176  0.525130  0.634772  1
  Te  Te7  1  0.418086  0.847478  0.567322  1
  Te  Te8  1  0.781254  0.910572  0.581029  1
  Te  Te9  1  0.072858  0.684980  0.095022  1
  Te  Te10  1  0.723748  0.731376  0.112462  1
  Te  Te11  1  0.195824  0.474870  0.365228  1
  Te  Te12  1  0.803329  0.470675  0.301218  1
  Te  Te13  1  0.755703  0.077338  0.831500  1
  Te  Te14  1  0.240755  0.973924  0.726696  1
  Te  Te15  1  0.805928  0.677429  0.895653  1
  Te  Te16  1  0.365897  0.757586  0.005354  1
  Te  Te17  1  0.512254  0.264415  0.237368  1
  Te  Te18  1  0.039407  0.283571  0.366144  1
  Te  Te19  1  0.759245  0.026076  0.273304  1
  Te  Te20  1  0.244297  0.922662  0.168500  1
  Te  Te21  1  0.634103  0.242414  0.994646  1
  Te  Te22  1  0.194072  0.322571  0.104347  1
  Te  Te23  1  0.960593  0.716429  0.633856  1
  Te  Te24  1  0.487746  0.735585  0.762632  1
  Te  Te25  1  0.045780  0.366466  0.734674  1
  Te  Te26  1  0.472163  0.287104  0.586989  1
  Te  Te27  1  0.527837  0.712896  0.413011  1
  Te  Te28  1  0.954220  0.633534  0.265326  1
