# generated using pymatgen
data_Zr9Ta3CoRe
_symmetry_space_group_name_H-M   'P 1'
_cell_length_a   8.93547700
_cell_length_b   8.93547805
_cell_length_c   8.48772800
_cell_angle_alpha   90.00000000
_cell_angle_beta   90.00000000
_cell_angle_gamma   119.99999982
_symmetry_Int_Tables_number   1
_chemical_formula_structural   Zr9Ta3CoRe
_chemical_formula_sum   'Zr18 Ta6 Co2 Re2'
_cell_volume   586.89122975
_cell_formula_units_Z   2
loop_
 _symmetry_equiv_pos_site_id
 _symmetry_equiv_pos_as_xyz
  1  'x, y, z'
loop_
 _atom_site_type_symbol
 _atom_site_label
 _atom_site_symmetry_multiplicity
 _atom_site_fract_x
 _atom_site_fract_y
 _atom_site_fract_z
 _atom_site_occupancy
  Zr  Zr0  1  0.201320  0.798680  0.440475  1
  Zr  Zr1  1  0.201320  0.402641  0.440475  1
  Zr  Zr2  1  0.597359  0.798680  0.440475  1
  Zr  Zr3  1  0.798680  0.201320  0.559525  1
  Zr  Zr4  1  0.798680  0.597359  0.559525  1
  Zr  Zr5  1  0.402641  0.201320  0.559525  1
  Zr  Zr6  1  0.798680  0.201320  0.940475  1
  Zr  Zr7  1  0.798680  0.597359  0.940475  1
  Zr  Zr8  1  0.402641  0.201320  0.940475  1
  Zr  Zr9  1  0.201320  0.798680  0.059525  1
  Zr  Zr10  1  0.201320  0.402641  0.059525  1
  Zr  Zr11  1  0.597359  0.798680  0.059525  1
  Zr  Zr12  1  0.541354  0.458646  0.250000  1
  Zr  Zr13  1  0.541354  0.082706  0.250000  1
  Zr  Zr14  1  0.917294  0.458646  0.250000  1
  Zr  Zr15  1  0.458646  0.541354  0.750000  1
  Zr  Zr16  1  0.458646  0.917294  0.750000  1
  Zr  Zr17  1  0.082706  0.541354  0.750000  1
  Ta  Ta18  1  0.889825  0.110175  0.250000  1
  Ta  Ta19  1  0.889825  0.779651  0.250000  1
  Ta  Ta20  1  0.220349  0.110175  0.250000  1
  Ta  Ta21  1  0.110175  0.889825  0.750000  1
  Ta  Ta22  1  0.110175  0.220349  0.750000  1
  Ta  Ta23  1  0.779651  0.889825  0.750000  1
  Co  Co24  1  0.333333  0.666667  0.250000  1
  Co  Co25  1  0.666667  0.333333  0.750000  1
  Re  Re26  1  0.000000  0.000000  0.500000  1
  Re  Re27  1  0.000000  0.000000  0.000000  1
