# generated using pymatgen
data_Y6GaSi5Rh12
_symmetry_space_group_name_H-M   'P 1'
_cell_length_a   5.58414700
_cell_length_b   5.58414525
_cell_length_c   15.15675800
_cell_angle_alpha   90.00000000
_cell_angle_beta   90.00000000
_cell_angle_gamma   119.99999262
_symmetry_Int_Tables_number   1
_chemical_formula_structural   Y6GaSi5Rh12
_chemical_formula_sum   'Y6 Ga1 Si5 Rh12'
_cell_volume   409.30827861
_cell_formula_units_Z   1
loop_
 _symmetry_equiv_pos_site_id
 _symmetry_equiv_pos_as_xyz
  1  'x, y, z'
loop_
 _atom_site_type_symbol
 _atom_site_label
 _atom_site_symmetry_multiplicity
 _atom_site_fract_x
 _atom_site_fract_y
 _atom_site_fract_z
 _atom_site_occupancy
  Y  Y0  1  0.666667  0.333333  0.962587  1
  Y  Y1  1  0.666667  0.333333  0.537416  1
  Y  Y2  1  0.333333  0.666667  0.037413  1
  Y  Y3  1  0.666667  0.333333  0.749996  1
  Y  Y4  1  0.333333  0.666667  0.462584  1
  Y  Y5  1  0.333333  0.666667  0.250004  1
  Ga  Ga6  1  0.000000  0.000000  0.500000  1
  Si  Si7  1  0.666667  0.333333  0.248096  1
  Si  Si8  1  0.000000  0.000000  0.248811  1
  Si  Si9  1  0.000000  0.000000  0.751189  1
  Si  Si10  1  0.333333  0.666667  0.751904  1
  Si  Si11  1  0.000000  0.000000  0.000000  1
  Rh  Rh12  1  0.166678  0.333356  0.869864  1
  Rh  Rh13  1  0.167893  0.335786  0.634662  1
  Rh  Rh14  1  0.666644  0.833322  0.869864  1
  Rh  Rh15  1  0.335786  0.167893  0.365338  1
  Rh  Rh16  1  0.832107  0.664214  0.365338  1
  Rh  Rh17  1  0.832107  0.167893  0.365338  1
  Rh  Rh18  1  0.833322  0.166678  0.130136  1
  Rh  Rh19  1  0.333356  0.166678  0.130136  1
  Rh  Rh20  1  0.664214  0.832107  0.634662  1
  Rh  Rh21  1  0.167893  0.832107  0.634662  1
  Rh  Rh22  1  0.833322  0.666644  0.130136  1
  Rh  Rh23  1  0.166678  0.833322  0.869864  1
