# generated using pymatgen
data_CePt2Rh2Pb
_symmetry_space_group_name_H-M   'P 1'
_cell_length_a   5.42180836
_cell_length_b   5.42180936
_cell_length_c   5.42180938
_cell_angle_alpha   120.58454663
_cell_angle_beta   119.41321697
_cell_angle_gamma   90.00492611
_symmetry_Int_Tables_number   1
_chemical_formula_structural   CePt2Rh2Pb
_chemical_formula_sum   'Ce1 Pt2 Rh2 Pb1'
_cell_volume   112.68556469
_cell_formula_units_Z   1
loop_
 _symmetry_equiv_pos_site_id
 _symmetry_equiv_pos_as_xyz
  1  'x, y, z'
loop_
 _atom_site_type_symbol
 _atom_site_label
 _atom_site_symmetry_multiplicity
 _atom_site_fract_x
 _atom_site_fract_y
 _atom_site_fract_z
 _atom_site_occupancy
  Ce  Ce0  1  0.875753  0.125753  0.750000  1
  Pt  Pt1  1  0.499955  0.500261  0.500306  1
  Pt  Pt2  1  0.499955  0.999650  0.999694  1
  Rh  Rh3  1  0.498856  0.501133  0.997723  1
  Rh  Rh4  1  0.003410  0.501133  0.502277  1
  Pb  Pb5  1  0.122070  0.872070  0.250000  1
