# generated using pymatgen
data_Er8Nb11Si16Mo
_symmetry_space_group_name_H-M   'P 1'
_cell_length_a   6.84234472
_cell_length_b   7.04519001
_cell_length_c   13.34651801
_cell_angle_alpha   90.04374749
_cell_angle_beta   89.94093525
_cell_angle_gamma   89.91257334
_symmetry_Int_Tables_number   1
_chemical_formula_structural   Er8Nb11Si16Mo
_chemical_formula_sum   'Er8 Nb11 Si16 Mo1'
_cell_volume   643.37587807
_cell_formula_units_Z   1
loop_
 _symmetry_equiv_pos_site_id
 _symmetry_equiv_pos_as_xyz
  1  'x, y, z'
loop_
 _atom_site_type_symbol
 _atom_site_label
 _atom_site_symmetry_multiplicity
 _atom_site_fract_x
 _atom_site_fract_y
 _atom_site_fract_z
 _atom_site_occupancy
  Er  Er0  1  0.503454  0.328089  0.095930  1
  Er  Er1  1  0.001586  0.172641  0.404335  1
  Er  Er2  1  0.496672  0.672099  0.595424  1
  Er  Er3  1  0.997678  0.828029  0.903703  1
  Er  Er4  1  0.496909  0.671843  0.903292  1
  Er  Er5  1  0.997699  0.827905  0.595630  1
  Er  Er6  1  0.502881  0.327922  0.405564  1
  Er  Er7  1  0.003450  0.172397  0.096119  1
  Nb  Nb8  1  0.838261  0.325095  0.624941  1
  Nb  Nb9  1  0.337918  0.174628  0.873109  1
  Nb  Nb10  1  0.162917  0.674915  0.125988  1
  Nb  Nb11  1  0.660750  0.826811  0.375005  1
  Nb  Nb12  1  0.164851  0.675387  0.375854  1
  Nb  Nb13  1  0.663152  0.825205  0.125953  1
  Nb  Nb14  1  0.837022  0.324542  0.872818  1
  Nb  Nb15  1  0.661808  0.008005  0.748885  1
  Nb  Nb16  1  0.161418  0.491880  0.749036  1
  Nb  Nb17  1  0.338234  0.993772  0.250725  1
  Nb  Nb18  1  0.838214  0.507580  0.250318  1
  Si  Si19  1  0.659763  0.037266  0.542245  1
  Si  Si20  1  0.163401  0.463236  0.958753  1
  Si  Si21  1  0.336658  0.963683  0.040820  1
  Si  Si22  1  0.836641  0.536992  0.458893  1
  Si  Si23  1  0.334313  0.965393  0.461722  1
  Si  Si24  1  0.836563  0.536301  0.040374  1
  Si  Si25  1  0.663612  0.036186  0.959249  1
  Si  Si26  1  0.165628  0.459043  0.542192  1
  Si  Si27  1  0.538668  0.376582  0.747810  1
  Si  Si28  1  0.043326  0.121989  0.748570  1
  Si  Si29  1  0.460012  0.621441  0.250417  1
  Si  Si30  1  0.959419  0.878086  0.250644  1
  Si  Si31  1  0.794386  0.628663  0.749423  1
  Si  Si32  1  0.296596  0.872090  0.749250  1
  Si  Si33  1  0.205169  0.371387  0.250604  1
  Si  Si34  1  0.704205  0.129788  0.250056  1
  Mo  Mo35  1  0.336761  0.173130  0.626351  1
