# generated using pymatgen
data_SmHo4(Tl2Pd)2
_symmetry_space_group_name_H-M   'P 1'
_cell_length_a   3.63408000
_cell_length_b   8.24629300
_cell_length_c   18.48426100
_cell_angle_alpha   90.00000000
_cell_angle_beta   90.00000000
_cell_angle_gamma   90.00000000
_symmetry_Int_Tables_number   1
_chemical_formula_structural   SmHo4(Tl2Pd)2
_chemical_formula_sum   'Sm2 Ho8 Tl8 Pd4'
_cell_volume   553.93057516
_cell_formula_units_Z   2
loop_
 _symmetry_equiv_pos_site_id
 _symmetry_equiv_pos_as_xyz
  1  'x, y, z'
loop_
 _atom_site_type_symbol
 _atom_site_label
 _atom_site_symmetry_multiplicity
 _atom_site_fract_x
 _atom_site_fract_y
 _atom_site_fract_z
 _atom_site_occupancy
  Sm  Sm0  1  0.000000  0.500000  0.500000  1
  Sm  Sm1  1  0.000000  0.000000  0.000000  1
  Ho  Ho2  1  0.000000  0.740199  0.281109  1
  Ho  Ho3  1  0.000000  0.259801  0.718891  1
  Ho  Ho4  1  0.000000  0.759801  0.781109  1
  Ho  Ho5  1  0.000000  0.240199  0.218891  1
  Ho  Ho6  1  0.000000  0.617949  0.085829  1
  Ho  Ho7  1  0.000000  0.382051  0.914171  1
  Ho  Ho8  1  0.000000  0.882051  0.585829  1
  Ho  Ho9  1  0.000000  0.117949  0.414171  1
  Tl  Tl10  1  0.500000  0.703711  0.932487  1
  Tl  Tl11  1  0.500000  0.296289  0.067513  1
  Tl  Tl12  1  0.500000  0.796289  0.432487  1
  Tl  Tl13  1  0.500000  0.203711  0.567513  1
  Tl  Tl14  1  0.500000  0.583812  0.651579  1
  Tl  Tl15  1  0.500000  0.416188  0.348421  1
  Tl  Tl16  1  0.500000  0.916188  0.151579  1
  Tl  Tl17  1  0.500000  0.083812  0.848421  1
  Pd  Pd18  1  0.500000  0.526548  0.196492  1
  Pd  Pd19  1  0.500000  0.473452  0.803508  1
  Pd  Pd20  1  0.500000  0.973452  0.696492  1
  Pd  Pd21  1  0.500000  0.026548  0.303508  1
