# generated using pymatgen
data_Ac2TiBeCu24
_symmetry_space_group_name_H-M   'P 1'
_cell_length_a   8.22656724
_cell_length_b   8.22656758
_cell_length_c   8.22656700
_cell_angle_alpha   59.99999832
_cell_angle_beta   59.99999696
_cell_angle_gamma   59.99999469
_symmetry_Int_Tables_number   1
_chemical_formula_structural   Ac2TiBeCu24
_chemical_formula_sum   'Ac2 Ti1 Be1 Cu24'
_cell_volume   393.67780456
_cell_formula_units_Z   1
loop_
 _symmetry_equiv_pos_site_id
 _symmetry_equiv_pos_as_xyz
  1  'x, y, z'
loop_
 _atom_site_type_symbol
 _atom_site_label
 _atom_site_symmetry_multiplicity
 _atom_site_fract_x
 _atom_site_fract_y
 _atom_site_fract_z
 _atom_site_occupancy
  Ac  Ac0  1  0.250000  0.250000  0.250000  1
  Ac  Ac1  1  0.750000  0.750000  0.750000  1
  Ti  Ti2  1  0.500000  0.500000  0.500000  1
  Be  Be3  1  0.000000  0.000000  0.000000  1
  Cu  Cu4  1  0.804836  0.559407  0.195164  1
  Cu  Cu5  1  0.195164  0.440593  0.804836  1
  Cu  Cu6  1  0.559407  0.804836  0.440593  1
  Cu  Cu7  1  0.440593  0.195164  0.559407  1
  Cu  Cu8  1  0.285907  0.932103  0.714093  1
  Cu  Cu9  1  0.714093  0.067897  0.285907  1
  Cu  Cu10  1  0.932103  0.285907  0.067897  1
  Cu  Cu11  1  0.067897  0.714093  0.932103  1
  Cu  Cu12  1  0.195164  0.804836  0.559407  1
  Cu  Cu13  1  0.804836  0.195164  0.440593  1
  Cu  Cu14  1  0.440593  0.559407  0.804836  1
  Cu  Cu15  1  0.559407  0.440593  0.195164  1
  Cu  Cu16  1  0.714093  0.285907  0.932103  1
  Cu  Cu17  1  0.285907  0.714093  0.067897  1
  Cu  Cu18  1  0.067897  0.932103  0.285907  1
  Cu  Cu19  1  0.932103  0.067897  0.714093  1
  Cu  Cu20  1  0.559407  0.195164  0.804836  1
  Cu  Cu21  1  0.440593  0.804836  0.195164  1
  Cu  Cu22  1  0.804836  0.440593  0.559407  1
  Cu  Cu23  1  0.195164  0.559407  0.440593  1
  Cu  Cu24  1  0.932103  0.714093  0.285907  1
  Cu  Cu25  1  0.067897  0.285907  0.714093  1
  Cu  Cu26  1  0.285907  0.067897  0.932103  1
  Cu  Cu27  1  0.714093  0.932103  0.067897  1
