# generated using pymatgen
data_NdSm2Mg3Si2Au
_symmetry_space_group_name_H-M   'P 1'
_cell_length_a   7.37870100
_cell_length_b   7.38567031
_cell_length_c   4.39782200
_cell_angle_alpha   90.00000000
_cell_angle_beta   90.00000000
_cell_angle_gamma   119.96878554
_symmetry_Int_Tables_number   1
_chemical_formula_structural   NdSm2Mg3Si2Au
_chemical_formula_sum   'Nd1 Sm2 Mg3 Si2 Au1'
_cell_volume   207.62259963
_cell_formula_units_Z   1
loop_
 _symmetry_equiv_pos_site_id
 _symmetry_equiv_pos_as_xyz
  1  'x, y, z'
loop_
 _atom_site_type_symbol
 _atom_site_label
 _atom_site_symmetry_multiplicity
 _atom_site_fract_x
 _atom_site_fract_y
 _atom_site_fract_z
 _atom_site_occupancy
  Nd  Nd0  1  0.582075  0.000000  0.000000  1
  Sm  Sm1  1  0.999640  0.582297  0.000000  1
  Sm  Sm2  1  0.417343  0.417703  0.000000  1
  Mg  Mg3  1  0.244733  0.000000  0.500000  1
  Mg  Mg4  1  0.000508  0.245696  0.500000  1
  Mg  Mg5  1  0.754811  0.754304  0.500000  1
  Si  Si6  1  0.332216  0.664995  0.500000  1
  Si  Si7  1  0.667222  0.335005  0.500000  1
  Au  Au8  1  0.001451  0.000000  0.000000  1
