# generated using pymatgen
data_TbDy2Ho(Al3Rh)6
_symmetry_space_group_name_H-M   'P 1'
_cell_length_a   7.56125113
_cell_length_b   7.56019283
_cell_length_c   9.49046300
_cell_angle_alpha   90.00000000
_cell_angle_beta   90.00000000
_cell_angle_gamma   119.34267177
_symmetry_Int_Tables_number   1
_chemical_formula_structural   TbDy2Ho(Al3Rh)6
_chemical_formula_sum   'Tb1 Dy2 Ho1 Al18 Rh6'
_cell_volume   472.91517716
_cell_formula_units_Z   1
loop_
 _symmetry_equiv_pos_site_id
 _symmetry_equiv_pos_as_xyz
  1  'x, y, z'
loop_
 _atom_site_type_symbol
 _atom_site_label
 _atom_site_symmetry_multiplicity
 _atom_site_fract_x
 _atom_site_fract_y
 _atom_site_fract_z
 _atom_site_occupancy
  Tb  Tb0  1  0.005614  0.328355  0.250000  1
  Dy  Dy1  1  0.671429  0.994268  0.750000  1
  Dy  Dy2  1  0.328297  0.005499  0.250000  1
  Ho  Ho3  1  0.994455  0.671504  0.750000  1
  Al  Al4  1  0.128192  0.127983  0.750000  1
  Al  Al5  1  0.871996  0.871714  0.250000  1
  Al  Al6  1  0.000972  0.335874  0.575240  1
  Al  Al7  1  0.999140  0.664673  0.425390  1
  Al  Al8  1  0.999140  0.664673  0.074610  1
  Al  Al9  1  0.335413  0.000798  0.925024  1
  Al  Al10  1  0.000972  0.335874  0.924760  1
  Al  Al11  1  0.664230  0.998886  0.075042  1
  Al  Al12  1  0.664230  0.998886  0.424958  1
  Al  Al13  1  0.335413  0.000798  0.574976  1
  Al  Al14  1  0.333068  0.332904  0.049262  1
  Al  Al15  1  0.667191  0.667008  0.950135  1
  Al  Al16  1  0.667191  0.667008  0.549865  1
  Al  Al17  1  0.333068  0.332904  0.450738  1
  Al  Al18  1  0.339203  0.549540  0.750000  1
  Al  Al19  1  0.660423  0.450009  0.250000  1
  Al  Al20  1  0.549834  0.339751  0.750000  1
  Al  Al21  1  0.450134  0.660613  0.250000  1
  Rh  Rh22  1  0.672211  0.328109  0.500194  1
  Rh  Rh23  1  0.328197  0.672401  0.500207  1
  Rh  Rh24  1  0.328197  0.672401  0.999793  1
  Rh  Rh25  1  0.672211  0.328109  0.999806  1
  Rh  Rh26  1  0.999789  0.999728  0.500338  1
  Rh  Rh27  1  0.999789  0.999728  0.999662  1
