# generated using pymatgen
data_Ba12Sn3RhI8
_symmetry_space_group_name_H-M   'P 1'
_cell_length_a   16.67584891
_cell_length_b   15.89502034
_cell_length_c   8.97728814
_cell_angle_alpha   78.85581615
_cell_angle_beta   69.26095594
_cell_angle_gamma   30.87109504
_symmetry_Int_Tables_number   1
_chemical_formula_structural   Ba12Sn3RhI8
_chemical_formula_sum   'Ba12 Sn3 Rh1 I8'
_cell_volume   1111.07091240
_cell_formula_units_Z   1
loop_
 _symmetry_equiv_pos_site_id
 _symmetry_equiv_pos_as_xyz
  1  'x, y, z'
loop_
 _atom_site_type_symbol
 _atom_site_label
 _atom_site_symmetry_multiplicity
 _atom_site_fract_x
 _atom_site_fract_y
 _atom_site_fract_z
 _atom_site_occupancy
  Ba  Ba0  1  0.048497  0.463397  0.450260  1
  Ba  Ba1  1  0.780551  0.219309  0.223094  1
  Ba  Ba2  1  0.107829  0.566972  0.951604  1
  Ba  Ba3  1  0.862514  0.316213  0.663586  1
  Ba  Ba4  1  0.566972  0.107829  0.373596  1
  Ba  Ba5  1  0.169469  0.642253  0.303209  1
  Ba  Ba6  1  0.316213  0.862514  0.157685  1
  Ba  Ba7  1  0.391613  0.932256  0.588975  1
  Ba  Ba8  1  0.219309  0.780551  0.777046  1
  Ba  Ba9  1  0.463397  0.048497  0.037845  1
  Ba  Ba10  1  0.932256  0.391613  0.087157  1
  Ba  Ba11  1  0.642253  0.169469  0.885068  1
  Sn  Sn12  1  0.168515  0.168515  0.331485  1
  Sn  Sn13  1  0.083780  0.083780  0.916220  1
  Sn  Sn14  1  0.913300  0.913300  0.086700  1
  Rh  Rh15  1  0.334210  0.334210  0.165790  1
  I  I16  1  0.578781  0.578781  0.421219  1
  I  I17  1  0.672855  0.672855  0.827145  1
  I  I18  1  0.253813  0.253813  0.746187  1
  I  I19  1  0.419155  0.419155  0.580845  1
  I  I20  1  0.995643  0.995643  0.504357  1
  I  I21  1  0.748494  0.748494  0.251506  1
  I  I22  1  0.829668  0.829668  0.670332  1
  I  I23  1  0.500912  0.500912  0.999088  1
