# generated using pymatgen
data_Zr3Al3OsAu2
_symmetry_space_group_name_H-M   'P 1'
_cell_length_a   7.26288200
_cell_length_b   7.26288309
_cell_length_c   7.35303700
_cell_angle_alpha   90.00000000
_cell_angle_beta   90.00000000
_cell_angle_gamma   120.00000414
_symmetry_Int_Tables_number   1
_chemical_formula_structural   Zr3Al3OsAu2
_chemical_formula_sum   'Zr6 Al6 Os2 Au4'
_cell_volume   335.90417878
_cell_formula_units_Z   2
loop_
 _symmetry_equiv_pos_site_id
 _symmetry_equiv_pos_as_xyz
  1  'x, y, z'
loop_
 _atom_site_type_symbol
 _atom_site_label
 _atom_site_symmetry_multiplicity
 _atom_site_fract_x
 _atom_site_fract_y
 _atom_site_fract_z
 _atom_site_occupancy
  Zr  Zr0  1  0.003032  0.598442  0.728757  1
  Zr  Zr1  1  0.996968  0.595410  0.271243  1
  Zr  Zr2  1  0.598442  0.003032  0.271243  1
  Zr  Zr3  1  0.595410  0.996968  0.728757  1
  Zr  Zr4  1  0.404590  0.401558  0.271243  1
  Zr  Zr5  1  0.401558  0.404590  0.728757  1
  Al  Al6  1  0.000000  0.261718  0.500000  1
  Al  Al7  1  0.733001  0.733001  0.000000  1
  Al  Al8  1  0.000000  0.266999  0.000000  1
  Al  Al9  1  0.261718  0.000000  0.500000  1
  Al  Al10  1  0.266999  0.000000  0.000000  1
  Al  Al11  1  0.738282  0.738282  0.500000  1
  Os  Os12  1  0.333333  0.666667  0.497473  1
  Os  Os13  1  0.666667  0.333333  0.502527  1
  Au  Au14  1  0.666667  0.333333  0.995580  1
  Au  Au15  1  0.000000  0.000000  0.245183  1
  Au  Au16  1  0.000000  0.000000  0.754817  1
  Au  Au17  1  0.333333  0.666667  0.004420  1
