# generated using pymatgen
data_Ta8Nb4CrSi4Os7C4
_symmetry_space_group_name_H-M   'P 1'
_cell_length_a   8.27787981
_cell_length_b   8.27724806
_cell_length_c   8.25914800
_cell_angle_alpha   59.96666413
_cell_angle_beta   59.89535650
_cell_angle_gamma   60.00070211
_symmetry_Int_Tables_number   1
_chemical_formula_structural   Ta8Nb4CrSi4Os7C4
_chemical_formula_sum   'Ta8 Nb4 Cr1 Si4 Os7 C4'
_cell_volume   399.73634766
_cell_formula_units_Z   1
loop_
 _symmetry_equiv_pos_site_id
 _symmetry_equiv_pos_as_xyz
  1  'x, y, z'
loop_
 _atom_site_type_symbol
 _atom_site_label
 _atom_site_symmetry_multiplicity
 _atom_site_fract_x
 _atom_site_fract_y
 _atom_site_fract_z
 _atom_site_occupancy
  Ta  Ta0  1  0.553433  0.553343  0.946638  1
  Ta  Ta1  1  0.944771  0.945275  0.548660  1
  Ta  Ta2  1  0.695795  0.696303  0.303938  1
  Ta  Ta3  1  0.303827  0.697139  0.695001  1
  Ta  Ta4  1  0.696798  0.303362  0.303009  1
  Ta  Ta5  1  0.304632  0.304728  0.694073  1
  Ta  Ta6  1  0.561251  0.945402  0.548239  1
  Ta  Ta7  1  0.303715  0.696379  0.303739  1
  Nb  Nb8  1  0.946952  0.552735  0.947418  1
  Nb  Nb9  1  0.944875  0.563001  0.547269  1
  Nb  Nb10  1  0.696942  0.304261  0.694664  1
  Nb  Nb11  1  0.553127  0.946423  0.947130  1
  Cr  Cr12  1  0.918457  0.918550  0.244374  1
  Si  Si13  1  0.124059  0.124803  0.626964  1
  Si  Si14  1  0.121304  0.627112  0.130064  1
  Si  Si15  1  0.627331  0.121030  0.129881  1
  Si  Si16  1  0.121609  0.121034  0.129864  1
  Os  Os17  1  0.250192  0.915194  0.918292  1
  Os  Os18  1  0.915399  0.249035  0.919983  1
  Os  Os19  1  0.333960  0.332838  0.334345  1
  Os  Os20  1  0.332838  0.999046  0.335273  1
  Os  Os21  1  0.332936  0.334012  0.999958  1
  Os  Os22  1  0.999522  0.332569  0.334092  1
  Os  Os23  1  0.916668  0.915506  0.918448  1
  C  C24  1  0.624863  0.624838  0.124128  1
  C  C25  1  0.125635  0.625560  0.624569  1
  C  C26  1  0.625090  0.124051  0.624462  1
  C  C27  1  0.624018  0.626472  0.625531  1
