# generated using pymatgen
data_Ce3Y(ReN3)4
_symmetry_space_group_name_H-M   'P 1'
_cell_length_a   5.48893154
_cell_length_b   5.68086673
_cell_length_c   7.75572900
_cell_angle_alpha   90.00000000
_cell_angle_beta   90.00000000
_cell_angle_gamma   89.91230552
_symmetry_Int_Tables_number   1
_chemical_formula_structural   Ce3Y(ReN3)4
_chemical_formula_sum   'Ce3 Y1 Re4 N12'
_cell_volume   241.83799438
_cell_formula_units_Z   1
loop_
 _symmetry_equiv_pos_site_id
 _symmetry_equiv_pos_as_xyz
  1  'x, y, z'
loop_
 _atom_site_type_symbol
 _atom_site_label
 _atom_site_symmetry_multiplicity
 _atom_site_fract_x
 _atom_site_fract_y
 _atom_site_fract_z
 _atom_site_occupancy
  Ce  Ce0  1  0.472639  0.451219  0.250000  1
  Ce  Ce1  1  0.029978  0.959981  0.250000  1
  Ce  Ce2  1  0.481534  0.559440  0.750000  1
  Y  Y3  1  0.004598  0.068074  0.750000  1
  Re  Re4  1  0.517807  0.007367  0.501253  1
  Re  Re5  1  0.985079  0.511116  0.000453  1
  Re  Re6  1  0.985079  0.511116  0.499547  1
  Re  Re7  1  0.517807  0.007367  0.998747  1
  N  N8  1  0.704660  0.291760  0.538232  1
  N  N9  1  0.304811  0.692114  0.039125  1
  N  N10  1  0.199893  0.196475  0.043258  1
  N  N11  1  0.415128  0.977409  0.750000  1
  N  N12  1  0.929512  0.514527  0.250000  1
  N  N13  1  0.304811  0.692114  0.460875  1
  N  N14  1  0.798273  0.793728  0.959954  1
  N  N15  1  0.704660  0.291760  0.961768  1
  N  N16  1  0.798273  0.793728  0.540046  1
  N  N17  1  0.077419  0.475556  0.750000  1
  N  N18  1  0.199893  0.196475  0.456742  1
  N  N19  1  0.568144  0.008671  0.250000  1
