# generated using pymatgen
data_Sr2Th5P12Pd17
_symmetry_space_group_name_H-M   'P 1'
_cell_length_a   12.44937849
_cell_length_b   12.44937877
_cell_length_c   13.77452146
_cell_angle_alpha   68.43523523
_cell_angle_beta   68.43523470
_cell_angle_gamma   19.02131555
_symmetry_Int_Tables_number   1
_chemical_formula_structural   Sr2Th5P12Pd17
_chemical_formula_sum   'Sr2 Th5 P12 Pd17'
_cell_volume   645.67335518
_cell_formula_units_Z   1
loop_
 _symmetry_equiv_pos_site_id
 _symmetry_equiv_pos_as_xyz
  1  'x, y, z'
loop_
 _atom_site_type_symbol
 _atom_site_label
 _atom_site_symmetry_multiplicity
 _atom_site_fract_x
 _atom_site_fract_y
 _atom_site_fract_z
 _atom_site_occupancy
  Sr  Sr0  1  0.417143  0.417143  0.263874  1
  Sr  Sr1  1  0.582857  0.582857  0.736126  1
  Th  Th2  1  0.500000  0.500000  0.500000  1
  Th  Th3  1  0.364191  0.364191  0.999335  1
  Th  Th4  1  0.635809  0.635809  0.000665  1
  Th  Th5  1  0.233154  0.233154  0.313226  1
  Th  Th6  1  0.766846  0.766846  0.686774  1
  P  P7  1  0.061026  0.061026  0.927167  1
  P  P8  1  0.938974  0.938974  0.072833  1
  P  P9  1  0.886482  0.886482  0.828759  1
  P  P10  1  0.113518  0.113518  0.171241  1
  P  P11  1  0.189548  0.189548  0.619406  1
  P  P12  1  0.810452  0.810452  0.380594  1
  P  P13  1  0.365547  0.365547  0.577507  1
  P  P14  1  0.634453  0.634453  0.422493  1
  P  P15  1  0.009350  0.009350  0.664738  1
  P  P16  1  0.990650  0.990650  0.335262  1
  P  P17  1  0.233337  0.233337  0.886368  1
  P  P18  1  0.766663  0.766663  0.113632  1
  Pd  Pd19  1  0.837333  0.837333  0.193518  1
  Pd  Pd20  1  0.162667  0.162667  0.806482  1
  Pd  Pd21  1  0.027702  0.027702  0.122001  1
  Pd  Pd22  1  0.972298  0.972298  0.877999  1
  Pd  Pd23  1  0.889392  0.889392  0.461371  1
  Pd  Pd24  1  0.110608  0.110608  0.538629  1
  Pd  Pd25  1  0.500000  0.500000  0.000000  1
  Pd  Pd26  1  0.547296  0.547296  0.253172  1
  Pd  Pd27  1  0.452704  0.452704  0.746828  1
  Pd  Pd28  1  0.295502  0.295502  0.489124  1
  Pd  Pd29  1  0.704498  0.704498  0.510876  1
  Pd  Pd30  1  0.665650  0.665650  0.227067  1
  Pd  Pd31  1  0.334350  0.334350  0.772933  1
  Pd  Pd32  1  0.907827  0.907827  0.644353  1
  Pd  Pd33  1  0.092173  0.092173  0.355647  1
  Pd  Pd34  1  0.218754  0.218754  0.076035  1
  Pd  Pd35  1  0.781246  0.781246  0.923965  1
