# generated using pymatgen
data_U10AlCr(ReC4)4
_symmetry_space_group_name_H-M   'P 1'
_cell_length_a   11.28313400
_cell_length_b   11.28313400
_cell_length_c   3.24505400
_cell_angle_alpha   90.00000000
_cell_angle_beta   90.00000000
_cell_angle_gamma   90.00000000
_symmetry_Int_Tables_number   1
_chemical_formula_structural   U10AlCr(ReC4)4
_chemical_formula_sum   'U10 Al1 Cr1 Re4 C16'
_cell_volume   413.12494593
_cell_formula_units_Z   1
loop_
 _symmetry_equiv_pos_site_id
 _symmetry_equiv_pos_as_xyz
  1  'x, y, z'
loop_
 _atom_site_type_symbol
 _atom_site_label
 _atom_site_symmetry_multiplicity
 _atom_site_fract_x
 _atom_site_fract_y
 _atom_site_fract_z
 _atom_site_occupancy
  U  U0  1  0.000000  0.500000  0.000000  1
  U  U1  1  0.274369  0.540752  0.500000  1
  U  U2  1  0.725631  0.459248  0.500000  1
  U  U3  1  0.540752  0.725631  0.500000  1
  U  U4  1  0.774074  0.959163  0.500000  1
  U  U5  1  0.225926  0.040837  0.500000  1
  U  U6  1  0.959163  0.225926  0.500000  1
  U  U7  1  0.459248  0.274369  0.500000  1
  U  U8  1  0.500000  0.000000  0.000000  1
  U  U9  1  0.040837  0.774074  0.500000  1
  Al  Al10  1  0.500000  0.500000  0.000000  1
  Cr  Cr11  1  0.000000  0.000000  0.000000  1
  Re  Re12  1  0.204319  0.292910  0.000000  1
  Re  Re13  1  0.707090  0.204319  0.000000  1
  Re  Re14  1  0.292910  0.795681  0.000000  1
  Re  Re15  1  0.795681  0.707090  0.000000  1
  C  C16  1  0.351292  0.404139  0.000000  1
  C  C17  1  0.618411  0.117105  0.500000  1
  C  C18  1  0.904602  0.853894  0.000000  1
  C  C19  1  0.653223  0.846758  0.000000  1
  C  C20  1  0.346777  0.153242  0.000000  1
  C  C21  1  0.117105  0.381589  0.500000  1
  C  C22  1  0.146106  0.904602  0.000000  1
  C  C23  1  0.846758  0.346777  0.000000  1
  C  C24  1  0.648708  0.595861  0.000000  1
  C  C25  1  0.595861  0.351292  0.000000  1
  C  C26  1  0.882895  0.618411  0.500000  1
  C  C27  1  0.853894  0.095398  0.000000  1
  C  C28  1  0.381589  0.882895  0.500000  1
  C  C29  1  0.153242  0.653223  0.000000  1
  C  C30  1  0.095398  0.146106  0.000000  1
  C  C31  1  0.404139  0.648708  0.000000  1
