# generated using pymatgen
data_Ac7Yb3
_symmetry_space_group_name_H-M   'P 1'
_cell_length_a   16.61124553
_cell_length_b   16.61124507
_cell_length_c   6.61182400
_cell_angle_alpha   90.00000000
_cell_angle_beta   90.00000000
_cell_angle_gamma   167.42886241
_symmetry_Int_Tables_number   1
_chemical_formula_structural   Ac7Yb3
_chemical_formula_sum   'Ac7 Yb3'
_cell_volume   397.08870560
_cell_formula_units_Z   1
loop_
 _symmetry_equiv_pos_site_id
 _symmetry_equiv_pos_as_xyz
  1  'x, y, z'
loop_
 _atom_site_type_symbol
 _atom_site_label
 _atom_site_symmetry_multiplicity
 _atom_site_fract_x
 _atom_site_fract_y
 _atom_site_fract_z
 _atom_site_occupancy
  Ac  Ac0  1  0.000000  0.000000  0.000000  1
  Ac  Ac1  1  0.603581  0.396419  0.000000  1
  Ac  Ac2  1  0.396419  0.603581  0.000000  1
  Ac  Ac3  1  0.902734  0.097265  0.500000  1
  Ac  Ac4  1  0.699499  0.300501  0.500000  1
  Ac  Ac5  1  0.300501  0.699499  0.500000  1
  Ac  Ac6  1  0.097265  0.902734  0.500000  1
  Yb  Yb7  1  0.796990  0.203010  0.000000  1
  Yb  Yb8  1  0.203010  0.796990  0.000000  1
  Yb  Yb9  1  0.500000  0.500000  0.500000  1
