# generated using pymatgen
data_Ac2Ga7Pt
_symmetry_space_group_name_H-M   'P 1'
_cell_length_a   4.53014100
_cell_length_b   4.53014100
_cell_length_c   10.63661600
_cell_angle_alpha   90.00000000
_cell_angle_beta   90.00000000
_cell_angle_gamma   90.00000000
_symmetry_Int_Tables_number   1
_chemical_formula_structural   Ac2Ga7Pt
_chemical_formula_sum   'Ac2 Ga7 Pt1'
_cell_volume   218.28652134
_cell_formula_units_Z   1
loop_
 _symmetry_equiv_pos_site_id
 _symmetry_equiv_pos_as_xyz
  1  'x, y, z'
loop_
 _atom_site_type_symbol
 _atom_site_label
 _atom_site_symmetry_multiplicity
 _atom_site_fract_x
 _atom_site_fract_y
 _atom_site_fract_z
 _atom_site_occupancy
  Ac  Ac0  1  0.000000  0.000000  0.001121  1
  Ac  Ac1  1  0.500000  0.500000  0.484165  1
  Ga  Ga2  1  0.000000  0.500000  0.243838  1
  Ga  Ga3  1  0.500000  0.000000  0.751099  1
  Ga  Ga4  1  0.500000  0.000000  0.243838  1
  Ga  Ga5  1  0.000000  0.500000  0.751099  1
  Ga  Ga6  1  0.000000  0.000000  0.621506  1
  Ga  Ga7  1  0.000000  0.000000  0.378635  1
  Ga  Ga8  1  0.500000  0.500000  0.893862  1
  Pt  Pt9  1  0.500000  0.500000  0.130839  1
