# generated using pymatgen
data_Er2Tm2Ge3Sb3Rh7
_symmetry_space_group_name_H-M   'P 1'
_cell_length_a   7.40029831
_cell_length_b   7.40412956
_cell_length_c   7.43870806
_cell_angle_alpha   109.58026339
_cell_angle_beta   109.56919472
_cell_angle_gamma   109.37962557
_symmetry_Int_Tables_number   1
_chemical_formula_structural   Er2Tm2Ge3Sb3Rh7
_chemical_formula_sum   'Er2 Tm2 Ge3 Sb3 Rh7'
_cell_volume   313.31228122
_cell_formula_units_Z   1
loop_
 _symmetry_equiv_pos_site_id
 _symmetry_equiv_pos_as_xyz
  1  'x, y, z'
loop_
 _atom_site_type_symbol
 _atom_site_label
 _atom_site_symmetry_multiplicity
 _atom_site_fract_x
 _atom_site_fract_y
 _atom_site_fract_z
 _atom_site_occupancy
  Er  Er0  1  0.478965  0.000024  0.987761  1
  Er  Er1  1  0.521035  0.521060  0.508796  1
  Tm  Tm2  1  0.000000  0.000015  0.545760  1
  Tm  Tm3  1  0.000000  0.478753  0.987574  1
  Ge  Ge4  1  0.332455  0.332705  0.005852  1
  Ge  Ge5  1  0.667545  0.000250  0.673398  1
  Ge  Ge6  1  0.000000  0.667308  0.673363  1
  Sb  Sb7  1  0.697352  0.697164  0.009595  1
  Sb  Sb8  1  0.302648  0.999812  0.312243  1
  Sb  Sb9  1  0.000000  0.302834  0.312214  1
  Rh  Rh10  1  0.749673  0.249325  0.503459  1
  Rh  Rh11  1  0.750960  0.500389  0.253767  1
  Rh  Rh12  1  0.499941  0.250602  0.753731  1
  Rh  Rh13  1  0.250327  0.499651  0.753785  1
  Rh  Rh14  1  0.249040  0.749430  0.502808  1
  Rh  Rh15  1  0.500059  0.750661  0.253790  1
  Rh  Rh16  1  0.000000  0.000016  0.962103  1
