# generated using pymatgen
data_HoErB8RuRh
_symmetry_space_group_name_H-M   'P 1'
_cell_length_a   3.54635600
_cell_length_b   5.94102417
_cell_length_c   11.50773615
_cell_angle_alpha   90.04986872
_cell_angle_beta   90.00000000
_cell_angle_gamma   90.00000000
_symmetry_Int_Tables_number   1
_chemical_formula_structural   HoErB8RuRh
_chemical_formula_sum   'Ho2 Er2 B16 Ru2 Rh2'
_cell_volume   242.45624846
_cell_formula_units_Z   2
loop_
 _symmetry_equiv_pos_site_id
 _symmetry_equiv_pos_as_xyz
  1  'x, y, z'
loop_
 _atom_site_type_symbol
 _atom_site_label
 _atom_site_symmetry_multiplicity
 _atom_site_fract_x
 _atom_site_fract_y
 _atom_site_fract_z
 _atom_site_occupancy
  Ho  Ho0  1  0.000000  0.130377  0.849863  1
  Ho  Ho1  1  0.000000  0.869623  0.150137  1
  Er  Er2  1  0.000000  0.630255  0.648281  1
  Er  Er3  1  0.000000  0.369745  0.351719  1
  B  B4  1  0.500000  0.974761  0.691929  1
  B  B5  1  0.500000  0.025239  0.308071  1
  B  B6  1  0.500000  0.477874  0.806203  1
  B  B7  1  0.500000  0.522126  0.193797  1
  B  B8  1  0.500000  0.789176  0.812175  1
  B  B9  1  0.500000  0.210824  0.187825  1
  B  B10  1  0.500000  0.289916  0.686131  1
  B  B11  1  0.500000  0.710084  0.313869  1
  B  B12  1  0.500000  0.863508  0.970509  1
  B  B13  1  0.500000  0.136492  0.029491  1
  B  B14  1  0.500000  0.364241  0.530222  1
  B  B15  1  0.500000  0.635759  0.469778  1
  B  B16  1  0.500000  0.887773  0.546607  1
  B  B17  1  0.500000  0.112227  0.453393  1
  B  B18  1  0.500000  0.387468  0.952432  1
  B  B19  1  0.500000  0.612532  0.047568  1
  Ru  Ru20  1  0.000000  0.141410  0.592650  1
  Ru  Ru21  1  0.000000  0.858590  0.407350  1
  Rh  Rh22  1  0.000000  0.641854  0.905016  1
  Rh  Rh23  1  0.000000  0.358146  0.094984  1
