# generated using pymatgen
data_Pr2Nd3CoRuO12
_symmetry_space_group_name_H-M   'P 1'
_cell_length_a   7.05202027
_cell_length_b   7.05349340
_cell_length_c   7.59530796
_cell_angle_alpha   74.38514276
_cell_angle_beta   74.39853081
_cell_angle_gamma   50.42098493
_symmetry_Int_Tables_number   1
_chemical_formula_structural   Pr2Nd3CoRuO12
_chemical_formula_sum   'Pr2 Nd3 Co1 Ru1 O12'
_cell_volume   278.01501652
_cell_formula_units_Z   1
loop_
 _symmetry_equiv_pos_site_id
 _symmetry_equiv_pos_as_xyz
  1  'x, y, z'
loop_
 _atom_site_type_symbol
 _atom_site_label
 _atom_site_symmetry_multiplicity
 _atom_site_fract_x
 _atom_site_fract_y
 _atom_site_fract_z
 _atom_site_occupancy
  Pr  Pr0  1  0.309847  0.302418  0.836495  1
  Pr  Pr1  1  0.000305  0.999663  0.499428  1
  Nd  Nd2  1  0.316599  0.295998  0.355566  1
  Nd  Nd3  1  0.703659  0.683108  0.643343  1
  Nd  Nd4  1  0.697449  0.689902  0.163756  1
  Co  Co5  1  0.744986  0.255210  0.000525  1
  Ru  Ru6  1  0.233698  0.766630  0.000450  1
  O  O7  1  0.101899  0.592898  0.575160  1
  O  O8  1  0.986464  0.013426  0.167564  1
  O  O9  1  0.407876  0.896731  0.422712  1
  O  O10  1  0.500179  0.500576  0.169533  1
  O  O11  1  0.099204  0.582685  0.080081  1
  O  O12  1  0.911400  0.400321  0.420570  1
  O  O13  1  0.987785  0.014204  0.832298  1
  O  O14  1  0.600318  0.087222  0.577428  1
  O  O15  1  0.499791  0.499901  0.831834  1
  O  O16  1  0.584665  0.103515  0.078214  1
  O  O17  1  0.419862  0.897964  0.921582  1
  O  O18  1  0.894012  0.417625  0.923460  1
