# generated using pymatgen
data_Hf3Al3Pd2Ru
_symmetry_space_group_name_H-M   'P 1'
_cell_length_a   7.37263400
_cell_length_b   7.37263321
_cell_length_c   6.65046200
_cell_angle_alpha   90.00000000
_cell_angle_beta   90.00000000
_cell_angle_gamma   119.99999458
_symmetry_Int_Tables_number   1
_chemical_formula_structural   Hf3Al3Pd2Ru
_chemical_formula_sum   'Hf6 Al6 Pd4 Ru2'
_cell_volume   313.06013959
_cell_formula_units_Z   2
loop_
 _symmetry_equiv_pos_site_id
 _symmetry_equiv_pos_as_xyz
  1  'x, y, z'
loop_
 _atom_site_type_symbol
 _atom_site_label
 _atom_site_symmetry_multiplicity
 _atom_site_fract_x
 _atom_site_fract_y
 _atom_site_fract_z
 _atom_site_occupancy
  Hf  Hf0  1  0.739406  0.057322  0.000000  1
  Hf  Hf1  1  0.317916  0.260594  0.000000  1
  Hf  Hf2  1  0.942678  0.682084  0.000000  1
  Hf  Hf3  1  0.318862  0.260918  0.500000  1
  Hf  Hf4  1  0.739082  0.057944  0.500000  1
  Hf  Hf5  1  0.942056  0.681138  0.500000  1
  Al  Al6  1  0.598371  0.662299  0.749795  1
  Al  Al7  1  0.063928  0.401629  0.749795  1
  Al  Al8  1  0.337701  0.936072  0.749795  1
  Al  Al9  1  0.598371  0.662299  0.250205  1
  Al  Al10  1  0.063928  0.401629  0.250205  1
  Al  Al11  1  0.337701  0.936072  0.250205  1
  Pd  Pd12  1  0.333333  0.666667  0.000000  1
  Pd  Pd13  1  0.333333  0.666667  0.500000  1
  Pd  Pd14  1  0.666667  0.333333  0.750887  1
  Pd  Pd15  1  0.666667  0.333333  0.249113  1
  Ru  Ru16  1  0.000000  0.000000  0.250229  1
  Ru  Ru17  1  0.000000  0.000000  0.749771  1
