# generated using pymatgen
data_Yb2TmUN4
_symmetry_space_group_name_H-M   'P 1'
_cell_length_a   6.86251445
_cell_length_b   9.10731601
_cell_length_c   5.98741289
_cell_angle_alpha   29.15077003
_cell_angle_beta   55.03484613
_cell_angle_gamma   41.10408632
_symmetry_Int_Tables_number   1
_chemical_formula_structural   Yb2TmUN4
_chemical_formula_sum   'Yb2 Tm1 U1 N4'
_cell_volume   115.53802677
_cell_formula_units_Z   1
loop_
 _symmetry_equiv_pos_site_id
 _symmetry_equiv_pos_as_xyz
  1  'x, y, z'
loop_
 _atom_site_type_symbol
 _atom_site_label
 _atom_site_symmetry_multiplicity
 _atom_site_fract_x
 _atom_site_fract_y
 _atom_site_fract_z
 _atom_site_occupancy
  Yb  Yb0  1  0.750000  0.500000  0.000000  1
  Yb  Yb1  1  0.500000  0.000000  0.000000  1
  Tm  Tm2  1  0.250000  0.500000  0.000000  1
  U  U3  1  0.000000  0.000000  0.000000  1
  N  N4  1  0.489401  0.500000  0.521198  1
  N  N5  1  0.216383  0.000000  0.567233  1
  N  N6  1  0.010599  0.500000  0.478802  1
  N  N7  1  0.783617  0.000000  0.432767  1
