# generated using pymatgen
data_La2Dy3IrRh
_symmetry_space_group_name_H-M   'P 1'
_cell_length_a   6.55886482
_cell_length_b   7.22742226
_cell_length_c   8.90973482
_cell_angle_alpha   96.82073565
_cell_angle_beta   111.59681981
_cell_angle_gamma   89.99999035
_symmetry_Int_Tables_number   1
_chemical_formula_structural   La2Dy3IrRh
_chemical_formula_sum   'La4 Dy6 Ir2 Rh2'
_cell_volume   389.48703549
_cell_formula_units_Z   2
loop_
 _symmetry_equiv_pos_site_id
 _symmetry_equiv_pos_as_xyz
  1  'x, y, z'
loop_
 _atom_site_type_symbol
 _atom_site_label
 _atom_site_symmetry_multiplicity
 _atom_site_fract_x
 _atom_site_fract_y
 _atom_site_fract_z
 _atom_site_occupancy
  La  La0  1  0.785168  0.082398  0.805284  1
  La  La1  1  0.979885  0.417602  0.194716  1
  La  La2  1  0.215998  0.917678  0.193914  1
  La  La3  1  0.022084  0.582322  0.806086  1
  Dy  Dy4  1  0.208639  0.183801  0.567926  1
  Dy  Dy5  1  0.640712  0.316199  0.432074  1
  Dy  Dy6  1  0.791383  0.815031  0.433919  1
  Dy  Dy7  1  0.357465  0.684969  0.566081  1
  Dy  Dy8  1  0.427545  0.250000  0.000000  1
  Dy  Dy9  1  0.570015  0.750000  0.000000  1
  Ir  Ir10  1  0.411363  0.576224  0.227189  1
  Ir  Ir11  1  0.184175  0.923776  0.772811  1
  Rh  Rh12  1  0.589809  0.423036  0.774049  1
  Rh  Rh13  1  0.815759  0.076964  0.225951  1
