# generated using pymatgen
data_Yb3AlN3
_symmetry_space_group_name_H-M   'P 1'
_cell_length_a   6.05170900
_cell_length_b   6.81217708
_cell_length_c   9.68551642
_cell_angle_alpha   86.69828367
_cell_angle_beta   90.00000000
_cell_angle_gamma   90.00000000
_symmetry_Int_Tables_number   1
_chemical_formula_structural   Yb3AlN3
_chemical_formula_sum   'Yb12 Al4 N12'
_cell_volume   398.62566732
_cell_formula_units_Z   4
loop_
 _symmetry_equiv_pos_site_id
 _symmetry_equiv_pos_as_xyz
  1  'x, y, z'
loop_
 _atom_site_type_symbol
 _atom_site_label
 _atom_site_symmetry_multiplicity
 _atom_site_fract_x
 _atom_site_fract_y
 _atom_site_fract_z
 _atom_site_occupancy
  Yb  Yb0  1  0.781866  0.646868  0.305334  1
  Yb  Yb1  1  0.281866  0.353132  0.194666  1
  Yb  Yb2  1  0.218134  0.353132  0.694666  1
  Yb  Yb3  1  0.718134  0.646868  0.805334  1
  Yb  Yb4  1  0.793818  0.374246  0.076849  1
  Yb  Yb5  1  0.293818  0.625754  0.423151  1
  Yb  Yb6  1  0.206182  0.625754  0.923151  1
  Yb  Yb7  1  0.706182  0.374246  0.576849  1
  Yb  Yb8  1  0.642298  0.074756  0.350247  1
  Yb  Yb9  1  0.142298  0.925244  0.149753  1
  Yb  Yb10  1  0.357702  0.925244  0.649753  1
  Yb  Yb11  1  0.857702  0.074756  0.850247  1
  Al  Al12  1  0.908267  0.840218  0.560996  1
  Al  Al13  1  0.408267  0.159782  0.939004  1
  Al  Al14  1  0.091733  0.159782  0.439004  1
  Al  Al15  1  0.591733  0.840218  0.060996  1
  N  N16  1  0.571319  0.338832  0.821831  1
  N  N17  1  0.071319  0.661168  0.678169  1
  N  N18  1  0.428681  0.661168  0.178169  1
  N  N19  1  0.928681  0.338832  0.321831  1
  N  N20  1  0.620516  0.739357  0.528924  1
  N  N21  1  0.120516  0.260643  0.971076  1
  N  N22  1  0.379484  0.260643  0.471076  1
  N  N23  1  0.879484  0.739357  0.028924  1
  N  N24  1  0.538009  0.106255  0.118953  1
  N  N25  1  0.038009  0.893745  0.381047  1
  N  N26  1  0.461991  0.893745  0.881047  1
  N  N27  1  0.961991  0.106255  0.618953  1
