# generated using pymatgen
data_TbYb(DyRu4)2
_symmetry_space_group_name_H-M   'P 1'
_cell_length_a   5.24071900
_cell_length_b   5.24071857
_cell_length_c   8.99181500
_cell_angle_alpha   90.00000000
_cell_angle_beta   90.00000000
_cell_angle_gamma   120.00000904
_symmetry_Int_Tables_number   1
_chemical_formula_structural   TbYb(DyRu4)2
_chemical_formula_sum   'Tb1 Yb1 Dy2 Ru8'
_cell_volume   213.87482512
_cell_formula_units_Z   1
loop_
 _symmetry_equiv_pos_site_id
 _symmetry_equiv_pos_as_xyz
  1  'x, y, z'
loop_
 _atom_site_type_symbol
 _atom_site_label
 _atom_site_symmetry_multiplicity
 _atom_site_fract_x
 _atom_site_fract_y
 _atom_site_fract_z
 _atom_site_occupancy
  Tb  Tb0  1  0.333333  0.666667  0.062710  1
  Yb  Yb1  1  0.666667  0.333333  0.934635  1
  Dy  Dy2  1  0.333333  0.666667  0.432523  1
  Dy  Dy3  1  0.666667  0.333333  0.572076  1
  Ru  Ru4  1  0.000000  0.000000  0.498532  1
  Ru  Ru5  1  0.000000  0.000000  0.999456  1
  Ru  Ru6  1  0.828585  0.171415  0.250591  1
  Ru  Ru7  1  0.828585  0.657170  0.250591  1
  Ru  Ru8  1  0.342830  0.171415  0.250591  1
  Ru  Ru9  1  0.170614  0.829386  0.749431  1
  Ru  Ru10  1  0.170614  0.341229  0.749431  1
  Ru  Ru11  1  0.658771  0.829386  0.749431  1
