# generated using pymatgen
data_NdU7(ZnIr)8
_symmetry_space_group_name_H-M   'P 1'
_cell_length_a   3.86219900
_cell_length_b   7.38154475
_cell_length_c   16.41129000
_cell_angle_alpha   90.49882546
_cell_angle_beta   90.00000000
_cell_angle_gamma   90.00000000
_symmetry_Int_Tables_number   1
_chemical_formula_structural   NdU7(ZnIr)8
_chemical_formula_sum   'Nd1 U7 Zn8 Ir8'
_cell_volume   467.85164890
_cell_formula_units_Z   1
loop_
 _symmetry_equiv_pos_site_id
 _symmetry_equiv_pos_as_xyz
  1  'x, y, z'
loop_
 _atom_site_type_symbol
 _atom_site_label
 _atom_site_symmetry_multiplicity
 _atom_site_fract_x
 _atom_site_fract_y
 _atom_site_fract_z
 _atom_site_occupancy
  Nd  Nd0  1  0.250000  0.555443  0.785713  1
  U  U1  1  0.250000  0.160209  0.939999  1
  U  U2  1  0.250000  0.676322  0.559165  1
  U  U3  1  0.750000  0.341478  0.439334  1
  U  U4  1  0.750000  0.942580  0.283669  1
  U  U5  1  0.750000  0.829889  0.062648  1
  U  U6  1  0.750000  0.441000  0.218022  1
  U  U7  1  0.250000  0.055153  0.715787  1
  Zn  Zn8  1  0.750000  0.016742  0.556716  1
  Zn  Zn9  1  0.250000  0.612138  0.345744  1
  Zn  Zn10  1  0.750000  0.392526  0.655102  1
  Zn  Zn11  1  0.250000  0.490163  0.062941  1
  Zn  Zn12  1  0.750000  0.497188  0.940598  1
  Zn  Zn13  1  0.250000  0.001969  0.438006  1
  Zn  Zn14  1  0.250000  0.111400  0.154656  1
  Zn  Zn15  1  0.750000  0.877134  0.846814  1
  Ir  Ir16  1  0.750000  0.741711  0.440948  1
  Ir  Ir17  1  0.250000  0.236956  0.311267  1
  Ir  Ir18  1  0.750000  0.227240  0.814679  1
  Ir  Ir19  1  0.750000  0.783558  0.676682  1
  Ir  Ir20  1  0.250000  0.274689  0.556868  1
  Ir  Ir21  1  0.250000  0.737377  0.188134  1
  Ir  Ir22  1  0.750000  0.233320  0.058134  1
  Ir  Ir23  1  0.250000  0.763815  0.948372  1
