# generated using pymatgen
data_Lu6P13(Ir2Rh3)4
_symmetry_space_group_name_H-M   'P 1'
_cell_length_a   13.29499800
_cell_length_b   13.29499699
_cell_length_c   3.91244700
_cell_angle_alpha   90.00000000
_cell_angle_beta   90.00000000
_cell_angle_gamma   119.99999256
_symmetry_Int_Tables_number   1
_chemical_formula_structural   Lu6P13(Ir2Rh3)4
_chemical_formula_sum   'Lu6 P13 Ir8 Rh12'
_cell_volume   598.90184551
_cell_formula_units_Z   1
loop_
 _symmetry_equiv_pos_site_id
 _symmetry_equiv_pos_as_xyz
  1  'x, y, z'
loop_
 _atom_site_type_symbol
 _atom_site_label
 _atom_site_symmetry_multiplicity
 _atom_site_fract_x
 _atom_site_fract_y
 _atom_site_fract_z
 _atom_site_occupancy
  Lu  Lu0  1  0.527905  0.716875  0.248323  1
  Lu  Lu1  1  0.283125  0.811031  0.248323  1
  Lu  Lu2  1  0.188969  0.472095  0.248323  1
  Lu  Lu3  1  0.471674  0.282886  0.751323  1
  Lu  Lu4  1  0.717114  0.188789  0.751323  1
  Lu  Lu5  1  0.811211  0.528326  0.751323  1
  P  P6  1  0.527242  0.140242  0.250272  1
  P  P7  1  0.859758  0.387000  0.250272  1
  P  P8  1  0.613000  0.472758  0.250272  1
  P  P9  1  0.944526  0.712944  0.255368  1
  P  P10  1  0.287056  0.231581  0.255368  1
  P  P11  1  0.768419  0.055474  0.255368  1
  P  P12  1  0.387105  0.527378  0.750002  1
  P  P13  1  0.472622  0.859728  0.750002  1
  P  P14  1  0.140272  0.612895  0.750002  1
  P  P15  1  0.713010  0.769419  0.745453  1
  P  P16  1  0.230581  0.943592  0.745453  1
  P  P17  1  0.056408  0.286990  0.745453  1
  P  P18  1  0.000000  0.000000  0.000640  1
  Ir  Ir19  1  0.333333  0.666667  0.751970  1
  Ir  Ir20  1  0.918081  0.249031  0.253350  1
  Ir  Ir21  1  0.750969  0.669050  0.253350  1
  Ir  Ir22  1  0.330950  0.081919  0.253350  1
  Ir  Ir23  1  0.436907  0.020248  0.751570  1
  Ir  Ir24  1  0.979752  0.416659  0.751570  1
  Ir  Ir25  1  0.583341  0.563093  0.751570  1
  Ir  Ir26  1  0.666667  0.333333  0.247684  1
  Rh  Rh27  1  0.094656  0.186769  0.247892  1
  Rh  Rh28  1  0.813231  0.907887  0.247892  1
  Rh  Rh29  1  0.092113  0.905344  0.247892  1
  Rh  Rh30  1  0.020898  0.583970  0.248216  1
  Rh  Rh31  1  0.416030  0.436928  0.248216  1
  Rh  Rh32  1  0.563072  0.979102  0.248216  1
  Rh  Rh33  1  0.669052  0.918894  0.745975  1
  Rh  Rh34  1  0.081106  0.750159  0.745975  1
  Rh  Rh35  1  0.249841  0.330948  0.745975  1
  Rh  Rh36  1  0.904709  0.812457  0.752157  1
  Rh  Rh37  1  0.187543  0.092253  0.752157  1
  Rh  Rh38  1  0.907747  0.095291  0.752157  1
