# generated using pymatgen
data_Ba2Li3Cd14
_symmetry_space_group_name_H-M   'P 1'
_cell_length_a   7.78570980
_cell_length_b   7.78571095
_cell_length_c   7.78571000
_cell_angle_alpha   82.96286786
_cell_angle_beta   82.96287906
_cell_angle_gamma   82.96285424
_symmetry_Int_Tables_number   1
_chemical_formula_structural   Ba2Li3Cd14
_chemical_formula_sum   'Ba2 Li3 Cd14'
_cell_volume   462.08798317
_cell_formula_units_Z   1
loop_
 _symmetry_equiv_pos_site_id
 _symmetry_equiv_pos_as_xyz
  1  'x, y, z'
loop_
 _atom_site_type_symbol
 _atom_site_label
 _atom_site_symmetry_multiplicity
 _atom_site_fract_x
 _atom_site_fract_y
 _atom_site_fract_z
 _atom_site_occupancy
  Ba  Ba0  1  0.344692  0.344692  0.344692  1
  Ba  Ba1  1  0.655308  0.655308  0.655308  1
  Li  Li2  1  0.000000  0.000000  0.500000  1
  Li  Li3  1  0.500000  0.000000  0.000000  1
  Li  Li4  1  0.000000  0.500000  0.000000  1
  Cd  Cd5  1  0.292978  0.707022  0.000000  1
  Cd  Cd6  1  0.854380  0.344615  0.344615  1
  Cd  Cd7  1  0.655385  0.145620  0.655385  1
  Cd  Cd8  1  0.105697  0.105697  0.105697  1
  Cd  Cd9  1  0.292978  0.000000  0.707022  1
  Cd  Cd10  1  0.707022  0.292978  0.000000  1
  Cd  Cd11  1  0.344615  0.344615  0.854380  1
  Cd  Cd12  1  0.894303  0.894303  0.894303  1
  Cd  Cd13  1  0.000000  0.707022  0.292978  1
  Cd  Cd14  1  0.707022  0.000000  0.292978  1
  Cd  Cd15  1  0.344615  0.854380  0.344615  1
  Cd  Cd16  1  0.145620  0.655385  0.655385  1
  Cd  Cd17  1  0.655385  0.655385  0.145620  1
  Cd  Cd18  1  0.000000  0.292978  0.707022  1
