# generated using pymatgen
data_ErLuReC2
_symmetry_space_group_name_H-M   'P 1'
_cell_length_a   5.02631900
_cell_length_b   6.52830700
_cell_length_c   9.70375800
_cell_angle_alpha   90.00000000
_cell_angle_beta   90.00000000
_cell_angle_gamma   90.00000000
_symmetry_Int_Tables_number   1
_chemical_formula_structural   ErLuReC2
_chemical_formula_sum   'Er4 Lu4 Re4 C8'
_cell_volume   318.41284165
_cell_formula_units_Z   4
loop_
 _symmetry_equiv_pos_site_id
 _symmetry_equiv_pos_as_xyz
  1  'x, y, z'
loop_
 _atom_site_type_symbol
 _atom_site_label
 _atom_site_symmetry_multiplicity
 _atom_site_fract_x
 _atom_site_fract_y
 _atom_site_fract_z
 _atom_site_occupancy
  Er  Er0  1  0.250000  0.465624  0.215763  1
  Er  Er1  1  0.250000  0.965624  0.284237  1
  Er  Er2  1  0.750000  0.534376  0.784237  1
  Er  Er3  1  0.750000  0.034376  0.715763  1
  Lu  Lu4  1  0.250000  0.824563  0.942613  1
  Lu  Lu5  1  0.250000  0.324563  0.557387  1
  Lu  Lu6  1  0.750000  0.175437  0.057387  1
  Lu  Lu7  1  0.750000  0.675437  0.442613  1
  Re  Re8  1  0.250000  0.280481  0.868359  1
  Re  Re9  1  0.250000  0.780481  0.631641  1
  Re  Re10  1  0.750000  0.719519  0.131641  1
  Re  Re11  1  0.750000  0.219519  0.368359  1
  C  C12  1  0.250000  0.048849  0.739613  1
  C  C13  1  0.250000  0.548849  0.760387  1
  C  C14  1  0.750000  0.951151  0.260387  1
  C  C15  1  0.750000  0.451151  0.239613  1
  C  C16  1  0.250000  0.670116  0.446872  1
  C  C17  1  0.250000  0.170116  0.053128  1
  C  C18  1  0.750000  0.329884  0.553128  1
  C  C19  1  0.750000  0.829884  0.946872  1
