# generated using pymatgen
data_Dy7Y(OsC2)4
_symmetry_space_group_name_H-M   'P 1'
_cell_length_a   5.14396800
_cell_length_b   6.44193600
_cell_length_c   9.82853000
_cell_angle_alpha   89.99816283
_cell_angle_beta   90.00000000
_cell_angle_gamma   90.00000000
_symmetry_Int_Tables_number   1
_chemical_formula_structural   Dy7Y(OsC2)4
_chemical_formula_sum   'Dy7 Y1 Os4 C8'
_cell_volume   325.68910563
_cell_formula_units_Z   1
loop_
 _symmetry_equiv_pos_site_id
 _symmetry_equiv_pos_as_xyz
  1  'x, y, z'
loop_
 _atom_site_type_symbol
 _atom_site_label
 _atom_site_symmetry_multiplicity
 _atom_site_fract_x
 _atom_site_fract_y
 _atom_site_fract_z
 _atom_site_occupancy
  Dy  Dy0  1  0.750000  0.313541  0.448096  1
  Dy  Dy1  1  0.750000  0.813570  0.051884  1
  Dy  Dy2  1  0.250000  0.186402  0.948117  1
  Dy  Dy3  1  0.250000  0.523170  0.220880  1
  Dy  Dy4  1  0.750000  0.476868  0.779024  1
  Dy  Dy5  1  0.750000  0.976990  0.720879  1
  Dy  Dy6  1  0.250000  0.023159  0.279017  1
  Y  Y7  1  0.250000  0.686742  0.551729  1
  Os  Os8  1  0.250000  0.727536  0.864727  1
  Os  Os9  1  0.750000  0.272492  0.135229  1
  Os  Os10  1  0.750000  0.772551  0.364663  1
  Os  Os11  1  0.250000  0.227518  0.635278  1
  C  C12  1  0.250000  0.464040  0.758067  1
  C  C13  1  0.750000  0.535584  0.242340  1
  C  C14  1  0.750000  0.035647  0.257663  1
  C  C15  1  0.250000  0.964582  0.742532  1
  C  C16  1  0.250000  0.822814  0.052428  1
  C  C17  1  0.750000  0.177193  0.947617  1
  C  C18  1  0.750000  0.677253  0.552316  1
  C  C19  1  0.250000  0.322348  0.447516  1
