# generated using pymatgen
data_Tb3Al12PdRu3
_symmetry_space_group_name_H-M   'P 1'
_cell_length_a   8.85636672
_cell_length_b   8.81454621
_cell_length_c   9.57208224
_cell_angle_alpha   89.99999981
_cell_angle_beta   90.05066226
_cell_angle_gamma   119.84392043
_symmetry_Int_Tables_number   1
_chemical_formula_structural   Tb3Al12PdRu3
_chemical_formula_sum   'Tb6 Al24 Pd2 Ru6'
_cell_volume   648.14663860
_cell_formula_units_Z   2
loop_
 _symmetry_equiv_pos_site_id
 _symmetry_equiv_pos_as_xyz
  1  'x, y, z'
loop_
 _atom_site_type_symbol
 _atom_site_label
 _atom_site_symmetry_multiplicity
 _atom_site_fract_x
 _atom_site_fract_y
 _atom_site_fract_z
 _atom_site_occupancy
  Tb  Tb0  1  0.383573  0.191786  0.248603  1
  Tb  Tb1  1  0.809175  0.194776  0.247626  1
  Tb  Tb2  1  0.809175  0.614399  0.247626  1
  Tb  Tb3  1  0.616427  0.808214  0.751397  1
  Tb  Tb4  1  0.190825  0.805224  0.752374  1
  Tb  Tb5  1  0.190825  0.385601  0.752374  1
  Al  Al6  1  0.437844  0.875350  0.247555  1
  Al  Al7  1  0.122396  0.561198  0.251000  1
  Al  Al8  1  0.437844  0.562494  0.247555  1
  Al  Al9  1  0.562156  0.124650  0.752445  1
  Al  Al10  1  0.877604  0.438802  0.749000  1
  Al  Al11  1  0.562156  0.437506  0.752445  1
  Al  Al12  1  0.157218  0.832716  0.420907  1
  Al  Al13  1  0.157218  0.324503  0.420907  1
  Al  Al14  1  0.677827  0.838914  0.419801  1
  Al  Al15  1  0.842782  0.167284  0.579093  1
  Al  Al16  1  0.842782  0.675497  0.579093  1
  Al  Al17  1  0.322173  0.161086  0.580199  1
  Al  Al18  1  0.836408  0.162932  0.923223  1
  Al  Al19  1  0.836408  0.673475  0.923223  1
  Al  Al20  1  0.326025  0.163012  0.924520  1
  Al  Al21  1  0.163592  0.837068  0.076777  1
  Al  Al22  1  0.163592  0.326525  0.076777  1
  Al  Al23  1  0.673975  0.836988  0.075480  1
  Al  Al24  1  0.327392  0.663696  0.522411  1
  Al  Al25  1  0.672608  0.336304  0.477589  1
  Al  Al26  1  0.666773  0.333386  0.020343  1
  Al  Al27  1  0.333227  0.666614  0.979657  1
  Al  Al28  1  0.001909  0.000955  0.249459  1
  Al  Al29  1  0.998091  0.999045  0.750541  1
  Pd  Pd30  1  0.500000  0.000000  0.500000  1
  Pd  Pd31  1  0.500000  0.500000  0.500000  1
  Ru  Ru32  1  0.000000  0.000000  0.500000  1
  Ru  Ru33  1  0.000000  0.000000  0.000000  1
  Ru  Ru34  1  0.000000  0.500000  0.500000  1
  Ru  Ru35  1  0.500000  0.000000  0.000000  1
  Ru  Ru36  1  0.000000  0.500000  0.000000  1
  Ru  Ru37  1  0.500000  0.500000  0.000000  1
