# generated using pymatgen
data_Tb4DyY3(B6Ru)4
_symmetry_space_group_name_H-M   'P 1'
_cell_length_a   3.67512800
_cell_length_b   9.17357200
_cell_length_c   11.55042400
_cell_angle_alpha   90.00200758
_cell_angle_beta   90.00000000
_cell_angle_gamma   90.00000000
_symmetry_Int_Tables_number   1
_chemical_formula_structural   Tb4DyY3(B6Ru)4
_chemical_formula_sum   'Tb4 Dy1 Y3 B24 Ru4'
_cell_volume   389.41158735
_cell_formula_units_Z   1
loop_
 _symmetry_equiv_pos_site_id
 _symmetry_equiv_pos_as_xyz
  1  'x, y, z'
loop_
 _atom_site_type_symbol
 _atom_site_label
 _atom_site_symmetry_multiplicity
 _atom_site_fract_x
 _atom_site_fract_y
 _atom_site_fract_z
 _atom_site_occupancy
  Tb  Tb0  1  0.000000  0.323238  0.413952  1
  Tb  Tb1  1  0.000000  0.676757  0.586042  1
  Tb  Tb2  1  0.000000  0.823227  0.086034  1
  Tb  Tb3  1  0.000000  0.176779  0.913977  1
  Dy  Dy4  1  0.000000  0.555893  0.872246  1
  Y  Y5  1  0.000000  0.944183  0.372424  1
  Y  Y6  1  0.000000  0.055810  0.627567  1
  Y  Y7  1  0.000000  0.444189  0.127560  1
  B  B8  1  0.500000  0.554431  0.432663  1
  B  B9  1  0.500000  0.445569  0.567344  1
  B  B10  1  0.500000  0.054431  0.067339  1
  B  B11  1  0.500000  0.945572  0.932662  1
  B  B12  1  0.500000  0.748101  0.419681  1
  B  B13  1  0.500000  0.251895  0.580324  1
  B  B14  1  0.500000  0.248110  0.080310  1
  B  B15  1  0.500000  0.751848  0.919632  1
  B  B16  1  0.500000  0.791045  0.266430  1
  B  B17  1  0.500000  0.208960  0.733566  1
  B  B18  1  0.500000  0.291045  0.233567  1
  B  B19  1  0.500000  0.708938  0.766501  1
  B  B20  1  0.500000  0.632435  0.185376  1
  B  B21  1  0.500000  0.367640  0.814594  1
  B  B22  1  0.500000  0.132434  0.314607  1
  B  B23  1  0.500000  0.867558  0.685397  1
  B  B24  1  0.500000  0.984586  0.212785  1
  B  B25  1  0.500000  0.015405  0.787221  1
  B  B26  1  0.500000  0.484590  0.287215  1
  B  B27  1  0.500000  0.515370  0.712847  1
  B  B28  1  0.500000  0.608951  0.030041  1
  B  B29  1  0.500000  0.391049  0.969958  1
  B  B30  1  0.500000  0.108967  0.469957  1
  B  B31  1  0.500000  0.891036  0.530047  1
  Ru  Ru32  1  0.000000  0.638368  0.321154  1
  Ru  Ru33  1  0.000000  0.361703  0.678946  1
  Ru  Ru34  1  0.000000  0.138364  0.178876  1
  Ru  Ru35  1  0.000000  0.861520  0.821159  1
