# generated using pymatgen
data_Ho6Zn23N
_symmetry_space_group_name_H-M   'P 1'
_cell_length_a   8.91167344
_cell_length_b   8.91167249
_cell_length_c   8.91167300
_cell_angle_alpha   60.00000180
_cell_angle_beta   60.00000533
_cell_angle_gamma   59.99999788
_symmetry_Int_Tables_number   1
_chemical_formula_structural   Ho6Zn23N
_chemical_formula_sum   'Ho6 Zn23 N1'
_cell_volume   500.45236032
_cell_formula_units_Z   1
loop_
 _symmetry_equiv_pos_site_id
 _symmetry_equiv_pos_as_xyz
  1  'x, y, z'
loop_
 _atom_site_type_symbol
 _atom_site_label
 _atom_site_symmetry_multiplicity
 _atom_site_fract_x
 _atom_site_fract_y
 _atom_site_fract_z
 _atom_site_occupancy
  Ho  Ho0  1  0.695171  0.304829  0.304829  1
  Ho  Ho1  1  0.695171  0.304829  0.695171  1
  Ho  Ho2  1  0.695171  0.695171  0.304829  1
  Ho  Ho3  1  0.304829  0.695171  0.695171  1
  Ho  Ho4  1  0.304829  0.695171  0.304829  1
  Ho  Ho5  1  0.304829  0.304829  0.695171  1
  Zn  Zn6  1  0.633803  0.122066  0.122066  1
  Zn  Zn7  1  0.122066  0.633803  0.122066  1
  Zn  Zn8  1  0.122066  0.122066  0.633803  1
  Zn  Zn9  1  0.122066  0.122066  0.122066  1
  Zn  Zn10  1  0.366197  0.877934  0.877934  1
  Zn  Zn11  1  0.877934  0.366197  0.877934  1
  Zn  Zn12  1  0.877934  0.877934  0.366197  1
  Zn  Zn13  1  0.877934  0.877934  0.877934  1
  Zn  Zn14  1  0.500000  0.000000  0.000000  1
  Zn  Zn15  1  0.500000  0.000000  0.500000  1
  Zn  Zn16  1  0.500000  0.500000  0.000000  1
  Zn  Zn17  1  0.000000  0.500000  0.500000  1
  Zn  Zn18  1  0.000000  0.500000  0.000000  1
  Zn  Zn19  1  0.000000  0.000000  0.500000  1
  Zn  Zn20  1  0.000000  0.000000  0.000000  1
  Zn  Zn21  1  0.016285  0.327905  0.327905  1
  Zn  Zn22  1  0.327905  0.016285  0.327905  1
  Zn  Zn23  1  0.327905  0.327905  0.016285  1
  Zn  Zn24  1  0.327905  0.327905  0.327905  1
  Zn  Zn25  1  0.983715  0.672095  0.672095  1
  Zn  Zn26  1  0.672095  0.983715  0.672095  1
  Zn  Zn27  1  0.672095  0.672095  0.983715  1
  Zn  Zn28  1  0.672095  0.672095  0.672095  1
  N  N29  1  0.500000  0.500000  0.500000  1
