# generated using pymatgen
data_Rb2Ca(BrCl)2
_symmetry_space_group_name_H-M   'P 1'
_cell_length_a   9.57870316
_cell_length_b   9.57870342
_cell_length_c   7.62874100
_cell_angle_alpha   90.00000000
_cell_angle_beta   90.00000000
_cell_angle_gamma   132.97180530
_symmetry_Int_Tables_number   1
_chemical_formula_structural   Rb2Ca(BrCl)2
_chemical_formula_sum   'Rb4 Ca2 Br4 Cl4'
_cell_volume   512.14503540
_cell_formula_units_Z   2
loop_
 _symmetry_equiv_pos_site_id
 _symmetry_equiv_pos_as_xyz
  1  'x, y, z'
loop_
 _atom_site_type_symbol
 _atom_site_label
 _atom_site_symmetry_multiplicity
 _atom_site_fract_x
 _atom_site_fract_y
 _atom_site_fract_z
 _atom_site_occupancy
  Rb  Rb0  1  0.140333  0.859667  0.500000  1
  Rb  Rb1  1  0.859667  0.140333  0.500000  1
  Rb  Rb2  1  0.359667  0.640333  0.000000  1
  Rb  Rb3  1  0.640333  0.359667  0.000000  1
  Ca  Ca4  1  0.500000  0.500000  0.500000  1
  Ca  Ca5  1  0.000000  0.000000  0.000000  1
  Br  Br6  1  0.335104  0.664896  0.500000  1
  Br  Br7  1  0.664896  0.335104  0.500000  1
  Br  Br8  1  0.164896  0.835104  0.000000  1
  Br  Br9  1  0.835104  0.164896  0.000000  1
  Cl  Cl10  1  0.750939  0.750939  0.750269  1
  Cl  Cl11  1  0.249061  0.249061  0.249731  1
  Cl  Cl12  1  0.749061  0.749061  0.250269  1
  Cl  Cl13  1  0.250939  0.250939  0.749731  1
