# generated using pymatgen
data_ErTh2In3RuRh2
_symmetry_space_group_name_H-M   'P 1'
_cell_length_a   7.48336104
_cell_length_b   7.74107754
_cell_length_c   3.95476200
_cell_angle_alpha   90.00000000
_cell_angle_beta   90.00000000
_cell_angle_gamma   119.03580199
_symmetry_Int_Tables_number   1
_chemical_formula_structural   ErTh2In3RuRh2
_chemical_formula_sum   'Er1 Th2 In3 Ru1 Rh2'
_cell_volume   200.30287888
_cell_formula_units_Z   1
loop_
 _symmetry_equiv_pos_site_id
 _symmetry_equiv_pos_as_xyz
  1  'x, y, z'
loop_
 _atom_site_type_symbol
 _atom_site_label
 _atom_site_symmetry_multiplicity
 _atom_site_fract_x
 _atom_site_fract_y
 _atom_site_fract_z
 _atom_site_occupancy
  Er  Er0  1  0.596575  0.003858  0.500000  1
  Th  Th1  1  0.992973  0.579985  0.500000  1
  Th  Th2  1  0.418292  0.412721  0.500000  1
  In  In3  1  0.267118  0.999058  0.000000  1
  In  In4  1  0.746676  0.761627  0.000000  1
  In  In5  1  0.986477  0.238614  0.000000  1
  Ru  Ru6  1  0.669278  0.357083  0.000000  1
  Rh  Rh7  1  0.314564  0.646958  0.000000  1
  Rh  Rh8  1  0.008047  0.000095  0.500000  1
