# generated using pymatgen
data_Er8Si(PdPt)12
_symmetry_space_group_name_H-M   'P 1'
_cell_length_a   8.29881200
_cell_length_b   8.29566400
_cell_length_c   8.31763600
_cell_angle_alpha   90.00000000
_cell_angle_beta   90.00000000
_cell_angle_gamma   90.00000000
_symmetry_Int_Tables_number   1
_chemical_formula_structural   Er8Si(PdPt)12
_chemical_formula_sum   'Er8 Si1 Pd12 Pt12'
_cell_volume   572.62062993
_cell_formula_units_Z   1
loop_
 _symmetry_equiv_pos_site_id
 _symmetry_equiv_pos_as_xyz
  1  'x, y, z'
loop_
 _atom_site_type_symbol
 _atom_site_label
 _atom_site_symmetry_multiplicity
 _atom_site_fract_x
 _atom_site_fract_y
 _atom_site_fract_z
 _atom_site_occupancy
  Er  Er0  1  0.253098  0.253481  0.253039  1
  Er  Er1  1  0.746902  0.746519  0.746961  1
  Er  Er2  1  0.746902  0.746519  0.253039  1
  Er  Er3  1  0.746902  0.253481  0.746961  1
  Er  Er4  1  0.253098  0.253481  0.746961  1
  Er  Er5  1  0.253098  0.746519  0.253039  1
  Er  Er6  1  0.253098  0.746519  0.746961  1
  Er  Er7  1  0.746902  0.253481  0.253039  1
  Si  Si8  1  0.000000  0.000000  0.000000  1
  Pd  Pd9  1  0.000000  0.257178  0.500000  1
  Pd  Pd10  1  0.500000  0.256545  0.000000  1
  Pd  Pd11  1  0.000000  0.742822  0.500000  1
  Pd  Pd12  1  0.500000  0.743455  0.000000  1
  Pd  Pd13  1  0.500000  0.000000  0.257761  1
  Pd  Pd14  1  0.257442  0.000000  0.500000  1
  Pd  Pd15  1  0.500000  0.000000  0.742239  1
  Pd  Pd16  1  0.742558  0.000000  0.500000  1
  Pd  Pd17  1  0.000000  0.500000  0.257988  1
  Pd  Pd18  1  0.000000  0.500000  0.742012  1
  Pd  Pd19  1  0.000000  0.000000  0.281881  1
  Pd  Pd20  1  0.000000  0.000000  0.718119  1
  Pt  Pt21  1  0.257042  0.500000  0.000000  1
  Pt  Pt22  1  0.742958  0.500000  0.000000  1
  Pt  Pt23  1  0.251585  0.500000  0.500000  1
  Pt  Pt24  1  0.748415  0.500000  0.500000  1
  Pt  Pt25  1  0.500000  0.251225  0.500000  1
  Pt  Pt26  1  0.500000  0.748775  0.500000  1
  Pt  Pt27  1  0.500000  0.500000  0.251634  1
  Pt  Pt28  1  0.500000  0.500000  0.748366  1
  Pt  Pt29  1  0.280209  0.000000  0.000000  1
  Pt  Pt30  1  0.719791  0.000000  0.000000  1
  Pt  Pt31  1  0.000000  0.279871  0.000000  1
  Pt  Pt32  1  0.000000  0.720129  0.000000  1
