# generated using pymatgen
data_Hf3Mg2Zr3(Co4P3)4
_symmetry_space_group_name_H-M   'P 1'
_cell_length_a   11.99218210
_cell_length_b   12.02754041
_cell_length_c   3.64060900
_cell_angle_alpha   90.00000000
_cell_angle_beta   90.00000000
_cell_angle_gamma   120.06491880
_symmetry_Int_Tables_number   1
_chemical_formula_structural   Hf3Mg2Zr3(Co4P3)4
_chemical_formula_sum   'Hf3 Mg2 Zr3 Co16 P12'
_cell_volume   454.45955338
_cell_formula_units_Z   1
loop_
 _symmetry_equiv_pos_site_id
 _symmetry_equiv_pos_as_xyz
  1  'x, y, z'
loop_
 _atom_site_type_symbol
 _atom_site_label
 _atom_site_symmetry_multiplicity
 _atom_site_fract_x
 _atom_site_fract_y
 _atom_site_fract_z
 _atom_site_occupancy
  Hf  Hf0  1  0.999895  0.177907  0.500000  1
  Hf  Hf1  1  0.000153  0.555541  0.000000  1
  Hf  Hf2  1  0.181869  0.999687  0.500000  1
  Mg  Mg3  1  0.444548  0.443103  0.000000  1
  Mg  Mg4  1  0.555143  0.998586  0.000000  1
  Zr  Zr5  1  0.817543  0.817458  0.500000  1
  Zr  Zr6  1  0.332098  0.665209  0.000000  1
  Zr  Zr7  1  0.667894  0.332970  0.000000  1
  Co  Co8  1  0.626030  0.822722  0.000000  1
  Co  Co9  1  0.372994  0.195663  0.000000  1
  Co  Co10  1  0.000497  0.722189  0.500000  1
  Co  Co11  1  0.280987  0.281831  0.500000  1
  Co  Co12  1  0.874028  0.353179  0.500000  1
  Co  Co13  1  0.718952  0.001421  0.500000  1
  Co  Co14  1  0.822005  0.629405  0.000000  1
  Co  Co15  1  0.178379  0.808698  0.000000  1
  Co  Co16  1  0.355640  0.872266  0.500000  1
  Co  Co17  1  0.126045  0.479183  0.500000  1
  Co  Co18  1  0.644134  0.516430  0.500000  1
  Co  Co19  1  0.001125  0.002388  0.000000  1
  Co  Co20  1  0.519970  0.646299  0.500000  1
  Co  Co21  1  0.479637  0.126261  0.500000  1
  Co  Co22  1  0.197394  0.374197  0.000000  1
  Co  Co23  1  0.802704  0.177071  0.000000  1
  P  P24  1  0.000001  0.344234  0.000000  1
  P  P25  1  0.826431  0.517691  0.500000  1
  P  P26  1  0.686492  0.170852  0.500000  1
  P  P27  1  0.176920  0.175937  0.000000  1
  P  P28  1  0.645015  0.647390  0.000000  1
  P  P29  1  0.823517  0.999789  0.000000  1
  P  P30  1  0.517338  0.828411  0.500000  1
  P  P31  1  0.173654  0.691110  0.500000  1
  P  P32  1  0.354068  0.002391  0.000000  1
  P  P33  1  0.482825  0.311089  0.500000  1
  P  P34  1  0.000765  0.827224  0.000000  1
  P  P35  1  0.313314  0.484217  0.500000  1
