# generated using pymatgen
data_LuTi4Zn(Co5B2)2
_symmetry_space_group_name_H-M   'P 1'
_cell_length_a   8.61055679
_cell_length_b   8.56564484
_cell_length_c   3.01091800
_cell_angle_alpha   90.00000000
_cell_angle_beta   90.00000000
_cell_angle_gamma   89.02627780
_symmetry_Int_Tables_number   1
_chemical_formula_structural   LuTi4Zn(Co5B2)2
_chemical_formula_sum   'Lu1 Ti4 Zn1 Co10 B4'
_cell_volume   222.03810247
_cell_formula_units_Z   1
loop_
 _symmetry_equiv_pos_site_id
 _symmetry_equiv_pos_as_xyz
  1  'x, y, z'
loop_
 _atom_site_type_symbol
 _atom_site_label
 _atom_site_symmetry_multiplicity
 _atom_site_fract_x
 _atom_site_fract_y
 _atom_site_fract_z
 _atom_site_occupancy
  Lu  Lu0  1  0.828530  0.318999  0.000000  1
  Ti  Ti1  1  0.499323  0.500627  0.000000  1
  Ti  Ti2  1  0.322831  0.172492  0.000000  1
  Ti  Ti3  1  0.674715  0.824557  0.000000  1
  Ti  Ti4  1  0.172498  0.680176  0.000000  1
  Zn  Zn5  1  0.999663  0.004458  0.000000  1
  Co  Co6  1  0.494099  0.994624  0.500000  1
  Co  Co7  1  0.009502  0.508975  0.500000  1
  Co  Co8  1  0.088813  0.222613  0.500000  1
  Co  Co9  1  0.219711  0.927101  0.500000  1
  Co  Co10  1  0.768123  0.053275  0.500000  1
  Co  Co11  1  0.929274  0.784084  0.500000  1
  Co  Co12  1  0.428222  0.718878  0.500000  1
  Co  Co13  1  0.556693  0.271158  0.500000  1
  Co  Co14  1  0.721755  0.581694  0.500000  1
  Co  Co15  1  0.284007  0.434010  0.500000  1
  B  B16  1  0.614296  0.111339  0.000000  1
  B  B17  1  0.130053  0.382644  0.000000  1
  B  B18  1  0.884335  0.631062  0.000000  1
  B  B19  1  0.373555  0.877234  0.000000  1
