# generated using pymatgen
data_ThVBr6
_symmetry_space_group_name_H-M   'P 1'
_cell_length_a   8.10653738
_cell_length_b   8.09657622
_cell_length_c   8.11277586
_cell_angle_alpha   50.74490127
_cell_angle_beta   50.79631930
_cell_angle_gamma   50.81197236
_symmetry_Int_Tables_number   1
_chemical_formula_structural   ThVBr6
_chemical_formula_sum   'Th1 V1 Br6'
_cell_volume   294.68244535
_cell_formula_units_Z   1
loop_
 _symmetry_equiv_pos_site_id
 _symmetry_equiv_pos_as_xyz
  1  'x, y, z'
loop_
 _atom_site_type_symbol
 _atom_site_label
 _atom_site_symmetry_multiplicity
 _atom_site_fract_x
 _atom_site_fract_y
 _atom_site_fract_z
 _atom_site_occupancy
  Th  Th0  1  0.333525  0.333414  0.333306  1
  V  V1  1  0.665434  0.667186  0.667384  1
  Br  Br2  1  0.737478  0.049608  0.436481  1
  Br  Br3  1  0.048495  0.435375  0.737736  1
  Br  Br4  1  0.587754  0.287617  0.901062  1
  Br  Br5  1  0.900710  0.589636  0.288029  1
  Br  Br6  1  0.288387  0.899872  0.586396  1
  Br  Br7  1  0.438216  0.737291  0.049606  1
