# generated using pymatgen
data_HoSc2Al7Ag2
_symmetry_space_group_name_H-M   'P 1'
_cell_length_a   9.11218892
_cell_length_b   9.11218891
_cell_length_c   9.11219000
_cell_angle_alpha   35.01209165
_cell_angle_beta   35.01209177
_cell_angle_gamma   35.01209619
_symmetry_Int_Tables_number   1
_chemical_formula_structural   HoSc2Al7Ag2
_chemical_formula_sum   'Ho1 Sc2 Al7 Ag2'
_cell_volume   222.38985106
_cell_formula_units_Z   1
loop_
 _symmetry_equiv_pos_site_id
 _symmetry_equiv_pos_as_xyz
  1  'x, y, z'
loop_
 _atom_site_type_symbol
 _atom_site_label
 _atom_site_symmetry_multiplicity
 _atom_site_fract_x
 _atom_site_fract_y
 _atom_site_fract_z
 _atom_site_occupancy
  Ho  Ho0  1  0.000000  0.000000  0.000000  1
  Sc  Sc1  1  0.856652  0.856652  0.856652  1
  Sc  Sc2  1  0.143348  0.143348  0.143348  1
  Al  Al3  1  0.409601  0.409601  0.922995  1
  Al  Al4  1  0.922995  0.409601  0.409601  1
  Al  Al5  1  0.409601  0.922995  0.409601  1
  Al  Al6  1  0.500000  0.500000  0.500000  1
  Al  Al7  1  0.590399  0.077005  0.590399  1
  Al  Al8  1  0.077005  0.590399  0.590399  1
  Al  Al9  1  0.590399  0.590399  0.077005  1
  Ag  Ag10  1  0.664465  0.664465  0.664465  1
  Ag  Ag11  1  0.335535  0.335535  0.335535  1
