# generated using pymatgen
data_Y6Ho10CdIn3(PdPt)2
_symmetry_space_group_name_H-M   'P 1'
_cell_length_a   9.68911849
_cell_length_b   9.68911870
_cell_length_c   9.65847300
_cell_angle_alpha   60.10457622
_cell_angle_beta   60.10457551
_cell_angle_gamma   60.13975469
_symmetry_Int_Tables_number   1
_chemical_formula_structural   Y6Ho10CdIn3(PdPt)2
_chemical_formula_sum   'Y6 Ho10 Cd1 In3 Pd2 Pt2'
_cell_volume   642.84272508
_cell_formula_units_Z   1
loop_
 _symmetry_equiv_pos_site_id
 _symmetry_equiv_pos_as_xyz
  1  'x, y, z'
loop_
 _atom_site_type_symbol
 _atom_site_label
 _atom_site_symmetry_multiplicity
 _atom_site_fract_x
 _atom_site_fract_y
 _atom_site_fract_z
 _atom_site_occupancy
  Y  Y0  1  0.937902  0.564298  0.562288  1
  Y  Y1  1  0.564477  0.936998  0.936619  1
  Y  Y2  1  0.564477  0.936998  0.561907  1
  Y  Y3  1  0.937902  0.564298  0.935512  1
  Y  Y4  1  0.565322  0.564765  0.934956  1
  Y  Y5  1  0.938095  0.936720  0.562592  1
  Ho  Ho6  1  0.351791  0.352470  0.348315  1
  Ho  Ho7  1  0.351791  0.352470  0.947426  1
  Ho  Ho8  1  0.356233  0.938641  0.352564  1
  Ho  Ho9  1  0.938826  0.356215  0.352480  1
  Ho  Ho10  1  0.810068  0.190523  0.188740  1
  Ho  Ho11  1  0.190186  0.810514  0.811093  1
  Ho  Ho12  1  0.190186  0.810514  0.188207  1
  Ho  Ho13  1  0.810068  0.190523  0.810669  1
  Ho  Ho14  1  0.190014  0.189744  0.810121  1
  Ho  Ho15  1  0.811228  0.810845  0.188964  1
  Cd  Cd16  1  0.252488  0.580120  0.583695  1
  In  In17  1  0.580940  0.581872  0.585429  1
  In  In18  1  0.580940  0.581872  0.251758  1
  In  In19  1  0.579476  0.252362  0.584080  1
  Pd  Pd20  1  0.143247  0.143095  0.147231  1
  Pd  Pd21  1  0.143247  0.143095  0.566428  1
  Pt  Pt22  1  0.140168  0.571042  0.144396  1
  Pt  Pt23  1  0.570928  0.140006  0.144534  1
