# generated using pymatgen
data_Tb3Dy(YSn)6
_symmetry_space_group_name_H-M   'P 1'
_cell_length_a   9.00480300
_cell_length_b   9.00480262
_cell_length_c   6.58765500
_cell_angle_alpha   90.00000000
_cell_angle_beta   90.00000000
_cell_angle_gamma   119.99999773
_symmetry_Int_Tables_number   1
_chemical_formula_structural   Tb3Dy(YSn)6
_chemical_formula_sum   'Tb3 Dy1 Y6 Sn6'
_cell_volume   462.60455225
_cell_formula_units_Z   1
loop_
 _symmetry_equiv_pos_site_id
 _symmetry_equiv_pos_as_xyz
  1  'x, y, z'
loop_
 _atom_site_type_symbol
 _atom_site_label
 _atom_site_symmetry_multiplicity
 _atom_site_fract_x
 _atom_site_fract_y
 _atom_site_fract_z
 _atom_site_occupancy
  Tb  Tb0  1  0.666667  0.333333  0.500000  1
  Tb  Tb1  1  0.333333  0.666667  0.000000  1
  Tb  Tb2  1  0.666667  0.333333  0.000000  1
  Dy  Dy3  1  0.333333  0.666667  0.500000  1
  Y  Y4  1  0.760012  0.760021  0.250010  1
  Y  Y5  1  0.000010  0.239988  0.250010  1
  Y  Y6  1  0.760012  0.999990  0.749990  1
  Y  Y7  1  0.239979  0.999990  0.250010  1
  Y  Y8  1  0.000010  0.760021  0.749990  1
  Y  Y9  1  0.239979  0.239988  0.749990  1
  Sn  Sn10  1  0.605957  0.605995  0.749968  1
  Sn  Sn11  1  0.394005  0.999962  0.749968  1
  Sn  Sn12  1  0.605957  0.999962  0.250032  1
  Sn  Sn13  1  0.000038  0.394043  0.749968  1
  Sn  Sn14  1  0.394005  0.394043  0.250032  1
  Sn  Sn15  1  0.000038  0.605995  0.250032  1
