# generated using pymatgen
data_Ac3(Si3Pd10)2
_symmetry_space_group_name_H-M   'P 1'
_cell_length_a   8.89829703
_cell_length_b   8.89829716
_cell_length_c   8.89829700
_cell_angle_alpha   59.99999689
_cell_angle_beta   59.99999640
_cell_angle_gamma   59.99999809
_symmetry_Int_Tables_number   1
_chemical_formula_structural   Ac3(Si3Pd10)2
_chemical_formula_sum   'Ac3 Si6 Pd20'
_cell_volume   498.20223889
_cell_formula_units_Z   1
loop_
 _symmetry_equiv_pos_site_id
 _symmetry_equiv_pos_as_xyz
  1  'x, y, z'
loop_
 _atom_site_type_symbol
 _atom_site_label
 _atom_site_symmetry_multiplicity
 _atom_site_fract_x
 _atom_site_fract_y
 _atom_site_fract_z
 _atom_site_occupancy
  Ac  Ac0  1  0.750000  0.750000  0.750000  1
  Ac  Ac1  1  0.250000  0.250000  0.250000  1
  Ac  Ac2  1  0.000000  0.000000  0.000000  1
  Si  Si3  1  0.731069  0.731069  0.268931  1
  Si  Si4  1  0.268931  0.268931  0.731069  1
  Si  Si5  1  0.731069  0.268931  0.731069  1
  Si  Si6  1  0.268931  0.731069  0.268931  1
  Si  Si7  1  0.268931  0.731069  0.731069  1
  Si  Si8  1  0.731069  0.268931  0.268931  1
  Pd  Pd9  1  0.612985  0.612985  0.612985  1
  Pd  Pd10  1  0.387015  0.387015  0.387015  1
  Pd  Pd11  1  0.161045  0.612985  0.612985  1
  Pd  Pd12  1  0.612985  0.161045  0.612985  1
  Pd  Pd13  1  0.838955  0.387015  0.387015  1
  Pd  Pd14  1  0.387015  0.838955  0.387015  1
  Pd  Pd15  1  0.612985  0.612985  0.161045  1
  Pd  Pd16  1  0.387015  0.387015  0.838955  1
  Pd  Pd17  1  0.000000  0.000000  0.652112  1
  Pd  Pd18  1  0.000000  0.000000  0.347888  1
  Pd  Pd19  1  0.347888  0.652112  0.000000  1
  Pd  Pd20  1  0.652112  0.347888  0.000000  1
  Pd  Pd21  1  0.000000  0.652112  0.000000  1
  Pd  Pd22  1  0.652112  0.000000  0.347888  1
  Pd  Pd23  1  0.000000  0.347888  0.000000  1
  Pd  Pd24  1  0.347888  0.000000  0.652112  1
  Pd  Pd25  1  0.652112  0.000000  0.000000  1
  Pd  Pd26  1  0.347888  0.000000  0.000000  1
  Pd  Pd27  1  0.000000  0.652112  0.347888  1
  Pd  Pd28  1  0.000000  0.347888  0.652112  1
