# generated using pymatgen
data_Yb2DyY(Pt2O7)2
_symmetry_space_group_name_H-M   'P 1'
_cell_length_a   7.27332823
_cell_length_b   7.27332791
_cell_length_c   7.25031514
_cell_angle_alpha   60.01765552
_cell_angle_beta   60.01765792
_cell_angle_gamma   60.07584227
_symmetry_Int_Tables_number   1
_chemical_formula_structural   Yb2DyY(Pt2O7)2
_chemical_formula_sum   'Yb2 Dy1 Y1 Pt4 O14'
_cell_volume   271.43918142
_cell_formula_units_Z   1
loop_
 _symmetry_equiv_pos_site_id
 _symmetry_equiv_pos_as_xyz
  1  'x, y, z'
loop_
 _atom_site_type_symbol
 _atom_site_label
 _atom_site_symmetry_multiplicity
 _atom_site_fract_x
 _atom_site_fract_y
 _atom_site_fract_z
 _atom_site_occupancy
  Yb  Yb0  1  0.125000  0.625000  0.125000  1
  Yb  Yb1  1  0.625000  0.125000  0.125000  1
  Dy  Dy2  1  0.125000  0.125000  0.125000  1
  Y  Y3  1  0.125000  0.125000  0.625000  1
  Pt  Pt4  1  0.625000  0.625000  0.625000  1
  Pt  Pt5  1  0.125000  0.625000  0.625000  1
  Pt  Pt6  1  0.625000  0.125000  0.625000  1
  Pt  Pt7  1  0.625000  0.625000  0.125000  1
  O  O8  1  0.289832  0.714417  0.705366  1
  O  O9  1  0.534503  0.960336  0.960365  1
  O  O10  1  0.714417  0.289832  0.705366  1
  O  O11  1  0.288029  0.288029  0.712741  1
  O  O12  1  0.708526  0.708526  0.291189  1
  O  O13  1  0.004362  0.004362  0.995799  1
  O  O14  1  0.289664  0.715497  0.289635  1
  O  O15  1  0.960336  0.534503  0.960365  1
  O  O16  1  0.961971  0.961971  0.537259  1
  O  O17  1  0.541474  0.541474  0.958811  1
  O  O18  1  0.245638  0.245638  0.254201  1
  O  O19  1  0.535583  0.960168  0.544634  1
  O  O20  1  0.715497  0.289664  0.289635  1
  O  O21  1  0.960168  0.535583  0.544634  1
