# generated using pymatgen
data_ErZnCu2PtAu
_symmetry_space_group_name_H-M   'P 1'
_cell_length_a   5.15328307
_cell_length_b   5.13268992
_cell_length_c   5.18382514
_cell_angle_alpha   59.24295827
_cell_angle_beta   60.19471236
_cell_angle_gamma   59.86717751
_symmetry_Int_Tables_number   1
_chemical_formula_structural   ErZnCu2PtAu
_chemical_formula_sum   'Er1 Zn1 Cu2 Pt1 Au1'
_cell_volume   96.42980782
_cell_formula_units_Z   1
loop_
 _symmetry_equiv_pos_site_id
 _symmetry_equiv_pos_as_xyz
  1  'x, y, z'
loop_
 _atom_site_type_symbol
 _atom_site_label
 _atom_site_symmetry_multiplicity
 _atom_site_fract_x
 _atom_site_fract_y
 _atom_site_fract_z
 _atom_site_occupancy
  Er  Er0  1  0.002626  0.991361  0.003386  1
  Zn  Zn1  1  0.623885  0.134728  0.617501  1
  Cu  Cu2  1  0.127500  0.627120  0.620156  1
  Cu  Cu3  1  0.625224  0.627120  0.620156  1
  Pt  Pt4  1  0.626160  0.630654  0.117025  1
  Au  Au5  1  0.244604  0.239017  0.271775  1
