# generated using pymatgen
data_Y3Lu7CoHg3
_symmetry_space_group_name_H-M   'P 1'
_cell_length_a   9.48965100
_cell_length_b   9.48965176
_cell_length_c   9.38663500
_cell_angle_alpha   90.00000000
_cell_angle_beta   90.00000000
_cell_angle_gamma   119.99999388
_symmetry_Int_Tables_number   1
_chemical_formula_structural   Y3Lu7CoHg3
_chemical_formula_sum   'Y6 Lu14 Co2 Hg6'
_cell_volume   732.05060703
_cell_formula_units_Z   2
loop_
 _symmetry_equiv_pos_site_id
 _symmetry_equiv_pos_as_xyz
  1  'x, y, z'
loop_
 _atom_site_type_symbol
 _atom_site_label
 _atom_site_symmetry_multiplicity
 _atom_site_fract_x
 _atom_site_fract_y
 _atom_site_fract_z
 _atom_site_occupancy
  Y  Y0  1  0.541468  0.458532  0.250000  1
  Y  Y1  1  0.541468  0.082934  0.250000  1
  Y  Y2  1  0.917066  0.458532  0.250000  1
  Y  Y3  1  0.458532  0.541468  0.750000  1
  Y  Y4  1  0.458532  0.917066  0.750000  1
  Y  Y5  1  0.082934  0.541468  0.750000  1
  Lu  Lu6  1  0.000000  0.000000  0.500000  1
  Lu  Lu7  1  0.000000  0.000000  0.000000  1
  Lu  Lu8  1  0.211665  0.788335  0.435970  1
  Lu  Lu9  1  0.211665  0.423330  0.435970  1
  Lu  Lu10  1  0.576670  0.788335  0.435970  1
  Lu  Lu11  1  0.788335  0.211665  0.564030  1
  Lu  Lu12  1  0.788335  0.576670  0.564030  1
  Lu  Lu13  1  0.423330  0.211665  0.564030  1
  Lu  Lu14  1  0.788335  0.211665  0.935970  1
  Lu  Lu15  1  0.788335  0.576670  0.935970  1
  Lu  Lu16  1  0.423330  0.211665  0.935970  1
  Lu  Lu17  1  0.211665  0.788335  0.064030  1
  Lu  Lu18  1  0.211665  0.423330  0.064030  1
  Lu  Lu19  1  0.576670  0.788335  0.064030  1
  Co  Co20  1  0.333333  0.666667  0.250000  1
  Co  Co21  1  0.666667  0.333333  0.750000  1
  Hg  Hg22  1  0.884162  0.115838  0.250000  1
  Hg  Hg23  1  0.884162  0.768324  0.250000  1
  Hg  Hg24  1  0.231676  0.115838  0.250000  1
  Hg  Hg25  1  0.115838  0.884162  0.750000  1
  Hg  Hg26  1  0.115838  0.231676  0.750000  1
  Hg  Hg27  1  0.768324  0.884162  0.750000  1
