# generated using pymatgen
data_HfTa2(TiB3)2
_symmetry_space_group_name_H-M   'P 1'
_cell_length_a   11.49618083
_cell_length_b   11.49617959
_cell_length_c   3.35355800
_cell_angle_alpha   90.00000000
_cell_angle_beta   90.00000000
_cell_angle_gamma   164.60860043
_symmetry_Int_Tables_number   1
_chemical_formula_structural   HfTa2(TiB3)2
_chemical_formula_sum   'Hf1 Ta2 Ti2 B6'
_cell_volume   117.63390598
_cell_formula_units_Z   1
loop_
 _symmetry_equiv_pos_site_id
 _symmetry_equiv_pos_as_xyz
  1  'x, y, z'
loop_
 _atom_site_type_symbol
 _atom_site_label
 _atom_site_symmetry_multiplicity
 _atom_site_fract_x
 _atom_site_fract_y
 _atom_site_fract_z
 _atom_site_occupancy
  Hf  Hf0  1  0.000000  0.000000  0.000000  1
  Ta  Ta1  1  0.192833  0.807167  0.500000  1
  Ta  Ta2  1  0.807167  0.192833  0.500000  1
  Ti  Ti3  1  0.386300  0.613700  0.000000  1
  Ti  Ti4  1  0.613700  0.386300  0.000000  1
  B  B5  1  0.458812  0.541188  0.500000  1
  B  B6  1  0.541188  0.458812  0.500000  1
  B  B7  1  0.271523  0.728477  0.000000  1
  B  B8  1  0.728477  0.271523  0.000000  1
  B  B9  1  0.082488  0.917512  0.500000  1
  B  B10  1  0.917512  0.082488  0.500000  1
