# generated using pymatgen
data_Ho5CdRu4
_symmetry_space_group_name_H-M   'P 1'
_cell_length_a   3.39295500
_cell_length_b   3.39295500
_cell_length_c   17.89491800
_cell_angle_alpha   90.00000000
_cell_angle_beta   90.00000000
_cell_angle_gamma   90.00000000
_symmetry_Int_Tables_number   1
_chemical_formula_structural   Ho5CdRu4
_chemical_formula_sum   'Ho5 Cd1 Ru4'
_cell_volume   206.00886630
_cell_formula_units_Z   1
loop_
 _symmetry_equiv_pos_site_id
 _symmetry_equiv_pos_as_xyz
  1  'x, y, z'
loop_
 _atom_site_type_symbol
 _atom_site_label
 _atom_site_symmetry_multiplicity
 _atom_site_fract_x
 _atom_site_fract_y
 _atom_site_fract_z
 _atom_site_occupancy
  Ho  Ho0  1  0.000000  0.000000  0.873752  1
  Ho  Ho1  1  0.000000  0.000000  0.126248  1
  Ho  Ho2  1  0.000000  0.000000  0.311887  1
  Ho  Ho3  1  0.000000  0.000000  0.500000  1
  Ho  Ho4  1  0.000000  0.000000  0.688113  1
  Cd  Cd5  1  0.500000  0.500000  0.000000  1
  Ru  Ru6  1  0.500000  0.500000  0.214109  1
  Ru  Ru7  1  0.500000  0.500000  0.404902  1
  Ru  Ru8  1  0.500000  0.500000  0.595098  1
  Ru  Ru9  1  0.500000  0.500000  0.785891  1
