# generated using pymatgen
data_Er2VP4Rh5
_symmetry_space_group_name_H-M   'P 1'
_cell_length_a   3.89944500
_cell_length_b   11.11114744
_cell_length_c   12.80067491
_cell_angle_alpha   89.94775392
_cell_angle_beta   90.00000000
_cell_angle_gamma   90.00000000
_symmetry_Int_Tables_number   1
_chemical_formula_structural   Er2VP4Rh5
_chemical_formula_sum   'Er6 V3 P12 Rh15'
_cell_volume   554.61855818
_cell_formula_units_Z   3
loop_
 _symmetry_equiv_pos_site_id
 _symmetry_equiv_pos_as_xyz
  1  'x, y, z'
loop_
 _atom_site_type_symbol
 _atom_site_label
 _atom_site_symmetry_multiplicity
 _atom_site_fract_x
 _atom_site_fract_y
 _atom_site_fract_z
 _atom_site_occupancy
  Er  Er0  1  0.750000  0.245635  0.480590  1
  Er  Er1  1  0.250000  0.751395  0.520719  1
  Er  Er2  1  0.250000  0.932457  0.799432  1
  Er  Er3  1  0.250000  0.567547  0.792712  1
  Er  Er4  1  0.750000  0.070842  0.202110  1
  Er  Er5  1  0.750000  0.432420  0.208195  1
  V  V6  1  0.250000  0.253884  0.840950  1
  V  V7  1  0.750000  0.749810  0.158186  1
  V  V8  1  0.250000  0.424356  0.999304  1
  P  P9  1  0.250000  0.260296  0.119532  1
  P  P10  1  0.750000  0.747757  0.881184  1
  P  P11  1  0.250000  0.247104  0.653171  1
  P  P12  1  0.750000  0.751193  0.344690  1
  P  P13  1  0.250000  0.435549  0.382791  1
  P  P14  1  0.250000  0.064095  0.382312  1
  P  P15  1  0.750000  0.562150  0.616839  1
  P  P16  1  0.750000  0.933019  0.619171  1
  P  P17  1  0.250000  0.904391  0.110899  1
  P  P18  1  0.250000  0.595489  0.116125  1
  P  P19  1  0.750000  0.097668  0.890219  1
  P  P20  1  0.750000  0.401082  0.882881  1
  Rh  Rh21  1  0.250000  0.250732  0.300043  1
  Rh  Rh22  1  0.750000  0.746356  0.702063  1
  Rh  Rh23  1  0.750000  0.253226  0.013667  1
  Rh  Rh24  1  0.250000  0.749002  0.987355  1
  Rh  Rh25  1  0.250000  0.083226  0.009010  1
  Rh  Rh26  1  0.750000  0.576575  0.996147  1
  Rh  Rh27  1  0.750000  0.917575  0.991643  1
  Rh  Rh28  1  0.250000  0.455132  0.566406  1
  Rh  Rh29  1  0.250000  0.041967  0.569139  1
  Rh  Rh30  1  0.750000  0.545054  0.431556  1
  Rh  Rh31  1  0.750000  0.954617  0.431654  1
  Rh  Rh32  1  0.250000  0.877302  0.289391  1
  Rh  Rh33  1  0.250000  0.626702  0.294026  1
  Rh  Rh34  1  0.750000  0.122141  0.711198  1
  Rh  Rh35  1  0.750000  0.372254  0.704687  1
