# generated using pymatgen
data_Nd11Sm(GePd)12
_symmetry_space_group_name_H-M   'P 1'
_cell_length_a   4.51804500
_cell_length_b   7.68539400
_cell_length_c   21.93722600
_cell_angle_alpha   89.99841838
_cell_angle_beta   90.00000000
_cell_angle_gamma   90.00000000
_symmetry_Int_Tables_number   1
_chemical_formula_structural   Nd11Sm(GePd)12
_chemical_formula_sum   'Nd11 Sm1 Ge12 Pd12'
_cell_volume   761.72533158
_cell_formula_units_Z   1
loop_
 _symmetry_equiv_pos_site_id
 _symmetry_equiv_pos_as_xyz
  1  'x, y, z'
loop_
 _atom_site_type_symbol
 _atom_site_label
 _atom_site_symmetry_multiplicity
 _atom_site_fract_x
 _atom_site_fract_y
 _atom_site_fract_z
 _atom_site_occupancy
  Nd  Nd0  1  0.250000  0.709401  0.333312  1
  Nd  Nd1  1  0.750000  0.290875  0.666810  1
  Nd  Nd2  1  0.750000  0.209129  0.166849  1
  Nd  Nd3  1  0.250000  0.790753  0.833140  1
  Nd  Nd4  1  0.250000  0.790052  0.166227  1
  Nd  Nd5  1  0.750000  0.209983  0.833804  1
  Nd  Nd6  1  0.750000  0.290143  0.333898  1
  Nd  Nd7  1  0.250000  0.710114  0.666003  1
  Nd  Nd8  1  0.250000  0.715245  0.001334  1
  Nd  Nd9  1  0.750000  0.284799  0.998700  1
  Nd  Nd10  1  0.750000  0.214594  0.498734  1
  Sm  Sm11  1  0.250000  0.783020  0.501286  1
  Ge  Ge12  1  0.250000  0.088295  0.071374  1
  Ge  Ge13  1  0.750000  0.911730  0.928608  1
  Ge  Ge14  1  0.750000  0.589429  0.429053  1
  Ge  Ge15  1  0.250000  0.412533  0.571303  1
  Ge  Ge16  1  0.250000  0.083022  0.269443  1
  Ge  Ge17  1  0.750000  0.916813  0.730530  1
  Ge  Ge18  1  0.750000  0.583074  0.230589  1
  Ge  Ge19  1  0.250000  0.416886  0.769389  1
  Ge  Ge20  1  0.250000  0.085185  0.397759  1
  Ge  Ge21  1  0.750000  0.914068  0.602094  1
  Ge  Ge22  1  0.750000  0.585614  0.102633  1
  Ge  Ge23  1  0.250000  0.414383  0.897355  1
  Pd  Pd24  1  0.250000  0.416620  0.237305  1
  Pd  Pd25  1  0.750000  0.583383  0.762733  1
  Pd  Pd26  1  0.750000  0.916622  0.262805  1
  Pd  Pd27  1  0.250000  0.083345  0.737198  1
  Pd  Pd28  1  0.250000  0.418157  0.435710  1
  Pd  Pd29  1  0.750000  0.584204  0.563939  1
  Pd  Pd30  1  0.750000  0.917262  0.064507  1
  Pd  Pd31  1  0.250000  0.082715  0.935483  1
  Pd  Pd32  1  0.250000  0.420112  0.093717  1
  Pd  Pd33  1  0.750000  0.579873  0.906292  1
  Pd  Pd34  1  0.750000  0.919768  0.406859  1
  Pd  Pd35  1  0.250000  0.078798  0.593227  1
