# generated using pymatgen
data_Dy5Tm3(OsI4)2
_symmetry_space_group_name_H-M   'P 1'
_cell_length_a   11.63273156
_cell_length_b   11.64175434
_cell_length_c   6.15906225
_cell_angle_alpha   90.03648619
_cell_angle_beta   90.00083911
_cell_angle_gamma   90.00533392
_symmetry_Int_Tables_number   1
_chemical_formula_structural   Dy5Tm3(OsI4)2
_chemical_formula_sum   'Dy5 Tm3 Os2 I8'
_cell_volume   834.09331503
_cell_formula_units_Z   1
loop_
 _symmetry_equiv_pos_site_id
 _symmetry_equiv_pos_as_xyz
  1  'x, y, z'
loop_
 _atom_site_type_symbol
 _atom_site_label
 _atom_site_symmetry_multiplicity
 _atom_site_fract_x
 _atom_site_fract_y
 _atom_site_fract_z
 _atom_site_occupancy
  Dy  Dy0  1  0.192571  0.080187  0.500967  1
  Dy  Dy1  1  0.921084  0.807014  0.999378  1
  Dy  Dy2  1  0.920281  0.193202  0.499428  1
  Dy  Dy3  1  0.192673  0.919985  0.999239  1
  Dy  Dy4  1  0.806785  0.921417  0.499474  1
  Tm  Tm5  1  0.811956  0.077358  0.001559  1
  Tm  Tm6  1  0.077536  0.812200  0.501393  1
  Tm  Tm7  1  0.077682  0.187842  0.001238  1
  Os  Os8  1  0.000169  0.999802  0.250382  1
  Os  Os9  1  0.999788  0.000225  0.750242  1
  I  I10  1  0.653383  0.144136  0.488441  1
  I  I11  1  0.857446  0.654996  0.506173  1
  I  I12  1  0.343710  0.145695  0.993780  1
  I  I13  1  0.144469  0.345738  0.493078  1
  I  I14  1  0.654801  0.857467  0.006240  1
  I  I15  1  0.344599  0.855075  0.510332  1
  I  I16  1  0.143862  0.653690  0.988459  1
  I  I17  1  0.857206  0.343974  0.010198  1
