# generated using pymatgen
data_YbSi3Rh
_symmetry_space_group_name_H-M   'P 1'
_cell_length_a   5.79873918
_cell_length_b   5.79873877
_cell_length_c   5.79873932
_cell_angle_alpha   138.20257673
_cell_angle_beta   138.20256803
_cell_angle_gamma   60.59288714
_symmetry_Int_Tables_number   1
_chemical_formula_structural   YbSi3Rh
_chemical_formula_sum   'Yb1 Si3 Rh1'
_cell_volume   85.69074845
_cell_formula_units_Z   1
loop_
 _symmetry_equiv_pos_site_id
 _symmetry_equiv_pos_as_xyz
  1  'x, y, z'
loop_
 _atom_site_type_symbol
 _atom_site_label
 _atom_site_symmetry_multiplicity
 _atom_site_fract_x
 _atom_site_fract_y
 _atom_site_fract_z
 _atom_site_occupancy
  Yb  Yb0  1  0.004769  0.004769  0.000000  1
  Si  Si1  1  0.412389  0.412389  0.000000  1
  Si  Si2  1  0.263984  0.763984  0.500000  1
  Si  Si3  1  0.763984  0.263984  0.500000  1
  Rh  Rh4  1  0.648874  0.648874  0.000000  1
