# generated using pymatgen
data_YbTh(Si2Ni9)2
_symmetry_space_group_name_H-M   'P 1'
_cell_length_a   7.56094449
_cell_length_b   7.55892549
_cell_length_c   7.56094510
_cell_angle_alpha   99.58941457
_cell_angle_beta   99.56998342
_cell_angle_gamma   131.86547195
_symmetry_Int_Tables_number   1
_chemical_formula_structural   YbTh(Si2Ni9)2
_chemical_formula_sum   'Yb1 Th1 Si4 Ni18'
_cell_volume   293.79636245
_cell_formula_units_Z   1
loop_
 _symmetry_equiv_pos_site_id
 _symmetry_equiv_pos_as_xyz
  1  'x, y, z'
loop_
 _atom_site_type_symbol
 _atom_site_label
 _atom_site_symmetry_multiplicity
 _atom_site_fract_x
 _atom_site_fract_y
 _atom_site_fract_z
 _atom_site_occupancy
  Yb  Yb0  1  0.750077  0.250122  0.500046  1
  Th  Th1  1  0.499977  0.499827  0.999849  1
  Si  Si2  1  0.625997  0.876670  0.749343  1
  Si  Si3  1  0.123264  0.373933  0.250669  1
  Si  Si4  1  0.123377  0.872699  0.749322  1
  Si  Si5  1  0.127327  0.876670  0.250673  1
  Ni  Ni6  1  0.250000  0.750005  0.500006  1
  Ni  Ni7  1  0.000008  0.000007  0.999999  1
  Ni  Ni8  1  0.686052  0.013572  0.078931  1
  Ni  Ni9  1  0.686054  0.607157  0.672495  1
  Ni  Ni10  1  0.263421  0.437517  0.579049  1
  Ni  Ni11  1  0.263554  0.684505  0.825968  1
  Ni  Ni12  1  0.934642  0.013572  0.327520  1
  Ni  Ni13  1  0.934663  0.607157  0.921102  1
  Ni  Ni14  1  0.858469  0.437517  0.174097  1
  Ni  Ni15  1  0.858537  0.684505  0.420950  1
  Ni  Ni16  1  0.562461  0.736487  0.420969  1
  Ni  Ni17  1  0.562441  0.141523  0.825897  1
  Ni  Ni18  1  0.986382  0.313919  0.921082  1
  Ni  Ni19  1  0.986465  0.065353  0.672498  1
  Ni  Ni20  1  0.315517  0.736487  0.174026  1
  Ni  Ni21  1  0.315626  0.141523  0.579083  1
  Ni  Ni22  1  0.392835  0.313919  0.327537  1
  Ni  Ni23  1  0.392855  0.065353  0.078889  1
