# generated using pymatgen
data_Pd(SCl)2
_symmetry_space_group_name_H-M   'P 1'
_cell_length_a   6.29711543
_cell_length_b   6.50311661
_cell_length_c   6.95594818
_cell_angle_alpha   92.71231863
_cell_angle_beta   108.30600467
_cell_angle_gamma   104.94136950
_symmetry_Int_Tables_number   1
_chemical_formula_structural   Pd(SCl)2
_chemical_formula_sum   'Pd2 S4 Cl4'
_cell_volume   258.72450314
_cell_formula_units_Z   2
loop_
 _symmetry_equiv_pos_site_id
 _symmetry_equiv_pos_as_xyz
  1  'x, y, z'
loop_
 _atom_site_type_symbol
 _atom_site_label
 _atom_site_symmetry_multiplicity
 _atom_site_fract_x
 _atom_site_fract_y
 _atom_site_fract_z
 _atom_site_occupancy
  Pd  Pd0  1  0.193395  0.983719  0.353701  1
  Pd  Pd1  1  0.806605  0.016278  0.646295  1
  S  S2  1  0.903540  0.731632  0.078802  1
  S  S3  1  0.320801  0.147512  0.095595  1
  S  S4  1  0.679202  0.852493  0.904429  1
  S  S5  1  0.096465  0.268378  0.921221  1
  Cl  Cl6  1  0.443802  0.764192  0.360716  1
  Cl  Cl7  1  0.959038  0.206926  0.378547  1
  Cl  Cl8  1  0.041003  0.793074  0.621432  1
  Cl  Cl9  1  0.556150  0.235795  0.639260  1
