# generated using pymatgen
data_Zr3ZnTc2
_symmetry_space_group_name_H-M   'P 1'
_cell_length_a   3.33197000
_cell_length_b   3.33197000
_cell_length_c   9.89830200
_cell_angle_alpha   90.00000000
_cell_angle_beta   90.00000000
_cell_angle_gamma   90.00000000
_symmetry_Int_Tables_number   1
_chemical_formula_structural   Zr3ZnTc2
_chemical_formula_sum   'Zr3 Zn1 Tc2'
_cell_volume   109.89118716
_cell_formula_units_Z   1
loop_
 _symmetry_equiv_pos_site_id
 _symmetry_equiv_pos_as_xyz
  1  'x, y, z'
loop_
 _atom_site_type_symbol
 _atom_site_label
 _atom_site_symmetry_multiplicity
 _atom_site_fract_x
 _atom_site_fract_y
 _atom_site_fract_z
 _atom_site_occupancy
  Zr  Zr0  1  0.000000  0.000000  0.000000  1
  Zr  Zr1  1  0.000000  0.000000  0.325664  1
  Zr  Zr2  1  0.000000  0.000000  0.674335  1
  Zn  Zn3  1  0.500001  0.500001  0.500000  1
  Tc  Tc4  1  0.500001  0.500001  0.169254  1
  Tc  Tc5  1  0.500001  0.500001  0.830746  1
