# generated using pymatgen
data_Cs3VSeO3
_symmetry_space_group_name_H-M   'P 1'
_cell_length_a   6.49630400
_cell_length_b   7.36519712
_cell_length_c   9.89013655
_cell_angle_alpha   102.25054106
_cell_angle_beta   90.00000000
_cell_angle_gamma   90.00000000
_symmetry_Int_Tables_number   1
_chemical_formula_structural   Cs3VSeO3
_chemical_formula_sum   'Cs6 V2 Se2 O6'
_cell_volume   462.43361300
_cell_formula_units_Z   2
loop_
 _symmetry_equiv_pos_site_id
 _symmetry_equiv_pos_as_xyz
  1  'x, y, z'
loop_
 _atom_site_type_symbol
 _atom_site_label
 _atom_site_symmetry_multiplicity
 _atom_site_fract_x
 _atom_site_fract_y
 _atom_site_fract_z
 _atom_site_occupancy
  Cs  Cs0  1  0.250001  0.766668  0.997323  1
  Cs  Cs1  1  0.750001  0.772258  0.262711  1
  Cs  Cs2  1  0.750001  0.315227  0.467039  1
  Cs  Cs3  1  0.250001  0.684787  0.532959  1
  Cs  Cs4  1  0.250001  0.227754  0.737288  1
  Cs  Cs5  1  0.750001  0.233335  0.002691  1
  V  V6  1  0.250001  0.312546  0.208356  1
  V  V7  1  0.750001  0.687463  0.791645  1
  Se  Se8  1  0.250001  0.079612  0.347417  1
  Se  Se9  1  0.750001  0.920394  0.652577  1
  O  O10  1  0.250001  0.202933  0.035644  1
  O  O11  1  0.031780  0.446235  0.249747  1
  O  O12  1  0.468221  0.446235  0.249747  1
  O  O13  1  0.531776  0.553750  0.750258  1
  O  O14  1  0.968226  0.553750  0.750258  1
  O  O15  1  0.750001  0.797046  0.964345  1
