# generated using pymatgen
data_Ho8Tm2Ga3Bi2Ir
_symmetry_space_group_name_H-M   'P 1'
_cell_length_a   8.61080349
_cell_length_b   8.61080231
_cell_length_c   8.73784338
_cell_angle_alpha   124.95625598
_cell_angle_beta   124.95625602
_cell_angle_gamma   80.63008930
_symmetry_Int_Tables_number   1
_chemical_formula_structural   Ho8Tm2Ga3Bi2Ir
_chemical_formula_sum   'Ho8 Tm2 Ga3 Bi2 Ir1'
_cell_volume   421.78583157
_cell_formula_units_Z   1
loop_
 _symmetry_equiv_pos_site_id
 _symmetry_equiv_pos_as_xyz
  1  'x, y, z'
loop_
 _atom_site_type_symbol
 _atom_site_label
 _atom_site_symmetry_multiplicity
 _atom_site_fract_x
 _atom_site_fract_y
 _atom_site_fract_z
 _atom_site_occupancy
  Ho  Ho0  1  0.016163  0.500663  0.798612  1
  Ho  Ho1  1  0.717551  0.202050  0.201388  1
  Ho  Ho2  1  0.516187  0.705719  0.500000  1
  Ho  Ho3  1  0.195137  0.039150  0.500000  1
  Ho  Ho4  1  0.999337  0.483837  0.201388  1
  Ho  Ho5  1  0.297950  0.782449  0.798612  1
  Ho  Ho6  1  0.460850  0.304863  0.500000  1
  Ho  Ho7  1  0.794281  0.983813  0.500000  1
  Tm  Tm8  1  0.999701  0.999872  0.999573  1
  Tm  Tm9  1  0.500128  0.500299  0.000427  1
  Ga  Ga10  1  0.356892  0.855154  0.212045  1
  Ga  Ga11  1  0.644846  0.143108  0.787955  1
  Ga  Ga12  1  0.863817  0.636183  0.500000  1
  Bi  Bi13  1  0.755488  0.744512  0.000000  1
  Bi  Bi14  1  0.255488  0.244512  0.000000  1
  Ir  Ir15  1  0.126189  0.373811  0.500000  1
