# generated using pymatgen
data_Tb6Fe3Co13(NiP6)2
_symmetry_space_group_name_H-M   'P 1'
_cell_length_a   3.71989900
_cell_length_b   10.54048400
_cell_length_c   12.21349700
_cell_angle_alpha   90.00000000
_cell_angle_beta   90.00000000
_cell_angle_gamma   90.00000000
_symmetry_Int_Tables_number   1
_chemical_formula_structural   Tb6Fe3Co13(NiP6)2
_chemical_formula_sum   'Tb6 Fe3 Co13 Ni2 P12'
_cell_volume   478.88554898
_cell_formula_units_Z   1
loop_
 _symmetry_equiv_pos_site_id
 _symmetry_equiv_pos_as_xyz
  1  'x, y, z'
loop_
 _atom_site_type_symbol
 _atom_site_label
 _atom_site_symmetry_multiplicity
 _atom_site_fract_x
 _atom_site_fract_y
 _atom_site_fract_z
 _atom_site_occupancy
  Tb  Tb0  1  0.000000  0.500000  0.518435  1
  Tb  Tb1  1  0.500000  0.000000  0.481023  1
  Tb  Tb2  1  0.500000  0.815565  0.204504  1
  Tb  Tb3  1  0.500000  0.184435  0.204504  1
  Tb  Tb4  1  0.000000  0.683358  0.796154  1
  Tb  Tb5  1  0.000000  0.316642  0.796154  1
  Fe  Fe6  1  0.500000  0.500000  0.154194  1
  Fe  Fe7  1  0.000000  0.000000  0.844038  1
  Fe  Fe8  1  0.000000  0.500000  0.987525  1
  Co  Co9  1  0.500000  0.000000  0.014501  1
  Co  Co10  1  0.500000  0.331160  0.994316  1
  Co  Co11  1  0.500000  0.668840  0.994316  1
  Co  Co12  1  0.000000  0.165921  0.005343  1
  Co  Co13  1  0.000000  0.834079  0.005343  1
  Co  Co14  1  0.500000  0.297840  0.430770  1
  Co  Co15  1  0.500000  0.702160  0.430770  1
  Co  Co16  1  0.000000  0.202498  0.569611  1
  Co  Co17  1  0.000000  0.797502  0.569611  1
  Co  Co18  1  0.500000  0.879104  0.710154  1
  Co  Co19  1  0.500000  0.120896  0.710154  1
  Co  Co20  1  0.000000  0.621134  0.289299  1
  Co  Co21  1  0.000000  0.378866  0.289299  1
  Ni  Ni22  1  0.500000  0.500000  0.702241  1
  Ni  Ni23  1  0.000000  0.000000  0.298209  1
  P  P24  1  0.500000  0.500000  0.885924  1
  P  P25  1  0.000000  0.000000  0.116670  1
  P  P26  1  0.500000  0.500000  0.339612  1
  P  P27  1  0.000000  0.000000  0.659263  1
  P  P28  1  0.500000  0.308851  0.615319  1
  P  P29  1  0.500000  0.691149  0.615319  1
  P  P30  1  0.000000  0.191380  0.384932  1
  P  P31  1  0.000000  0.808620  0.384932  1
  P  P32  1  0.500000  0.848269  0.893557  1
  P  P33  1  0.500000  0.151731  0.893557  1
  P  P34  1  0.000000  0.652430  0.105223  1
  P  P35  1  0.000000  0.347570  0.105223  1
