# generated using pymatgen
data_Er2Bi4(TeO6)3
_symmetry_space_group_name_H-M   'P 1'
_cell_length_a   9.23289600
_cell_length_b   9.22422596
_cell_length_c   5.33140800
_cell_angle_alpha   90.83832042
_cell_angle_beta   90.00000000
_cell_angle_gamma   120.03111155
_symmetry_Int_Tables_number   1
_chemical_formula_structural   Er2Bi4(TeO6)3
_chemical_formula_sum   'Er2 Bi4 Te3 O18'
_cell_volume   393.04489970
_cell_formula_units_Z   1
loop_
 _symmetry_equiv_pos_site_id
 _symmetry_equiv_pos_as_xyz
  1  'x, y, z'
loop_
 _atom_site_type_symbol
 _atom_site_label
 _atom_site_symmetry_multiplicity
 _atom_site_fract_x
 _atom_site_fract_y
 _atom_site_fract_z
 _atom_site_occupancy
  Er  Er0  1  0.000732  0.285642  0.501903  1
  Er  Er1  1  0.715092  0.714358  0.498097  1
  Bi  Bi2  1  0.621892  0.000000  0.000000  1
  Bi  Bi3  1  0.997027  0.616476  0.000193  1
  Bi  Bi4  1  0.380551  0.383524  0.999807  1
  Bi  Bi5  1  0.279009  0.000000  0.500000  1
  Te  Te6  1  0.997369  0.000000  0.000000  1
  Te  Te7  1  0.334887  0.665797  0.493334  1
  Te  Te8  1  0.669092  0.334203  0.506666  1
  O  O9  1  0.071275  0.869535  0.806336  1
  O  O10  1  0.109947  0.187876  0.773077  1
  O  O11  1  0.794186  0.908932  0.797055  1
  O  O12  1  0.201739  0.130465  0.193664  1
  O  O13  1  0.922070  0.812124  0.226923  1
  O  O14  1  0.885252  0.091068  0.202945  1
  O  O15  1  0.464059  0.600913  0.700667  1
  O  O16  1  0.404995  0.866715  0.699968  1
  O  O17  1  0.137211  0.540990  0.704174  1
  O  O18  1  0.863146  0.399087  0.299333  1
  O  O19  1  0.538278  0.133285  0.300032  1
  O  O20  1  0.596220  0.459010  0.295826  1
  O  O21  1  0.231507  0.758954  0.275461  1
  O  O22  1  0.232600  0.459566  0.291400  1
  O  O23  1  0.536813  0.767354  0.283426  1
  O  O24  1  0.472552  0.241046  0.724539  1
  O  O25  1  0.773036  0.540434  0.708600  1
  O  O26  1  0.769459  0.232646  0.716574  1
