# generated using pymatgen
data_LaSmIrO6
_symmetry_space_group_name_H-M   'P 1'
_cell_length_a   5.45328900
_cell_length_b   9.37819800
_cell_length_c   10.10081400
_cell_angle_alpha   90.00000000
_cell_angle_beta   90.00000000
_cell_angle_gamma   90.00000000
_symmetry_Int_Tables_number   1
_chemical_formula_structural   LaSmIrO6
_chemical_formula_sum   'La4 Sm4 Ir4 O24'
_cell_volume   516.57607194
_cell_formula_units_Z   4
loop_
 _symmetry_equiv_pos_site_id
 _symmetry_equiv_pos_as_xyz
  1  'x, y, z'
loop_
 _atom_site_type_symbol
 _atom_site_label
 _atom_site_symmetry_multiplicity
 _atom_site_fract_x
 _atom_site_fract_y
 _atom_site_fract_z
 _atom_site_occupancy
  La  La0  1  0.533729  0.221491  0.361552  1
  La  La1  1  0.033729  0.278509  0.638448  1
  La  La2  1  0.466271  0.721491  0.138448  1
  La  La3  1  0.966271  0.778509  0.861552  1
  Sm  Sm4  1  0.523345  0.101215  0.960081  1
  Sm  Sm5  1  0.023345  0.398785  0.039919  1
  Sm  Sm6  1  0.476655  0.601215  0.539919  1
  Sm  Sm7  1  0.976655  0.898785  0.460081  1
  Ir  Ir8  1  0.460907  0.993674  0.640416  1
  Ir  Ir9  1  0.960907  0.506326  0.359584  1
  Ir  Ir10  1  0.539093  0.493674  0.859584  1
  Ir  Ir11  1  0.039093  0.006326  0.140416  1
  O  O12  1  0.314926  0.133449  0.173532  1
  O  O13  1  0.814926  0.366551  0.826468  1
  O  O14  1  0.685074  0.633449  0.326468  1
  O  O15  1  0.185074  0.866551  0.673532  1
  O  O16  1  0.730840  0.107463  0.564377  1
  O  O17  1  0.230840  0.392537  0.435623  1
  O  O18  1  0.269160  0.607463  0.935623  1
  O  O19  1  0.769160  0.892537  0.064377  1
  O  O20  1  0.671119  0.637710  0.742481  1
  O  O21  1  0.171119  0.862290  0.257519  1
  O  O22  1  0.328881  0.137710  0.757519  1
  O  O23  1  0.828881  0.362290  0.242481  1
  O  O24  1  0.661810  0.943218  0.788316  1
  O  O25  1  0.161810  0.556782  0.211684  1
  O  O26  1  0.338190  0.443218  0.711684  1
  O  O27  1  0.838190  0.056782  0.288316  1
  O  O28  1  0.253975  0.082955  0.500717  1
  O  O29  1  0.753975  0.417045  0.499283  1
  O  O30  1  0.746025  0.582955  0.999283  1
  O  O31  1  0.246025  0.917045  0.000717  1
  O  O32  1  0.082296  0.656621  0.476042  1
  O  O33  1  0.582296  0.843379  0.523958  1
  O  O34  1  0.917704  0.156621  0.023958  1
  O  O35  1  0.417704  0.343379  0.976042  1
