# generated using pymatgen
data_Tb2Be2Cd(SiO5)2
_symmetry_space_group_name_H-M   'P 1'
_cell_length_a   7.58569600
_cell_length_b   4.87830795
_cell_length_c   10.19208699
_cell_angle_alpha   88.75305767
_cell_angle_beta   90.00000000
_cell_angle_gamma   90.00000000
_symmetry_Int_Tables_number   1
_chemical_formula_structural   Tb2Be2Cd(SiO5)2
_chemical_formula_sum   'Tb4 Be4 Cd2 Si4 O20'
_cell_volume   377.07254373
_cell_formula_units_Z   2
loop_
 _symmetry_equiv_pos_site_id
 _symmetry_equiv_pos_as_xyz
  1  'x, y, z'
loop_
 _atom_site_type_symbol
 _atom_site_label
 _atom_site_symmetry_multiplicity
 _atom_site_fract_x
 _atom_site_fract_y
 _atom_site_fract_z
 _atom_site_occupancy
  Tb  Tb0  1  0.600894  0.007458  0.830190  1
  Tb  Tb1  1  0.100894  0.992542  0.669810  1
  Tb  Tb2  1  0.399106  0.992542  0.169810  1
  Tb  Tb3  1  0.899106  0.007458  0.330190  1
  Be  Be4  1  0.908505  0.527545  0.827499  1
  Be  Be5  1  0.408505  0.472455  0.672501  1
  Be  Be6  1  0.091495  0.472455  0.172501  1
  Be  Be7  1  0.591495  0.527545  0.327499  1
  Cd  Cd8  1  0.000000  0.000000  0.000000  1
  Cd  Cd9  1  0.500000  0.000000  0.500000  1
  Si  Si10  1  0.779341  0.478065  0.575610  1
  Si  Si11  1  0.279341  0.521935  0.924390  1
  Si  Si12  1  0.220659  0.521935  0.424390  1
  Si  Si13  1  0.720659  0.478065  0.075610  1
  O  O14  1  0.603600  0.332462  0.645296  1
  O  O15  1  0.103600  0.667538  0.854704  1
  O  O16  1  0.396400  0.667538  0.354704  1
  O  O17  1  0.896400  0.332462  0.145296  1
  O  O18  1  0.403595  0.798089  0.681845  1
  O  O19  1  0.903595  0.201911  0.818155  1
  O  O20  1  0.596405  0.201911  0.318155  1
  O  O21  1  0.222131  0.339819  0.057045  1
  O  O22  1  0.593225  0.228857  0.029475  1
  O  O23  1  0.093225  0.771143  0.470525  1
  O  O24  1  0.852166  0.687210  0.688251  1
  O  O25  1  0.906775  0.228857  0.529475  1
  O  O26  1  0.722131  0.660181  0.442955  1
  O  O27  1  0.406775  0.771143  0.970525  1
  O  O28  1  0.277869  0.339819  0.557045  1
  O  O29  1  0.777869  0.660181  0.942955  1
  O  O30  1  0.647834  0.687210  0.188251  1
  O  O31  1  0.147834  0.312790  0.311749  1
  O  O32  1  0.352166  0.312790  0.811749  1
  O  O33  1  0.096405  0.798089  0.181845  1
