# generated using pymatgen
data_HoTh2In3Ir2Pt
_symmetry_space_group_name_H-M   'P 1'
_cell_length_a   7.67021938
_cell_length_b   7.55113718
_cell_length_c   4.04086900
_cell_angle_alpha   90.00000000
_cell_angle_beta   90.00000000
_cell_angle_gamma   119.48773247
_symmetry_Int_Tables_number   1
_chemical_formula_structural   HoTh2In3Ir2Pt
_chemical_formula_sum   'Ho1 Th2 In3 Ir2 Pt1'
_cell_volume   203.72498249
_cell_formula_units_Z   1
loop_
 _symmetry_equiv_pos_site_id
 _symmetry_equiv_pos_as_xyz
  1  'x, y, z'
loop_
 _atom_site_type_symbol
 _atom_site_label
 _atom_site_symmetry_multiplicity
 _atom_site_fract_x
 _atom_site_fract_y
 _atom_site_fract_z
 _atom_site_occupancy
  Ho  Ho0  1  0.000000  0.407158  0.000000  1
  Th  Th1  1  0.585123  0.586268  0.000000  1
  Th  Th2  1  0.414877  0.001146  0.000000  1
  In  In3  1  0.000000  0.733044  0.500000  1
  In  In4  1  0.240171  0.254204  0.500000  1
  In  In5  1  0.759829  0.014033  0.500000  1
  Ir  Ir6  1  0.648518  0.330472  0.500000  1
  Ir  Ir7  1  0.351482  0.681956  0.500000  1
  Pt  Pt8  1  0.000000  0.991719  0.000000  1
