# generated using pymatgen
data_Yb2Y2Ni13C4
_symmetry_space_group_name_H-M   'P 1'
_cell_length_a   8.32184937
_cell_length_b   8.32184921
_cell_length_c   3.85162500
_cell_angle_alpha   90.00000000
_cell_angle_beta   90.00000000
_cell_angle_gamma   91.10637278
_symmetry_Int_Tables_number   1
_chemical_formula_structural   Yb2Y2Ni13C4
_chemical_formula_sum   'Yb2 Y2 Ni13 C4'
_cell_volume   266.68753483
_cell_formula_units_Z   1
loop_
 _symmetry_equiv_pos_site_id
 _symmetry_equiv_pos_as_xyz
  1  'x, y, z'
loop_
 _atom_site_type_symbol
 _atom_site_label
 _atom_site_symmetry_multiplicity
 _atom_site_fract_x
 _atom_site_fract_y
 _atom_site_fract_z
 _atom_site_occupancy
  Yb  Yb0  1  0.808389  0.191611  0.500000  1
  Yb  Yb1  1  0.191611  0.808389  0.500000  1
  Y  Y2  1  0.347123  0.347123  0.500000  1
  Y  Y3  1  0.652877  0.652877  0.500000  1
  Ni  Ni4  1  0.000000  0.000000  0.000000  1
  Ni  Ni5  1  0.215051  0.570944  0.000000  1
  Ni  Ni6  1  0.784949  0.429056  0.000000  1
  Ni  Ni7  1  0.429056  0.784949  0.000000  1
  Ni  Ni8  1  0.570944  0.215051  0.000000  1
  Ni  Ni9  1  0.000000  0.500000  0.500000  1
  Ni  Ni10  1  0.500000  0.000000  0.500000  1
  Ni  Ni11  1  0.073342  0.289222  0.000000  1
  Ni  Ni12  1  0.926658  0.710778  0.000000  1
  Ni  Ni13  1  0.710778  0.926658  0.000000  1
  Ni  Ni14  1  0.289222  0.073342  0.000000  1
  Ni  Ni15  1  0.117347  0.117347  0.500000  1
  Ni  Ni16  1  0.882653  0.882653  0.500000  1
  C  C17  1  0.000000  0.500000  0.000000  1
  C  C18  1  0.500000  0.000000  0.000000  1
  C  C19  1  0.442640  0.557360  0.000000  1
  C  C20  1  0.557360  0.442640  0.000000  1
