# generated using pymatgen
data_Cr2PO4F
_symmetry_space_group_name_H-M   'P 1'
_cell_length_a   7.40568205
_cell_length_b   7.40568202
_cell_length_c   10.48946159
_cell_angle_alpha   63.67512333
_cell_angle_beta   63.67512453
_cell_angle_gamma   52.00010174
_symmetry_Int_Tables_number   1
_chemical_formula_structural   Cr2PO4F
_chemical_formula_sum   'Cr8 P4 O16 F4'
_cell_volume   394.31030195
_cell_formula_units_Z   4
loop_
 _symmetry_equiv_pos_site_id
 _symmetry_equiv_pos_as_xyz
  1  'x, y, z'
loop_
 _atom_site_type_symbol
 _atom_site_label
 _atom_site_symmetry_multiplicity
 _atom_site_fract_x
 _atom_site_fract_y
 _atom_site_fract_z
 _atom_site_occupancy
  Cr  Cr0  1  0.266360  0.042322  0.651260  1
  Cr  Cr1  1  0.042322  0.266360  0.151260  1
  Cr  Cr2  1  0.733640  0.957678  0.348740  1
  Cr  Cr3  1  0.957678  0.733640  0.848740  1
  Cr  Cr4  1  0.672359  0.203304  0.001213  1
  Cr  Cr5  1  0.796696  0.327641  0.498787  1
  Cr  Cr6  1  0.327641  0.796696  0.998787  1
  Cr  Cr7  1  0.203304  0.672359  0.501213  1
  P  P8  1  0.224362  0.430414  0.301892  1
  P  P9  1  0.569586  0.775638  0.198108  1
  P  P10  1  0.775638  0.569586  0.698108  1
  P  P11  1  0.430414  0.224362  0.801892  1
  O  O12  1  0.357292  0.059485  0.811184  1
  O  O13  1  0.642708  0.940515  0.188816  1
  O  O14  1  0.940515  0.642708  0.688816  1
  O  O15  1  0.059485  0.357292  0.311184  1
  O  O16  1  0.070998  0.656634  0.361221  1
  O  O17  1  0.343366  0.929002  0.138779  1
  O  O18  1  0.929002  0.343366  0.638779  1
  O  O19  1  0.656634  0.070998  0.861221  1
  O  O20  1  0.356722  0.482000  0.140522  1
  O  O21  1  0.396946  0.232770  0.401144  1
  O  O22  1  0.643278  0.518000  0.859478  1
  O  O23  1  0.482000  0.356722  0.640522  1
  O  O24  1  0.232770  0.396946  0.901144  1
  O  O25  1  0.603054  0.767230  0.598856  1
  O  O26  1  0.767230  0.603054  0.098856  1
  O  O27  1  0.518000  0.643278  0.359478  1
  F  F28  1  0.141739  0.910733  0.595388  1
  F  F29  1  0.089267  0.858261  0.904612  1
  F  F30  1  0.858261  0.089267  0.404612  1
  F  F31  1  0.910733  0.141739  0.095388  1
