# generated using pymatgen
data_Nd4Cu3Si2Pd25
_symmetry_space_group_name_H-M   'P 1'
_cell_length_a   8.89233656
_cell_length_b   8.89233656
_cell_length_c   7.11144400
_cell_angle_alpha   90.12815293
_cell_angle_beta   90.12815293
_cell_angle_gamma   90.78179959
_symmetry_Int_Tables_number   1
_chemical_formula_structural   Nd4Cu3Si2Pd25
_chemical_formula_sum   'Nd4 Cu3 Si2 Pd25'
_cell_volume   562.27263086
_cell_formula_units_Z   1
loop_
 _symmetry_equiv_pos_site_id
 _symmetry_equiv_pos_as_xyz
  1  'x, y, z'
loop_
 _atom_site_type_symbol
 _atom_site_label
 _atom_site_symmetry_multiplicity
 _atom_site_fract_x
 _atom_site_fract_y
 _atom_site_fract_z
 _atom_site_occupancy
  Nd  Nd0  1  0.502900  0.002900  0.933284  1
  Nd  Nd1  1  0.997100  0.497100  0.066716  1
  Nd  Nd2  1  0.001097  0.998903  0.500000  1
  Nd  Nd3  1  0.498903  0.501097  0.500000  1
  Cu  Cu4  1  0.250000  0.750000  0.000000  1
  Cu  Cu5  1  0.250000  0.250000  0.000000  1
  Cu  Cu6  1  0.750000  0.750000  0.000000  1
  Si  Si7  1  0.500319  0.000319  0.445453  1
  Si  Si8  1  0.999681  0.499681  0.554547  1
  Pd  Pd9  1  0.333152  0.833152  0.618817  1
  Pd  Pd10  1  0.333713  0.164789  0.614359  1
  Pd  Pd11  1  0.664789  0.833713  0.614359  1
  Pd  Pd12  1  0.666757  0.166757  0.618408  1
  Pd  Pd13  1  0.166848  0.666848  0.381183  1
  Pd  Pd14  1  0.166287  0.335211  0.385641  1
  Pd  Pd15  1  0.835211  0.666287  0.385641  1
  Pd  Pd16  1  0.833243  0.333243  0.381592  1
  Pd  Pd17  1  0.497469  0.769488  0.252859  1
  Pd  Pd18  1  0.498210  0.231954  0.254113  1
  Pd  Pd19  1  0.269488  0.997469  0.252859  1
  Pd  Pd20  1  0.731954  0.998210  0.254113  1
  Pd  Pd21  1  0.002531  0.730512  0.747141  1
  Pd  Pd22  1  0.001790  0.268046  0.745887  1
  Pd  Pd23  1  0.230512  0.502531  0.747141  1
  Pd  Pd24  1  0.768046  0.501790  0.745887  1
  Pd  Pd25  1  0.493478  0.347396  0.860706  1
  Pd  Pd26  1  0.499324  0.660368  0.865658  1
  Pd  Pd27  1  0.847396  0.993478  0.860706  1
  Pd  Pd28  1  0.160368  0.999324  0.865658  1
  Pd  Pd29  1  0.006522  0.152604  0.139294  1
  Pd  Pd30  1  0.000676  0.839632  0.134342  1
  Pd  Pd31  1  0.652604  0.506522  0.139294  1
  Pd  Pd32  1  0.339632  0.500676  0.134342  1
  Pd  Pd33  1  0.750000  0.250000  0.000000  1
