# generated using pymatgen
data_PrMgCo6Tc6P7
_symmetry_space_group_name_H-M   'P 1'
_cell_length_a   9.24985600
_cell_length_b   9.24985613
_cell_length_c   3.75888800
_cell_angle_alpha   90.00000000
_cell_angle_beta   90.00000000
_cell_angle_gamma   119.99999240
_symmetry_Int_Tables_number   1
_chemical_formula_structural   PrMgCo6Tc6P7
_chemical_formula_sum   'Pr1 Mg1 Co6 Tc6 P7'
_cell_volume   278.52231745
_cell_formula_units_Z   1
loop_
 _symmetry_equiv_pos_site_id
 _symmetry_equiv_pos_as_xyz
  1  'x, y, z'
loop_
 _atom_site_type_symbol
 _atom_site_label
 _atom_site_symmetry_multiplicity
 _atom_site_fract_x
 _atom_site_fract_y
 _atom_site_fract_z
 _atom_site_occupancy
  Pr  Pr0  1  0.666667  0.333333  0.500000  1
  Mg  Mg1  1  0.333333  0.666667  0.000000  1
  Co  Co2  1  0.424893  0.066239  0.000000  1
  Co  Co3  1  0.933761  0.358652  0.000000  1
  Co  Co4  1  0.641348  0.575107  0.000000  1
  Co  Co5  1  0.145849  0.268394  0.000000  1
  Co  Co6  1  0.731606  0.877455  0.000000  1
  Co  Co7  1  0.122545  0.854151  0.000000  1
  Tc  Tc8  1  0.376157  0.455521  0.500000  1
  Tc  Tc9  1  0.544479  0.920636  0.500000  1
  Tc  Tc10  1  0.079364  0.623843  0.500000  1
  Tc  Tc11  1  0.214239  0.104491  0.500000  1
  Tc  Tc12  1  0.895509  0.109749  0.500000  1
  Tc  Tc13  1  0.890251  0.785761  0.500000  1
  P  P14  1  0.096490  0.384578  0.500000  1
  P  P15  1  0.615422  0.711913  0.500000  1
  P  P16  1  0.288087  0.903510  0.500000  1
  P  P17  1  0.000000  0.000000  0.000000  1
  P  P18  1  0.407151  0.309827  0.000000  1
  P  P19  1  0.690173  0.097324  0.000000  1
  P  P20  1  0.902676  0.592849  0.000000  1
