# generated using pymatgen
data_Ti4Nb5TcN12
_symmetry_space_group_name_H-M   'P 1'
_cell_length_a   5.17364600
_cell_length_b   5.16437303
_cell_length_c   10.22483700
_cell_angle_alpha   90.00000000
_cell_angle_beta   90.00000000
_cell_angle_gamma   120.05944026
_symmetry_Int_Tables_number   1
_chemical_formula_structural   Ti4Nb5TcN12
_chemical_formula_sum   'Ti4 Nb5 Tc1 N12'
_cell_volume   236.45086246
_cell_formula_units_Z   1
loop_
 _symmetry_equiv_pos_site_id
 _symmetry_equiv_pos_as_xyz
  1  'x, y, z'
loop_
 _atom_site_type_symbol
 _atom_site_label
 _atom_site_symmetry_multiplicity
 _atom_site_fract_x
 _atom_site_fract_y
 _atom_site_fract_z
 _atom_site_occupancy
  Ti  Ti0  1  0.334436  0.666702  0.495620  1
  Ti  Ti1  1  0.667735  0.333298  0.004380  1
  Ti  Ti2  1  0.667735  0.333298  0.495620  1
  Ti  Ti3  1  0.334436  0.666702  0.004380  1
  Nb  Nb4  1  0.677008  0.676821  0.250000  1
  Nb  Nb5  1  0.000187  0.323179  0.250000  1
  Nb  Nb6  1  0.997754  0.674608  0.750000  1
  Nb  Nb7  1  0.323147  0.325392  0.750000  1
  Nb  Nb8  1  0.322894  0.000000  0.250000  1
  Tc  Tc9  1  0.674687  0.000000  0.750000  1
  N  N10  1  0.345229  0.344867  0.381768  1
  N  N11  1  0.654639  0.000000  0.382583  1
  N  N12  1  0.000362  0.655133  0.381768  1
  N  N13  1  0.997690  0.344674  0.877769  1
  N  N14  1  0.654639  0.000000  0.117417  1
  N  N15  1  0.653017  0.655326  0.877769  1
  N  N16  1  0.349054  0.000000  0.877532  1
  N  N17  1  0.653017  0.655326  0.622231  1
  N  N18  1  0.997690  0.344674  0.622231  1
  N  N19  1  0.000362  0.655133  0.118232  1
  N  N20  1  0.349054  0.000000  0.622468  1
  N  N21  1  0.345229  0.344867  0.118232  1
