# generated using pymatgen
data_LiDy7Ho9In3Ir4
_symmetry_space_group_name_H-M   'P 1'
_cell_length_a   9.65085613
_cell_length_b   9.65085610
_cell_length_c   9.64971706
_cell_angle_alpha   59.86086056
_cell_angle_beta   59.86086169
_cell_angle_gamma   59.88149766
_symmetry_Int_Tables_number   1
_chemical_formula_structural   LiDy7Ho9In3Ir4
_chemical_formula_sum   'Li1 Dy7 Ho9 In3 Ir4'
_cell_volume   633.61563089
_cell_formula_units_Z   1
loop_
 _symmetry_equiv_pos_site_id
 _symmetry_equiv_pos_as_xyz
  1  'x, y, z'
loop_
 _atom_site_type_symbol
 _atom_site_label
 _atom_site_symmetry_multiplicity
 _atom_site_fract_x
 _atom_site_fract_y
 _atom_site_fract_z
 _atom_site_occupancy
  Li  Li0  1  0.821372  0.821372  0.821457  1
  Dy  Dy1  1  0.061963  0.061963  0.437133  1
  Dy  Dy2  1  0.189257  0.811028  0.811240  1
  Dy  Dy3  1  0.810054  0.189704  0.189584  1
  Dy  Dy4  1  0.811028  0.189257  0.811240  1
  Dy  Dy5  1  0.189704  0.810054  0.189584  1
  Dy  Dy6  1  0.811104  0.811104  0.189231  1
  Dy  Dy7  1  0.189638  0.189638  0.810156  1
  Ho  Ho8  1  0.599407  0.599407  0.599431  1
  Ho  Ho9  1  0.598564  0.598564  0.205013  1
  Ho  Ho10  1  0.598341  0.205072  0.598643  1
  Ho  Ho11  1  0.205072  0.598341  0.598643  1
  Ho  Ho12  1  0.058588  0.441937  0.441742  1
  Ho  Ho13  1  0.437145  0.062083  0.061864  1
  Ho  Ho14  1  0.441937  0.058588  0.441742  1
  Ho  Ho15  1  0.062083  0.437145  0.061864  1
  Ho  Ho16  1  0.441753  0.441753  0.058573  1
  In  In17  1  0.832828  0.832828  0.504372  1
  In  In18  1  0.832889  0.504342  0.832869  1
  In  In19  1  0.504342  0.832889  0.832869  1
  Ir  Ir20  1  0.392058  0.392058  0.392104  1
  Ir  Ir21  1  0.392253  0.392253  0.826225  1
  Ir  Ir22  1  0.392642  0.825979  0.392210  1
  Ir  Ir23  1  0.825979  0.392642  0.392210  1
