# generated using pymatgen
data_Tb2YbPa(Ga3Ir)6
_symmetry_space_group_name_H-M   'P 1'
_cell_length_a   7.61119519
_cell_length_b   7.60445099
_cell_length_c   9.48690100
_cell_angle_alpha   90.00000000
_cell_angle_beta   90.00000000
_cell_angle_gamma   119.76938118
_symmetry_Int_Tables_number   1
_chemical_formula_structural   Tb2YbPa(Ga3Ir)6
_chemical_formula_sum   'Tb2 Yb1 Pa1 Ga18 Ir6'
_cell_volume   476.62880430
_cell_formula_units_Z   1
loop_
 _symmetry_equiv_pos_site_id
 _symmetry_equiv_pos_as_xyz
  1  'x, y, z'
loop_
 _atom_site_type_symbol
 _atom_site_label
 _atom_site_symmetry_multiplicity
 _atom_site_fract_x
 _atom_site_fract_y
 _atom_site_fract_z
 _atom_site_occupancy
  Tb  Tb0  1  0.002082  0.331508  0.750000  1
  Tb  Tb1  1  0.330677  0.002608  0.750000  1
  Yb  Yb2  1  0.670319  0.996947  0.250000  1
  Pa  Pa3  1  0.998869  0.669810  0.250000  1
  Ga  Ga4  1  0.130349  0.129158  0.250000  1
  Ga  Ga5  1  0.871605  0.874561  0.750000  1
  Ga  Ga6  1  0.997065  0.328517  0.080747  1
  Ga  Ga7  1  0.000296  0.665361  0.916877  1
  Ga  Ga8  1  0.000296  0.665361  0.583123  1
  Ga  Ga9  1  0.341312  0.003528  0.419337  1
  Ga  Ga10  1  0.997065  0.328517  0.419253  1
  Ga  Ga11  1  0.665331  0.000387  0.577683  1
  Ga  Ga12  1  0.665331  0.000387  0.922317  1
  Ga  Ga13  1  0.341312  0.003528  0.080663  1
  Ga  Ga14  1  0.331354  0.331631  0.565809  1
  Ga  Ga15  1  0.663867  0.669108  0.434435  1
  Ga  Ga16  1  0.663867  0.669108  0.065565  1
  Ga  Ga17  1  0.331354  0.331631  0.934191  1
  Ga  Ga18  1  0.337711  0.544449  0.250000  1
  Ga  Ga19  1  0.660801  0.453487  0.750000  1
  Ga  Ga20  1  0.546391  0.341004  0.250000  1
  Ga  Ga21  1  0.453406  0.663234  0.750000  1
  Ir  Ir22  1  0.674258  0.332423  0.001150  1
  Ir  Ir23  1  0.324690  0.669862  0.001822  1
  Ir  Ir24  1  0.324690  0.669862  0.498178  1
  Ir  Ir25  1  0.674258  0.332423  0.498850  1
  Ir  Ir26  1  0.000721  0.995799  0.002588  1
  Ir  Ir27  1  0.000721  0.995799  0.497412  1
