# generated using pymatgen
data_HoPa3(Co5P3)4
_symmetry_space_group_name_H-M   'P 1'
_cell_length_a   3.67325300
_cell_length_b   10.33233000
_cell_length_c   11.65956200
_cell_angle_alpha   89.99820794
_cell_angle_beta   90.00000000
_cell_angle_gamma   90.00000000
_symmetry_Int_Tables_number   1
_chemical_formula_structural   HoPa3(Co5P3)4
_chemical_formula_sum   'Ho1 Pa3 Co20 P12'
_cell_volume   442.51841326
_cell_formula_units_Z   1
loop_
 _symmetry_equiv_pos_site_id
 _symmetry_equiv_pos_as_xyz
  1  'x, y, z'
loop_
 _atom_site_type_symbol
 _atom_site_label
 _atom_site_symmetry_multiplicity
 _atom_site_fract_x
 _atom_site_fract_y
 _atom_site_fract_z
 _atom_site_occupancy
  Ho  Ho0  1  0.750000  0.083829  0.798203  1
  Pa  Pa1  1  0.250000  0.583344  0.701541  1
  Pa  Pa2  1  0.250000  0.916777  0.202501  1
  Pa  Pa3  1  0.750000  0.416987  0.298094  1
  Co  Co4  1  0.250000  0.716655  0.989481  1
  Co  Co5  1  0.250000  0.785441  0.490494  1
  Co  Co6  1  0.750000  0.284814  0.005581  1
  Co  Co7  1  0.750000  0.215125  0.506523  1
  Co  Co8  1  0.250000  0.409888  0.480594  1
  Co  Co9  1  0.250000  0.092083  0.987650  1
  Co  Co10  1  0.750000  0.591795  0.519907  1
  Co  Co11  1  0.750000  0.907735  0.018665  1
  Co  Co12  1  0.250000  0.220875  0.179463  1
  Co  Co13  1  0.250000  0.280486  0.676316  1
  Co  Co14  1  0.750000  0.779984  0.823539  1
  Co  Co15  1  0.750000  0.720039  0.321533  1
  Co  Co16  1  0.250000  0.882629  0.698528  1
  Co  Co17  1  0.250000  0.615581  0.198457  1
  Co  Co18  1  0.750000  0.113920  0.300872  1
  Co  Co19  1  0.750000  0.386092  0.800269  1
  Co  Co20  1  0.250000  0.469209  0.929264  1
  Co  Co21  1  0.250000  0.028109  0.430838  1
  Co  Co22  1  0.750000  0.527025  0.069685  1
  Co  Co23  1  0.750000  0.972754  0.569794  1
  P  P24  1  0.250000  0.414990  0.110160  1
  P  P25  1  0.250000  0.083456  0.613564  1
  P  P26  1  0.750000  0.584616  0.889557  1
  P  P27  1  0.750000  0.914498  0.391360  1
  P  P28  1  0.250000  0.270830  0.870195  1
  P  P29  1  0.250000  0.223773  0.372692  1
  P  P30  1  0.750000  0.723722  0.127407  1
  P  P31  1  0.750000  0.777545  0.629309  1
  P  P32  1  0.250000  0.607413  0.391488  1
  P  P33  1  0.250000  0.899106  0.890918  1
  P  P34  1  0.750000  0.392122  0.608192  1
  P  P35  1  0.750000  0.106751  0.107365  1
