# generated using pymatgen
data_Cs2KHoBr6
_symmetry_space_group_name_H-M   'P 1'
_cell_length_a   8.41219396
_cell_length_b   8.41219333
_cell_length_c   8.41219300
_cell_angle_alpha   121.27239976
_cell_angle_beta   121.27240046
_cell_angle_gamma   87.80991725
_symmetry_Int_Tables_number   1
_chemical_formula_structural   Cs2KHoBr6
_chemical_formula_sum   'Cs2 K1 Ho1 Br6'
_cell_volume   412.50993674
_cell_formula_units_Z   1
loop_
 _symmetry_equiv_pos_site_id
 _symmetry_equiv_pos_as_xyz
  1  'x, y, z'
loop_
 _atom_site_type_symbol
 _atom_site_label
 _atom_site_symmetry_multiplicity
 _atom_site_fract_x
 _atom_site_fract_y
 _atom_site_fract_z
 _atom_site_occupancy
  Cs  Cs0  1  0.749999  0.250000  0.500000  1
  Cs  Cs1  1  0.250000  0.749999  0.500000  1
  K  K2  1  0.500000  0.500000  0.000000  1
  Ho  Ho3  1  0.000000  0.000000  0.000000  1
  Br  Br4  1  0.232587  0.232587  0.000000  1
  Br  Br5  1  0.767413  0.767413  0.000000  1
  Br  Br6  1  0.295925  0.833652  0.129577  1
  Br  Br7  1  0.166347  0.295924  0.462271  1
  Br  Br8  1  0.833652  0.704076  0.537728  1
  Br  Br9  1  0.704075  0.166347  0.870422  1
