# generated using pymatgen
data_Pr16Ho4Si15Br
_symmetry_space_group_name_H-M   'P 1'
_cell_length_a   7.91654151
_cell_length_b   7.84546448
_cell_length_c   15.28181500
_cell_angle_alpha   89.63334813
_cell_angle_beta   89.18773981
_cell_angle_gamma   90.38054971
_symmetry_Int_Tables_number   1
_chemical_formula_structural   Pr16Ho4Si15Br
_chemical_formula_sum   'Pr16 Ho4 Si15 Br1'
_cell_volume   949.00108979
_cell_formula_units_Z   1
loop_
 _symmetry_equiv_pos_site_id
 _symmetry_equiv_pos_as_xyz
  1  'x, y, z'
loop_
 _atom_site_type_symbol
 _atom_site_label
 _atom_site_symmetry_multiplicity
 _atom_site_fract_x
 _atom_site_fract_y
 _atom_site_fract_z
 _atom_site_occupancy
  Pr  Pr0  1  0.379503  0.005634  0.442640  1
  Pr  Pr1  1  0.495545  0.865897  0.699293  1
  Pr  Pr2  1  0.510745  0.122136  0.196724  1
  Pr  Pr3  1  0.873408  0.484762  0.300306  1
  Pr  Pr4  1  0.123640  0.519945  0.804496  1
  Pr  Pr5  1  0.634975  0.985222  0.952142  1
  Pr  Pr6  1  0.996962  0.382188  0.544539  1
  Pr  Pr7  1  0.993071  0.623807  0.053471  1
  Pr  Pr8  1  0.140617  0.987479  0.875145  1
  Pr  Pr9  1  0.520863  0.629296  0.126844  1
  Pr  Pr10  1  0.478068  0.369374  0.631451  1
  Pr  Pr11  1  0.635936  0.524187  0.875912  1
  Pr  Pr12  1  0.367269  0.475320  0.374189  1
  Pr  Pr13  1  0.871226  0.021346  0.377457  1
  Pr  Pr14  1  0.982328  0.126493  0.123194  1
  Pr  Pr15  1  0.015572  0.864783  0.619460  1
  Ho  Ho16  1  0.313884  0.310739  0.999380  1
  Ho  Ho17  1  0.186335  0.808593  0.249445  1
  Ho  Ho18  1  0.793467  0.189970  0.753328  1
  Ho  Ho19  1  0.684373  0.687631  0.498265  1
  Si  Si20  1  0.331905  0.694061  0.953069  1
  Si  Si21  1  0.662403  0.308950  0.456032  1
  Si  Si22  1  0.698527  0.333275  0.048309  1
  Si  Si23  1  0.309115  0.668812  0.546636  1
  Si  Si24  1  0.809080  0.829452  0.205575  1
  Si  Si25  1  0.169604  0.188690  0.293857  1
  Si  Si26  1  0.840515  0.811655  0.794446  1
  Si  Si27  1  0.288534  0.924079  0.061573  1
  Si  Si28  1  0.575749  0.783383  0.311867  1
  Si  Si29  1  0.456142  0.209517  0.826580  1
  Si  Si30  1  0.789239  0.574847  0.686125  1
  Si  Si31  1  0.212140  0.425006  0.187715  1
  Si  Si32  1  0.705511  0.073761  0.563191  1
  Si  Si33  1  0.931201  0.290665  0.937966  1
  Si  Si34  1  0.073996  0.711357  0.436576  1
  Br  Br35  1  0.148554  0.187683  0.692799  1
