# generated using pymatgen
data_Y6Zn16PPt7
_symmetry_space_group_name_H-M   'P 1'
_cell_length_a   9.01657388
_cell_length_b   9.01657474
_cell_length_c   9.01657500
_cell_angle_alpha   60.00000271
_cell_angle_beta   59.99999956
_cell_angle_gamma   60.00000710
_symmetry_Int_Tables_number   1
_chemical_formula_structural   Y6Zn16PPt7
_chemical_formula_sum   'Y6 Zn16 P1 Pt7'
_cell_volume   518.33408077
_cell_formula_units_Z   1
loop_
 _symmetry_equiv_pos_site_id
 _symmetry_equiv_pos_as_xyz
  1  'x, y, z'
loop_
 _atom_site_type_symbol
 _atom_site_label
 _atom_site_symmetry_multiplicity
 _atom_site_fract_x
 _atom_site_fract_y
 _atom_site_fract_z
 _atom_site_occupancy
  Y  Y0  1  0.715426  0.284573  0.284600  1
  Y  Y1  1  0.715430  0.284569  0.715406  1
  Y  Y2  1  0.715425  0.715433  0.284573  1
  Y  Y3  1  0.284574  0.715427  0.715400  1
  Y  Y4  1  0.284570  0.715431  0.284594  1
  Y  Y5  1  0.284575  0.284567  0.715427  1
  Zn  Zn6  1  0.632014  0.122697  0.122645  1
  Zn  Zn7  1  0.122692  0.632017  0.122646  1
  Zn  Zn8  1  0.122656  0.122658  0.632028  1
  Zn  Zn9  1  0.122654  0.122659  0.122659  1
  Zn  Zn10  1  0.367986  0.877303  0.877355  1
  Zn  Zn11  1  0.877308  0.367983  0.877354  1
  Zn  Zn12  1  0.877344  0.877342  0.367972  1
  Zn  Zn13  1  0.877346  0.877341  0.877341  1
  Zn  Zn14  1  0.002023  0.332651  0.332661  1
  Zn  Zn15  1  0.332648  0.002022  0.332664  1
  Zn  Zn16  1  0.332683  0.332684  0.002027  1
  Zn  Zn17  1  0.332684  0.332684  0.332603  1
  Zn  Zn18  1  0.997977  0.667349  0.667339  1
  Zn  Zn19  1  0.667352  0.997978  0.667336  1
  Zn  Zn20  1  0.667317  0.667316  0.997973  1
  Zn  Zn21  1  0.667316  0.667316  0.667397  1
  P  P22  1  0.500000  0.500000  0.500000  1
  Pt  Pt23  1  0.500000  0.000000  0.000000  1
  Pt  Pt24  1  0.500000  0.000000  0.500000  1
  Pt  Pt25  1  0.500000  0.500000  0.000000  1
  Pt  Pt26  1  0.000000  0.500000  0.500000  1
  Pt  Pt27  1  0.000000  0.500000  0.000000  1
  Pt  Pt28  1  0.000000  0.000000  0.500000  1
  Pt  Pt29  1  0.000000  0.000000  0.000000  1
