# generated using pymatgen
data_Y18Lu2Cd6FeNi
_symmetry_space_group_name_H-M   'P 1'
_cell_length_a   9.61422200
_cell_length_b   9.61422331
_cell_length_c   9.78781800
_cell_angle_alpha   90.00000000
_cell_angle_beta   90.00000000
_cell_angle_gamma   119.99999550
_symmetry_Int_Tables_number   1
_chemical_formula_structural   Y18Lu2Cd6FeNi
_chemical_formula_sum   'Y18 Lu2 Cd6 Fe1 Ni1'
_cell_volume   783.51062092
_cell_formula_units_Z   1
loop_
 _symmetry_equiv_pos_site_id
 _symmetry_equiv_pos_as_xyz
  1  'x, y, z'
loop_
 _atom_site_type_symbol
 _atom_site_label
 _atom_site_symmetry_multiplicity
 _atom_site_fract_x
 _atom_site_fract_y
 _atom_site_fract_z
 _atom_site_occupancy
  Y  Y0  1  0.541804  0.458196  0.250000  1
  Y  Y1  1  0.541804  0.083607  0.250000  1
  Y  Y2  1  0.916393  0.458196  0.250000  1
  Y  Y3  1  0.456687  0.543313  0.750000  1
  Y  Y4  1  0.456687  0.913373  0.750000  1
  Y  Y5  1  0.086627  0.543313  0.750000  1
  Y  Y6  1  0.210631  0.789369  0.435752  1
  Y  Y7  1  0.210631  0.421261  0.435752  1
  Y  Y8  1  0.578739  0.789369  0.435752  1
  Y  Y9  1  0.790608  0.209392  0.562809  1
  Y  Y10  1  0.790608  0.581215  0.562809  1
  Y  Y11  1  0.418785  0.209392  0.562809  1
  Y  Y12  1  0.790608  0.209392  0.937191  1
  Y  Y13  1  0.790608  0.581215  0.937191  1
  Y  Y14  1  0.418785  0.209392  0.937191  1
  Y  Y15  1  0.210631  0.789369  0.064248  1
  Y  Y16  1  0.210631  0.421261  0.064248  1
  Y  Y17  1  0.578739  0.789369  0.064248  1
  Lu  Lu18  1  0.000000  0.000000  0.500031  1
  Lu  Lu19  1  0.000000  0.000000  0.999969  1
  Cd  Cd20  1  0.886375  0.113625  0.250000  1
  Cd  Cd21  1  0.886375  0.772748  0.250000  1
  Cd  Cd22  1  0.227252  0.113625  0.250000  1
  Cd  Cd23  1  0.113766  0.886234  0.750000  1
  Cd  Cd24  1  0.113766  0.227532  0.750000  1
  Cd  Cd25  1  0.772468  0.886234  0.750000  1
  Fe  Fe26  1  0.333333  0.666667  0.250000  1
  Ni  Ni27  1  0.666667  0.333333  0.750000  1
