# generated using pymatgen
data_Li2Tb8Sc10Si15Ge
_symmetry_space_group_name_H-M   'P 1'
_cell_length_a   7.03461594
_cell_length_b   7.42237010
_cell_length_c   14.03888042
_cell_angle_alpha   90.01166266
_cell_angle_beta   89.92429566
_cell_angle_gamma   89.98479056
_symmetry_Int_Tables_number   1
_chemical_formula_structural   Li2Tb8Sc10Si15Ge
_chemical_formula_sum   'Li2 Tb8 Sc10 Si15 Ge1'
_cell_volume   733.01872492
_cell_formula_units_Z   1
loop_
 _symmetry_equiv_pos_site_id
 _symmetry_equiv_pos_as_xyz
  1  'x, y, z'
loop_
 _atom_site_type_symbol
 _atom_site_label
 _atom_site_symmetry_multiplicity
 _atom_site_fract_x
 _atom_site_fract_y
 _atom_site_fract_z
 _atom_site_occupancy
  Li  Li0  1  0.159108  0.503348  0.751000  1
  Li  Li1  1  0.840878  0.496776  0.249965  1
  Tb  Tb2  1  0.010520  0.182574  0.098605  1
  Tb  Tb3  1  0.989609  0.817518  0.901280  1
  Tb  Tb4  1  0.484124  0.674089  0.901841  1
  Tb  Tb5  1  0.989208  0.818657  0.598785  1
  Tb  Tb6  1  0.515738  0.325871  0.098067  1
  Tb  Tb7  1  0.009429  0.181958  0.400754  1
  Tb  Tb8  1  0.516475  0.324690  0.400935  1
  Tb  Tb9  1  0.486740  0.675846  0.598509  1
  Sc  Sc10  1  0.339929  0.001754  0.249886  1
  Sc  Sc11  1  0.660138  0.998111  0.750296  1
  Sc  Sc12  1  0.329454  0.179426  0.626726  1
  Sc  Sc13  1  0.671951  0.818687  0.373746  1
  Sc  Sc14  1  0.165132  0.675005  0.372999  1
  Sc  Sc15  1  0.672655  0.817870  0.125552  1
  Sc  Sc16  1  0.832250  0.325538  0.626580  1
  Sc  Sc17  1  0.327155  0.181873  0.874319  1
  Sc  Sc18  1  0.833541  0.325429  0.873549  1
  Sc  Sc19  1  0.166342  0.674544  0.126348  1
  Si  Si20  1  0.030809  0.106203  0.750147  1
  Si  Si21  1  0.969145  0.894271  0.249519  1
  Si  Si22  1  0.463324  0.615264  0.249834  1
  Si  Si23  1  0.536057  0.384939  0.750212  1
  Si  Si24  1  0.288191  0.883425  0.750226  1
  Si  Si25  1  0.711566  0.115920  0.249585  1
  Si  Si26  1  0.219758  0.374672  0.249936  1
  Si  Si27  1  0.780595  0.625322  0.750140  1
  Si  Si28  1  0.837440  0.540022  0.465631  1
  Si  Si29  1  0.343393  0.966116  0.461142  1
  Si  Si30  1  0.841951  0.538690  0.033682  1
  Si  Si31  1  0.656506  0.034231  0.538487  1
  Si  Si32  1  0.158094  0.461215  0.966262  1
  Si  Si33  1  0.655765  0.033543  0.961132  1
  Si  Si34  1  0.344255  0.966410  0.038840  1
  Ge  Ge35  1  0.162770  0.460191  0.535481  1
