# generated using pymatgen
data_HfMgGa5Fe6
_symmetry_space_group_name_H-M   'P 1'
_cell_length_a   5.01569680
_cell_length_b   6.54046816
_cell_length_c   6.54046815
_cell_angle_alpha   79.96100434
_cell_angle_beta   67.45335705
_cell_angle_gamma   67.45335756
_symmetry_Int_Tables_number   1
_chemical_formula_structural   HfMgGa5Fe6
_chemical_formula_sum   'Hf1 Mg1 Ga5 Fe6'
_cell_volume   182.92115479
_cell_formula_units_Z   1
loop_
 _symmetry_equiv_pos_site_id
 _symmetry_equiv_pos_as_xyz
  1  'x, y, z'
loop_
 _atom_site_type_symbol
 _atom_site_label
 _atom_site_symmetry_multiplicity
 _atom_site_fract_x
 _atom_site_fract_y
 _atom_site_fract_z
 _atom_site_occupancy
  Hf  Hf0  1  0.000000  0.949448  0.050552  1
  Mg  Mg1  1  0.000000  0.612307  0.387693  1
  Ga  Ga2  1  0.000000  0.283987  0.716013  1
  Ga  Ga3  1  0.338336  0.677220  0.646108  1
  Ga  Ga4  1  0.661664  0.353892  0.322780  1
  Ga  Ga5  1  0.327786  0.187679  0.156748  1
  Ga  Ga6  1  0.672214  0.843252  0.812321  1
  Fe  Fe7  1  0.500000  0.259017  0.740983  1
  Fe  Fe8  1  0.500000  0.770238  0.229762  1
  Fe  Fe9  1  0.000373  0.518482  0.987002  1
  Fe  Fe10  1  0.494143  0.518482  0.987002  1
  Fe  Fe11  1  0.999627  0.012998  0.481518  1
  Fe  Fe12  1  0.505857  0.012998  0.481518  1
