# generated using pymatgen
data_Rb3LiRuO4
_symmetry_space_group_name_H-M   'P 1'
_cell_length_a   7.53088656
_cell_length_b   7.53092523
_cell_length_c   6.20263349
_cell_angle_alpha   78.71064548
_cell_angle_beta   78.71250607
_cell_angle_gamma   86.37653838
_symmetry_Int_Tables_number   1
_chemical_formula_structural   Rb3LiRuO4
_chemical_formula_sum   'Rb6 Li2 Ru2 O8'
_cell_volume   338.18703721
_cell_formula_units_Z   2
loop_
 _symmetry_equiv_pos_site_id
 _symmetry_equiv_pos_as_xyz
  1  'x, y, z'
loop_
 _atom_site_type_symbol
 _atom_site_label
 _atom_site_symmetry_multiplicity
 _atom_site_fract_x
 _atom_site_fract_y
 _atom_site_fract_z
 _atom_site_occupancy
  Rb  Rb0  1  0.068653  0.246024  0.026049  1
  Rb  Rb1  1  0.594445  0.405555  0.250000  1
  Rb  Rb2  1  0.246023  0.068654  0.526050  1
  Rb  Rb3  1  0.753977  0.931346  0.473950  1
  Rb  Rb4  1  0.931347  0.753976  0.973951  1
  Rb  Rb5  1  0.405555  0.594445  0.750000  1
  Li  Li6  1  0.732473  0.267529  0.750002  1
  Li  Li7  1  0.267527  0.732471  0.249998  1
  Ru  Ru8  1  0.500000  0.000000  0.000000  1
  Ru  Ru9  1  0.000000  0.500000  0.500000  1
  O  O10  1  0.197615  0.486896  0.254213  1
  O  O11  1  0.912448  0.272661  0.475964  1
  O  O12  1  0.486898  0.197610  0.754221  1
  O  O13  1  0.272666  0.912452  0.975965  1
  O  O14  1  0.087552  0.727339  0.524036  1
  O  O15  1  0.727334  0.087548  0.024035  1
  O  O16  1  0.513102  0.802390  0.245779  1
  O  O17  1  0.802385  0.513104  0.745787  1
