# generated using pymatgen
data_Pr8Ho11TmSn16
_symmetry_space_group_name_H-M   'P 1'
_cell_length_a   8.10161400
_cell_length_b   8.30050200
_cell_length_c   15.63154900
_cell_angle_alpha   90.00000000
_cell_angle_beta   90.00000000
_cell_angle_gamma   89.96212306
_symmetry_Int_Tables_number   1
_chemical_formula_structural   Pr8Ho11TmSn16
_chemical_formula_sum   'Pr8 Ho11 Tm1 Sn16'
_cell_volume   1051.18178772
_cell_formula_units_Z   1
loop_
 _symmetry_equiv_pos_site_id
 _symmetry_equiv_pos_as_xyz
  1  'x, y, z'
loop_
 _atom_site_type_symbol
 _atom_site_label
 _atom_site_symmetry_multiplicity
 _atom_site_fract_x
 _atom_site_fract_y
 _atom_site_fract_z
 _atom_site_occupancy
  Pr  Pr0  1  0.511326  0.322950  0.903164  1
  Pr  Pr1  1  0.010933  0.178239  0.597276  1
  Pr  Pr2  1  0.489509  0.677886  0.403924  1
  Pr  Pr3  1  0.990199  0.821566  0.096065  1
  Pr  Pr4  1  0.489509  0.677886  0.096076  1
  Pr  Pr5  1  0.990199  0.821566  0.403935  1
  Pr  Pr6  1  0.511326  0.322950  0.596836  1
  Pr  Pr7  1  0.010933  0.178239  0.902724  1
  Ho  Ho8  1  0.355442  0.834869  0.875354  1
  Ho  Ho9  1  0.855509  0.665032  0.623462  1
  Ho  Ho10  1  0.643294  0.164917  0.376696  1
  Ho  Ho11  1  0.144719  0.333880  0.122748  1
  Ho  Ho12  1  0.643294  0.164917  0.123304  1
  Ho  Ho13  1  0.144719  0.333880  0.377252  1
  Ho  Ho14  1  0.355442  0.834869  0.624646  1
  Ho  Ho15  1  0.855509  0.665032  0.876538  1
  Ho  Ho16  1  0.188835  0.502291  0.750000  1
  Ho  Ho17  1  0.688697  0.998217  0.750000  1
  Ho  Ho18  1  0.810893  0.497704  0.250000  1
  Tm  Tm19  1  0.309948  0.001080  0.250000  1
  Sn  Sn20  1  0.308818  0.041257  0.040653  1
  Sn  Sn21  1  0.808435  0.458755  0.458241  1
  Sn  Sn22  1  0.690915  0.959296  0.542216  1
  Sn  Sn23  1  0.191924  0.541427  0.957816  1
  Sn  Sn24  1  0.690915  0.959296  0.957784  1
  Sn  Sn25  1  0.191924  0.541427  0.542184  1
  Sn  Sn26  1  0.308818  0.041257  0.459347  1
  Sn  Sn27  1  0.808435  0.458755  0.041759  1
  Sn  Sn28  1  0.554699  0.623936  0.750000  1
  Sn  Sn29  1  0.053521  0.875705  0.750000  1
  Sn  Sn30  1  0.445069  0.375672  0.250000  1
  Sn  Sn31  1  0.945241  0.125809  0.250000  1
  Sn  Sn32  1  0.319366  0.142893  0.750000  1
  Sn  Sn33  1  0.819302  0.358709  0.750000  1
  Sn  Sn34  1  0.682195  0.857653  0.250000  1
  Sn  Sn35  1  0.180183  0.640180  0.250000  1
