# generated using pymatgen
data_TbZr5(Ni3As2)6
_symmetry_space_group_name_H-M   'P 1'
_cell_length_a   3.81079400
_cell_length_b   10.77098000
_cell_length_c   12.63779200
_cell_angle_alpha   90.00000000
_cell_angle_beta   90.00000000
_cell_angle_gamma   90.00000000
_symmetry_Int_Tables_number   1
_chemical_formula_structural   TbZr5(Ni3As2)6
_chemical_formula_sum   'Tb1 Zr5 Ni18 As12'
_cell_volume   518.73063297
_cell_formula_units_Z   1
loop_
 _symmetry_equiv_pos_site_id
 _symmetry_equiv_pos_as_xyz
  1  'x, y, z'
loop_
 _atom_site_type_symbol
 _atom_site_label
 _atom_site_symmetry_multiplicity
 _atom_site_fract_x
 _atom_site_fract_y
 _atom_site_fract_z
 _atom_site_occupancy
  Tb  Tb0  1  0.500000  0.000000  0.474255  1
  Zr  Zr1  1  0.000000  0.500000  0.526320  1
  Zr  Zr2  1  0.500000  0.821795  0.205154  1
  Zr  Zr3  1  0.500000  0.178205  0.205154  1
  Zr  Zr4  1  0.000000  0.677396  0.793220  1
  Zr  Zr5  1  0.000000  0.322604  0.793220  1
  Ni  Ni6  1  0.500000  0.500000  0.160921  1
  Ni  Ni7  1  0.000000  0.000000  0.841882  1
  Ni  Ni8  1  0.500000  0.500000  0.698648  1
  Ni  Ni9  1  0.000000  0.000000  0.297801  1
  Ni  Ni10  1  0.000000  0.500000  0.983059  1
  Ni  Ni11  1  0.500000  0.000000  0.014904  1
  Ni  Ni12  1  0.500000  0.332447  0.997380  1
  Ni  Ni13  1  0.500000  0.667553  0.997380  1
  Ni  Ni14  1  0.000000  0.169833  0.003007  1
  Ni  Ni15  1  0.000000  0.830167  0.003007  1
  Ni  Ni16  1  0.500000  0.303529  0.430385  1
  Ni  Ni17  1  0.500000  0.696471  0.430385  1
  Ni  Ni18  1  0.000000  0.201780  0.570560  1
  Ni  Ni19  1  0.000000  0.798220  0.570560  1
  Ni  Ni20  1  0.500000  0.876470  0.708363  1
  Ni  Ni21  1  0.500000  0.123530  0.708363  1
  Ni  Ni22  1  0.000000  0.621318  0.293452  1
  Ni  Ni23  1  0.000000  0.378682  0.293452  1
  As  As24  1  0.500000  0.500000  0.875814  1
  As  As25  1  0.000000  0.000000  0.121625  1
  As  As26  1  0.500000  0.500000  0.350433  1
  As  As27  1  0.000000  0.000000  0.653662  1
  As  As28  1  0.500000  0.315762  0.615950  1
  As  As29  1  0.500000  0.684238  0.615950  1
  As  As30  1  0.000000  0.186336  0.382061  1
  As  As31  1  0.000000  0.813664  0.382061  1
  As  As32  1  0.500000  0.843637  0.887763  1
  As  As33  1  0.500000  0.156363  0.887763  1
  As  As34  1  0.000000  0.654154  0.113042  1
  As  As35  1  0.000000  0.345846  0.113042  1
