# generated using pymatgen
data_Nd12Sn(RuBr4)3
_symmetry_space_group_name_H-M   'P 1'
_cell_length_a   10.70853757
_cell_length_b   10.70853856
_cell_length_c   10.25385300
_cell_angle_alpha   108.61334011
_cell_angle_beta   108.61334189
_cell_angle_gamma   110.31530444
_symmetry_Int_Tables_number   1
_chemical_formula_structural   Nd12Sn(RuBr4)3
_chemical_formula_sum   'Nd12 Sn1 Ru3 Br12'
_cell_volume   914.56477893
_cell_formula_units_Z   1
loop_
 _symmetry_equiv_pos_site_id
 _symmetry_equiv_pos_as_xyz
  1  'x, y, z'
loop_
 _atom_site_type_symbol
 _atom_site_label
 _atom_site_symmetry_multiplicity
 _atom_site_fract_x
 _atom_site_fract_y
 _atom_site_fract_z
 _atom_site_occupancy
  Nd  Nd0  1  0.251478  0.721106  0.225963  1
  Nd  Nd1  1  0.469628  0.721106  0.995144  1
  Nd  Nd2  1  0.235875  0.471749  0.485875  1
  Nd  Nd3  1  0.019515  0.039029  0.269515  1
  Nd  Nd4  1  0.235875  0.264125  0.750000  1
  Nd  Nd5  1  0.019515  0.480485  0.750000  1
  Nd  Nd6  1  0.469628  0.248522  0.474485  1
  Nd  Nd7  1  0.251478  0.030372  0.025515  1
  Nd  Nd8  1  0.778894  0.248522  0.274037  1
  Nd  Nd9  1  0.778894  0.030372  0.504856  1
  Nd  Nd10  1  0.460971  0.480485  0.230485  1
  Nd  Nd11  1  0.028251  0.264125  0.014125  1
  Sn  Sn12  1  0.500000  0.000000  0.250000  1
  Ru  Ru13  1  0.246701  0.493402  0.996701  1
  Ru  Ru14  1  0.006598  0.253299  0.503299  1
  Ru  Ru15  1  0.246701  0.253299  0.250000  1
  Br  Br16  1  0.250392  0.996058  0.499935  1
  Br  Br17  1  0.517978  0.508989  0.758989  1
  Br  Br18  1  0.250392  0.754334  0.750458  1
  Br  Br19  1  0.006266  0.753133  0.003133  1
  Br  Br20  1  0.991011  0.508989  0.250000  1
  Br  Br21  1  0.745666  0.996058  0.996123  1
  Br  Br22  1  0.746867  0.753133  0.250000  1
  Br  Br23  1  0.503942  0.754334  0.503877  1
  Br  Br24  1  0.503942  0.249608  0.000065  1
  Br  Br25  1  0.746867  0.493734  0.496867  1
  Br  Br26  1  0.745666  0.249608  0.749542  1
  Br  Br27  1  0.991011  0.982022  0.741011  1
