# generated using pymatgen
data_Sc3Sn3HgRh2
_symmetry_space_group_name_H-M   'P 1'
_cell_length_a   7.58198700
_cell_length_b   7.58198818
_cell_length_c   3.67105200
_cell_angle_alpha   90.00000000
_cell_angle_beta   90.00000000
_cell_angle_gamma   119.99999051
_symmetry_Int_Tables_number   1
_chemical_formula_structural   Sc3Sn3HgRh2
_chemical_formula_sum   'Sc3 Sn3 Hg1 Rh2'
_cell_volume   182.76260844
_cell_formula_units_Z   1
loop_
 _symmetry_equiv_pos_site_id
 _symmetry_equiv_pos_as_xyz
  1  'x, y, z'
loop_
 _atom_site_type_symbol
 _atom_site_label
 _atom_site_symmetry_multiplicity
 _atom_site_fract_x
 _atom_site_fract_y
 _atom_site_fract_z
 _atom_site_occupancy
  Sc  Sc0  1  0.027503  0.410193  0.000000  1
  Sc  Sc1  1  0.589807  0.617310  0.000000  1
  Sc  Sc2  1  0.382690  0.972497  0.000000  1
  Sn  Sn3  1  0.258820  0.265340  0.500000  1
  Sn  Sn4  1  0.006520  0.741180  0.500000  1
  Sn  Sn5  1  0.734660  0.993480  0.500000  1
  Hg  Hg6  1  0.666667  0.333333  0.500000  1
  Rh  Rh7  1  0.333333  0.666667  0.500000  1
  Rh  Rh8  1  0.000000  0.000000  0.000000  1
