# generated using pymatgen
data_Nb6Si5Tc6P
_symmetry_space_group_name_H-M   'P 1'
_cell_length_a   7.52056814
_cell_length_b   7.58498875
_cell_length_c   7.52056767
_cell_angle_alpha   127.50660712
_cell_angle_beta   124.34182052
_cell_angle_gamma   79.82334051
_symmetry_Int_Tables_number   1
_chemical_formula_structural   Nb6Si5Tc6P
_chemical_formula_sum   'Nb6 Si5 Tc6 P1'
_cell_volume   271.73325025
_cell_formula_units_Z   1
loop_
 _symmetry_equiv_pos_site_id
 _symmetry_equiv_pos_as_xyz
  1  'x, y, z'
loop_
 _atom_site_type_symbol
 _atom_site_label
 _atom_site_symmetry_multiplicity
 _atom_site_fract_x
 _atom_site_fract_y
 _atom_site_fract_z
 _atom_site_occupancy
  Nb  Nb0  1  0.546219  0.091083  0.044864  1
  Nb  Nb1  1  0.442932  0.480889  0.537957  1
  Nb  Nb2  1  0.965553  0.507553  0.042000  1
  Nb  Nb3  1  0.040728  0.076297  0.535569  1
  Nb  Nb4  1  0.756086  0.907760  0.651674  1
  Nb  Nb5  1  0.249636  0.912292  0.162655  1
  Si  Si6  1  0.228221  0.468183  0.739962  1
  Si  Si7  1  0.339953  0.828682  0.501956  1
  Si  Si8  1  0.669125  0.163864  0.498336  1
  Si  Si9  1  0.826726  0.828682  0.988728  1
  Si  Si10  1  0.165527  0.163864  0.994740  1
  Tc  Tc11  1  0.527854  0.246969  0.776775  1
  Tc  Tc12  1  0.970193  0.246969  0.219114  1
  Tc  Tc13  1  0.154456  0.744994  0.651427  1
  Tc  Tc14  1  0.840794  0.493803  0.587067  1
  Tc  Tc15  1  0.593566  0.744994  0.090537  1
  Tc  Tc16  1  0.406737  0.493803  0.153008  1
  P  P17  1  0.775692  0.541521  0.265830  1
