# generated using pymatgen
data_Ho16Ga6FeCo
_symmetry_space_group_name_H-M   'P 1'
_cell_length_a   9.95310100
_cell_length_b   9.95327103
_cell_length_c   6.90988200
_cell_angle_alpha   90.00120152
_cell_angle_beta   89.99893972
_cell_angle_gamma   119.99958620
_symmetry_Int_Tables_number   1
_chemical_formula_structural   Ho16Ga6FeCo
_chemical_formula_sum   'Ho16 Ga6 Fe1 Co1'
_cell_volume   592.82609832
_cell_formula_units_Z   1
loop_
 _symmetry_equiv_pos_site_id
 _symmetry_equiv_pos_as_xyz
  1  'x, y, z'
loop_
 _atom_site_type_symbol
 _atom_site_label
 _atom_site_symmetry_multiplicity
 _atom_site_fract_x
 _atom_site_fract_y
 _atom_site_fract_z
 _atom_site_occupancy
  Ho  Ho0  1  0.172980  0.827021  0.509912  1
  Ho  Ho1  1  0.654045  0.827019  0.509914  1
  Ho  Ho2  1  0.172982  0.345955  0.509921  1
  Ho  Ho3  1  0.826989  0.173006  0.011269  1
  Ho  Ho4  1  0.346008  0.173009  0.011250  1
  Ho  Ho5  1  0.826990  0.653994  0.011255  1
  Ho  Ho6  1  0.333338  0.666657  0.830782  1
  Ho  Ho7  1  0.666675  0.333330  0.329855  1
  Ho  Ho8  1  0.462715  0.537294  0.207970  1
  Ho  Ho9  1  0.074573  0.537297  0.207969  1
  Ho  Ho10  1  0.462704  0.925420  0.207972  1
  Ho  Ho11  1  0.536053  0.463939  0.707118  1
  Ho  Ho12  1  0.927883  0.463939  0.707129  1
  Ho  Ho13  1  0.536058  0.072116  0.707129  1
  Ho  Ho14  1  0.999997  0.000002  0.231649  1
  Ho  Ho15  1  0.000007  0.999995  0.732465  1
  Ga  Ga16  1  0.163299  0.836702  0.958708  1
  Ga  Ga17  1  0.673412  0.836715  0.958728  1
  Ga  Ga18  1  0.163287  0.326588  0.958728  1
  Ga  Ga19  1  0.836143  0.163853  0.458521  1
  Ga  Ga20  1  0.327712  0.163851  0.458527  1
  Ga  Ga21  1  0.836148  0.672287  0.458532  1
  Fe  Fe22  1  0.333331  0.666667  0.445323  1
  Co  Co23  1  0.666671  0.333344  0.943418  1
