# generated using pymatgen
data_Ni8Hg2Bi8P
_symmetry_space_group_name_H-M   'P 1'
_cell_length_a   4.22351200
_cell_length_b   9.99596000
_cell_length_c   20.95352800
_cell_angle_alpha   90.00000000
_cell_angle_beta   90.00000000
_cell_angle_gamma   90.00000000
_symmetry_Int_Tables_number   1
_chemical_formula_structural   Ni8Hg2Bi8P
_chemical_formula_sum   'Ni16 Hg4 Bi16 P2'
_cell_volume   884.61723970
_cell_formula_units_Z   2
loop_
 _symmetry_equiv_pos_site_id
 _symmetry_equiv_pos_as_xyz
  1  'x, y, z'
loop_
 _atom_site_type_symbol
 _atom_site_label
 _atom_site_symmetry_multiplicity
 _atom_site_fract_x
 _atom_site_fract_y
 _atom_site_fract_z
 _atom_site_occupancy
  Ni  Ni0  1  0.750164  0.312711  0.971583  1
  Ni  Ni1  1  0.750164  0.687289  0.028417  1
  Ni  Ni2  1  0.249836  0.812711  0.528417  1
  Ni  Ni3  1  0.249836  0.187289  0.471583  1
  Ni  Ni4  1  0.248647  0.587237  0.084100  1
  Ni  Ni5  1  0.248647  0.412763  0.915900  1
  Ni  Ni6  1  0.751353  0.087237  0.415900  1
  Ni  Ni7  1  0.751353  0.912763  0.584100  1
  Ni  Ni8  1  0.248672  0.324930  0.042241  1
  Ni  Ni9  1  0.248672  0.675070  0.957759  1
  Ni  Ni10  1  0.751328  0.824930  0.457759  1
  Ni  Ni11  1  0.751328  0.175070  0.542241  1
  Ni  Ni12  1  0.751326  0.439273  0.088614  1
  Ni  Ni13  1  0.751326  0.560727  0.911386  1
  Ni  Ni14  1  0.248674  0.939273  0.411386  1
  Ni  Ni15  1  0.248674  0.060727  0.588614  1
  Hg  Hg16  1  0.253704  0.006136  0.797495  1
  Hg  Hg17  1  0.253704  0.993864  0.202505  1
  Hg  Hg18  1  0.746296  0.506136  0.702505  1
  Hg  Hg19  1  0.746296  0.493864  0.297495  1
  Bi  Bi20  1  0.251558  0.381098  0.169099  1
  Bi  Bi21  1  0.251558  0.618902  0.830901  1
  Bi  Bi22  1  0.748442  0.881098  0.330901  1
  Bi  Bi23  1  0.748442  0.118902  0.669099  1
  Bi  Bi24  1  0.749872  0.168460  0.082828  1
  Bi  Bi25  1  0.749872  0.831540  0.917172  1
  Bi  Bi26  1  0.250128  0.668460  0.417172  1
  Bi  Bi27  1  0.250128  0.331540  0.582828  1
  Bi  Bi28  1  0.249373  0.145848  0.944201  1
  Bi  Bi29  1  0.249373  0.854152  0.055799  1
  Bi  Bi30  1  0.750627  0.645848  0.555799  1
  Bi  Bi31  1  0.750627  0.354152  0.444201  1
  Bi  Bi32  1  0.749011  0.669637  0.158266  1
  Bi  Bi33  1  0.749011  0.330363  0.841734  1
  Bi  Bi34  1  0.250989  0.169637  0.341734  1
  Bi  Bi35  1  0.250989  0.830363  0.658266  1
  P  P36  1  0.497522  0.500000  0.000000  1
  P  P37  1  0.502478  0.000000  0.500000  1
