# generated using pymatgen
data_HoU3(PO4)6
_symmetry_space_group_name_H-M   'P 1'
_cell_length_a   9.17850465
_cell_length_b   9.17850466
_cell_length_c   9.41456000
_cell_angle_alpha   60.82601366
_cell_angle_beta   60.82600648
_cell_angle_gamma   59.99999725
_symmetry_Int_Tables_number   1
_chemical_formula_structural   HoU3(PO4)6
_chemical_formula_sum   'Ho1 U3 P6 O24'
_cell_volume   567.72726910
_cell_formula_units_Z   1
loop_
 _symmetry_equiv_pos_site_id
 _symmetry_equiv_pos_as_xyz
  1  'x, y, z'
loop_
 _atom_site_type_symbol
 _atom_site_label
 _atom_site_symmetry_multiplicity
 _atom_site_fract_x
 _atom_site_fract_y
 _atom_site_fract_z
 _atom_site_occupancy
  Ho  Ho0  1  0.859896  0.859896  0.420310  1
  U  U1  1  0.142088  0.142088  0.573735  1
  U  U2  1  0.357582  0.357582  0.927254  1
  U  U3  1  0.642764  0.642764  0.071708  1
  P  P4  1  0.752352  0.034802  0.746384  1
  P  P5  1  0.034802  0.466461  0.746384  1
  P  P6  1  0.466461  0.752352  0.746384  1
  P  P7  1  0.536111  0.250858  0.250572  1
  P  P8  1  0.962458  0.536111  0.250572  1
  P  P9  1  0.250858  0.962458  0.250572  1
  O  O10  1  0.293643  0.122250  0.089585  1
  O  O11  1  0.494521  0.293643  0.089585  1
  O  O12  1  0.916462  0.056953  0.733149  1
  O  O13  1  0.122250  0.494521  0.089585  1
  O  O14  1  0.590633  0.204750  0.775357  1
  O  O15  1  0.776944  0.010181  0.589046  1
  O  O16  1  0.056953  0.293435  0.733149  1
  O  O17  1  0.204750  0.429260  0.775357  1
  O  O18  1  0.429260  0.590633  0.775357  1
  O  O19  1  0.369764  0.223867  0.411371  1
  O  O20  1  0.701198  0.091500  0.262290  1
  O  O21  1  0.994998  0.369764  0.411371  1
  O  O22  1  0.010181  0.623829  0.589046  1
  O  O23  1  0.293435  0.916462  0.733149  1
  O  O24  1  0.623829  0.776944  0.589046  1
  O  O25  1  0.554584  0.418878  0.232661  1
  O  O26  1  0.793877  0.554584  0.232661  1
  O  O27  1  0.945012  0.701198  0.262290  1
  O  O28  1  0.223867  0.994998  0.411371  1
  O  O29  1  0.418878  0.793877  0.232661  1
  O  O30  1  0.872860  0.494506  0.911915  1
  O  O31  1  0.091500  0.945012  0.262290  1
  O  O32  1  0.494506  0.720718  0.911915  1
  O  O33  1  0.720718  0.872860  0.911915  1
