# generated using pymatgen
data_BaTa8GeS16
_symmetry_space_group_name_H-M   'P 1'
_cell_length_a   6.71101802
_cell_length_b   6.71102201
_cell_length_c   14.27406500
_cell_angle_alpha   89.98485436
_cell_angle_beta   90.00392728
_cell_angle_gamma   120.00354025
_symmetry_Int_Tables_number   1
_chemical_formula_structural   BaTa8GeS16
_chemical_formula_sum   'Ba1 Ta8 Ge1 S16'
_cell_volume   556.72389184
_cell_formula_units_Z   1
loop_
 _symmetry_equiv_pos_site_id
 _symmetry_equiv_pos_as_xyz
  1  'x, y, z'
loop_
 _atom_site_type_symbol
 _atom_site_label
 _atom_site_symmetry_multiplicity
 _atom_site_fract_x
 _atom_site_fract_y
 _atom_site_fract_z
 _atom_site_occupancy
  Ba  Ba0  1  0.000000  0.000000  0.500000  1
  Ta  Ta1  1  0.504184  0.495928  0.771921  1
  Ta  Ta2  1  0.008348  0.504075  0.228073  1
  Ta  Ta3  1  0.495803  0.991513  0.228063  1
  Ta  Ta4  1  0.504197  0.008487  0.771937  1
  Ta  Ta5  1  0.991652  0.495925  0.771927  1
  Ta  Ta6  1  0.495816  0.504072  0.228079  1
  Ta  Ta7  1  0.000011  0.000122  0.768648  1
  Ta  Ta8  1  0.999989  0.999878  0.231352  1
  Ge  Ge9  1  0.000000  0.000000  0.000000  1
  S  S10  1  0.829956  0.169806  0.336741  1
  S  S11  1  0.829992  0.659853  0.336774  1
  S  S12  1  0.339957  0.169795  0.336750  1
  S  S13  1  0.665833  0.832962  0.878190  1
  S  S14  1  0.170008  0.340147  0.663226  1
  S  S15  1  0.167052  0.832971  0.878190  1
  S  S16  1  0.167075  0.334206  0.878183  1
  S  S17  1  0.832948  0.167029  0.121810  1
  S  S18  1  0.334167  0.167038  0.121810  1
  S  S19  1  0.660043  0.830205  0.663250  1
  S  S20  1  0.333352  0.666612  0.118936  1
  S  S21  1  0.666704  0.333531  0.660228  1
  S  S22  1  0.666648  0.333388  0.881064  1
  S  S23  1  0.333296  0.666469  0.339772  1
  S  S24  1  0.832925  0.665794  0.121817  1
  S  S25  1  0.170044  0.830194  0.663259  1
