# generated using pymatgen
data_Dy3Y(Si3Rh)2
_symmetry_space_group_name_H-M   'P 1'
_cell_length_a   8.18250300
_cell_length_b   8.18250321
_cell_length_c   7.91755000
_cell_angle_alpha   90.00000000
_cell_angle_beta   90.00000000
_cell_angle_gamma   119.99999509
_symmetry_Int_Tables_number   1
_chemical_formula_structural   Dy3Y(Si3Rh)2
_chemical_formula_sum   'Dy6 Y2 Si12 Rh4'
_cell_volume   459.08576384
_cell_formula_units_Z   2
loop_
 _symmetry_equiv_pos_site_id
 _symmetry_equiv_pos_as_xyz
  1  'x, y, z'
loop_
 _atom_site_type_symbol
 _atom_site_label
 _atom_site_symmetry_multiplicity
 _atom_site_fract_x
 _atom_site_fract_y
 _atom_site_fract_z
 _atom_site_occupancy
  Dy  Dy0  1  0.508881  0.491119  0.250000  1
  Dy  Dy1  1  0.508881  0.017762  0.250000  1
  Dy  Dy2  1  0.982238  0.491119  0.250000  1
  Dy  Dy3  1  0.491119  0.508881  0.750000  1
  Dy  Dy4  1  0.491119  0.982238  0.750000  1
  Dy  Dy5  1  0.017762  0.508881  0.750000  1
  Y  Y6  1  0.000000  0.000000  0.250000  1
  Y  Y7  1  0.000000  0.000000  0.750000  1
  Si  Si8  1  0.166927  0.833073  0.499522  1
  Si  Si9  1  0.166927  0.333855  0.499522  1
  Si  Si10  1  0.666145  0.833073  0.499522  1
  Si  Si11  1  0.833073  0.166927  0.500478  1
  Si  Si12  1  0.833073  0.666145  0.500478  1
  Si  Si13  1  0.333855  0.166927  0.500478  1
  Si  Si14  1  0.833073  0.166927  0.999522  1
  Si  Si15  1  0.833073  0.666145  0.999522  1
  Si  Si16  1  0.333855  0.166927  0.999522  1
  Si  Si17  1  0.166927  0.833073  0.000478  1
  Si  Si18  1  0.166927  0.333855  0.000478  1
  Si  Si19  1  0.666145  0.833073  0.000478  1
  Rh  Rh20  1  0.333333  0.666667  0.466993  1
  Rh  Rh21  1  0.666667  0.333333  0.533007  1
  Rh  Rh22  1  0.666667  0.333333  0.966993  1
  Rh  Rh23  1  0.333333  0.666667  0.033007  1
