# generated using pymatgen
data_NdInSiRh3
_symmetry_space_group_name_H-M   'P 1'
_cell_length_a   6.95322447
_cell_length_b   6.95510977
_cell_length_c   6.95322445
_cell_angle_alpha   130.98312407
_cell_angle_beta   112.88754869
_cell_angle_gamma   87.42505947
_symmetry_Int_Tables_number   1
_chemical_formula_structural   NdInSiRh3
_chemical_formula_sum   'Nd2 In2 Si2 Rh6'
_cell_volume   222.92779862
_cell_formula_units_Z   2
loop_
 _symmetry_equiv_pos_site_id
 _symmetry_equiv_pos_as_xyz
  1  'x, y, z'
loop_
 _atom_site_type_symbol
 _atom_site_label
 _atom_site_symmetry_multiplicity
 _atom_site_fract_x
 _atom_site_fract_y
 _atom_site_fract_z
 _atom_site_occupancy
  Nd  Nd0  1  0.771560  0.020655  0.249095  1
  Nd  Nd1  1  0.228440  0.979345  0.750905  1
  In  In2  1  0.562856  0.312256  0.749400  1
  In  In3  1  0.437144  0.687744  0.250600  1
  Si  Si4  1  0.106374  0.356361  0.249987  1
  Si  Si5  1  0.893626  0.643639  0.750013  1
  Rh  Rh6  1  0.203917  0.500000  0.703917  1
  Rh  Rh7  1  0.796675  0.000000  0.796675  1
  Rh  Rh8  1  0.796083  0.500000  0.296083  1
  Rh  Rh9  1  0.203325  0.000000  0.203325  1
  Rh  Rh10  1  0.500000  0.500000  0.500000  1
  Rh  Rh11  1  0.000000  0.500000  0.000000  1
