# generated using pymatgen
data_Tb4Be4Si3Ge
_symmetry_space_group_name_H-M   'P 1'
_cell_length_a   3.89254800
_cell_length_b   3.89254897
_cell_length_c   16.29988400
_cell_angle_alpha   90.00000000
_cell_angle_beta   90.00000000
_cell_angle_gamma   120.00000872
_symmetry_Int_Tables_number   1
_chemical_formula_structural   Tb4Be4Si3Ge
_chemical_formula_sum   'Tb4 Be4 Si3 Ge1'
_cell_volume   213.88639921
_cell_formula_units_Z   1
loop_
 _symmetry_equiv_pos_site_id
 _symmetry_equiv_pos_as_xyz
  1  'x, y, z'
loop_
 _atom_site_type_symbol
 _atom_site_label
 _atom_site_symmetry_multiplicity
 _atom_site_fract_x
 _atom_site_fract_y
 _atom_site_fract_z
 _atom_site_occupancy
  Tb  Tb0  1  0.000000  0.000000  0.250605  1
  Tb  Tb1  1  0.000000  0.000000  0.748057  1
  Tb  Tb2  1  0.000000  0.000000  0.001958  1
  Tb  Tb3  1  0.000000  0.000000  0.499632  1
  Be  Be4  1  0.333333  0.666667  0.128214  1
  Be  Be5  1  0.666667  0.333333  0.871646  1
  Be  Be6  1  0.666667  0.333333  0.626491  1
  Be  Be7  1  0.333333  0.666667  0.372948  1
  Si  Si8  1  0.333333  0.666667  0.623920  1
  Si  Si9  1  0.666667  0.333333  0.375743  1
  Si  Si10  1  0.666667  0.333333  0.125217  1
  Ge  Ge11  1  0.333333  0.666667  0.875569  1
