# generated using pymatgen
data_Sm2Ho2TcB12Ru
_symmetry_space_group_name_H-M   'P 1'
_cell_length_a   3.70112200
_cell_length_b   9.19178615
_cell_length_c   11.61606000
_cell_angle_alpha   89.85697257
_cell_angle_beta   90.00000000
_cell_angle_gamma   90.00000000
_symmetry_Int_Tables_number   1
_chemical_formula_structural   Sm2Ho2TcB12Ru
_chemical_formula_sum   'Sm4 Ho4 Tc2 B24 Ru2'
_cell_volume   395.17622314
_cell_formula_units_Z   2
loop_
 _symmetry_equiv_pos_site_id
 _symmetry_equiv_pos_as_xyz
  1  'x, y, z'
loop_
 _atom_site_type_symbol
 _atom_site_label
 _atom_site_symmetry_multiplicity
 _atom_site_fract_x
 _atom_site_fract_y
 _atom_site_fract_z
 _atom_site_occupancy
  Sm  Sm0  1  0.000000  0.324589  0.415212  1
  Sm  Sm1  1  0.000000  0.675411  0.584788  1
  Sm  Sm2  1  0.000000  0.821636  0.087115  1
  Sm  Sm3  1  0.000000  0.178364  0.912885  1
  Ho  Ho4  1  0.000000  0.941922  0.370300  1
  Ho  Ho5  1  0.000000  0.058078  0.629700  1
  Ho  Ho6  1  0.000000  0.443189  0.130251  1
  Ho  Ho7  1  0.000000  0.556811  0.869749  1
  Tc  Tc8  1  0.000000  0.639395  0.319276  1
  Tc  Tc9  1  0.000000  0.360605  0.680724  1
  B  B10  1  0.500000  0.554107  0.431687  1
  B  B11  1  0.500000  0.445893  0.568313  1
  B  B12  1  0.500000  0.054914  0.068512  1
  B  B13  1  0.500000  0.945086  0.931488  1
  B  B14  1  0.500000  0.749171  0.417608  1
  B  B15  1  0.500000  0.250829  0.582392  1
  B  B16  1  0.500000  0.249230  0.082495  1
  B  B17  1  0.500000  0.750770  0.917505  1
  B  B18  1  0.500000  0.791073  0.265792  1
  B  B19  1  0.500000  0.208927  0.734208  1
  B  B20  1  0.500000  0.290253  0.233699  1
  B  B21  1  0.500000  0.709747  0.766301  1
  B  B22  1  0.500000  0.630628  0.185456  1
  B  B23  1  0.500000  0.369372  0.814544  1
  B  B24  1  0.500000  0.130237  0.313749  1
  B  B25  1  0.500000  0.869763  0.686251  1
  B  B26  1  0.500000  0.984262  0.212577  1
  B  B27  1  0.500000  0.015738  0.787423  1
  B  B28  1  0.500000  0.483810  0.286916  1
  B  B29  1  0.500000  0.516190  0.713084  1
  B  B30  1  0.500000  0.601196  0.027672  1
  B  B31  1  0.500000  0.398804  0.972328  1
  B  B32  1  0.500000  0.100796  0.472094  1
  B  B33  1  0.500000  0.899204  0.527906  1
  Ru  Ru34  1  0.000000  0.138490  0.179589  1
  Ru  Ru35  1  0.000000  0.861510  0.820411  1
