# generated using pymatgen
data_Er9Lu3Co4SnRu
_symmetry_space_group_name_H-M   'P 1'
_cell_length_a   8.18803414
_cell_length_b   8.19170626
_cell_length_c   8.18803332
_cell_angle_alpha   111.39149164
_cell_angle_beta   110.68022190
_cell_angle_gamma   106.36883587
_symmetry_Int_Tables_number   1
_chemical_formula_structural   Er9Lu3Co4SnRu
_chemical_formula_sum   'Er9 Lu3 Co4 Sn1 Ru1'
_cell_volume   421.93228727
_cell_formula_units_Z   1
loop_
 _symmetry_equiv_pos_site_id
 _symmetry_equiv_pos_as_xyz
  1  'x, y, z'
loop_
 _atom_site_type_symbol
 _atom_site_label
 _atom_site_symmetry_multiplicity
 _atom_site_fract_x
 _atom_site_fract_y
 _atom_site_fract_z
 _atom_site_occupancy
  Er  Er0  1  0.412842  0.217728  0.194264  1
  Er  Er1  1  0.587785  0.782058  0.806414  1
  Er  Er2  1  0.023465  0.217728  0.804888  1
  Er  Er3  1  0.975643  0.782058  0.194271  1
  Er  Er4  1  0.183546  0.282536  0.467193  1
  Er  Er5  1  0.817046  0.716949  0.533343  1
  Er  Er6  1  0.183607  0.716949  0.899903  1
  Er  Er7  1  0.815342  0.282536  0.098989  1
  Er  Er8  1  0.313469  0.620948  0.307479  1
  Lu  Lu9  1  0.686070  0.377567  0.691497  1
  Lu  Lu10  1  0.314071  0.005569  0.691497  1
  Lu  Lu11  1  0.686377  0.995340  0.308963  1
  Co  Co12  1  0.377442  0.001410  0.377598  1
  Co  Co13  1  0.623811  0.001410  0.623968  1
  Co  Co14  1  0.111359  0.611673  0.500315  1
  Co  Co15  1  0.887592  0.387346  0.499755  1
  Sn  Sn16  1  0.500308  0.499764  0.999456  1
  Ru  Ru17  1  0.000227  0.000434  0.000206  1
