# generated using pymatgen
data_Zr10Ga2(SnPb)3
_symmetry_space_group_name_H-M   'P 1'
_cell_length_a   8.77526621
_cell_length_b   8.76946976
_cell_length_c   5.96725900
_cell_angle_alpha   90.00000000
_cell_angle_beta   90.00000000
_cell_angle_gamma   119.91829362
_symmetry_Int_Tables_number   1
_chemical_formula_structural   Zr10Ga2(SnPb)3
_chemical_formula_sum   'Zr10 Ga2 Sn3 Pb3'
_cell_volume   398.01196994
_cell_formula_units_Z   1
loop_
 _symmetry_equiv_pos_site_id
 _symmetry_equiv_pos_as_xyz
  1  'x, y, z'
loop_
 _atom_site_type_symbol
 _atom_site_label
 _atom_site_symmetry_multiplicity
 _atom_site_fract_x
 _atom_site_fract_y
 _atom_site_fract_z
 _atom_site_occupancy
  Zr  Zr0  1  0.000791  0.266682  0.250000  1
  Zr  Zr1  1  0.736862  0.999491  0.750000  1
  Zr  Zr2  1  0.737901  0.733880  0.250000  1
  Zr  Zr3  1  0.671155  0.338478  0.501068  1
  Zr  Zr4  1  0.995399  0.730928  0.750000  1
  Zr  Zr5  1  0.264169  0.268091  0.750000  1
  Zr  Zr6  1  0.330831  0.663616  0.998787  1
  Zr  Zr7  1  0.671155  0.338478  0.998932  1
  Zr  Zr8  1  0.330831  0.663616  0.501213  1
  Zr  Zr9  1  0.260740  0.996632  0.250000  1
  Ga  Ga10  1  0.000402  0.000404  0.999178  1
  Ga  Ga11  1  0.000402  0.000404  0.500822  1
  Sn  Sn12  1  0.000823  0.611581  0.250000  1
  Sn  Sn13  1  0.999591  0.387582  0.750000  1
  Sn  Sn14  1  0.611286  0.612508  0.750000  1
  Pb  Pb15  1  0.612264  0.999619  0.250000  1
  Pb  Pb16  1  0.386847  0.000944  0.750000  1
  Pb  Pb17  1  0.388550  0.387065  0.250000  1
