# generated using pymatgen
data_YHfCrB6
_symmetry_space_group_name_H-M   'P 1'
_cell_length_a   3.45960200
_cell_length_b   9.00306000
_cell_length_c   11.37687600
_cell_angle_alpha   90.00000000
_cell_angle_beta   90.00000000
_cell_angle_gamma   90.00000000
_symmetry_Int_Tables_number   1
_chemical_formula_structural   YHfCrB6
_chemical_formula_sum   'Y4 Hf4 Cr4 B24'
_cell_volume   354.35560663
_cell_formula_units_Z   4
loop_
 _symmetry_equiv_pos_site_id
 _symmetry_equiv_pos_as_xyz
  1  'x, y, z'
loop_
 _atom_site_type_symbol
 _atom_site_label
 _atom_site_symmetry_multiplicity
 _atom_site_fract_x
 _atom_site_fract_y
 _atom_site_fract_z
 _atom_site_occupancy
  Y  Y0  1  0.000000  0.822133  0.085346  1
  Y  Y1  1  0.000000  0.177867  0.914654  1
  Y  Y2  1  0.000000  0.322133  0.414654  1
  Y  Y3  1  0.000000  0.677867  0.585346  1
  Hf  Hf4  1  0.000000  0.444044  0.129445  1
  Hf  Hf5  1  0.000000  0.555956  0.870555  1
  Hf  Hf6  1  0.000000  0.944044  0.370555  1
  Hf  Hf7  1  0.000000  0.055956  0.629445  1
  Cr  Cr8  1  0.000000  0.142157  0.182765  1
  Cr  Cr9  1  0.000000  0.857843  0.817235  1
  Cr  Cr10  1  0.000000  0.642157  0.317235  1
  Cr  Cr11  1  0.000000  0.357843  0.682765  1
  B  B12  1  0.500000  0.054602  0.067737  1
  B  B13  1  0.500000  0.945398  0.932263  1
  B  B14  1  0.500000  0.554602  0.432263  1
  B  B15  1  0.500000  0.445398  0.567737  1
  B  B16  1  0.500000  0.252263  0.082812  1
  B  B17  1  0.500000  0.747737  0.917188  1
  B  B18  1  0.500000  0.752263  0.417188  1
  B  B19  1  0.500000  0.247737  0.582812  1
  B  B20  1  0.500000  0.294926  0.235559  1
  B  B21  1  0.500000  0.705074  0.764441  1
  B  B22  1  0.500000  0.794926  0.264441  1
  B  B23  1  0.500000  0.205074  0.735559  1
  B  B24  1  0.500000  0.129801  0.316299  1
  B  B25  1  0.500000  0.870199  0.683701  1
  B  B26  1  0.500000  0.629801  0.183701  1
  B  B27  1  0.500000  0.370199  0.816299  1
  B  B28  1  0.500000  0.482509  0.286929  1
  B  B29  1  0.500000  0.517491  0.713071  1
  B  B30  1  0.500000  0.982509  0.213071  1
  B  B31  1  0.500000  0.017491  0.786929  1
  B  B32  1  0.500000  0.098681  0.473552  1
  B  B33  1  0.500000  0.901319  0.526448  1
  B  B34  1  0.500000  0.598681  0.026448  1
  B  B35  1  0.500000  0.401319  0.973552  1
