# generated using pymatgen
data_LiTaFe(Co10B3)2
_symmetry_space_group_name_H-M   'P 1'
_cell_length_a   7.40075882
_cell_length_b   7.40076547
_cell_length_c   7.40077600
_cell_angle_alpha   60.00025613
_cell_angle_beta   60.00022227
_cell_angle_gamma   60.00016752
_symmetry_Int_Tables_number   1
_chemical_formula_structural   LiTaFe(Co10B3)2
_chemical_formula_sum   'Li1 Ta1 Fe1 Co20 B6'
_cell_volume   286.62711662
_cell_formula_units_Z   1
loop_
 _symmetry_equiv_pos_site_id
 _symmetry_equiv_pos_as_xyz
  1  'x, y, z'
loop_
 _atom_site_type_symbol
 _atom_site_label
 _atom_site_symmetry_multiplicity
 _atom_site_fract_x
 _atom_site_fract_y
 _atom_site_fract_z
 _atom_site_occupancy
  Li  Li0  1  0.999996  0.999996  0.000001  1
  Ta  Ta1  1  0.250024  0.250012  0.249973  1
  Fe  Fe2  1  0.750012  0.750023  0.750056  1
  Co  Co3  1  0.620318  0.620322  0.139046  1
  Co  Co4  1  0.620317  0.139050  0.620323  1
  Co  Co5  1  0.139050  0.620318  0.620321  1
  Co  Co6  1  0.620315  0.620317  0.620321  1
  Co  Co7  1  0.385165  0.385166  0.844519  1
  Co  Co8  1  0.385170  0.844514  0.385160  1
  Co  Co9  1  0.844514  0.385171  0.385159  1
  Co  Co10  1  0.385164  0.385165  0.385153  1
  Co  Co11  1  0.999854  0.999851  0.340893  1
  Co  Co12  1  0.659399  0.999848  0.340881  1
  Co  Co13  1  0.999849  0.659400  0.340880  1
  Co  Co14  1  0.659395  0.340889  0.999851  1
  Co  Co15  1  0.999847  0.340900  0.999854  1
  Co  Co16  1  0.999845  0.340887  0.659402  1
  Co  Co17  1  0.340888  0.659396  0.999851  1
  Co  Co18  1  0.340886  0.999844  0.659402  1
  Co  Co19  1  0.340900  0.999846  0.999856  1
  Co  Co20  1  0.999852  0.999851  0.659415  1
  Co  Co21  1  0.999850  0.659409  0.999857  1
  Co  Co22  1  0.659407  0.999849  0.999858  1
  B  B23  1  0.727357  0.727359  0.272597  1
  B  B24  1  0.272672  0.727335  0.272644  1
  B  B25  1  0.727334  0.272669  0.272649  1
  B  B26  1  0.272663  0.272655  0.727342  1
  B  B27  1  0.727350  0.272606  0.727368  1
  B  B28  1  0.272608  0.727353  0.727369  1
