# generated using pymatgen
data_Tb8Zr12Si15Ni
_symmetry_space_group_name_H-M   'P 1'
_cell_length_a   7.33906554
_cell_length_b   7.36950364
_cell_length_c   13.56769076
_cell_angle_alpha   90.10769240
_cell_angle_beta   89.81127491
_cell_angle_gamma   90.14837786
_symmetry_Int_Tables_number   1
_chemical_formula_structural   Tb8Zr12Si15Ni
_chemical_formula_sum   'Tb8 Zr12 Si15 Ni1'
_cell_volume   733.80449534
_cell_formula_units_Z   1
loop_
 _symmetry_equiv_pos_site_id
 _symmetry_equiv_pos_as_xyz
  1  'x, y, z'
loop_
 _atom_site_type_symbol
 _atom_site_label
 _atom_site_symmetry_multiplicity
 _atom_site_fract_x
 _atom_site_fract_y
 _atom_site_fract_z
 _atom_site_occupancy
  Tb  Tb0  1  0.996242  0.349523  0.213772  1
  Tb  Tb1  1  0.004999  0.651746  0.712857  1
  Tb  Tb2  1  0.157404  0.492497  0.460867  1
  Tb  Tb3  1  0.504160  0.846143  0.035918  1
  Tb  Tb4  1  0.845601  0.504072  0.964311  1
  Tb  Tb5  1  0.496920  0.152127  0.538638  1
  Tb  Tb6  1  0.346290  0.997160  0.787066  1
  Tb  Tb7  1  0.655151  0.003602  0.285520  1
  Zr  Zr8  1  0.176003  0.177709  0.999405  1
  Zr  Zr9  1  0.825466  0.821858  0.499692  1
  Zr  Zr10  1  0.323015  0.679580  0.250077  1
  Zr  Zr11  1  0.676392  0.323600  0.750111  1
  Zr  Zr12  1  0.153800  0.007678  0.374000  1
  Zr  Zr13  1  0.852639  0.003447  0.875403  1
  Zr  Zr14  1  0.503301  0.646871  0.624796  1
  Zr  Zr15  1  0.353624  0.496398  0.874597  1
  Zr  Zr16  1  0.492289  0.350662  0.128577  1
  Zr  Zr17  1  0.640040  0.500963  0.377366  1
  Zr  Zr18  1  0.997312  0.145998  0.625731  1
  Zr  Zr19  1  0.000091  0.851937  0.124015  1
  Si  Si20  1  0.640206  0.706454  0.817086  1
  Si  Si21  1  0.205695  0.858812  0.565057  1
  Si  Si22  1  0.139424  0.794756  0.933590  1
  Si  Si23  1  0.794446  0.140449  0.065988  1
  Si  Si24  1  0.858254  0.201395  0.435922  1
  Si  Si25  1  0.294831  0.359591  0.684547  1
  Si  Si26  1  0.704167  0.641468  0.184383  1
  Si  Si27  1  0.291112  0.052748  0.185358  1
  Si  Si28  1  0.706045  0.947157  0.687071  1
  Si  Si29  1  0.447138  0.794940  0.437069  1
  Si  Si30  1  0.204908  0.552997  0.062339  1
  Si  Si31  1  0.551351  0.205732  0.937492  1
  Si  Si32  1  0.795597  0.446695  0.563573  1
  Si  Si33  1  0.051364  0.295316  0.813376  1
  Si  Si34  1  0.947569  0.708056  0.313121  1
  Ni  Ni35  1  0.367155  0.289867  0.311311  1
