# generated using pymatgen
data_Ta8TiSi6W
_symmetry_space_group_name_H-M   'P 1'
_cell_length_a   7.53219044
_cell_length_b   7.53219091
_cell_length_c   7.53219092
_cell_angle_alpha   128.80809755
_cell_angle_beta   128.80808778
_cell_angle_gamma   75.31955395
_symmetry_Int_Tables_number   1
_chemical_formula_structural   Ta8TiSi6W
_chemical_formula_sum   'Ta8 Ti1 Si6 W1'
_cell_volume   252.56341057
_cell_formula_units_Z   1
loop_
 _symmetry_equiv_pos_site_id
 _symmetry_equiv_pos_as_xyz
  1  'x, y, z'
loop_
 _atom_site_type_symbol
 _atom_site_label
 _atom_site_symmetry_multiplicity
 _atom_site_fract_x
 _atom_site_fract_y
 _atom_site_fract_z
 _atom_site_occupancy
  Ta  Ta0  1  0.014976  0.184232  0.500028  1
  Ta  Ta1  1  0.684204  0.514947  0.499972  1
  Ta  Ta2  1  0.514947  0.014976  0.830743  1
  Ta  Ta3  1  0.184232  0.684204  0.169257  1
  Ta  Ta4  1  0.985024  0.815768  0.499972  1
  Ta  Ta5  1  0.315796  0.485053  0.500028  1
  Ta  Ta6  1  0.485053  0.985024  0.169257  1
  Ta  Ta7  1  0.815768  0.315796  0.830743  1
  Ti  Ti8  1  0.500000  0.500000  0.000000  1
  Si  Si9  1  0.749190  0.749190  0.000000  1
  Si  Si10  1  0.250810  0.250810  0.000000  1
  Si  Si11  1  0.369527  0.132687  0.502214  1
  Si  Si12  1  0.630473  0.867313  0.497786  1
  Si  Si13  1  0.867313  0.369527  0.236842  1
  Si  Si14  1  0.132687  0.630473  0.763158  1
  W  W15  1  0.000000  0.000000  0.000000  1
