# generated using pymatgen
data_Ho4Mg2TiAlRh4
_symmetry_space_group_name_H-M   'P 1'
_cell_length_a   4.12733800
_cell_length_b   7.05256089
_cell_length_c   8.35368988
_cell_angle_alpha   91.97518842
_cell_angle_beta   90.00000000
_cell_angle_gamma   90.00000000
_symmetry_Int_Tables_number   1
_chemical_formula_structural   Ho4Mg2TiAlRh4
_chemical_formula_sum   'Ho4 Mg2 Ti1 Al1 Rh4'
_cell_volume   243.01725734
_cell_formula_units_Z   1
loop_
 _symmetry_equiv_pos_site_id
 _symmetry_equiv_pos_as_xyz
  1  'x, y, z'
loop_
 _atom_site_type_symbol
 _atom_site_label
 _atom_site_symmetry_multiplicity
 _atom_site_fract_x
 _atom_site_fract_y
 _atom_site_fract_z
 _atom_site_occupancy
  Ho  Ho0  1  0.250000  0.531721  0.178243  1
  Ho  Ho1  1  0.750000  0.454408  0.826111  1
  Ho  Ho2  1  0.750000  0.977846  0.680843  1
  Ho  Ho3  1  0.250000  0.033372  0.324310  1
  Mg  Mg4  1  0.250000  0.641108  0.564945  1
  Mg  Mg5  1  0.750000  0.363867  0.436435  1
  Ti  Ti6  1  0.750000  0.872177  0.053719  1
  Al  Al7  1  0.250000  0.134011  0.938354  1
  Rh  Rh8  1  0.250000  0.760772  0.897050  1
  Rh  Rh9  1  0.750000  0.222883  0.109331  1
  Rh  Rh10  1  0.750000  0.751555  0.353030  1
  Rh  Rh11  1  0.250000  0.256280  0.637628  1
