# generated using pymatgen
data_Nd6Er10MgHg3Rh4
_symmetry_space_group_name_H-M   'P 1'
_cell_length_a   9.66794064
_cell_length_b   9.66114543
_cell_length_c   9.66114600
_cell_angle_alpha   59.99999804
_cell_angle_beta   60.02324575
_cell_angle_gamma   60.02324901
_symmetry_Int_Tables_number   1
_chemical_formula_structural   Nd6Er10MgHg3Rh4
_chemical_formula_sum   'Nd6 Er10 Mg1 Hg3 Rh4'
_cell_volume   638.30574102
_cell_formula_units_Z   1
loop_
 _symmetry_equiv_pos_site_id
 _symmetry_equiv_pos_as_xyz
  1  'x, y, z'
loop_
 _atom_site_type_symbol
 _atom_site_label
 _atom_site_symmetry_multiplicity
 _atom_site_fract_x
 _atom_site_fract_y
 _atom_site_fract_z
 _atom_site_occupancy
  Nd  Nd0  1  0.190693  0.811238  0.811238  1
  Nd  Nd1  1  0.808909  0.189791  0.189791  1
  Nd  Nd2  1  0.808909  0.189791  0.811511  1
  Nd  Nd3  1  0.190693  0.811238  0.186830  1
  Nd  Nd4  1  0.808909  0.811511  0.189791  1
  Nd  Nd5  1  0.190693  0.186830  0.811238  1
  Er  Er6  1  0.598238  0.597509  0.597509  1
  Er  Er7  1  0.598238  0.597509  0.206745  1
  Er  Er8  1  0.598238  0.206745  0.597509  1
  Er  Er9  1  0.198535  0.600489  0.600489  1
  Er  Er10  1  0.062480  0.436890  0.436890  1
  Er  Er11  1  0.432616  0.066189  0.066189  1
  Er  Er12  1  0.432616  0.066189  0.435005  1
  Er  Er13  1  0.062480  0.436890  0.063740  1
  Er  Er14  1  0.432616  0.435005  0.066189  1
  Er  Er15  1  0.062480  0.063740  0.436890  1
  Mg  Mg16  1  0.536979  0.821007  0.821007  1
  Hg  Hg17  1  0.830206  0.833928  0.833928  1
  Hg  Hg18  1  0.830206  0.833928  0.501941  1
  Hg  Hg19  1  0.830206  0.501941  0.833928  1
  Rh  Rh20  1  0.390881  0.393003  0.393003  1
  Rh  Rh21  1  0.390881  0.393003  0.823110  1
  Rh  Rh22  1  0.390881  0.823110  0.393003  1
  Rh  Rh23  1  0.822417  0.392527  0.392527  1
