# generated using pymatgen
data_AcAl5Pd2
_symmetry_space_group_name_H-M   'P 1'
_cell_length_a   6.60707205
_cell_length_b   6.60707195
_cell_length_c   6.60707223
_cell_angle_alpha   142.83384029
_cell_angle_beta   113.39459111
_cell_angle_gamma   78.81671715
_symmetry_Int_Tables_number   1
_chemical_formula_structural   AcAl5Pd2
_chemical_formula_sum   'Ac1 Al5 Pd2'
_cell_volume   155.96977976
_cell_formula_units_Z   1
loop_
 _symmetry_equiv_pos_site_id
 _symmetry_equiv_pos_as_xyz
  1  'x, y, z'
loop_
 _atom_site_type_symbol
 _atom_site_label
 _atom_site_symmetry_multiplicity
 _atom_site_fract_x
 _atom_site_fract_y
 _atom_site_fract_z
 _atom_site_occupancy
  Ac  Ac0  1  0.000000  0.000000  0.000000  1
  Al  Al1  1  0.534616  0.347851  0.186765  1
  Al  Al2  1  0.838914  0.652149  0.186765  1
  Al  Al3  1  0.500000  0.000000  0.500000  1
  Al  Al4  1  0.161087  0.347851  0.813235  1
  Al  Al5  1  0.465384  0.652147  0.813235  1
  Pd  Pd6  1  0.736449  0.236448  0.500000  1
  Pd  Pd7  1  0.263551  0.763550  0.499999  1
