# generated using pymatgen
data_ErPa(Al4Fe)2
_symmetry_space_group_name_H-M   'P 1'
_cell_length_a   7.53554800
_cell_length_b   4.07928600
_cell_length_c   6.63432200
_cell_angle_alpha   90.00000000
_cell_angle_beta   90.00000000
_cell_angle_gamma   90.00000000
_symmetry_Int_Tables_number   1
_chemical_formula_structural   ErPa(Al4Fe)2
_chemical_formula_sum   'Er1 Pa1 Al8 Fe2'
_cell_volume   203.93677248
_cell_formula_units_Z   1
loop_
 _symmetry_equiv_pos_site_id
 _symmetry_equiv_pos_as_xyz
  1  'x, y, z'
loop_
 _atom_site_type_symbol
 _atom_site_label
 _atom_site_symmetry_multiplicity
 _atom_site_fract_x
 _atom_site_fract_y
 _atom_site_fract_z
 _atom_site_occupancy
  Er  Er0  1  0.750000  0.000000  0.880779  1
  Pa  Pa1  1  0.250000  0.000000  0.103528  1
  Al  Al2  1  0.567193  0.500000  0.193843  1
  Al  Al3  1  0.932807  0.500000  0.193843  1
  Al  Al4  1  0.250000  0.500000  0.453565  1
  Al  Al5  1  0.005580  0.000000  0.498893  1
  Al  Al6  1  0.494420  0.000000  0.498893  1
  Al  Al7  1  0.750000  0.500000  0.542918  1
  Al  Al8  1  0.064700  0.500000  0.803735  1
  Al  Al9  1  0.435301  0.500000  0.803735  1
  Fe  Fe10  1  0.750000  0.000000  0.301457  1
  Fe  Fe11  1  0.250000  0.000000  0.724819  1
