# generated using pymatgen
data_Ho4OsI4
_symmetry_space_group_name_H-M   'P 1'
_cell_length_a   11.03229910
_cell_length_b   11.03229993
_cell_length_c   6.18559414
_cell_angle_alpha   89.14372389
_cell_angle_beta   89.14372258
_cell_angle_gamma   88.54375694
_symmetry_Int_Tables_number   1
_chemical_formula_structural   Ho4OsI4
_chemical_formula_sum   'Ho8 Os2 I8'
_cell_volume   752.45167126
_cell_formula_units_Z   2
loop_
 _symmetry_equiv_pos_site_id
 _symmetry_equiv_pos_as_xyz
  1  'x, y, z'
loop_
 _atom_site_type_symbol
 _atom_site_label
 _atom_site_symmetry_multiplicity
 _atom_site_fract_x
 _atom_site_fract_y
 _atom_site_fract_z
 _atom_site_occupancy
  Ho  Ho0  1  0.203618  0.916435  0.995719  1
  Ho  Ho1  1  0.796382  0.083565  0.004281  1
  Ho  Ho2  1  0.083565  0.796382  0.504281  1
  Ho  Ho3  1  0.916435  0.203618  0.495719  1
  Ho  Ho4  1  0.798376  0.921557  0.508830  1
  Ho  Ho5  1  0.201624  0.078443  0.491170  1
  Ho  Ho6  1  0.078443  0.201624  0.991170  1
  Ho  Ho7  1  0.921557  0.798376  0.008830  1
  Os  Os8  1  0.000023  0.999977  0.250000  1
  Os  Os9  1  0.999977  0.000023  0.750000  1
  I  I10  1  0.364003  0.838644  0.505645  1
  I  I11  1  0.635997  0.161356  0.494355  1
  I  I12  1  0.161356  0.635997  0.994355  1
  I  I13  1  0.838644  0.364003  0.005645  1
  I  I14  1  0.359964  0.152006  0.003415  1
  I  I15  1  0.640036  0.847994  0.996585  1
  I  I16  1  0.847994  0.640036  0.496585  1
  I  I17  1  0.152006  0.359964  0.503415  1
