# generated using pymatgen
data_NdY5(PtRh8)2
_symmetry_space_group_name_H-M   'P 1'
_cell_length_a   5.30726800
_cell_length_b   5.30726758
_cell_length_c   17.57227600
_cell_angle_alpha   90.00000000
_cell_angle_beta   90.00000000
_cell_angle_gamma   119.99999018
_symmetry_Int_Tables_number   1
_chemical_formula_structural   NdY5(PtRh8)2
_chemical_formula_sum   'Nd1 Y5 Pt2 Rh16'
_cell_volume   428.64789287
_cell_formula_units_Z   1
loop_
 _symmetry_equiv_pos_site_id
 _symmetry_equiv_pos_as_xyz
  1  'x, y, z'
loop_
 _atom_site_type_symbol
 _atom_site_label
 _atom_site_symmetry_multiplicity
 _atom_site_fract_x
 _atom_site_fract_y
 _atom_site_fract_z
 _atom_site_occupancy
  Nd  Nd0  1  0.333333  0.666667  0.750000  1
  Y  Y1  1  0.333333  0.666667  0.957119  1
  Y  Y2  1  0.666667  0.333333  0.042974  1
  Y  Y3  1  0.666667  0.333333  0.457026  1
  Y  Y4  1  0.333333  0.666667  0.542881  1
  Y  Y5  1  0.666667  0.333333  0.250000  1
  Pt  Pt6  1  0.000000  0.000000  0.499974  1
  Pt  Pt7  1  0.000000  0.000000  0.000026  1
  Rh  Rh8  1  0.167653  0.832347  0.373329  1
  Rh  Rh9  1  0.167653  0.335306  0.373329  1
  Rh  Rh10  1  0.664694  0.832347  0.373329  1
  Rh  Rh11  1  0.832382  0.167618  0.626497  1
  Rh  Rh12  1  0.832382  0.664762  0.626497  1
  Rh  Rh13  1  0.335238  0.167618  0.626497  1
  Rh  Rh14  1  0.832382  0.167618  0.873503  1
  Rh  Rh15  1  0.832382  0.664762  0.873503  1
  Rh  Rh16  1  0.335238  0.167618  0.873503  1
  Rh  Rh17  1  0.167653  0.832347  0.126671  1
  Rh  Rh18  1  0.167653  0.335306  0.126671  1
  Rh  Rh19  1  0.664694  0.832347  0.126671  1
  Rh  Rh20  1  0.333333  0.666667  0.250000  1
  Rh  Rh21  1  0.666667  0.333333  0.750000  1
  Rh  Rh22  1  0.000000  0.000000  0.250000  1
  Rh  Rh23  1  0.000000  0.000000  0.750000  1
