# generated using pymatgen
data_Li3Tm2Zr4Os3
_symmetry_space_group_name_H-M   'P 1'
_cell_length_a   4.72698100
_cell_length_b   6.73129300
_cell_length_c   14.12400300
_cell_angle_alpha   90.00002919
_cell_angle_beta   89.99976520
_cell_angle_gamma   90.00007041
_symmetry_Int_Tables_number   1
_chemical_formula_structural   Li3Tm2Zr4Os3
_chemical_formula_sum   'Li6 Tm4 Zr8 Os6'
_cell_volume   449.40733115
_cell_formula_units_Z   2
loop_
 _symmetry_equiv_pos_site_id
 _symmetry_equiv_pos_as_xyz
  1  'x, y, z'
loop_
 _atom_site_type_symbol
 _atom_site_label
 _atom_site_symmetry_multiplicity
 _atom_site_fract_x
 _atom_site_fract_y
 _atom_site_fract_z
 _atom_site_occupancy
  Li  Li0  1  0.000037  0.500000  0.993743  1
  Li  Li1  1  0.499858  0.000001  0.172829  1
  Li  Li2  1  0.999908  0.500000  0.339542  1
  Li  Li3  1  0.499985  0.999999  0.500864  1
  Li  Li4  1  0.000111  0.500000  0.665920  1
  Li  Li5  1  0.500123  0.999999  0.827126  1
  Tm  Tm6  1  0.500016  0.248117  0.997370  1
  Tm  Tm7  1  0.500019  0.751884  0.997371  1
  Tm  Tm8  1  0.999904  0.251878  0.169312  1
  Tm  Tm9  1  0.999902  0.748126  0.169312  1
  Zr  Zr10  1  0.499924  0.252095  0.337936  1
  Zr  Zr11  1  0.499921  0.747906  0.337936  1
  Zr  Zr12  1  0.999991  0.247204  0.502053  1
  Zr  Zr13  1  0.999991  0.752796  0.502053  1
  Zr  Zr14  1  0.500062  0.252811  0.664576  1
  Zr  Zr15  1  0.500062  0.747187  0.664576  1
  Zr  Zr16  1  0.000087  0.247867  0.828725  1
  Zr  Zr17  1  0.000088  0.752131  0.828725  1
  Os  Os18  1  0.000016  0.000000  0.984960  1
  Os  Os19  1  0.499922  0.500001  0.181774  1
  Os  Os20  1  0.999951  0.000001  0.347044  1
  Os  Os21  1  0.499992  0.499999  0.501898  1
  Os  Os22  1  0.000057  0.999999  0.664753  1
  Os  Os23  1  0.500066  0.499999  0.819609  1
