# generated using pymatgen
data_Sc8Ga4Ag3Os
_symmetry_space_group_name_H-M   'P 1'
_cell_length_a   6.78966901
_cell_length_b   6.67077800
_cell_length_c   6.78883700
_cell_angle_alpha   90.00000000
_cell_angle_beta   90.00214341
_cell_angle_gamma   90.00000000
_symmetry_Int_Tables_number   1
_chemical_formula_structural   Sc8Ga4Ag3Os
_chemical_formula_sum   'Sc8 Ga4 Ag3 Os1'
_cell_volume   307.48254847
_cell_formula_units_Z   1
loop_
 _symmetry_equiv_pos_site_id
 _symmetry_equiv_pos_as_xyz
  1  'x, y, z'
loop_
 _atom_site_type_symbol
 _atom_site_label
 _atom_site_symmetry_multiplicity
 _atom_site_fract_x
 _atom_site_fract_y
 _atom_site_fract_z
 _atom_site_occupancy
  Sc  Sc0  1  0.257319  0.493021  0.242625  1
  Sc  Sc1  1  0.257319  0.006979  0.242625  1
  Sc  Sc2  1  0.742654  0.007656  0.242691  1
  Sc  Sc3  1  0.742654  0.492344  0.242691  1
  Sc  Sc4  1  0.257299  0.492963  0.757359  1
  Sc  Sc5  1  0.257299  0.007037  0.757359  1
  Sc  Sc6  1  0.742644  0.007620  0.757333  1
  Sc  Sc7  1  0.742644  0.492380  0.757333  1
  Ga  Ga8  1  0.000504  0.250000  0.000004  1
  Ga  Ga9  1  0.999592  0.750000  0.999999  1
  Ga  Ga10  1  0.500427  0.750000  0.499995  1
  Ga  Ga11  1  0.499559  0.250000  0.500003  1
  Ag  Ag12  1  0.500693  0.750000  0.999994  1
  Ag  Ag13  1  0.000640  0.250000  0.499948  1
  Ag  Ag14  1  0.999317  0.750000  0.500043  1
  Os  Os15  1  0.499435  0.250000  0.000000  1
