# generated using pymatgen
data_Gd3Dy(CoB10)2
_symmetry_space_group_name_H-M   'P 1'
_cell_length_a   4.15105400
_cell_length_b   5.56594267
_cell_length_c   11.10286536
_cell_angle_alpha   89.97657976
_cell_angle_beta   90.00000000
_cell_angle_gamma   90.00000000
_symmetry_Int_Tables_number   1
_chemical_formula_structural   Gd3Dy(CoB10)2
_chemical_formula_sum   'Gd3 Dy1 Co2 B20'
_cell_volume   256.52644873
_cell_formula_units_Z   1
loop_
 _symmetry_equiv_pos_site_id
 _symmetry_equiv_pos_as_xyz
  1  'x, y, z'
loop_
 _atom_site_type_symbol
 _atom_site_label
 _atom_site_symmetry_multiplicity
 _atom_site_fract_x
 _atom_site_fract_y
 _atom_site_fract_z
 _atom_site_occupancy
  Gd  Gd0  1  0.500000  0.806983  0.636151  1
  Gd  Gd1  1  0.500000  0.301908  0.866213  1
  Gd  Gd2  1  0.500000  0.697825  0.133604  1
  Dy  Dy3  1  0.500000  0.195383  0.365375  1
  Co  Co4  1  0.000000  0.999545  0.000010  1
  Co  Co5  1  0.000000  0.499039  0.499596  1
  B  B6  1  0.000000  0.372073  0.040085  1
  B  B7  1  0.000000  0.627525  0.959999  1
  B  B8  1  0.000000  0.128263  0.539593  1
  B  B9  1  0.000000  0.871947  0.459877  1
  B  B10  1  0.000000  0.341959  0.197892  1
  B  B11  1  0.000000  0.657554  0.802254  1
  B  B12  1  0.000000  0.157814  0.698082  1
  B  B13  1  0.000000  0.841539  0.301372  1
  B  B14  1  0.000000  0.030491  0.185694  1
  B  B15  1  0.000000  0.969026  0.814100  1
  B  B16  1  0.000000  0.469855  0.686130  1
  B  B17  1  0.000000  0.529638  0.313780  1
  B  B18  1  0.299879  0.200459  0.112899  1
  B  B19  1  0.700186  0.799523  0.887387  1
  B  B20  1  0.299814  0.799523  0.887387  1
  B  B21  1  0.700067  0.299764  0.613135  1
  B  B22  1  0.700121  0.200459  0.112899  1
  B  B23  1  0.299917  0.701071  0.386677  1
  B  B24  1  0.700083  0.701071  0.386677  1
  B  B25  1  0.299933  0.299764  0.613135  1
