# generated using pymatgen
data_Lu8TaSi16Tc11
_symmetry_space_group_name_H-M   'P 1'
_cell_length_a   6.78189119
_cell_length_b   6.75695648
_cell_length_c   12.58161500
_cell_angle_alpha   90.00000000
_cell_angle_beta   90.00000000
_cell_angle_gamma   90.17483838
_symmetry_Int_Tables_number   1
_chemical_formula_structural   Lu8TaSi16Tc11
_chemical_formula_sum   'Lu8 Ta1 Si16 Tc11'
_cell_volume   576.54911364
_cell_formula_units_Z   1
loop_
 _symmetry_equiv_pos_site_id
 _symmetry_equiv_pos_as_xyz
  1  'x, y, z'
loop_
 _atom_site_type_symbol
 _atom_site_label
 _atom_site_symmetry_multiplicity
 _atom_site_fract_x
 _atom_site_fract_y
 _atom_site_fract_z
 _atom_site_occupancy
  Lu  Lu0  1  0.488424  0.663435  0.593642  1
  Lu  Lu1  1  0.999378  0.833612  0.905827  1
  Lu  Lu2  1  0.504635  0.332214  0.093647  1
  Lu  Lu3  1  0.005498  0.165631  0.405341  1
  Lu  Lu4  1  0.504635  0.332214  0.406353  1
  Lu  Lu5  1  0.005498  0.165631  0.094659  1
  Lu  Lu6  1  0.488424  0.663435  0.906358  1
  Lu  Lu7  1  0.999378  0.833612  0.594173  1
  Ta  Ta8  1  0.673404  0.000560  0.250000  1
  Si  Si9  1  0.667109  0.958444  0.458310  1
  Si  Si10  1  0.152404  0.555380  0.053451  1
  Si  Si11  1  0.347985  0.054874  0.949004  1
  Si  Si12  1  0.832308  0.457307  0.546781  1
  Si  Si13  1  0.347985  0.054874  0.550996  1
  Si  Si14  1  0.832308  0.457307  0.953219  1
  Si  Si15  1  0.667109  0.958444  0.041690  1
  Si  Si16  1  0.152404  0.555380  0.446549  1
  Si  Si17  1  0.463969  0.344371  0.750000  1
  Si  Si18  1  0.983617  0.146325  0.750000  1
  Si  Si19  1  0.523310  0.628496  0.250000  1
  Si  Si20  1  0.043769  0.852130  0.250000  1
  Si  Si21  1  0.692756  0.860206  0.750000  1
  Si  Si22  1  0.189209  0.615397  0.750000  1
  Si  Si23  1  0.298777  0.135210  0.250000  1
  Si  Si24  1  0.803189  0.369005  0.250000  1
  Tc  Tc25  1  0.695183  0.151494  0.628115  1
  Tc  Tc26  1  0.155725  0.348095  0.888271  1
  Tc  Tc27  1  0.346487  0.850870  0.123300  1
  Tc  Tc28  1  0.811030  0.657344  0.377173  1
  Tc  Tc29  1  0.346487  0.850870  0.376700  1
  Tc  Tc30  1  0.811030  0.657344  0.122827  1
  Tc  Tc31  1  0.695183  0.151494  0.871885  1
  Tc  Tc32  1  0.155725  0.348095  0.611729  1
  Tc  Tc33  1  0.819439  0.512747  0.750000  1
  Tc  Tc34  1  0.328228  0.984043  0.750000  1
  Tc  Tc35  1  0.167996  0.494114  0.250000  1
