# generated using pymatgen
data_Ho4Co13Ni5(P6Ru)2
_symmetry_space_group_name_H-M   'P 1'
_cell_length_a   3.67495700
_cell_length_b   10.32946434
_cell_length_c   11.80748450
_cell_angle_alpha   90.07589945
_cell_angle_beta   90.00000000
_cell_angle_gamma   90.00000000
_symmetry_Int_Tables_number   1
_chemical_formula_structural   Ho4Co13Ni5(P6Ru)2
_chemical_formula_sum   'Ho4 Co13 Ni5 P12 Ru2'
_cell_volume   448.21570106
_cell_formula_units_Z   1
loop_
 _symmetry_equiv_pos_site_id
 _symmetry_equiv_pos_as_xyz
  1  'x, y, z'
loop_
 _atom_site_type_symbol
 _atom_site_label
 _atom_site_symmetry_multiplicity
 _atom_site_fract_x
 _atom_site_fract_y
 _atom_site_fract_z
 _atom_site_occupancy
  Ho  Ho0  1  0.250000  0.582499  0.704453  1
  Ho  Ho1  1  0.250000  0.918806  0.202074  1
  Ho  Ho2  1  0.750000  0.414456  0.293332  1
  Ho  Ho3  1  0.750000  0.085506  0.794079  1
  Co  Co4  1  0.750000  0.909802  0.010527  1
  Co  Co5  1  0.250000  0.218861  0.176010  1
  Co  Co6  1  0.250000  0.281745  0.675731  1
  Co  Co7  1  0.750000  0.778723  0.824064  1
  Co  Co8  1  0.750000  0.720906  0.321898  1
  Co  Co9  1  0.250000  0.887284  0.702271  1
  Co  Co10  1  0.250000  0.613341  0.200452  1
  Co  Co11  1  0.750000  0.117249  0.302283  1
  Co  Co12  1  0.750000  0.381875  0.802976  1
  Co  Co13  1  0.250000  0.464861  0.932279  1
  Co  Co14  1  0.250000  0.034469  0.432153  1
  Co  Co15  1  0.750000  0.534036  0.068984  1
  Co  Co16  1  0.750000  0.966718  0.569411  1
  Ni  Ni17  1  0.750000  0.286250  0.012722  1
  Ni  Ni18  1  0.750000  0.214293  0.509612  1
  Ni  Ni19  1  0.250000  0.406588  0.483001  1
  Ni  Ni20  1  0.250000  0.093435  0.984048  1
  Ni  Ni21  1  0.750000  0.588439  0.513552  1
  P  P22  1  0.250000  0.416494  0.111757  1
  P  P23  1  0.250000  0.083634  0.611960  1
  P  P24  1  0.750000  0.578934  0.887728  1
  P  P25  1  0.750000  0.919776  0.387578  1
  P  P26  1  0.250000  0.272089  0.865884  1
  P  P27  1  0.250000  0.226995  0.365302  1
  P  P28  1  0.750000  0.730022  0.132610  1
  P  P29  1  0.750000  0.771843  0.634385  1
  P  P30  1  0.250000  0.599144  0.386954  1
  P  P31  1  0.250000  0.902815  0.889885  1
  P  P32  1  0.750000  0.394114  0.612731  1
  P  P33  1  0.750000  0.103326  0.111026  1
  Ru  Ru34  1  0.250000  0.714454  0.992389  1
  Ru  Ru35  1  0.250000  0.786216  0.493895  1
