# generated using pymatgen
data_Pr4SmGd5Sn8
_symmetry_space_group_name_H-M   'P 1'
_cell_length_a   8.15716100
_cell_length_b   8.33792222
_cell_length_c   15.77593900
_cell_angle_alpha   89.91954600
_cell_angle_beta   90.00000000
_cell_angle_gamma   90.00000000
_symmetry_Int_Tables_number   1
_chemical_formula_structural   Pr4SmGd5Sn8
_chemical_formula_sum   'Pr8 Sm2 Gd10 Sn16'
_cell_volume   1072.98009125
_cell_formula_units_Z   2
loop_
 _symmetry_equiv_pos_site_id
 _symmetry_equiv_pos_as_xyz
  1  'x, y, z'
loop_
 _atom_site_type_symbol
 _atom_site_label
 _atom_site_symmetry_multiplicity
 _atom_site_fract_x
 _atom_site_fract_y
 _atom_site_fract_z
 _atom_site_occupancy
  Pr  Pr0  1  0.509098  0.319871  0.902985  1
  Pr  Pr1  1  0.009098  0.180129  0.597015  1
  Pr  Pr2  1  0.491949  0.680191  0.404415  1
  Pr  Pr3  1  0.991949  0.819809  0.095585  1
  Pr  Pr4  1  0.491340  0.679817  0.095944  1
  Pr  Pr5  1  0.991340  0.820183  0.404056  1
  Pr  Pr6  1  0.510085  0.319673  0.596509  1
  Pr  Pr7  1  0.010085  0.180327  0.903491  1
  Sm  Sm8  1  0.356626  0.833957  0.877720  1
  Sm  Sm9  1  0.856626  0.666043  0.622280  1
  Gd  Gd10  1  0.642357  0.165195  0.376301  1
  Gd  Gd11  1  0.142357  0.334805  0.123699  1
  Gd  Gd12  1  0.642813  0.165096  0.122381  1
  Gd  Gd13  1  0.142813  0.334904  0.377619  1
  Gd  Gd14  1  0.356048  0.833763  0.623271  1
  Gd  Gd15  1  0.856048  0.666237  0.876729  1
  Gd  Gd16  1  0.188051  0.500535  0.750214  1
  Gd  Gd17  1  0.688051  0.999465  0.749786  1
  Gd  Gd18  1  0.811675  0.497554  0.249964  1
  Gd  Gd19  1  0.311675  0.002446  0.250036  1
  Sn  Sn20  1  0.306381  0.041323  0.042039  1
  Sn  Sn21  1  0.806381  0.458677  0.457961  1
  Sn  Sn22  1  0.691642  0.962142  0.540852  1
  Sn  Sn23  1  0.191642  0.537858  0.959148  1
  Sn  Sn24  1  0.695366  0.961154  0.958777  1
  Sn  Sn25  1  0.195366  0.538846  0.541223  1
  Sn  Sn26  1  0.306806  0.040471  0.459123  1
  Sn  Sn27  1  0.806806  0.459529  0.040877  1
  Sn  Sn28  1  0.555130  0.617566  0.750463  1
  Sn  Sn29  1  0.055130  0.882434  0.749537  1
  Sn  Sn30  1  0.444028  0.381977  0.250375  1
  Sn  Sn31  1  0.944028  0.118023  0.249625  1
  Sn  Sn32  1  0.315138  0.141309  0.749791  1
  Sn  Sn33  1  0.815138  0.358691  0.750209  1
  Sn  Sn34  1  0.685470  0.859236  0.249890  1
  Sn  Sn35  1  0.185470  0.640764  0.250110  1
