# generated using pymatgen
data_NaLiHo(P3Pd10)2
_symmetry_space_group_name_H-M   'P 1'
_cell_length_a   8.62430100
_cell_length_b   8.62459155
_cell_length_c   8.62436600
_cell_angle_alpha   59.99923390
_cell_angle_beta   60.00092665
_cell_angle_gamma   60.00137232
_symmetry_Int_Tables_number   1
_chemical_formula_structural   NaLiHo(P3Pd10)2
_chemical_formula_sum   'Na1 Li1 Ho1 P6 Pd20'
_cell_volume   453.60690192
_cell_formula_units_Z   1
loop_
 _symmetry_equiv_pos_site_id
 _symmetry_equiv_pos_as_xyz
  1  'x, y, z'
loop_
 _atom_site_type_symbol
 _atom_site_label
 _atom_site_symmetry_multiplicity
 _atom_site_fract_x
 _atom_site_fract_y
 _atom_site_fract_z
 _atom_site_occupancy
  Na  Na0  1  0.249999  0.250002  0.250000  1
  Li  Li1  1  0.000000  0.000002  0.999999  1
  Ho  Ho2  1  0.749996  0.750002  0.749997  1
  P  P3  1  0.738644  0.261357  0.261369  1
  P  P4  1  0.261354  0.738659  0.738632  1
  P  P5  1  0.261364  0.738641  0.261365  1
  P  P6  1  0.738654  0.261351  0.738626  1
  P  P7  1  0.261366  0.261352  0.738634  1
  P  P8  1  0.738636  0.738635  0.261363  1
  Pd  Pd9  1  0.387533  0.387524  0.387526  1
  Pd  Pd10  1  0.616594  0.616601  0.616589  1
  Pd  Pd11  1  0.387523  0.387522  0.837432  1
  Pd  Pd12  1  0.387527  0.837419  0.387530  1
  Pd  Pd13  1  0.616596  0.616589  0.150225  1
  Pd  Pd14  1  0.616604  0.150212  0.616584  1
  Pd  Pd15  1  0.837414  0.387526  0.387527  1
  Pd  Pd16  1  0.150213  0.616603  0.616592  1
  Pd  Pd17  1  0.347557  0.996551  0.996558  1
  Pd  Pd18  1  0.659338  0.996550  0.996555  1
  Pd  Pd19  1  0.996559  0.347551  0.659326  1
  Pd  Pd20  1  0.996552  0.659339  0.347556  1
  Pd  Pd21  1  0.996546  0.347556  0.996565  1
  Pd  Pd22  1  0.659333  0.996557  0.347565  1
  Pd  Pd23  1  0.996545  0.659341  0.996554  1
  Pd  Pd24  1  0.347562  0.996555  0.659325  1
  Pd  Pd25  1  0.996547  0.996560  0.347564  1
  Pd  Pd26  1  0.996556  0.996556  0.659326  1
  Pd  Pd27  1  0.659335  0.347550  0.996564  1
  Pd  Pd28  1  0.347553  0.659340  0.996556  1
