# generated using pymatgen
data_Ho9Er(SiBi2)2
_symmetry_space_group_name_H-M   'P 1'
_cell_length_a   8.03003700
_cell_length_b   9.15592900
_cell_length_c   12.00555300
_cell_angle_alpha   90.00000000
_cell_angle_beta   90.00000000
_cell_angle_gamma   90.00157335
_symmetry_Int_Tables_number   1
_chemical_formula_structural   Ho9Er(SiBi2)2
_chemical_formula_sum   'Ho18 Er2 Si4 Bi8'
_cell_volume   882.67765366
_cell_formula_units_Z   2
loop_
 _symmetry_equiv_pos_site_id
 _symmetry_equiv_pos_as_xyz
  1  'x, y, z'
loop_
 _atom_site_type_symbol
 _atom_site_label
 _atom_site_symmetry_multiplicity
 _atom_site_fract_x
 _atom_site_fract_y
 _atom_site_fract_z
 _atom_site_occupancy
  Ho  Ho0  1  0.179199  0.053231  0.937273  1
  Ho  Ho1  1  0.320801  0.446769  0.437273  1
  Ho  Ho2  1  0.179212  0.446820  0.937306  1
  Ho  Ho3  1  0.320788  0.053180  0.437306  1
  Ho  Ho4  1  0.820747  0.946698  0.062708  1
  Ho  Ho5  1  0.679253  0.553302  0.562708  1
  Ho  Ho6  1  0.166546  0.749945  0.211651  1
  Ho  Ho7  1  0.333454  0.750055  0.711651  1
  Ho  Ho8  1  0.833390  0.249981  0.788300  1
  Ho  Ho9  1  0.666610  0.250019  0.288300  1
  Ho  Ho10  1  0.461352  0.749992  0.001465  1
  Ho  Ho11  1  0.038648  0.750008  0.501465  1
  Ho  Ho12  1  0.538788  0.250044  0.998530  1
  Ho  Ho13  1  0.961212  0.249956  0.498530  1
  Ho  Ho14  1  0.636996  0.750004  0.295395  1
  Ho  Ho15  1  0.863004  0.749996  0.795395  1
  Ho  Ho16  1  0.363120  0.249989  0.704586  1
  Ho  Ho17  1  0.136880  0.250011  0.204586  1
  Er  Er18  1  0.821108  0.553354  0.062730  1
  Er  Er19  1  0.678892  0.946646  0.562730  1
  Si  Si20  1  0.411910  0.750209  0.478800  1
  Si  Si21  1  0.088090  0.749791  0.978800  1
  Si  Si22  1  0.588346  0.249635  0.521312  1
  Si  Si23  1  0.911654  0.250365  0.021312  1
  Bi  Bi24  1  0.932982  0.511049  0.325310  1
  Bi  Bi25  1  0.567018  0.988951  0.825310  1
  Bi  Bi26  1  0.066881  0.011023  0.674593  1
  Bi  Bi27  1  0.433119  0.488977  0.174593  1
  Bi  Bi28  1  0.066928  0.489003  0.674637  1
  Bi  Bi29  1  0.433072  0.010997  0.174637  1
  Bi  Bi30  1  0.933078  0.988953  0.325404  1
  Bi  Bi31  1  0.566922  0.511047  0.825404  1
