# generated using pymatgen
data_TbY3HgIr
_symmetry_space_group_name_H-M   'P 1'
_cell_length_a   9.63958346
_cell_length_b   9.63958363
_cell_length_c   9.63958400
_cell_angle_alpha   59.99999874
_cell_angle_beta   59.99999814
_cell_angle_gamma   59.99999936
_symmetry_Int_Tables_number   1
_chemical_formula_structural   TbY3HgIr
_chemical_formula_sum   'Tb4 Y12 Hg4 Ir4'
_cell_volume   633.37340736
_cell_formula_units_Z   4
loop_
 _symmetry_equiv_pos_site_id
 _symmetry_equiv_pos_as_xyz
  1  'x, y, z'
loop_
 _atom_site_type_symbol
 _atom_site_label
 _atom_site_symmetry_multiplicity
 _atom_site_fract_x
 _atom_site_fract_y
 _atom_site_fract_z
 _atom_site_occupancy
  Tb  Tb0  1  0.350621  0.350621  0.350621  1
  Tb  Tb1  1  0.350621  0.350621  0.948137  1
  Tb  Tb2  1  0.350621  0.948137  0.350621  1
  Tb  Tb3  1  0.948137  0.350621  0.350621  1
  Y  Y4  1  0.809370  0.190630  0.190630  1
  Y  Y5  1  0.190630  0.809370  0.809370  1
  Y  Y6  1  0.190630  0.809370  0.190630  1
  Y  Y7  1  0.809370  0.190630  0.809370  1
  Y  Y8  1  0.190630  0.190630  0.809370  1
  Y  Y9  1  0.809370  0.809370  0.190630  1
  Y  Y10  1  0.938831  0.561169  0.561169  1
  Y  Y11  1  0.561169  0.938831  0.938831  1
  Y  Y12  1  0.561169  0.938831  0.561169  1
  Y  Y13  1  0.938831  0.561169  0.938831  1
  Y  Y14  1  0.561169  0.561169  0.938831  1
  Y  Y15  1  0.938831  0.938831  0.561169  1
  Hg  Hg16  1  0.584824  0.584824  0.584824  1
  Hg  Hg17  1  0.584824  0.584824  0.245530  1
  Hg  Hg18  1  0.584824  0.245530  0.584824  1
  Hg  Hg19  1  0.245530  0.584824  0.584824  1
  Ir  Ir20  1  0.142132  0.142132  0.142132  1
  Ir  Ir21  1  0.142132  0.142132  0.573603  1
  Ir  Ir22  1  0.142132  0.573603  0.142132  1
  Ir  Ir23  1  0.573603  0.142132  0.142132  1
