# generated using pymatgen
data_Yb4Y3Ho3(CuPb3)2
_symmetry_space_group_name_H-M   'P 1'
_cell_length_a   9.22815708
_cell_length_b   9.22596825
_cell_length_c   6.79910400
_cell_angle_alpha   90.00000000
_cell_angle_beta   90.00000000
_cell_angle_gamma   120.02294633
_symmetry_Int_Tables_number   1
_chemical_formula_structural   Yb4Y3Ho3(CuPb3)2
_chemical_formula_sum   'Yb4 Y3 Ho3 Cu2 Pb6'
_cell_volume   501.19737202
_cell_formula_units_Z   1
loop_
 _symmetry_equiv_pos_site_id
 _symmetry_equiv_pos_as_xyz
  1  'x, y, z'
loop_
 _atom_site_type_symbol
 _atom_site_label
 _atom_site_symmetry_multiplicity
 _atom_site_fract_x
 _atom_site_fract_y
 _atom_site_fract_z
 _atom_site_occupancy
  Yb  Yb0  1  0.333333  0.666632  0.499950  1
  Yb  Yb1  1  0.666666  0.333498  0.499952  1
  Yb  Yb2  1  0.666666  0.333498  0.000048  1
  Yb  Yb3  1  0.333333  0.666632  0.000050  1
  Y  Y4  1  0.258659  0.999995  0.750000  1
  Y  Y5  1  0.741263  0.999953  0.250000  1
  Y  Y6  1  0.000037  0.258635  0.750000  1
  Ho  Ho7  1  0.999964  0.741928  0.250000  1
  Ho  Ho8  1  0.741999  0.741952  0.750000  1
  Ho  Ho9  1  0.258069  0.258047  0.250000  1
  Cu  Cu10  1  0.000002  0.999432  0.499489  1
  Cu  Cu11  1  0.000002  0.999432  0.000511  1
  Pb  Pb12  1  0.613732  0.999722  0.750000  1
  Pb  Pb13  1  0.385831  0.000021  0.250000  1
  Pb  Pb14  1  0.999709  0.613801  0.750000  1
  Pb  Pb15  1  0.000305  0.386657  0.250000  1
  Pb  Pb16  1  0.386727  0.386742  0.750000  1
  Pb  Pb17  1  0.613703  0.613425  0.250000  1
