# generated using pymatgen
data_LuSc5(SnPd)6
_symmetry_space_group_name_H-M   'P 1'
_cell_length_a   7.58918319
_cell_length_b   7.56818278
_cell_length_c   7.25053900
_cell_angle_alpha   90.00000000
_cell_angle_beta   90.00000000
_cell_angle_gamma   119.88619462
_symmetry_Int_Tables_number   1
_chemical_formula_structural   LuSc5(SnPd)6
_chemical_formula_sum   'Lu1 Sc5 Sn6 Pd6'
_cell_volume   361.06423437
_cell_formula_units_Z   1
loop_
 _symmetry_equiv_pos_site_id
 _symmetry_equiv_pos_as_xyz
  1  'x, y, z'
loop_
 _atom_site_type_symbol
 _atom_site_label
 _atom_site_symmetry_multiplicity
 _atom_site_fract_x
 _atom_site_fract_y
 _atom_site_fract_z
 _atom_site_occupancy
  Lu  Lu0  1  0.386641  0.984014  0.750000  1
  Sc  Sc1  1  0.400200  0.014806  0.250000  1
  Sc  Sc2  1  0.614453  0.599748  0.250000  1
  Sc  Sc3  1  0.985441  0.385595  0.250000  1
  Sc  Sc4  1  0.599813  0.614216  0.750000  1
  Sc  Sc5  1  0.014739  0.400126  0.750000  1
  Sn  Sn6  1  0.727313  0.999685  0.003066  1
  Sn  Sn7  1  0.274193  0.276055  0.498678  1
  Sn  Sn8  1  0.997638  0.723857  0.498088  1
  Sn  Sn9  1  0.997638  0.723857  0.001912  1
  Sn  Sn10  1  0.274193  0.276055  0.001322  1
  Sn  Sn11  1  0.727313  0.999685  0.496934  1
  Pd  Pd12  1  0.333011  0.666316  0.032140  1
  Pd  Pd13  1  0.333011  0.666316  0.467860  1
  Pd  Pd14  1  0.667627  0.334665  0.971790  1
  Pd  Pd15  1  0.667627  0.334665  0.528210  1
  Pd  Pd16  1  0.000568  0.000289  0.250000  1
  Pd  Pd17  1  0.998580  0.000051  0.750000  1
