# generated using pymatgen
data_ZnS2O7
_symmetry_space_group_name_H-M   'P 1'
_cell_length_a   4.96865540
_cell_length_b   7.04433858
_cell_length_c   8.40923179
_cell_angle_alpha   92.91914362
_cell_angle_beta   93.85715569
_cell_angle_gamma   105.96028072
_symmetry_Int_Tables_number   1
_chemical_formula_structural   ZnS2O7
_chemical_formula_sum   'Zn2 S4 O14'
_cell_volume   281.60354035
_cell_formula_units_Z   2
loop_
 _symmetry_equiv_pos_site_id
 _symmetry_equiv_pos_as_xyz
  1  'x, y, z'
loop_
 _atom_site_type_symbol
 _atom_site_label
 _atom_site_symmetry_multiplicity
 _atom_site_fract_x
 _atom_site_fract_y
 _atom_site_fract_z
 _atom_site_occupancy
  Zn  Zn0  1  0.000000  0.500000  0.000000  1
  Zn  Zn1  1  0.500000  0.000000  0.500000  1
  S  S2  1  0.504747  0.646162  0.769248  1
  S  S3  1  0.495253  0.353838  0.230752  1
  S  S4  1  0.129776  0.250391  0.688867  1
  S  S5  1  0.870224  0.749609  0.311133  1
  O  O6  1  0.730193  0.559655  0.814995  1
  O  O7  1  0.269807  0.440345  0.185005  1
  O  O8  1  0.342946  0.685580  0.899538  1
  O  O9  1  0.657054  0.314420  0.100462  1
  O  O10  1  0.591399  0.809295  0.668490  1
  O  O11  1  0.408601  0.190705  0.331510  1
  O  O12  1  0.282284  0.478580  0.642140  1
  O  O13  1  0.717716  0.521420  0.357860  1
  O  O14  1  0.902655  0.194458  0.562616  1
  O  O15  1  0.097345  0.805542  0.437384  1
  O  O16  1  0.339895  0.141566  0.679856  1
  O  O17  1  0.660105  0.858434  0.320144  1
  O  O18  1  0.047301  0.265429  0.851442  1
  O  O19  1  0.952699  0.734571  0.148558  1
