# generated using pymatgen
data_AlCd2PbF9
_symmetry_space_group_name_H-M   'P 1'
_cell_length_a   5.42882774
_cell_length_b   5.44502953
_cell_length_c   12.36231671
_cell_angle_alpha   91.48849142
_cell_angle_beta   101.14101658
_cell_angle_gamma   92.75213443
_symmetry_Int_Tables_number   1
_chemical_formula_structural   AlCd2PbF9
_chemical_formula_sum   'Al2 Cd4 Pb2 F18'
_cell_volume   357.89961087
_cell_formula_units_Z   2
loop_
 _symmetry_equiv_pos_site_id
 _symmetry_equiv_pos_as_xyz
  1  'x, y, z'
loop_
 _atom_site_type_symbol
 _atom_site_label
 _atom_site_symmetry_multiplicity
 _atom_site_fract_x
 _atom_site_fract_y
 _atom_site_fract_z
 _atom_site_occupancy
  Al  Al0  1  0.800250  0.790123  0.182474  1
  Al  Al1  1  0.199750  0.209877  0.817526  1
  Cd  Cd2  1  0.958378  0.241937  0.386924  1
  Cd  Cd3  1  0.041622  0.758063  0.613076  1
  Cd  Cd4  1  0.550927  0.266009  0.613281  1
  Cd  Cd5  1  0.449073  0.733991  0.386719  1
  Pb  Pb6  1  0.730100  0.713458  0.894701  1
  Pb  Pb7  1  0.269900  0.286542  0.105299  1
  F  F8  1  0.146118  0.955334  0.903936  1
  F  F9  1  0.853882  0.044666  0.096064  1
  F  F10  1  0.258943  0.456626  0.727190  1
  F  F11  1  0.741057  0.543374  0.272810  1
  F  F12  1  0.632180  0.996043  0.265441  1
  F  F13  1  0.367820  0.003957  0.734559  1
  F  F14  1  0.960128  0.594399  0.098687  1
  F  F15  1  0.039872  0.405601  0.901313  1
  F  F16  1  0.089496  0.890716  0.279990  1
  F  F17  1  0.910504  0.109284  0.720010  1
  F  F18  1  0.503229  0.700266  0.091095  1
  F  F19  1  0.496771  0.299734  0.908905  1
  F  F20  1  0.747906  0.986280  0.497814  1
  F  F21  1  0.252094  0.013720  0.502186  1
  F  F22  1  0.746985  0.482005  0.491386  1
  F  F23  1  0.253015  0.517995  0.508614  1
  F  F24  1  0.750356  0.607872  0.708268  1
  F  F25  1  0.249644  0.392128  0.291732  1
