# generated using pymatgen
data_Pr2NiIrI
_symmetry_space_group_name_H-M   'P 1'
_cell_length_a   4.19426100
_cell_length_b   4.19426025
_cell_length_c   17.73710500
_cell_angle_alpha   90.00000000
_cell_angle_beta   90.00000000
_cell_angle_gamma   119.99999802
_symmetry_Int_Tables_number   1
_chemical_formula_structural   Pr2NiIrI
_chemical_formula_sum   'Pr4 Ni2 Ir2 I2'
_cell_volume   270.22417784
_cell_formula_units_Z   2
loop_
 _symmetry_equiv_pos_site_id
 _symmetry_equiv_pos_as_xyz
  1  'x, y, z'
loop_
 _atom_site_type_symbol
 _atom_site_label
 _atom_site_symmetry_multiplicity
 _atom_site_fract_x
 _atom_site_fract_y
 _atom_site_fract_z
 _atom_site_occupancy
  Pr  Pr0  1  0.000000  0.000000  0.606460  1
  Pr  Pr1  1  0.000000  0.000000  0.393019  1
  Pr  Pr2  1  0.000000  0.000000  0.106460  1
  Pr  Pr3  1  0.000000  0.000000  0.893019  1
  Ni  Ni4  1  0.666667  0.333333  0.000423  1
  Ni  Ni5  1  0.333333  0.666667  0.500423  1
  Ir  Ir6  1  0.666667  0.333333  0.500038  1
  Ir  Ir7  1  0.333333  0.666667  0.000038  1
  I  I8  1  0.666667  0.333333  0.250060  1
  I  I9  1  0.333333  0.666667  0.750060  1
