# generated using pymatgen
data_Hf5ZrAl16RuPt6
_symmetry_space_group_name_H-M   'P 1'
_cell_length_a   8.74100408
_cell_length_b   8.74100453
_cell_length_c   8.74643700
_cell_angle_alpha   59.97943528
_cell_angle_beta   59.97943357
_cell_angle_gamma   60.04113141
_symmetry_Int_Tables_number   1
_chemical_formula_structural   Hf5ZrAl16RuPt6
_chemical_formula_sum   'Hf5 Zr1 Al16 Ru1 Pt6'
_cell_volume   472.53992478
_cell_formula_units_Z   1
loop_
 _symmetry_equiv_pos_site_id
 _symmetry_equiv_pos_as_xyz
  1  'x, y, z'
loop_
 _atom_site_type_symbol
 _atom_site_label
 _atom_site_symmetry_multiplicity
 _atom_site_fract_x
 _atom_site_fract_y
 _atom_site_fract_z
 _atom_site_occupancy
  Hf  Hf0  1  0.184139  0.814801  0.815861  1
  Hf  Hf1  1  0.814801  0.184139  0.185199  1
  Hf  Hf2  1  0.814801  0.184139  0.815861  1
  Hf  Hf3  1  0.818001  0.818001  0.181999  1
  Hf  Hf4  1  0.184139  0.814801  0.185199  1
  Zr  Zr5  1  0.185148  0.185148  0.814852  1
  Al  Al6  1  0.835904  0.835904  0.835977  1
  Al  Al7  1  0.835904  0.835904  0.492214  1
  Al  Al8  1  0.492903  0.835399  0.835848  1
  Al  Al9  1  0.835399  0.492903  0.835848  1
  Al  Al10  1  0.164152  0.164152  0.164601  1
  Al  Al11  1  0.164152  0.164152  0.507097  1
  Al  Al12  1  0.164023  0.507786  0.164096  1
  Al  Al13  1  0.507786  0.164023  0.164096  1
  Al  Al14  1  0.617742  0.617742  0.617986  1
  Al  Al15  1  0.617742  0.617742  0.146532  1
  Al  Al16  1  0.146444  0.618221  0.617668  1
  Al  Al17  1  0.618221  0.146444  0.617668  1
  Al  Al18  1  0.382332  0.382332  0.381779  1
  Al  Al19  1  0.382332  0.382332  0.853556  1
  Al  Al20  1  0.382014  0.853468  0.382258  1
  Al  Al21  1  0.853468  0.382014  0.382258  1
  Ru  Ru22  1  0.499802  0.499802  0.500198  1
  Pt  Pt23  1  0.999221  0.500300  0.499700  1
  Pt  Pt24  1  0.500300  0.999221  0.000779  1
  Pt  Pt25  1  0.500300  0.999221  0.499700  1
  Pt  Pt26  1  0.499804  0.499804  0.000196  1
  Pt  Pt27  1  0.999221  0.500300  0.000779  1
  Pt  Pt28  1  0.999804  0.999804  0.500196  1
