# generated using pymatgen
data_Er4Th(MnB3)2
_symmetry_space_group_name_H-M   'P 1'
_cell_length_a   5.39602053
_cell_length_b   5.39602078
_cell_length_c   8.16404885
_cell_angle_alpha   70.70242147
_cell_angle_beta   70.70241840
_cell_angle_gamma   59.99998198
_symmetry_Int_Tables_number   1
_chemical_formula_structural   Er4Th(MnB3)2
_chemical_formula_sum   'Er4 Th1 Mn2 B6'
_cell_volume   190.28713809
_cell_formula_units_Z   1
loop_
 _symmetry_equiv_pos_site_id
 _symmetry_equiv_pos_as_xyz
  1  'x, y, z'
loop_
 _atom_site_type_symbol
 _atom_site_label
 _atom_site_symmetry_multiplicity
 _atom_site_fract_x
 _atom_site_fract_y
 _atom_site_fract_z
 _atom_site_occupancy
  Er  Er0  1  0.250716  0.250716  0.247851  1
  Er  Er1  1  0.749284  0.749284  0.752149  1
  Er  Er2  1  0.416348  0.416348  0.750958  1
  Er  Er3  1  0.583652  0.583652  0.249042  1
  Th  Th4  1  0.000000  0.000000  0.000000  1
  Mn  Mn5  1  0.112772  0.112772  0.661685  1
  Mn  Mn6  1  0.887228  0.887228  0.338315  1
  B  B7  1  0.166982  0.833018  0.500000  1
  B  B8  1  0.833018  0.500000  0.500000  1
  B  B9  1  0.500000  0.166982  0.500000  1
  B  B10  1  0.166982  0.500000  0.500000  1
  B  B11  1  0.500000  0.833018  0.500000  1
  B  B12  1  0.833018  0.166982  0.500000  1
