# generated using pymatgen
data_Tb5Th9(Os2Ru)2
_symmetry_space_group_name_H-M   'P 1'
_cell_length_a   9.84871304
_cell_length_b   9.97683097
_cell_length_c   6.34669241
_cell_angle_alpha   89.96146147
_cell_angle_beta   90.23926073
_cell_angle_gamma   120.54620789
_symmetry_Int_Tables_number   1
_chemical_formula_structural   Tb5Th9(Os2Ru)2
_chemical_formula_sum   'Tb5 Th9 Os4 Ru2'
_cell_volume   537.06769753
_cell_formula_units_Z   1
loop_
 _symmetry_equiv_pos_site_id
 _symmetry_equiv_pos_as_xyz
  1  'x, y, z'
loop_
 _atom_site_type_symbol
 _atom_site_label
 _atom_site_symmetry_multiplicity
 _atom_site_fract_x
 _atom_site_fract_y
 _atom_site_fract_z
 _atom_site_occupancy
  Tb  Tb0  1  0.460542  0.535964  0.297357  1
  Tb  Tb1  1  0.072411  0.534978  0.299553  1
  Tb  Tb2  1  0.923899  0.459683  0.799356  1
  Tb  Tb3  1  0.252140  0.125607  0.509547  1
  Tb  Tb4  1  0.541875  0.077727  0.794852  1
  Th  Th5  1  0.747604  0.875663  0.013215  1
  Th  Th6  1  0.667131  0.333307  0.270461  1
  Th  Th7  1  0.128176  0.872765  0.005502  1
  Th  Th8  1  0.459026  0.923499  0.301564  1
  Th  Th9  1  0.536568  0.463151  0.796389  1
  Th  Th10  1  0.879765  0.133066  0.513899  1
  Th  Th11  1  0.126539  0.251457  0.011093  1
  Th  Th12  1  0.875516  0.746637  0.508166  1
  Th  Th13  1  0.331997  0.666460  0.768899  1
  Os  Os14  1  0.810810  0.629475  0.045830  1
  Os  Os15  1  0.817275  0.183030  0.053728  1
  Os  Os16  1  0.631053  0.818054  0.544288  1
  Os  Os17  1  0.371849  0.187894  0.042625  1
  Ru  Ru18  1  0.182162  0.373993  0.559847  1
  Ru  Ru19  1  0.183662  0.807589  0.547827  1
