# generated using pymatgen
data_Nd2SmBi(Mo2O7)2
_symmetry_space_group_name_H-M   'P 1'
_cell_length_a   7.54503399
_cell_length_b   7.47649768
_cell_length_c   7.48562635
_cell_angle_alpha   119.43049205
_cell_angle_beta   120.29899679
_cell_angle_gamma   90.10132433
_symmetry_Int_Tables_number   1
_chemical_formula_structural   Nd2SmBi(Mo2O7)2
_chemical_formula_sum   'Nd2 Sm1 Bi1 Mo4 O14'
_cell_volume   299.52583014
_cell_formula_units_Z   1
loop_
 _symmetry_equiv_pos_site_id
 _symmetry_equiv_pos_as_xyz
  1  'x, y, z'
loop_
 _atom_site_type_symbol
 _atom_site_label
 _atom_site_symmetry_multiplicity
 _atom_site_fract_x
 _atom_site_fract_y
 _atom_site_fract_z
 _atom_site_occupancy
  Nd  Nd0  1  0.375000  0.625000  0.250000  1
  Nd  Nd1  1  0.875000  0.625000  0.250000  1
  Sm  Sm2  1  0.375000  0.125000  0.750000  1
  Bi  Bi3  1  0.375000  0.625000  0.750000  1
  Mo  Mo4  1  0.875000  0.625000  0.750000  1
  Mo  Mo5  1  0.375000  0.125000  0.250000  1
  Mo  Mo6  1  0.875000  0.125000  0.250000  1
  Mo  Mo7  1  0.875000  0.125000  0.750000  1
  O  O8  1  0.779939  0.199813  0.993259  1
  O  O9  1  0.547992  0.462236  0.498275  1
  O  O10  1  0.209329  0.207511  0.999210  1
  O  O11  1  0.955834  0.456323  0.497546  1
  O  O12  1  0.797314  0.796085  0.580827  1
  O  O13  1  0.536696  0.033582  0.082616  1
  O  O14  1  0.250864  0.754580  0.500817  1
  O  O15  1  0.952686  0.453915  0.919173  1
  O  O16  1  0.970061  0.050187  0.506741  1
  O  O17  1  0.540671  0.042489  0.500790  1
  O  O18  1  0.213304  0.216418  0.417384  1
  O  O19  1  0.499136  0.495420  0.999183  1
  O  O20  1  0.794166  0.793677  0.002454  1
  O  O21  1  0.202008  0.787764  0.001725  1
