# generated using pymatgen
data_Hf18Re3Mo5RuSe
_symmetry_space_group_name_H-M   'P 1'
_cell_length_a   8.70179620
_cell_length_b   8.71344176
_cell_length_c   8.57613000
_cell_angle_alpha   90.00000000
_cell_angle_beta   90.00000000
_cell_angle_gamma   120.11298872
_symmetry_Int_Tables_number   1
_chemical_formula_structural   Hf18Re3Mo5RuSe
_chemical_formula_sum   'Hf18 Re3 Mo5 Ru1 Se1'
_cell_volume   562.50324928
_cell_formula_units_Z   1
loop_
 _symmetry_equiv_pos_site_id
 _symmetry_equiv_pos_as_xyz
  1  'x, y, z'
loop_
 _atom_site_type_symbol
 _atom_site_label
 _atom_site_symmetry_multiplicity
 _atom_site_fract_x
 _atom_site_fract_y
 _atom_site_fract_z
 _atom_site_occupancy
  Hf  Hf0  1  0.198306  0.801632  0.444217  1
  Hf  Hf1  1  0.198865  0.397235  0.445418  1
  Hf  Hf2  1  0.603316  0.801367  0.446080  1
  Hf  Hf3  1  0.806441  0.192647  0.547501  1
  Hf  Hf4  1  0.806632  0.614645  0.546559  1
  Hf  Hf5  1  0.386211  0.193330  0.545769  1
  Hf  Hf6  1  0.806441  0.192647  0.952499  1
  Hf  Hf7  1  0.806632  0.614645  0.953441  1
  Hf  Hf8  1  0.386211  0.193330  0.954231  1
  Hf  Hf9  1  0.198306  0.801632  0.055783  1
  Hf  Hf10  1  0.198865  0.397235  0.054582  1
  Hf  Hf11  1  0.603316  0.801367  0.053920  1
  Hf  Hf12  1  0.542293  0.458309  0.250000  1
  Hf  Hf13  1  0.541321  0.084315  0.250000  1
  Hf  Hf14  1  0.915148  0.458678  0.250000  1
  Hf  Hf15  1  0.456636  0.545347  0.750000  1
  Hf  Hf16  1  0.456590  0.911588  0.750000  1
  Hf  Hf17  1  0.088265  0.544328  0.750000  1
  Re  Re18  1  0.888450  0.775944  0.250000  1
  Re  Re19  1  0.224494  0.111548  0.250000  1
  Re  Re20  1  0.776337  0.887681  0.750000  1
  Mo  Mo21  1  0.889581  0.109961  0.250000  1
  Mo  Mo22  1  0.109980  0.888999  0.750000  1
  Mo  Mo23  1  0.110670  0.221571  0.750000  1
  Mo  Mo24  1  0.999760  0.999648  0.498401  1
  Mo  Mo25  1  0.999760  0.999648  0.001599  1
  Ru  Ru26  1  0.334226  0.666902  0.250000  1
  Se  Se27  1  0.666949  0.333819  0.750000  1
