# generated using pymatgen
data_Tb4Al24Pt8Au
_symmetry_space_group_name_H-M   'P 1'
_cell_length_a   7.55814808
_cell_length_b   7.57642500
_cell_length_c   13.19081189
_cell_angle_alpha   84.54216494
_cell_angle_beta   79.02139536
_cell_angle_gamma   59.89617302
_symmetry_Int_Tables_number   1
_chemical_formula_structural   Tb4Al24Pt8Au
_chemical_formula_sum   'Tb4 Al24 Pt8 Au1'
_cell_volume   641.51169648
_cell_formula_units_Z   1
loop_
 _symmetry_equiv_pos_site_id
 _symmetry_equiv_pos_as_xyz
  1  'x, y, z'
loop_
 _atom_site_type_symbol
 _atom_site_label
 _atom_site_symmetry_multiplicity
 _atom_site_fract_x
 _atom_site_fract_y
 _atom_site_fract_z
 _atom_site_occupancy
  Tb  Tb0  1  0.392604  0.169311  0.808793  1
  Tb  Tb1  1  0.606009  0.831880  0.192222  1
  Tb  Tb2  1  0.734219  0.499003  0.808642  1
  Tb  Tb3  1  0.266908  0.501103  0.191472  1
  Al  Al4  1  0.683461  0.834017  0.945515  1
  Al  Al5  1  0.315386  0.166094  0.055752  1
  Al  Al6  1  0.146935  0.838675  0.559934  1
  Al  Al7  1  0.854174  0.167279  0.436779  1
  Al  Al8  1  0.487814  0.160023  0.557516  1
  Al  Al9  1  0.520077  0.833521  0.439892  1
  Al  Al10  1  0.217355  0.165190  0.329717  1
  Al  Al11  1  0.777819  0.839124  0.672261  1
  Al  Al12  1  0.440786  0.507026  0.672380  1
  Al  Al13  1  0.562778  0.493407  0.329490  1
  Al  Al14  1  0.109061  0.154497  0.671234  1
  Al  Al15  1  0.890120  0.839999  0.330714  1
  Al  Al16  1  0.352938  0.499189  0.945454  1
  Al  Al17  1  0.647555  0.500296  0.055689  1
  Al  Al18  1  0.015063  0.167484  0.954181  1
  Al  Al19  1  0.984433  0.832691  0.046991  1
  Al  Al20  1  0.188022  0.499605  0.436509  1
  Al  Al21  1  0.807318  0.500209  0.557469  1
  Al  Al22  1  0.734280  0.163936  0.183743  1
  Al  Al23  1  0.266437  0.835464  0.816580  1
  Al  Al24  1  0.060727  0.633488  0.817900  1
  Al  Al25  1  0.938283  0.368747  0.185110  1
  Al  Al26  1  0.854635  0.041697  0.816104  1
  Al  Al27  1  0.144375  0.958534  0.184156  1
  Pt  Pt28  1  0.879317  0.508207  0.361751  1
  Pt  Pt29  1  0.657661  0.171207  0.999437  1
  Pt  Pt30  1  0.342654  0.828540  0.999680  1
  Pt  Pt31  1  0.537525  0.166675  0.361837  1
  Pt  Pt32  1  0.462335  0.833400  0.637544  1
  Pt  Pt33  1  0.779617  0.174925  0.636366  1
  Pt  Pt34  1  0.220828  0.824946  0.362939  1
  Pt  Pt35  1  0.999923  0.499833  0.000343  1
  Au  Au36  1  0.120571  0.490774  0.637910  1
