# generated using pymatgen
data_Tb2Y3Zr3Pt4
_symmetry_space_group_name_H-M   'P 1'
_cell_length_a   4.74784600
_cell_length_b   7.15553728
_cell_length_c   8.35633232
_cell_angle_alpha   89.57923576
_cell_angle_beta   90.00000000
_cell_angle_gamma   90.00000000
_symmetry_Int_Tables_number   1
_chemical_formula_structural   Tb2Y3Zr3Pt4
_chemical_formula_sum   'Tb2 Y3 Zr3 Pt4'
_cell_volume   283.88527355
_cell_formula_units_Z   1
loop_
 _symmetry_equiv_pos_site_id
 _symmetry_equiv_pos_as_xyz
  1  'x, y, z'
loop_
 _atom_site_type_symbol
 _atom_site_label
 _atom_site_symmetry_multiplicity
 _atom_site_fract_x
 _atom_site_fract_y
 _atom_site_fract_z
 _atom_site_occupancy
  Tb  Tb0  1  0.250000  0.352582  0.583351  1
  Tb  Tb1  1  0.250000  0.982736  0.318780  1
  Y  Y2  1  0.250000  0.485222  0.177087  1
  Y  Y3  1  0.750000  0.009128  0.675400  1
  Y  Y4  1  0.750000  0.519427  0.829229  1
  Zr  Zr5  1  0.250000  0.852079  0.920456  1
  Zr  Zr6  1  0.750000  0.144079  0.077422  1
  Zr  Zr7  1  0.750000  0.646926  0.419274  1
  Pt  Pt8  1  0.250000  0.225722  0.919045  1
  Pt  Pt9  1  0.250000  0.744081  0.591934  1
  Pt  Pt10  1  0.750000  0.771202  0.093966  1
  Pt  Pt11  1  0.750000  0.266814  0.394056  1
