# generated using pymatgen
data_Dy3Er5Cd2NiRu
_symmetry_space_group_name_H-M   'P 1'
_cell_length_a   9.54966224
_cell_length_b   9.54966308
_cell_length_c   9.61808100
_cell_angle_alpha   59.76271463
_cell_angle_beta   59.76271170
_cell_angle_gamma   59.57267948
_symmetry_Int_Tables_number   1
_chemical_formula_structural   Dy3Er5Cd2NiRu
_chemical_formula_sum   'Dy6 Er10 Cd4 Ni2 Ru2'
_cell_volume   615.98535082
_cell_formula_units_Z   2
loop_
 _symmetry_equiv_pos_site_id
 _symmetry_equiv_pos_as_xyz
  1  'x, y, z'
loop_
 _atom_site_type_symbol
 _atom_site_label
 _atom_site_symmetry_multiplicity
 _atom_site_fract_x
 _atom_site_fract_y
 _atom_site_fract_z
 _atom_site_occupancy
  Dy  Dy0  1  0.188617  0.808296  0.815641  1
  Dy  Dy1  1  0.808296  0.188617  0.187446  1
  Dy  Dy2  1  0.808296  0.188617  0.815641  1
  Dy  Dy3  1  0.188617  0.808296  0.187446  1
  Dy  Dy4  1  0.814579  0.814579  0.185421  1
  Dy  Dy5  1  0.190944  0.190944  0.809056  1
  Er  Er6  1  0.599331  0.599331  0.592432  1
  Er  Er7  1  0.599331  0.599331  0.208905  1
  Er  Er8  1  0.602270  0.206579  0.595576  1
  Er  Er9  1  0.206579  0.602270  0.595576  1
  Er  Er10  1  0.061883  0.435614  0.438890  1
  Er  Er11  1  0.435614  0.061883  0.063611  1
  Er  Er12  1  0.435614  0.061883  0.438890  1
  Er  Er13  1  0.061883  0.435614  0.063611  1
  Er  Er14  1  0.437026  0.437026  0.062974  1
  Er  Er15  1  0.061570  0.061570  0.438430  1
  Cd  Cd16  1  0.828911  0.828911  0.832423  1
  Cd  Cd17  1  0.828911  0.828911  0.509754  1
  Cd  Cd18  1  0.829346  0.507036  0.831809  1
  Cd  Cd19  1  0.507036  0.829346  0.831809  1
  Ni  Ni20  1  0.392277  0.826280  0.390721  1
  Ni  Ni21  1  0.826280  0.392277  0.390721  1
  Ru  Ru22  1  0.393393  0.393393  0.389695  1
  Ru  Ru23  1  0.393393  0.393393  0.823517  1
