# generated using pymatgen
data_YbHoAl20IrOs3
_symmetry_space_group_name_H-M   'P 1'
_cell_length_a   6.86676404
_cell_length_b   6.86572629
_cell_length_c   9.15371455
_cell_angle_alpha   90.21431181
_cell_angle_beta   90.06648726
_cell_angle_gamma   96.42296048
_symmetry_Int_Tables_number   1
_chemical_formula_structural   YbHoAl20IrOs3
_chemical_formula_sum   'Yb1 Ho1 Al20 Ir1 Os3'
_cell_volume   428.84248550
_cell_formula_units_Z   1
loop_
 _symmetry_equiv_pos_site_id
 _symmetry_equiv_pos_as_xyz
  1  'x, y, z'
loop_
 _atom_site_type_symbol
 _atom_site_label
 _atom_site_symmetry_multiplicity
 _atom_site_fract_x
 _atom_site_fract_y
 _atom_site_fract_z
 _atom_site_occupancy
  Yb  Yb0  1  0.371670  0.625947  0.250317  1
  Ho  Ho1  1  0.630077  0.373375  0.749625  1
  Al  Al2  1  0.280741  0.018115  0.747882  1
  Al  Al3  1  0.019842  0.282756  0.249246  1
  Al  Al4  1  0.718968  0.979979  0.252267  1
  Al  Al5  1  0.982368  0.718680  0.750560  1
  Al  Al6  1  0.878722  0.123894  0.948978  1
  Al  Al7  1  0.121336  0.875543  0.046364  1
  Al  Al8  1  0.876817  0.123519  0.549420  1
  Al  Al9  1  0.123702  0.875657  0.454887  1
  Al  Al10  1  0.646548  0.917942  0.749210  1
  Al  Al11  1  0.915793  0.646547  0.250332  1
  Al  Al12  1  0.352693  0.084273  0.251031  1
  Al  Al13  1  0.083063  0.354621  0.749659  1
  Al  Al14  1  0.342948  0.654523  0.896915  1
  Al  Al15  1  0.659734  0.341897  0.102908  1
  Al  Al16  1  0.345061  0.655859  0.600838  1
  Al  Al17  1  0.658199  0.340551  0.399068  1
  Al  Al18  1  0.723393  0.723602  0.998615  1
  Al  Al19  1  0.722390  0.723758  0.500897  1
  Al  Al20  1  0.275006  0.278189  0.000688  1
  Al  Al21  1  0.275575  0.277852  0.500112  1
  Ir  Ir22  1  0.499376  0.001190  0.999438  1
  Os  Os23  1  0.998241  0.500067  0.999291  1
  Os  Os24  1  0.499681  0.001559  0.500725  1
  Os  Os25  1  0.998055  0.500104  0.500726  1
