# generated using pymatgen
data_Er3Pa(Al3Co)6
_symmetry_space_group_name_H-M   'P 1'
_cell_length_a   7.41160806
_cell_length_b   7.41062152
_cell_length_c   9.28139100
_cell_angle_alpha   90.00000000
_cell_angle_beta   90.00000000
_cell_angle_gamma   119.30610165
_symmetry_Int_Tables_number   1
_chemical_formula_structural   Er3Pa(Al3Co)6
_chemical_formula_sum   'Er3 Pa1 Al18 Co6'
_cell_volume   444.53419485
_cell_formula_units_Z   1
loop_
 _symmetry_equiv_pos_site_id
 _symmetry_equiv_pos_as_xyz
  1  'x, y, z'
loop_
 _atom_site_type_symbol
 _atom_site_label
 _atom_site_symmetry_multiplicity
 _atom_site_fract_x
 _atom_site_fract_y
 _atom_site_fract_z
 _atom_site_occupancy
  Er  Er0  1  0.005535  0.328458  0.250000  1
  Er  Er1  1  0.673729  0.993774  0.750000  1
  Er  Er2  1  0.327660  0.004944  0.250000  1
  Pa  Pa3  1  0.995322  0.673245  0.750000  1
  Al  Al4  1  0.128520  0.127967  0.750000  1
  Al  Al5  1  0.876974  0.878257  0.250000  1
  Al  Al6  1  0.998276  0.332248  0.570821  1
  Al  Al7  1  0.001050  0.664449  0.424986  1
  Al  Al8  1  0.001050  0.664449  0.075014  1
  Al  Al9  1  0.339219  0.001886  0.929112  1
  Al  Al10  1  0.998276  0.332248  0.929179  1
  Al  Al11  1  0.665345  0.003035  0.072373  1
  Al  Al12  1  0.665345  0.003035  0.427627  1
  Al  Al13  1  0.339219  0.001886  0.570888  1
  Al  Al14  1  0.331314  0.331274  0.048053  1
  Al  Al15  1  0.664248  0.666836  0.957202  1
  Al  Al16  1  0.664248  0.666836  0.542798  1
  Al  Al17  1  0.331314  0.331274  0.451947  1
  Al  Al18  1  0.340001  0.552323  0.750000  1
  Al  Al19  1  0.659881  0.444030  0.250000  1
  Al  Al20  1  0.551576  0.340226  0.750000  1
  Al  Al21  1  0.445012  0.661231  0.250000  1
  Co  Co22  1  0.673881  0.331370  0.502355  1
  Co  Co23  1  0.325326  0.671134  0.502510  1
  Co  Co24  1  0.325326  0.671134  0.997490  1
  Co  Co25  1  0.673881  0.331370  0.997645  1
  Co  Co26  1  0.999234  0.995542  0.504104  1
  Co  Co27  1  0.999234  0.995542  0.995896  1
