# generated using pymatgen
data_Y8Er3TmGa20
_symmetry_space_group_name_H-M   'P 1'
_cell_length_a   6.08543201
_cell_length_b   9.61797700
_cell_length_c   11.49468101
_cell_angle_alpha   90.00000000
_cell_angle_beta   90.00467772
_cell_angle_gamma   90.00000000
_symmetry_Int_Tables_number   1
_chemical_formula_structural   Y8Er3TmGa20
_chemical_formula_sum   'Y8 Er3 Tm1 Ga20'
_cell_volume   672.77844786
_cell_formula_units_Z   1
loop_
 _symmetry_equiv_pos_site_id
 _symmetry_equiv_pos_as_xyz
  1  'x, y, z'
loop_
 _atom_site_type_symbol
 _atom_site_label
 _atom_site_symmetry_multiplicity
 _atom_site_fract_x
 _atom_site_fract_y
 _atom_site_fract_z
 _atom_site_occupancy
  Y  Y0  1  0.890909  0.509601  0.351153  1
  Y  Y1  1  0.609135  0.990384  0.851146  1
  Y  Y2  1  0.109172  0.009674  0.648805  1
  Y  Y3  1  0.390846  0.490349  0.148867  1
  Y  Y4  1  0.109172  0.490326  0.648805  1
  Y  Y5  1  0.390846  0.009651  0.148867  1
  Y  Y6  1  0.890909  0.990399  0.351153  1
  Y  Y7  1  0.609135  0.509616  0.851146  1
  Er  Er8  1  0.848765  0.750000  0.075050  1
  Er  Er9  1  0.651220  0.750000  0.575083  1
  Er  Er10  1  0.151227  0.250000  0.924933  1
  Tm  Tm11  1  0.348719  0.250000  0.424898  1
  Ga  Ga12  1  0.876067  0.053575  0.089507  1
  Ga  Ga13  1  0.623869  0.446391  0.589456  1
  Ga  Ga14  1  0.123922  0.553589  0.910506  1
  Ga  Ga15  1  0.376089  0.946555  0.410527  1
  Ga  Ga16  1  0.123922  0.946411  0.910506  1
  Ga  Ga17  1  0.376089  0.553445  0.410527  1
  Ga  Ga18  1  0.876067  0.446425  0.089507  1
  Ga  Ga19  1  0.623869  0.053609  0.589456  1
  Ga  Ga20  1  0.171512  0.750000  0.251876  1
  Ga  Ga21  1  0.328476  0.750000  0.751860  1
  Ga  Ga22  1  0.828487  0.250000  0.748098  1
  Ga  Ga23  1  0.671292  0.250000  0.248244  1
  Ga  Ga24  1  0.374196  0.750000  0.003869  1
  Ga  Ga25  1  0.125825  0.750000  0.503866  1
  Ga  Ga26  1  0.625812  0.250000  0.996148  1
  Ga  Ga27  1  0.874401  0.250000  0.496081  1
  Ga  Ga28  1  0.600437  0.750000  0.299031  1
  Ga  Ga29  1  0.899557  0.750000  0.799044  1
  Ga  Ga30  1  0.399544  0.250000  0.700901  1
  Ga  Ga31  1  0.100515  0.250000  0.201086  1
