# generated using pymatgen
data_Nd2MnIr3
_symmetry_space_group_name_H-M   'P 1'
_cell_length_a   5.56986400
_cell_length_b   5.56986338
_cell_length_c   8.40520700
_cell_angle_alpha   90.00000000
_cell_angle_beta   90.00000000
_cell_angle_gamma   120.00000370
_symmetry_Int_Tables_number   1
_chemical_formula_structural   Nd2MnIr3
_chemical_formula_sum   'Nd4 Mn2 Ir6'
_cell_volume   225.82299481
_cell_formula_units_Z   2
loop_
 _symmetry_equiv_pos_site_id
 _symmetry_equiv_pos_as_xyz
  1  'x, y, z'
loop_
 _atom_site_type_symbol
 _atom_site_label
 _atom_site_symmetry_multiplicity
 _atom_site_fract_x
 _atom_site_fract_y
 _atom_site_fract_z
 _atom_site_occupancy
  Nd  Nd0  1  0.333333  0.666667  0.065007  1
  Nd  Nd1  1  0.666667  0.333333  0.934993  1
  Nd  Nd2  1  0.333333  0.666667  0.434993  1
  Nd  Nd3  1  0.666667  0.333333  0.565007  1
  Mn  Mn4  1  0.000000  0.000000  0.500000  1
  Mn  Mn5  1  0.000000  0.000000  0.000000  1
  Ir  Ir6  1  0.832571  0.665144  0.250000  1
  Ir  Ir7  1  0.167429  0.334856  0.750000  1
  Ir  Ir8  1  0.334856  0.167429  0.250000  1
  Ir  Ir9  1  0.167429  0.832571  0.750000  1
  Ir  Ir10  1  0.665144  0.832571  0.750000  1
  Ir  Ir11  1  0.832571  0.167429  0.250000  1
