# generated using pymatgen
data_Y2ThAl7Pd2
_symmetry_space_group_name_H-M   'P 1'
_cell_length_a   9.29319709
_cell_length_b   9.29319737
_cell_length_c   9.29319573
_cell_angle_alpha   34.65620376
_cell_angle_beta   34.65620150
_cell_angle_gamma   34.65620251
_symmetry_Int_Tables_number   1
_chemical_formula_structural   Y2ThAl7Pd2
_chemical_formula_sum   'Y2 Th1 Al7 Pd2'
_cell_volume   231.59346950
_cell_formula_units_Z   1
loop_
 _symmetry_equiv_pos_site_id
 _symmetry_equiv_pos_as_xyz
  1  'x, y, z'
loop_
 _atom_site_type_symbol
 _atom_site_label
 _atom_site_symmetry_multiplicity
 _atom_site_fract_x
 _atom_site_fract_y
 _atom_site_fract_z
 _atom_site_occupancy
  Y  Y0  1  0.857691  0.857691  0.857691  1
  Y  Y1  1  0.142309  0.142309  0.142309  1
  Th  Th2  1  0.000000  0.000000  0.000000  1
  Al  Al3  1  0.416665  0.416665  0.925505  1
  Al  Al4  1  0.925505  0.416665  0.416665  1
  Al  Al5  1  0.416665  0.925505  0.416665  1
  Al  Al6  1  0.500000  0.500000  0.500000  1
  Al  Al7  1  0.583335  0.074495  0.583335  1
  Al  Al8  1  0.074495  0.583335  0.583335  1
  Al  Al9  1  0.583335  0.583335  0.074495  1
  Pd  Pd10  1  0.664520  0.664520  0.664520  1
  Pd  Pd11  1  0.335480  0.335480  0.335480  1
