# generated using pymatgen
data_Na2NiF5
_symmetry_space_group_name_H-M   'P 1'
_cell_length_a   5.31452700
_cell_length_b   7.44194578
_cell_length_c   10.98346958
_cell_angle_alpha   71.87819288
_cell_angle_beta   90.00000000
_cell_angle_gamma   90.00000000
_symmetry_Int_Tables_number   1
_chemical_formula_structural   Na2NiF5
_chemical_formula_sum   'Na8 Ni4 F20'
_cell_volume   412.85345046
_cell_formula_units_Z   4
loop_
 _symmetry_equiv_pos_site_id
 _symmetry_equiv_pos_as_xyz
  1  'x, y, z'
loop_
 _atom_site_type_symbol
 _atom_site_label
 _atom_site_symmetry_multiplicity
 _atom_site_fract_x
 _atom_site_fract_y
 _atom_site_fract_z
 _atom_site_occupancy
  Na  Na0  1  0.935288  0.346388  0.317843  1
  Na  Na1  1  0.435288  0.653612  0.182157  1
  Na  Na2  1  0.064712  0.653612  0.682156  1
  Na  Na3  1  0.564712  0.346388  0.817844  1
  Na  Na4  1  0.497434  0.153063  0.131214  1
  Na  Na5  1  0.997434  0.846937  0.368786  1
  Na  Na6  1  0.502566  0.846937  0.868786  1
  Na  Na7  1  0.002566  0.153063  0.631214  1
  Ni  Ni8  1  0.500000  0.500000  0.500000  1
  Ni  Ni9  1  0.000000  0.500000  0.000000  1
  Ni  Ni10  1  0.500000  0.000000  0.500000  1
  Ni  Ni11  1  0.000000  0.000000  0.000000  1
  F  F12  1  0.752492  0.484584  0.623202  1
  F  F13  1  0.252492  0.515416  0.876798  1
  F  F14  1  0.247508  0.515416  0.376798  1
  F  F15  1  0.747508  0.484584  0.123202  1
  F  F16  1  0.720692  0.612023  0.363210  1
  F  F17  1  0.220692  0.387977  0.136790  1
  F  F18  1  0.279308  0.387977  0.636790  1
  F  F19  1  0.779308  0.612023  0.863210  1
  F  F20  1  0.640938  0.250006  0.498074  1
  F  F21  1  0.140938  0.749994  0.001926  1
  F  F22  1  0.359062  0.749994  0.501926  1
  F  F23  1  0.859062  0.250006  0.998074  1
  F  F24  1  0.849137  0.051409  0.835005  1
  F  F25  1  0.349137  0.948591  0.664995  1
  F  F26  1  0.150863  0.948591  0.164995  1
  F  F27  1  0.650863  0.051409  0.335005  1
  F  F28  1  0.694237  0.895603  0.073736  1
  F  F29  1  0.194237  0.104397  0.426264  1
  F  F30  1  0.305763  0.104397  0.926264  1
  F  F31  1  0.805763  0.895603  0.573736  1
