# generated using pymatgen
data_Tb11Y9FeCo3Sb8
_symmetry_space_group_name_H-M   'P 1'
_cell_length_a   7.98860554
_cell_length_b   8.76303400
_cell_length_c   12.29051362
_cell_angle_alpha   90.00000000
_cell_angle_beta   89.89649291
_cell_angle_gamma   90.00000000
_symmetry_Int_Tables_number   1
_chemical_formula_structural   Tb11Y9FeCo3Sb8
_chemical_formula_sum   'Tb11 Y9 Fe1 Co3 Sb8'
_cell_volume   860.38889839
_cell_formula_units_Z   1
loop_
 _symmetry_equiv_pos_site_id
 _symmetry_equiv_pos_as_xyz
  1  'x, y, z'
loop_
 _atom_site_type_symbol
 _atom_site_label
 _atom_site_symmetry_multiplicity
 _atom_site_fract_x
 _atom_site_fract_y
 _atom_site_fract_z
 _atom_site_occupancy
  Tb  Tb0  1  0.122274  0.250000  0.195058  1
  Tb  Tb1  1  0.376726  0.250000  0.694003  1
  Tb  Tb2  1  0.876093  0.750000  0.805398  1
  Tb  Tb3  1  0.824593  0.969120  0.062917  1
  Tb  Tb4  1  0.321512  0.033406  0.434845  1
  Tb  Tb5  1  0.179214  0.463583  0.935423  1
  Tb  Tb6  1  0.677415  0.533666  0.564739  1
  Tb  Tb7  1  0.179214  0.036417  0.935423  1
  Tb  Tb8  1  0.677415  0.966334  0.564739  1
  Tb  Tb9  1  0.824593  0.530880  0.062917  1
  Tb  Tb10  1  0.321512  0.466594  0.434845  1
  Y  Y11  1  0.154369  0.750000  0.203513  1
  Y  Y12  1  0.656427  0.250000  0.295321  1
  Y  Y13  1  0.845537  0.250000  0.797473  1
  Y  Y14  1  0.345041  0.750000  0.702900  1
  Y  Y15  1  0.454643  0.750000  0.997529  1
  Y  Y16  1  0.956924  0.250000  0.502393  1
  Y  Y17  1  0.544675  0.250000  0.002805  1
  Y  Y18  1  0.042055  0.750000  0.498361  1
  Y  Y19  1  0.624312  0.750000  0.305602  1
  Fe  Fe20  1  0.933524  0.250000  0.012502  1
  Co  Co21  1  0.438369  0.750000  0.490305  1
  Co  Co22  1  0.561609  0.250000  0.509364  1
  Co  Co23  1  0.063654  0.750000  0.989508  1
  Sb  Sb24  1  0.927812  0.991641  0.327815  1
  Sb  Sb25  1  0.428450  0.007226  0.173090  1
  Sb  Sb26  1  0.071765  0.492259  0.672824  1
  Sb  Sb27  1  0.571126  0.507978  0.827330  1
  Sb  Sb28  1  0.071765  0.007741  0.672824  1
  Sb  Sb29  1  0.571126  0.992022  0.827330  1
  Sb  Sb30  1  0.927812  0.508359  0.327815  1
  Sb  Sb31  1  0.428450  0.492774  0.173090  1
