# generated using pymatgen
data_Y3HoAl6(Ga2Ir)6
_symmetry_space_group_name_H-M   'P 1'
_cell_length_a   7.55772672
_cell_length_b   7.55795238
_cell_length_c   9.53807605
_cell_angle_alpha   90.16062724
_cell_angle_beta   89.93432936
_cell_angle_gamma   119.71253717
_symmetry_Int_Tables_number   1
_chemical_formula_structural   Y3HoAl6(Ga2Ir)6
_chemical_formula_sum   'Y3 Ho1 Al6 Ga12 Ir6'
_cell_volume   473.19021571
_cell_formula_units_Z   1
loop_
 _symmetry_equiv_pos_site_id
 _symmetry_equiv_pos_as_xyz
  1  'x, y, z'
loop_
 _atom_site_type_symbol
 _atom_site_label
 _atom_site_symmetry_multiplicity
 _atom_site_fract_x
 _atom_site_fract_y
 _atom_site_fract_z
 _atom_site_occupancy
  Y  Y0  1  0.998731  0.667183  0.250972  1
  Y  Y1  1  0.001294  0.332825  0.749042  1
  Y  Y2  1  0.671695  0.000476  0.254568  1
  Ho  Ho3  1  0.328170  0.999265  0.745248  1
  Al  Al4  1  0.663748  0.997438  0.928355  1
  Al  Al5  1  0.335847  0.002599  0.070818  1
  Al  Al6  1  0.332796  0.332444  0.553101  1
  Al  Al7  1  0.667223  0.667222  0.447384  1
  Al  Al8  1  0.667706  0.667169  0.054153  1
  Al  Al9  1  0.332312  0.332479  0.945414  1
  Ga  Ga10  1  0.129052  0.125720  0.249306  1
  Ga  Ga11  1  0.871402  0.874362  0.750712  1
  Ga  Ga12  1  0.999052  0.333427  0.077642  1
  Ga  Ga13  1  0.001340  0.666984  0.922008  1
  Ga  Ga14  1  0.998271  0.664967  0.579527  1
  Ga  Ga15  1  0.335054  0.000285  0.419031  1
  Ga  Ga16  1  0.002109  0.335425  0.420854  1
  Ga  Ga17  1  0.664550  0.999750  0.581694  1
  Ga  Ga18  1  0.344950  0.549798  0.249917  1
  Ga  Ga19  1  0.654511  0.449658  0.750096  1
  Ga  Ga20  1  0.547396  0.343460  0.249048  1
  Ga  Ga21  1  0.452583  0.656850  0.750971  1
  Ir  Ir22  1  0.667186  0.325930  0.999115  1
  Ir  Ir23  1  0.332750  0.674081  0.000679  1
  Ir  Ir24  1  0.330498  0.669491  0.500846  1
  Ir  Ir25  1  0.669448  0.330572  0.499417  1
  Ir  Ir26  1  0.000147  0.000065  0.999892  1
  Ir  Ir27  1  0.000177  0.000075  0.500188  1
