# generated using pymatgen
data_Y5HoNpO12
_symmetry_space_group_name_H-M   'P 1'
_cell_length_a   6.56717388
_cell_length_b   6.56935779
_cell_length_c   6.56655582
_cell_angle_alpha   98.85842222
_cell_angle_beta   98.91754654
_cell_angle_gamma   98.87936237
_symmetry_Int_Tables_number   1
_chemical_formula_structural   Y5HoNpO12
_chemical_formula_sum   'Y5 Ho1 Np1 O12'
_cell_volume   271.88398412
_cell_formula_units_Z   1
loop_
 _symmetry_equiv_pos_site_id
 _symmetry_equiv_pos_as_xyz
  1  'x, y, z'
loop_
 _atom_site_type_symbol
 _atom_site_label
 _atom_site_symmetry_multiplicity
 _atom_site_fract_x
 _atom_site_fract_y
 _atom_site_fract_z
 _atom_site_occupancy
  Y  Y0  1  0.144936  0.320593  0.610267  1
  Y  Y1  1  0.389268  0.854633  0.679093  1
  Y  Y2  1  0.679947  0.389882  0.854972  1
  Y  Y3  1  0.320629  0.610578  0.145494  1
  Y  Y4  1  0.610814  0.144977  0.320377  1
  Ho  Ho5  1  0.854442  0.678505  0.389247  1
  Np  Np6  1  0.999724  0.999619  0.999801  1
  O  O7  1  0.076653  0.307133  0.955191  1
  O  O8  1  0.043298  0.922029  0.691934  1
  O  O9  1  0.410806  0.570971  0.822575  1
  O  O10  1  0.176138  0.589618  0.428559  1
  O  O11  1  0.692536  0.044597  0.923358  1
  O  O12  1  0.429019  0.177363  0.588947  1
  O  O13  1  0.572599  0.821926  0.411174  1
  O  O14  1  0.307395  0.955431  0.076720  1
  O  O15  1  0.822567  0.412860  0.570412  1
  O  O16  1  0.590709  0.430027  0.178274  1
  O  O17  1  0.955530  0.076593  0.307293  1
  O  O18  1  0.922988  0.692665  0.046312  1
