# generated using pymatgen
data_Er15TmCd4Ir3Os
_symmetry_space_group_name_H-M   'P 1'
_cell_length_a   9.59748049
_cell_length_b   9.59748034
_cell_length_c   9.59748165
_cell_angle_alpha   59.38208403
_cell_angle_beta   59.38209292
_cell_angle_gamma   59.38209324
_symmetry_Int_Tables_number   1
_chemical_formula_structural   Er15TmCd4Ir3Os
_chemical_formula_sum   'Er15 Tm1 Cd4 Ir3 Os1'
_cell_volume   616.31956243
_cell_formula_units_Z   1
loop_
 _symmetry_equiv_pos_site_id
 _symmetry_equiv_pos_as_xyz
  1  'x, y, z'
loop_
 _atom_site_type_symbol
 _atom_site_label
 _atom_site_symmetry_multiplicity
 _atom_site_fract_x
 _atom_site_fract_y
 _atom_site_fract_z
 _atom_site_occupancy
  Er  Er0  1  0.598894  0.598894  0.206662  1
  Er  Er1  1  0.598894  0.206662  0.598894  1
  Er  Er2  1  0.206662  0.598894  0.598894  1
  Er  Er3  1  0.061924  0.438964  0.438964  1
  Er  Er4  1  0.437191  0.059706  0.059706  1
  Er  Er5  1  0.438964  0.061924  0.438964  1
  Er  Er6  1  0.059706  0.437191  0.059706  1
  Er  Er7  1  0.438964  0.438964  0.061924  1
  Er  Er8  1  0.059706  0.059706  0.437191  1
  Er  Er9  1  0.188471  0.811183  0.811183  1
  Er  Er10  1  0.807253  0.188429  0.188429  1
  Er  Er11  1  0.811183  0.188471  0.811183  1
  Er  Er12  1  0.188429  0.807253  0.188429  1
  Er  Er13  1  0.811183  0.811183  0.188471  1
  Er  Er14  1  0.188429  0.188429  0.807253  1
  Tm  Tm15  1  0.600171  0.600171  0.600171  1
  Cd  Cd16  1  0.829709  0.829709  0.829709  1
  Cd  Cd17  1  0.830428  0.830428  0.506244  1
  Cd  Cd18  1  0.830428  0.506244  0.830428  1
  Cd  Cd19  1  0.506244  0.830428  0.830428  1
  Ir  Ir20  1  0.394228  0.394228  0.826630  1
  Ir  Ir21  1  0.394228  0.826630  0.394228  1
  Ir  Ir22  1  0.826630  0.394228  0.394228  1
  Os  Os23  1  0.392079  0.392079  0.392079  1
