# generated using pymatgen
data_Y5Ho7Pb10
_symmetry_space_group_name_H-M   'P 1'
_cell_length_a   11.73519433
_cell_length_b   11.73287163
_cell_length_c   11.73297563
_cell_angle_alpha   146.83663768
_cell_angle_beta   132.75361550
_cell_angle_gamma   58.93292406
_symmetry_Int_Tables_number   1
_chemical_formula_structural   Y5Ho7Pb10
_chemical_formula_sum   'Y5 Ho7 Pb10'
_cell_volume   643.38466667
_cell_formula_units_Z   1
loop_
 _symmetry_equiv_pos_site_id
 _symmetry_equiv_pos_as_xyz
  1  'x, y, z'
loop_
 _atom_site_type_symbol
 _atom_site_label
 _atom_site_symmetry_multiplicity
 _atom_site_fract_x
 _atom_site_fract_y
 _atom_site_fract_z
 _atom_site_occupancy
  Y  Y0  1  0.696233  0.946305  0.250034  1
  Y  Y1  1  0.250605  0.637759  0.612823  1
  Y  Y2  1  0.680542  0.941196  0.739359  1
  Y  Y3  1  0.024937  0.137776  0.887200  1
  Y  Y4  1  0.974962  0.862146  0.112657  1
  Ho  Ho5  1  0.798152  0.558772  0.239289  1
  Ho  Ho6  1  0.201828  0.441169  0.760646  1
  Ho  Ho7  1  0.303722  0.053833  0.749963  1
  Ho  Ho8  1  0.319401  0.058802  0.260689  1
  Ho  Ho9  1  0.303735  0.553775  0.249899  1
  Ho  Ho10  1  0.749681  0.362372  0.387422  1
  Ho  Ho11  1  0.696226  0.446205  0.749943  1
  Pb  Pb12  1  0.480362  0.573716  0.905636  1
  Pb  Pb13  1  0.598177  0.793706  0.803554  1
  Pb  Pb14  1  0.668153  0.074993  0.594151  1
  Pb  Pb15  1  0.000249  0.749611  0.749829  1
  Pb  Pb16  1  0.990155  0.294964  0.696138  1
  Pb  Pb17  1  0.519858  0.425437  0.094340  1
  Pb  Pb18  1  0.010107  0.705370  0.303994  1
  Pb  Pb19  1  0.401484  0.206120  0.196077  1
  Pb  Pb20  1  0.331196  0.925567  0.405711  1
  Pb  Pb21  1  0.000235  0.250407  0.250646  1
