# generated using pymatgen
data_DyHo2Sc2Cd2(InPt)2
_symmetry_space_group_name_H-M   'P 1'
_cell_length_a   3.58760500
_cell_length_b   7.96339700
_cell_length_c   17.84813100
_cell_angle_alpha   90.00000000
_cell_angle_beta   90.00000000
_cell_angle_gamma   90.00000000
_symmetry_Int_Tables_number   1
_chemical_formula_structural   DyHo2Sc2Cd2(InPt)2
_chemical_formula_sum   'Dy2 Ho4 Sc4 Cd4 In4 Pt4'
_cell_volume   509.91258722
_cell_formula_units_Z   2
loop_
 _symmetry_equiv_pos_site_id
 _symmetry_equiv_pos_as_xyz
  1  'x, y, z'
loop_
 _atom_site_type_symbol
 _atom_site_label
 _atom_site_symmetry_multiplicity
 _atom_site_fract_x
 _atom_site_fract_y
 _atom_site_fract_z
 _atom_site_occupancy
  Dy  Dy0  1  0.000000  0.000000  0.000000  1
  Dy  Dy1  1  0.000000  0.500000  0.500000  1
  Ho  Ho2  1  0.000000  0.242431  0.217162  1
  Ho  Ho3  1  0.000000  0.757569  0.782838  1
  Ho  Ho4  1  0.000000  0.257569  0.717162  1
  Ho  Ho5  1  0.000000  0.742431  0.282838  1
  Sc  Sc6  1  0.000000  0.117822  0.413585  1
  Sc  Sc7  1  0.000000  0.882178  0.586415  1
  Sc  Sc8  1  0.000000  0.382178  0.913585  1
  Sc  Sc9  1  0.000000  0.617822  0.086415  1
  Cd  Cd10  1  0.500000  0.415584  0.351519  1
  Cd  Cd11  1  0.500000  0.584416  0.648481  1
  Cd  Cd12  1  0.500000  0.084416  0.851519  1
  Cd  Cd13  1  0.500000  0.915584  0.148481  1
  In  In14  1  0.500000  0.304205  0.060088  1
  In  In15  1  0.500000  0.695795  0.939912  1
  In  In16  1  0.500000  0.195795  0.560088  1
  In  In17  1  0.500000  0.804205  0.439912  1
  Pt  Pt18  1  0.500000  0.031771  0.307439  1
  Pt  Pt19  1  0.500000  0.968229  0.692561  1
  Pt  Pt20  1  0.500000  0.468229  0.807439  1
  Pt  Pt21  1  0.500000  0.531771  0.192561  1
