# generated using pymatgen
data_Tb5CeGa10
_symmetry_space_group_name_H-M   'P 1'
_cell_length_a   6.18054427
_cell_length_b   9.68834983
_cell_length_c   11.60215200
_cell_angle_alpha   90.00000000
_cell_angle_beta   90.00000000
_cell_angle_gamma   89.86457539
_symmetry_Int_Tables_number   1
_chemical_formula_structural   Tb5CeGa10
_chemical_formula_sum   'Tb10 Ce2 Ga20'
_cell_volume   694.72651051
_cell_formula_units_Z   2
loop_
 _symmetry_equiv_pos_site_id
 _symmetry_equiv_pos_as_xyz
  1  'x, y, z'
loop_
 _atom_site_type_symbol
 _atom_site_label
 _atom_site_symmetry_multiplicity
 _atom_site_fract_x
 _atom_site_fract_y
 _atom_site_fract_z
 _atom_site_occupancy
  Tb  Tb0  1  0.850243  0.749473  0.075759  1
  Tb  Tb1  1  0.649757  0.750527  0.575759  1
  Tb  Tb2  1  0.148558  0.248988  0.923695  1
  Tb  Tb3  1  0.351442  0.251012  0.423695  1
  Tb  Tb4  1  0.112416  0.010377  0.648677  1
  Tb  Tb5  1  0.387584  0.489623  0.148677  1
  Tb  Tb6  1  0.110117  0.489889  0.649255  1
  Tb  Tb7  1  0.389883  0.010111  0.149255  1
  Tb  Tb8  1  0.889986  0.991077  0.351038  1
  Tb  Tb9  1  0.610014  0.508923  0.851038  1
  Ce  Ce10  1  0.889142  0.510608  0.352938  1
  Ce  Ce11  1  0.610858  0.989392  0.852938  1
  Ga  Ga12  1  0.873625  0.054767  0.090773  1
  Ga  Ga13  1  0.626375  0.445233  0.590773  1
  Ga  Ga14  1  0.126936  0.553629  0.908731  1
  Ga  Ga15  1  0.373064  0.946371  0.408731  1
  Ga  Ga16  1  0.122540  0.944428  0.909769  1
  Ga  Ga17  1  0.377460  0.555572  0.409769  1
  Ga  Ga18  1  0.872861  0.445387  0.090515  1
  Ga  Ga19  1  0.627139  0.054613  0.590515  1
  Ga  Ga20  1  0.174842  0.750709  0.253291  1
  Ga  Ga21  1  0.325158  0.749291  0.753291  1
  Ga  Ga22  1  0.824686  0.250109  0.746210  1
  Ga  Ga23  1  0.675314  0.249891  0.246210  1
  Ga  Ga24  1  0.372476  0.749839  0.003005  1
  Ga  Ga25  1  0.127524  0.750161  0.503005  1
  Ga  Ga26  1  0.627685  0.250495  0.996545  1
  Ga  Ga27  1  0.872315  0.249505  0.496545  1
  Ga  Ga28  1  0.598595  0.751600  0.299177  1
  Ga  Ga29  1  0.901405  0.748400  0.799177  1
  Ga  Ga30  1  0.402232  0.249770  0.700622  1
  Ga  Ga31  1  0.097768  0.250230  0.200622  1
