# generated using pymatgen
data_Y5Sc5(GaTe)4
_symmetry_space_group_name_H-M   'P 1'
_cell_length_a   8.05975367
_cell_length_b   8.64512232
_cell_length_c   7.69712100
_cell_angle_alpha   90.14857606
_cell_angle_beta   90.24497257
_cell_angle_gamma   125.32169806
_symmetry_Int_Tables_number   1
_chemical_formula_structural   Y5Sc5(GaTe)4
_chemical_formula_sum   'Y5 Sc5 Ga4 Te4'
_cell_volume   437.57829398
_cell_formula_units_Z   1
loop_
 _symmetry_equiv_pos_site_id
 _symmetry_equiv_pos_as_xyz
  1  'x, y, z'
loop_
 _atom_site_type_symbol
 _atom_site_label
 _atom_site_symmetry_multiplicity
 _atom_site_fract_x
 _atom_site_fract_y
 _atom_site_fract_z
 _atom_site_occupancy
  Y  Y0  1  0.829804  0.555724  0.179510  1
  Y  Y1  1  0.530916  0.775593  0.165386  1
  Y  Y2  1  0.171299  0.443729  0.820250  1
  Y  Y3  1  0.673281  0.945990  0.675707  1
  Y  Y4  1  0.327930  0.053192  0.324779  1
  Sc  Sc5  1  0.032654  0.269339  0.335895  1
  Sc  Sc6  1  0.965737  0.727879  0.663787  1
  Sc  Sc7  1  0.467085  0.228954  0.835829  1
  Sc  Sc8  1  0.003243  0.003405  0.997905  1
  Sc  Sc9  1  0.498785  0.496562  0.501251  1
  Ga  Ga10  1  0.368514  0.365074  0.128796  1
  Ga  Ga11  1  0.630539  0.627202  0.866387  1
  Ga  Ga12  1  0.130224  0.128380  0.628959  1
  Ga  Ga13  1  0.876709  0.873500  0.375117  1
  Te  Te14  1  0.775521  0.192069  0.027385  1
  Te  Te15  1  0.225148  0.818147  0.965679  1
  Te  Te16  1  0.731071  0.315746  0.531901  1
  Te  Te17  1  0.261541  0.679515  0.475474  1
