# generated using pymatgen
data_Er2Zn14Co3
_symmetry_space_group_name_H-M   'P 1'
_cell_length_a   6.66281657
_cell_length_b   6.66262485
_cell_length_c   6.66312501
_cell_angle_alpha   82.64305021
_cell_angle_beta   97.36474415
_cell_angle_gamma   97.34926159
_symmetry_Int_Tables_number   1
_chemical_formula_structural   Er2Zn14Co3
_chemical_formula_sum   'Er2 Zn14 Co3'
_cell_volume   289.05780330
_cell_formula_units_Z   1
loop_
 _symmetry_equiv_pos_site_id
 _symmetry_equiv_pos_as_xyz
  1  'x, y, z'
loop_
 _atom_site_type_symbol
 _atom_site_label
 _atom_site_symmetry_multiplicity
 _atom_site_fract_x
 _atom_site_fract_y
 _atom_site_fract_z
 _atom_site_occupancy
  Er  Er0  1  0.666381  0.333690  0.333755  1
  Er  Er1  1  0.333618  0.666310  0.666243  1
  Zn  Zn2  1  0.293686  0.293635  0.000004  1
  Zn  Zn3  1  0.706315  0.706364  0.999996  1
  Zn  Zn4  1  0.893876  0.106048  0.106030  1
  Zn  Zn5  1  0.347954  0.652083  0.148330  1
  Zn  Zn6  1  0.999999  0.706322  0.293638  1
  Zn  Zn7  1  0.293701  0.000003  0.293613  1
  Zn  Zn8  1  0.652028  0.851664  0.347900  1
  Zn  Zn9  1  0.148371  0.347962  0.347922  1
  Zn  Zn10  1  0.851627  0.652039  0.652076  1
  Zn  Zn11  1  0.347972  0.148336  0.652100  1
  Zn  Zn12  1  0.000003  0.293678  0.706361  1
  Zn  Zn13  1  0.706297  0.999996  0.706385  1
  Zn  Zn14  1  0.652045  0.347917  0.851669  1
  Zn  Zn15  1  0.106125  0.893950  0.893974  1
  Co  Co16  1  0.500000  0.000000  0.000001  1
  Co  Co17  1  0.000001  0.499999  0.999999  1
  Co  Co18  1  0.000000  0.000000  0.500000  1
