# generated using pymatgen
data_Dy8Ti8ReSi16Tc3
_symmetry_space_group_name_H-M   'P 1'
_cell_length_a   6.94406152
_cell_length_b   6.94445505
_cell_length_c   12.86184931
_cell_angle_alpha   90.29944396
_cell_angle_beta   89.91110023
_cell_angle_gamma   89.92852499
_symmetry_Int_Tables_number   1
_chemical_formula_structural   Dy8Ti8ReSi16Tc3
_chemical_formula_sum   'Dy8 Ti8 Re1 Si16 Tc3'
_cell_volume   620.22369272
_cell_formula_units_Z   1
loop_
 _symmetry_equiv_pos_site_id
 _symmetry_equiv_pos_as_xyz
  1  'x, y, z'
loop_
 _atom_site_type_symbol
 _atom_site_label
 _atom_site_symmetry_multiplicity
 _atom_site_fract_x
 _atom_site_fract_y
 _atom_site_fract_z
 _atom_site_occupancy
  Dy  Dy0  1  0.000416  0.659632  0.035268  1
  Dy  Dy1  1  0.999959  0.341492  0.528643  1
  Dy  Dy2  1  0.663420  0.998509  0.968521  1
  Dy  Dy3  1  0.158408  0.501436  0.782009  1
  Dy  Dy4  1  0.839769  0.498704  0.282509  1
  Dy  Dy5  1  0.502009  0.160167  0.220637  1
  Dy  Dy6  1  0.498377  0.838792  0.714331  1
  Dy  Dy7  1  0.336804  0.001173  0.468909  1
  Ti  Ti8  1  0.508335  0.338721  0.621944  1
  Ti  Ti9  1  0.158889  0.004836  0.873771  1
  Ti  Ti10  1  0.672009  0.673558  0.500400  1
  Ti  Ti11  1  0.833225  0.165913  0.748933  1
  Ti  Ti12  1  0.168784  0.834449  0.250582  1
  Ti  Ti13  1  0.330032  0.325406  0.001474  1
  Ti  Ti14  1  0.497958  0.658580  0.125019  1
  Ti  Ti15  1  0.664476  0.492165  0.876641  1
  Re  Re16  1  0.995650  0.837609  0.625052  1
  Si  Si17  1  0.035874  0.716336  0.437440  1
  Si  Si18  1  0.959746  0.290203  0.937982  1
  Si  Si19  1  0.714441  0.039911  0.561567  1
  Si  Si20  1  0.211770  0.459771  0.187878  1
  Si  Si21  1  0.789299  0.541559  0.686410  1
  Si  Si22  1  0.457753  0.207784  0.813525  1
  Si  Si23  1  0.540974  0.786688  0.313237  1
  Si  Si24  1  0.290102  0.958146  0.063088  1
  Si  Si25  1  0.800882  0.876337  0.185628  1
  Si  Si26  1  0.294727  0.625846  0.565816  1
  Si  Si27  1  0.706692  0.369352  0.068179  1
  Si  Si28  1  0.621438  0.300502  0.433441  1
  Si  Si29  1  0.372363  0.701721  0.934378  1
  Si  Si30  1  0.125873  0.200000  0.316040  1
  Si  Si31  1  0.195451  0.128010  0.682549  1
  Si  Si32  1  0.869521  0.797823  0.812526  1
  Tc  Tc33  1  0.331022  0.511622  0.375203  1
  Tc  Tc34  1  0.837950  0.994722  0.372700  1
  Tc  Tc35  1  0.015604  0.162524  0.127772  1
