# generated using pymatgen
data_BaCu6Ni3Ge2P3
_symmetry_space_group_name_H-M   'P 1'
_cell_length_a   6.79308600
_cell_length_b   6.79308683
_cell_length_c   11.11583500
_cell_angle_alpha   90.00000000
_cell_angle_beta   90.00000000
_cell_angle_gamma   119.99999598
_symmetry_Int_Tables_number   1
_chemical_formula_structural   BaCu6Ni3Ge2P3
_chemical_formula_sum   'Ba2 Cu12 Ni6 Ge4 P6'
_cell_volume   444.22911524
_cell_formula_units_Z   2
loop_
 _symmetry_equiv_pos_site_id
 _symmetry_equiv_pos_as_xyz
  1  'x, y, z'
loop_
 _atom_site_type_symbol
 _atom_site_label
 _atom_site_symmetry_multiplicity
 _atom_site_fract_x
 _atom_site_fract_y
 _atom_site_fract_z
 _atom_site_occupancy
  Ba  Ba0  1  0.000000  0.000000  0.500000  1
  Ba  Ba1  1  0.000000  0.000000  0.000000  1
  Cu  Cu2  1  0.461988  0.923976  0.889683  1
  Cu  Cu3  1  0.923976  0.461988  0.110317  1
  Cu  Cu4  1  0.538012  0.076024  0.110317  1
  Cu  Cu5  1  0.076024  0.538012  0.610317  1
  Cu  Cu6  1  0.461988  0.923976  0.610317  1
  Cu  Cu7  1  0.538012  0.461988  0.389683  1
  Cu  Cu8  1  0.923976  0.461988  0.389683  1
  Cu  Cu9  1  0.076024  0.538012  0.889683  1
  Cu  Cu10  1  0.461988  0.538012  0.889683  1
  Cu  Cu11  1  0.538012  0.076024  0.389683  1
  Cu  Cu12  1  0.538012  0.461988  0.110317  1
  Cu  Cu13  1  0.461988  0.538012  0.610317  1
  Ni  Ni14  1  0.198946  0.397890  0.250000  1
  Ni  Ni15  1  0.801054  0.198946  0.750000  1
  Ni  Ni16  1  0.397890  0.198946  0.750000  1
  Ni  Ni17  1  0.602110  0.801054  0.250000  1
  Ni  Ni18  1  0.198946  0.801054  0.250000  1
  Ni  Ni19  1  0.801054  0.602110  0.750000  1
  Ge  Ge20  1  0.333333  0.666667  0.431187  1
  Ge  Ge21  1  0.666667  0.333333  0.931187  1
  Ge  Ge22  1  0.666667  0.333333  0.568813  1
  Ge  Ge23  1  0.333333  0.666667  0.068813  1
  P  P24  1  0.162427  0.324854  0.750000  1
  P  P25  1  0.837573  0.162427  0.250000  1
  P  P26  1  0.162427  0.837573  0.750000  1
  P  P27  1  0.837573  0.675146  0.250000  1
  P  P28  1  0.324854  0.162427  0.250000  1
  P  P29  1  0.675146  0.837573  0.750000  1
