# generated using pymatgen
data_Ac3GaI3
_symmetry_space_group_name_H-M   'P 1'
_cell_length_a   11.54722251
_cell_length_b   11.54716467
_cell_length_c   11.54713900
_cell_angle_alpha   109.47105640
_cell_angle_beta   109.47119764
_cell_angle_gamma   109.47137467
_symmetry_Int_Tables_number   1
_chemical_formula_structural   Ac3GaI3
_chemical_formula_sum   'Ac12 Ga4 I12'
_cell_volume   1185.23802159
_cell_formula_units_Z   4
loop_
 _symmetry_equiv_pos_site_id
 _symmetry_equiv_pos_as_xyz
  1  'x, y, z'
loop_
 _atom_site_type_symbol
 _atom_site_label
 _atom_site_symmetry_multiplicity
 _atom_site_fract_x
 _atom_site_fract_y
 _atom_site_fract_z
 _atom_site_occupancy
  Ac  Ac0  1  0.264373  0.750004  0.235630  1
  Ac  Ac1  1  0.485627  0.750001  0.014372  1
  Ac  Ac2  1  0.235627  0.471255  0.485626  1
  Ac  Ac3  1  0.014371  0.028745  0.264377  1
  Ac  Ac4  1  0.235627  0.264372  0.750001  1
  Ac  Ac5  1  0.014370  0.485625  0.749993  1
  Ac  Ac6  1  0.485627  0.235626  0.471255  1
  Ac  Ac7  1  0.264372  0.014368  0.028743  1
  Ac  Ac8  1  0.750005  0.235632  0.264377  1
  Ac  Ac9  1  0.750004  0.014373  0.485627  1
  Ac  Ac10  1  0.471261  0.485630  0.235630  1
  Ac  Ac11  1  0.028743  0.264371  0.014372  1
  Ga  Ga12  1  0.500003  0.000001  0.250001  1
  Ga  Ga13  1  0.249999  0.500003  0.000003  1
  Ga  Ga14  1  0.999998  0.249999  0.499999  1
  Ga  Ga15  1  0.249999  0.249997  0.249996  1
  I  I16  1  0.249999  0.993097  0.506903  1
  I  I17  1  0.513805  0.506902  0.756902  1
  I  I18  1  0.249999  0.756902  0.743096  1
  I  I19  1  0.986196  0.743098  0.993098  1
  I  I20  1  0.993097  0.506904  0.250001  1
  I  I21  1  0.743097  0.993098  0.986197  1
  I  I22  1  0.756902  0.743097  0.249999  1
  I  I23  1  0.506901  0.756903  0.513805  1
  I  I24  1  0.506901  0.249999  0.993097  1
  I  I25  1  0.756902  0.513806  0.506902  1
  I  I26  1  0.743097  0.250000  0.756901  1
  I  I27  1  0.993097  0.986193  0.743096  1
