# generated using pymatgen
data_Nd7Sm3(Pb3S)2
_symmetry_space_group_name_H-M   'P 1'
_cell_length_a   9.42949200
_cell_length_b   9.42944078
_cell_length_c   6.89739600
_cell_angle_alpha   90.00199301
_cell_angle_beta   89.99865108
_cell_angle_gamma   120.00090241
_symmetry_Int_Tables_number   1
_chemical_formula_structural   Nd7Sm3(Pb3S)2
_chemical_formula_sum   'Nd7 Sm3 Pb6 S2'
_cell_volume   531.11195470
_cell_formula_units_Z   1
loop_
 _symmetry_equiv_pos_site_id
 _symmetry_equiv_pos_as_xyz
  1  'x, y, z'
loop_
 _atom_site_type_symbol
 _atom_site_label
 _atom_site_symmetry_multiplicity
 _atom_site_fract_x
 _atom_site_fract_y
 _atom_site_fract_z
 _atom_site_occupancy
  Nd  Nd0  1  0.756553  0.756757  0.750271  1
  Nd  Nd1  1  0.243306  0.999820  0.750275  1
  Nd  Nd2  1  0.000117  0.243401  0.750263  1
  Nd  Nd3  1  0.243274  0.243381  0.249725  1
  Nd  Nd4  1  0.756560  0.999840  0.249730  1
  Nd  Nd5  1  0.000218  0.756741  0.249734  1
  Nd  Nd6  1  0.666634  0.333292  0.499996  1
  Sm  Sm7  1  0.666645  0.333260  0.999990  1
  Sm  Sm8  1  0.333337  0.666739  0.000004  1
  Sm  Sm9  1  0.333352  0.666745  0.499996  1
  Pb  Pb10  1  0.397536  0.398382  0.751049  1
  Pb  Pb11  1  0.601643  0.999189  0.751018  1
  Pb  Pb12  1  0.000830  0.602476  0.751073  1
  Pb  Pb13  1  0.601609  0.602476  0.248930  1
  Pb  Pb14  1  0.397516  0.999149  0.249011  1
  Pb  Pb15  1  0.000852  0.398374  0.248908  1
  S  S16  1  0.000016  0.999990  0.000013  1
  S  S17  1  0.000001  0.999988  0.500012  1
