# generated using pymatgen
data_PuBeB4
_symmetry_space_group_name_H-M   'P 1'
_cell_length_a   6.72076866
_cell_length_b   6.72080338
_cell_length_c   6.72076872
_cell_angle_alpha   113.68407625
_cell_angle_beta   113.67933622
_cell_angle_gamma   101.34322114
_symmetry_Int_Tables_number   1
_chemical_formula_structural   PuBeB4
_chemical_formula_sum   'Pu4 Be4 B16'
_cell_volume   230.23332167
_cell_formula_units_Z   4
loop_
 _symmetry_equiv_pos_site_id
 _symmetry_equiv_pos_as_xyz
  1  'x, y, z'
loop_
 _atom_site_type_symbol
 _atom_site_label
 _atom_site_symmetry_multiplicity
 _atom_site_fract_x
 _atom_site_fract_y
 _atom_site_fract_z
 _atom_site_occupancy
  Pu  Pu0  1  0.194487  0.194485  0.999998  1
  Pu  Pu1  1  0.805486  0.805485  0.999999  1
  Pu  Pu2  1  0.750011  0.250011  0.500000  1
  Pu  Pu3  1  0.250004  0.750006  0.500001  1
  Be  Be4  1  0.499998  0.279598  0.779600  1
  Be  Be5  1  0.499998  0.720399  0.220401  1
  Be  Be6  1  0.720412  0.500014  0.220400  1
  Be  Be7  1  0.279614  0.500014  0.779602  1
  B  B8  1  0.114004  0.282605  0.396603  1
  B  B9  1  0.886000  0.717401  0.603397  1
  B  B10  1  0.886002  0.282605  0.168601  1
  B  B11  1  0.114004  0.717401  0.831400  1
  B  B12  1  0.717382  0.885982  0.603396  1
  B  B13  1  0.282586  0.113983  0.396602  1
  B  B14  1  0.717381  0.113983  0.831397  1
  B  B15  1  0.282587  0.885982  0.168600  1
  B  B16  1  0.422857  0.422874  0.537225  1
  B  B17  1  0.885647  0.885631  0.462776  1
  B  B18  1  0.577146  0.114355  0.999985  1
  B  B19  1  0.114371  0.577164  0.000014  1
  B  B20  1  0.577149  0.577164  0.462793  1
  B  B21  1  0.114370  0.114355  0.537208  1
  B  B22  1  0.885649  0.422874  0.000017  1
  B  B23  1  0.422855  0.885631  0.999984  1
