# generated using pymatgen
data_HoTm7(Si4Ru3)4
_symmetry_space_group_name_H-M   'P 1'
_cell_length_a   10.19118994
_cell_length_b   10.19153291
_cell_length_c   13.71566625
_cell_angle_alpha   53.07213747
_cell_angle_beta   53.07327544
_cell_angle_gamma   30.80271553
_symmetry_Int_Tables_number   1
_chemical_formula_structural   HoTm7(Si4Ru3)4
_chemical_formula_sum   'Ho1 Tm7 Si16 Ru12'
_cell_volume   570.52207719
_cell_formula_units_Z   1
loop_
 _symmetry_equiv_pos_site_id
 _symmetry_equiv_pos_as_xyz
  1  'x, y, z'
loop_
 _atom_site_type_symbol
 _atom_site_label
 _atom_site_symmetry_multiplicity
 _atom_site_fract_x
 _atom_site_fract_y
 _atom_site_fract_z
 _atom_site_occupancy
  Ho  Ho0  1  0.556795  0.300073  0.143620  1
  Tm  Tm1  1  0.037564  0.290128  0.640393  1
  Tm  Tm2  1  0.710679  0.962058  0.859717  1
  Tm  Tm3  1  0.961137  0.710467  0.359980  1
  Tm  Tm4  1  0.290105  0.037838  0.139987  1
  Tm  Tm5  1  0.300113  0.556885  0.643727  1
  Tm  Tm6  1  0.442600  0.701253  0.855789  1
  Tm  Tm7  1  0.700597  0.442211  0.356225  1
  Si  Si8  1  0.979677  0.248494  0.894532  1
  Si  Si9  1  0.751990  0.020273  0.605347  1
  Si  Si10  1  0.020001  0.751724  0.105561  1
  Si  Si11  1  0.247809  0.979630  0.394322  1
  Si  Si12  1  0.138873  0.384319  0.900127  1
  Si  Si13  1  0.615834  0.861708  0.599875  1
  Si  Si14  1  0.860937  0.615929  0.100226  1
  Si  Si15  1  0.382701  0.139167  0.400173  1
  Si  Si16  1  0.081812  0.574233  0.568838  1
  Si  Si17  1  0.426099  0.918912  0.930675  1
  Si  Si18  1  0.917572  0.425801  0.431383  1
  Si  Si19  1  0.574380  0.080819  0.068956  1
  Si  Si20  1  0.620017  0.380012  0.750214  1
  Si  Si21  1  0.380333  0.619734  0.250051  1
  Si  Si22  1  0.131707  0.868373  0.750051  1
  Si  Si23  1  0.869528  0.130695  0.249909  1
  Ru  Ru24  1  0.898661  0.137930  0.588130  1
  Ru  Ru25  1  0.862310  0.100973  0.911901  1
  Ru  Ru26  1  0.101472  0.861119  0.412220  1
  Ru  Ru27  1  0.139211  0.898695  0.087521  1
  Ru  Ru28  1  0.836194  0.641388  0.783334  1
  Ru  Ru29  1  0.359006  0.164472  0.716186  1
  Ru  Ru30  1  0.163256  0.358732  0.216901  1
  Ru  Ru31  1  0.640755  0.835386  0.283768  1
  Ru  Ru32  1  0.253903  0.500973  0.932525  1
  Ru  Ru33  1  0.498999  0.746503  0.567893  1
  Ru  Ru34  1  0.746565  0.499403  0.067554  1
  Ru  Ru35  1  0.500810  0.253688  0.432389  1
