# generated using pymatgen
data_Ti8Al15Ir2Pt3Rh2
_symmetry_space_group_name_H-M   'P 1'
_cell_length_a   8.68443264
_cell_length_b   8.66482170
_cell_length_c   8.68443237
_cell_angle_alpha   119.96222467
_cell_angle_beta   119.95506868
_cell_angle_gamma   90.13657144
_symmetry_Int_Tables_number   1
_chemical_formula_structural   Ti8Al15Ir2Pt3Rh2
_chemical_formula_sum   'Ti8 Al15 Ir2 Pt3 Rh2'
_cell_volume   462.11645968
_cell_formula_units_Z   1
loop_
 _symmetry_equiv_pos_site_id
 _symmetry_equiv_pos_as_xyz
  1  'x, y, z'
loop_
 _atom_site_type_symbol
 _atom_site_label
 _atom_site_symmetry_multiplicity
 _atom_site_fract_x
 _atom_site_fract_y
 _atom_site_fract_z
 _atom_site_occupancy
  Ti  Ti0  1  0.789356  0.290884  0.075107  1
  Ti  Ti1  1  0.215778  0.290884  0.501528  1
  Ti  Ti2  1  0.210030  0.709586  0.499556  1
  Ti  Ti3  1  0.213177  0.713628  0.922584  1
  Ti  Ti4  1  0.791042  0.713628  0.500450  1
  Ti  Ti5  1  0.785364  0.286657  0.501293  1
  Ti  Ti6  1  0.380135  0.121436  0.741303  1
  Ti  Ti7  1  0.376249  0.635467  0.259219  1
  Al  Al8  1  0.997853  0.496776  0.498922  1
  Al  Al9  1  0.153299  0.342082  0.188782  1
  Al  Al10  1  0.154617  0.968798  0.814181  1
  Al  Al11  1  0.151656  0.345542  0.808113  1
  Al  Al12  1  0.537428  0.345542  0.193886  1
  Al  Al13  1  0.845400  0.654655  0.809256  1
  Al  Al14  1  0.848013  0.038181  0.190168  1
  Al  Al15  1  0.845127  0.653673  0.186863  1
  Al  Al16  1  0.466810  0.653673  0.808546  1
  Al  Al17  1  0.376609  0.123401  0.261571  1
  Al  Al18  1  0.861830  0.123401  0.746793  1
  Al  Al19  1  0.620032  0.879178  0.259145  1
  Al  Al20  1  0.623084  0.363759  0.740676  1
  Al  Al21  1  0.624362  0.876827  0.740756  1
  Al  Al22  1  0.136069  0.876827  0.252465  1
  Ir  Ir23  1  0.498410  0.499754  0.498170  1
  Ir  Ir24  1  0.001584  0.499754  0.001344  1
  Pt  Pt25  1  0.998975  0.998756  0.498774  1
  Pt  Pt26  1  0.499982  0.998756  0.999780  1
  Pt  Pt27  1  0.499093  0.500195  0.001102  1
  Rh  Rh28  1  0.000220  0.999686  0.999466  1
  Rh  Rh29  1  0.498414  0.998614  0.500200  1
