# generated using pymatgen
data_Li8Pr(NpBr8)3
_symmetry_space_group_name_H-M   'P 1'
_cell_length_a   6.95761500
_cell_length_b   6.95761532
_cell_length_c   27.37205700
_cell_angle_alpha   90.00000000
_cell_angle_beta   90.00000000
_cell_angle_gamma   119.99999372
_symmetry_Int_Tables_number   1
_chemical_formula_structural   Li8Pr(NpBr8)3
_chemical_formula_sum   'Li8 Pr1 Np3 Br24'
_cell_volume   1147.51640172
_cell_formula_units_Z   1
loop_
 _symmetry_equiv_pos_site_id
 _symmetry_equiv_pos_as_xyz
  1  'x, y, z'
loop_
 _atom_site_type_symbol
 _atom_site_label
 _atom_site_symmetry_multiplicity
 _atom_site_fract_x
 _atom_site_fract_y
 _atom_site_fract_z
 _atom_site_occupancy
  Li  Li0  1  0.000000  0.000000  0.250000  1
  Li  Li1  1  0.000000  0.000000  0.750000  1
  Li  Li2  1  0.333333  0.666667  0.999516  1
  Li  Li3  1  0.333333  0.666667  0.500484  1
  Li  Li4  1  0.333333  0.666667  0.250000  1
  Li  Li5  1  0.666667  0.333333  0.750000  1
  Li  Li6  1  0.666667  0.333333  0.997766  1
  Li  Li7  1  0.666667  0.333333  0.502234  1
  Pr  Pr8  1  0.333333  0.666667  0.750000  1
  Np  Np9  1  0.000000  0.000000  0.000262  1
  Np  Np10  1  0.000000  0.000000  0.499738  1
  Np  Np11  1  0.666667  0.333333  0.250000  1
  Br  Br12  1  0.335956  0.002473  0.306539  1
  Br  Br13  1  0.333759  0.016319  0.809069  1
  Br  Br14  1  0.999883  0.330072  0.057109  1
  Br  Br15  1  0.000719  0.330331  0.555971  1
  Br  Br16  1  0.997527  0.333483  0.306539  1
  Br  Br17  1  0.983681  0.317441  0.809069  1
  Br  Br18  1  0.335956  0.333483  0.193461  1
  Br  Br19  1  0.333759  0.317441  0.690931  1
  Br  Br20  1  0.330189  0.330072  0.442891  1
  Br  Br21  1  0.329612  0.330331  0.944029  1
  Br  Br22  1  0.669928  0.000117  0.442891  1
  Br  Br23  1  0.330189  0.000117  0.057109  1
  Br  Br24  1  0.329612  0.999281  0.555971  1
  Br  Br25  1  0.669928  0.669811  0.057109  1
  Br  Br26  1  0.669669  0.670388  0.555971  1
  Br  Br27  1  0.666517  0.664044  0.306539  1
  Br  Br28  1  0.682559  0.666241  0.809069  1
  Br  Br29  1  0.997527  0.664044  0.193461  1
  Br  Br30  1  0.983681  0.666241  0.690931  1
  Br  Br31  1  0.999883  0.669811  0.442891  1
  Br  Br32  1  0.000719  0.670388  0.944029  1
  Br  Br33  1  0.669669  0.999281  0.944029  1
  Br  Br34  1  0.666517  0.002473  0.193461  1
  Br  Br35  1  0.682559  0.016319  0.690931  1
