# generated using pymatgen
data_Pr6Ho2Sc11Si16Hg
_symmetry_space_group_name_H-M   'P 1'
_cell_length_a   7.17919690
_cell_length_b   7.52050194
_cell_length_c   14.24481113
_cell_angle_alpha   89.96534500
_cell_angle_beta   90.09150225
_cell_angle_gamma   90.21424693
_symmetry_Int_Tables_number   1
_chemical_formula_structural   Pr6Ho2Sc11Si16Hg
_chemical_formula_sum   'Pr6 Ho2 Sc11 Si16 Hg1'
_cell_volume   769.08744125
_cell_formula_units_Z   1
loop_
 _symmetry_equiv_pos_site_id
 _symmetry_equiv_pos_as_xyz
  1  'x, y, z'
loop_
 _atom_site_type_symbol
 _atom_site_label
 _atom_site_symmetry_multiplicity
 _atom_site_fract_x
 _atom_site_fract_y
 _atom_site_fract_z
 _atom_site_occupancy
  Pr  Pr0  1  0.492111  0.679161  0.899817  1
  Pr  Pr1  1  0.491118  0.679723  0.597737  1
  Pr  Pr2  1  0.980072  0.828997  0.598570  1
  Pr  Pr3  1  0.981167  0.829247  0.899121  1
  Pr  Pr4  1  0.509667  0.330676  0.099153  1
  Pr  Pr5  1  0.012190  0.173107  0.099078  1
  Ho  Ho6  1  0.011993  0.176753  0.399785  1
  Ho  Ho7  1  0.511553  0.326793  0.399533  1
  Sc  Sc8  1  0.337020  0.176220  0.623271  1
  Sc  Sc9  1  0.670767  0.820506  0.374180  1
  Sc  Sc10  1  0.171014  0.676301  0.376206  1
  Sc  Sc11  1  0.826956  0.315454  0.875724  1
  Sc  Sc12  1  0.827433  0.314420  0.623528  1
  Sc  Sc13  1  0.839972  0.499346  0.251663  1
  Sc  Sc14  1  0.339143  0.000325  0.251808  1
  Sc  Sc15  1  0.337306  0.174653  0.875621  1
  Sc  Sc16  1  0.171539  0.676182  0.126033  1
  Sc  Sc17  1  0.671012  0.820916  0.128243  1
  Sc  Sc18  1  0.158807  0.496634  0.749530  1
  Si  Si19  1  0.272778  0.880545  0.749081  1
  Si  Si20  1  0.466575  0.620060  0.252370  1
  Si  Si21  1  0.050362  0.129112  0.749387  1
  Si  Si22  1  0.531581  0.389811  0.748972  1
  Si  Si23  1  0.152581  0.461270  0.538842  1
  Si  Si24  1  0.967524  0.877321  0.252305  1
  Si  Si25  1  0.711752  0.122024  0.254037  1
  Si  Si26  1  0.849166  0.536561  0.038945  1
  Si  Si27  1  0.347756  0.962236  0.039740  1
  Si  Si28  1  0.153267  0.465774  0.959299  1
  Si  Si29  1  0.655206  0.047498  0.525250  1
  Si  Si30  1  0.343578  0.970440  0.457845  1
  Si  Si31  1  0.845257  0.528514  0.458854  1
  Si  Si32  1  0.793669  0.592861  0.749324  1
  Si  Si33  1  0.211399  0.378843  0.254565  1
  Si  Si34  1  0.654035  0.041486  0.972347  1
  Hg  Hg35  1  0.652673  0.000230  0.750234  1
