# generated using pymatgen
data_CeSc4Si7Pt9
_symmetry_space_group_name_H-M   'P 1'
_cell_length_a   10.06862200
_cell_length_b   10.06862105
_cell_length_c   3.96575600
_cell_angle_alpha   90.00000000
_cell_angle_beta   90.00000000
_cell_angle_gamma   120.00000122
_symmetry_Int_Tables_number   1
_chemical_formula_structural   CeSc4Si7Pt9
_chemical_formula_sum   'Ce1 Sc4 Si7 Pt9'
_cell_volume   348.17424991
_cell_formula_units_Z   1
loop_
 _symmetry_equiv_pos_site_id
 _symmetry_equiv_pos_as_xyz
  1  'x, y, z'
loop_
 _atom_site_type_symbol
 _atom_site_label
 _atom_site_symmetry_multiplicity
 _atom_site_fract_x
 _atom_site_fract_y
 _atom_site_fract_z
 _atom_site_occupancy
  Ce  Ce0  1  0.333333  0.666667  0.500000  1
  Sc  Sc1  1  0.000000  0.000000  0.000000  1
  Sc  Sc2  1  0.893736  0.457315  0.500000  1
  Sc  Sc3  1  0.563579  0.106264  0.500000  1
  Sc  Sc4  1  0.542685  0.436421  0.500000  1
  Si  Si5  1  0.239505  0.188838  0.500000  1
  Si  Si6  1  0.811162  0.050668  0.500000  1
  Si  Si7  1  0.949332  0.760495  0.500000  1
  Si  Si8  1  0.561318  0.648189  0.000000  1
  Si  Si9  1  0.351811  0.913129  0.000000  1
  Si  Si10  1  0.086871  0.438682  0.000000  1
  Si  Si11  1  0.666667  0.333333  0.000000  1
  Pt  Pt12  1  0.215906  0.935883  0.500000  1
  Pt  Pt13  1  0.064117  0.280024  0.500000  1
  Pt  Pt14  1  0.719976  0.784094  0.500000  1
  Pt  Pt15  1  0.315787  0.414983  0.000000  1
  Pt  Pt16  1  0.585017  0.900804  0.000000  1
  Pt  Pt17  1  0.099196  0.684213  0.000000  1
  Pt  Pt18  1  0.382834  0.173331  0.000000  1
  Pt  Pt19  1  0.826669  0.209504  0.000000  1
  Pt  Pt20  1  0.790496  0.617166  0.000000  1
