# generated using pymatgen
data_K3Sb3Pt2
_symmetry_space_group_name_H-M   'P 1'
_cell_length_a   7.07541100
_cell_length_b   6.99825219
_cell_length_c   11.46584791
_cell_angle_alpha   71.67110686
_cell_angle_beta   90.00000000
_cell_angle_gamma   90.00000000
_symmetry_Int_Tables_number   1
_chemical_formula_structural   K3Sb3Pt2
_chemical_formula_sum   'K6 Sb6 Pt4'
_cell_volume   538.93430519
_cell_formula_units_Z   2
loop_
 _symmetry_equiv_pos_site_id
 _symmetry_equiv_pos_as_xyz
  1  'x, y, z'
loop_
 _atom_site_type_symbol
 _atom_site_label
 _atom_site_symmetry_multiplicity
 _atom_site_fract_x
 _atom_site_fract_y
 _atom_site_fract_z
 _atom_site_occupancy
  K  K0  1  0.250000  0.432701  0.432177  1
  K  K1  1  0.750000  0.156213  0.905639  1
  K  K2  1  0.750000  0.452820  0.156952  1
  K  K3  1  0.250000  0.547180  0.843048  1
  K  K4  1  0.750000  0.567299  0.567823  1
  K  K5  1  0.250000  0.843787  0.094361  1
  Sb  Sb6  1  0.250000  0.860547  0.542125  1
  Sb  Sb7  1  0.750000  0.139453  0.457875  1
  Sb  Sb8  1  0.250000  0.287291  0.161029  1
  Sb  Sb9  1  0.750000  0.712709  0.838971  1
  Sb  Sb10  1  0.250000  0.102860  0.744737  1
  Sb  Sb11  1  0.750000  0.897140  0.255263  1
  Pt  Pt12  1  0.047202  0.035271  0.337995  1
  Pt  Pt13  1  0.547202  0.964729  0.662005  1
  Pt  Pt14  1  0.452798  0.035271  0.337995  1
  Pt  Pt15  1  0.952798  0.964729  0.662005  1
