# generated using pymatgen
data_Lu2Pa(InRh)3
_symmetry_space_group_name_H-M   'P 1'
_cell_length_a   7.81588400
_cell_length_b   7.50628779
_cell_length_c   3.77199000
_cell_angle_alpha   90.00000000
_cell_angle_beta   90.00000000
_cell_angle_gamma   121.37401401
_symmetry_Int_Tables_number   1
_chemical_formula_structural   Lu2Pa(InRh)3
_chemical_formula_sum   'Lu2 Pa1 In3 Rh3'
_cell_volume   188.93977393
_cell_formula_units_Z   1
loop_
 _symmetry_equiv_pos_site_id
 _symmetry_equiv_pos_as_xyz
  1  'x, y, z'
loop_
 _atom_site_type_symbol
 _atom_site_label
 _atom_site_symmetry_multiplicity
 _atom_site_fract_x
 _atom_site_fract_y
 _atom_site_fract_z
 _atom_site_occupancy
  Lu  Lu0  1  0.403178  0.402083  0.500000  1
  Lu  Lu1  1  0.001095  0.597918  0.500000  1
  Pa  Pa2  1  0.581740  0.000000  0.500000  1
  In  In3  1  0.243186  0.000000  0.000000  1
  In  In4  1  0.013688  0.274176  0.000000  1
  In  In5  1  0.739511  0.725823  0.000000  1
  Rh  Rh6  1  0.664059  0.300785  0.000000  1
  Rh  Rh7  1  0.363274  0.699215  0.000000  1
  Rh  Rh8  1  0.990268  0.000000  0.500000  1
