# generated using pymatgen
data_Ta2TlBr11
_symmetry_space_group_name_H-M   'P 1'
_cell_length_a   7.52243161
_cell_length_b   7.58515464
_cell_length_c   18.61429100
_cell_angle_alpha   78.95918058
_cell_angle_beta   78.77739364
_cell_angle_gamma   88.51813474
_symmetry_Int_Tables_number   1
_chemical_formula_structural   Ta2TlBr11
_chemical_formula_sum   'Ta4 Tl2 Br22'
_cell_volume   1022.44554353
_cell_formula_units_Z   2
loop_
 _symmetry_equiv_pos_site_id
 _symmetry_equiv_pos_as_xyz
  1  'x, y, z'
loop_
 _atom_site_type_symbol
 _atom_site_label
 _atom_site_symmetry_multiplicity
 _atom_site_fract_x
 _atom_site_fract_y
 _atom_site_fract_z
 _atom_site_occupancy
  Ta  Ta0  1  0.320402  0.820688  0.347969  1
  Ta  Ta1  1  0.679598  0.179312  0.652031  1
  Ta  Ta2  1  0.831473  0.329200  0.087878  1
  Ta  Ta3  1  0.168527  0.670800  0.912122  1
  Tl  Tl4  1  0.749075  0.751083  0.505078  1
  Tl  Tl5  1  0.250925  0.248917  0.494922  1
  Br  Br6  1  0.249805  0.778884  0.495177  1
  Br  Br7  1  0.750195  0.221116  0.504823  1
  Br  Br8  1  0.578194  0.023525  0.350989  1
  Br  Br9  1  0.421806  0.976475  0.649011  1
  Br  Br10  1  0.530207  0.552397  0.362445  1
  Br  Br11  1  0.469793  0.447603  0.637555  1
  Br  Br12  1  0.381620  0.856716  0.211599  1
  Br  Br13  1  0.618380  0.143284  0.788401  1
  Br  Br14  1  0.057592  0.601300  0.365055  1
  Br  Br15  1  0.942408  0.398700  0.634945  1
  Br  Br16  1  0.105132  0.080165  0.346614  1
  Br  Br17  1  0.894868  0.919835  0.653386  1
  Br  Br18  1  0.895201  0.028657  0.150247  1
  Br  Br19  1  0.104799  0.971343  0.849753  1
  Br  Br20  1  0.525985  0.379769  0.152254  1
  Br  Br21  1  0.474015  0.620231  0.847746  1
  Br  Br22  1  0.719406  0.216028  0.987273  1
  Br  Br23  1  0.280594  0.783972  0.012727  1
  Br  Br24  1  0.974316  0.477582  0.171140  1
  Br  Br25  1  0.025684  0.522418  0.828860  1
  Br  Br26  1  0.167242  0.339397  0.999637  1
  Br  Br27  1  0.832758  0.660603  0.000363  1
