# generated using pymatgen
data_Nd2HoSi6Pd17Pt3
_symmetry_space_group_name_H-M   'P 1'
_cell_length_a   8.76622504
_cell_length_b   8.76624721
_cell_length_c   8.78083599
_cell_angle_alpha   59.84139558
_cell_angle_beta   59.84141467
_cell_angle_gamma   59.81690386
_symmetry_Int_Tables_number   1
_chemical_formula_structural   Nd2HoSi6Pd17Pt3
_chemical_formula_sum   'Nd2 Ho1 Si6 Pd17 Pt3'
_cell_volume   475.33553469
_cell_formula_units_Z   1
loop_
 _symmetry_equiv_pos_site_id
 _symmetry_equiv_pos_as_xyz
  1  'x, y, z'
loop_
 _atom_site_type_symbol
 _atom_site_label
 _atom_site_symmetry_multiplicity
 _atom_site_fract_x
 _atom_site_fract_y
 _atom_site_fract_z
 _atom_site_occupancy
  Nd  Nd0  1  0.250402  0.250401  0.250499  1
  Nd  Nd1  1  0.749199  0.749200  0.750516  1
  Ho  Ho2  1  0.999977  0.999978  0.000180  1
  Si  Si3  1  0.731866  0.267400  0.266298  1
  Si  Si4  1  0.268699  0.731717  0.733032  1
  Si  Si5  1  0.267400  0.731866  0.266298  1
  Si  Si6  1  0.731717  0.268699  0.733033  1
  Si  Si7  1  0.267808  0.267808  0.731652  1
  Si  Si8  1  0.733209  0.733209  0.267530  1
  Pd  Pd9  1  0.383076  0.846303  0.383637  1
  Pd  Pd10  1  0.616429  0.616428  0.154490  1
  Pd  Pd11  1  0.618282  0.152722  0.614759  1
  Pd  Pd12  1  0.846302  0.383076  0.383638  1
  Pd  Pd13  1  0.152723  0.618282  0.614760  1
  Pd  Pd14  1  0.344631  0.999861  0.000446  1
  Pd  Pd15  1  0.654887  0.999793  0.000864  1
  Pd  Pd16  1  0.999751  0.344684  0.656148  1
  Pd  Pd17  1  0.999469  0.655321  0.345621  1
  Pd  Pd18  1  0.999862  0.344632  0.000446  1
  Pd  Pd19  1  0.655320  0.999468  0.345622  1
  Pd  Pd20  1  0.999794  0.654886  0.000864  1
  Pd  Pd21  1  0.344685  0.999752  0.656146  1
  Pd  Pd22  1  0.999541  0.999540  0.345661  1
  Pd  Pd23  1  0.999746  0.999747  0.655789  1
  Pd  Pd24  1  0.655189  0.344557  0.000394  1
  Pd  Pd25  1  0.344557  0.655189  0.000395  1
  Pt  Pt26  1  0.386231  0.386232  0.386513  1
  Pt  Pt27  1  0.614959  0.614958  0.611687  1
  Pt  Pt28  1  0.384291  0.384291  0.843082  1
