# generated using pymatgen
data_KNi2(Sb6Ru)2
_symmetry_space_group_name_H-M   'P 1'
_cell_length_a   8.12412568
_cell_length_b   8.09915479
_cell_length_c   8.09915539
_cell_angle_alpha   109.18909161
_cell_angle_beta   109.55069571
_cell_angle_gamma   109.54875277
_symmetry_Int_Tables_number   1
_chemical_formula_structural   KNi2(Sb6Ru)2
_chemical_formula_sum   'K1 Ni2 Sb12 Ru2'
_cell_volume   410.86456887
_cell_formula_units_Z   1
loop_
 _symmetry_equiv_pos_site_id
 _symmetry_equiv_pos_as_xyz
  1  'x, y, z'
loop_
 _atom_site_type_symbol
 _atom_site_label
 _atom_site_symmetry_multiplicity
 _atom_site_fract_x
 _atom_site_fract_y
 _atom_site_fract_z
 _atom_site_occupancy
  K  K0  1  0.000000  0.000000  0.000000  1
  Ni  Ni1  1  0.500000  0.500000  0.500000  1
  Ni  Ni2  1  0.500000  0.000000  0.000000  1
  Sb  Sb3  1  0.161232  0.500083  0.343005  1
  Sb  Sb4  1  0.500333  0.659800  0.840533  1
  Sb  Sb5  1  0.341930  0.842460  0.181505  1
  Sb  Sb6  1  0.816419  0.658603  0.157816  1
  Sb  Sb7  1  0.658070  0.839574  0.500530  1
  Sb  Sb8  1  0.183581  0.341397  0.842184  1
  Sb  Sb9  1  0.658070  0.157540  0.818495  1
  Sb  Sb10  1  0.341930  0.160426  0.499470  1
  Sb  Sb11  1  0.499667  0.340200  0.159467  1
  Sb  Sb12  1  0.838768  0.499917  0.656995  1
  Sb  Sb13  1  0.838768  0.181775  0.338851  1
  Sb  Sb14  1  0.161232  0.818225  0.661149  1
  Ru  Ru15  1  0.000000  0.500000  0.000000  1
  Ru  Ru16  1  0.000000  0.000000  0.500000  1
