# generated using pymatgen
data_Cs4DyY11S20
_symmetry_space_group_name_H-M   'P 1'
_cell_length_a   4.01742700
_cell_length_b   12.04557288
_cell_length_c   21.45999300
_cell_angle_alpha   90.05157089
_cell_angle_beta   90.00000000
_cell_angle_gamma   90.00000000
_symmetry_Int_Tables_number   1
_chemical_formula_structural   Cs4DyY11S20
_chemical_formula_sum   'Cs4 Dy1 Y11 S20'
_cell_volume   1038.49606109
_cell_formula_units_Z   1
loop_
 _symmetry_equiv_pos_site_id
 _symmetry_equiv_pos_as_xyz
  1  'x, y, z'
loop_
 _atom_site_type_symbol
 _atom_site_label
 _atom_site_symmetry_multiplicity
 _atom_site_fract_x
 _atom_site_fract_y
 _atom_site_fract_z
 _atom_site_occupancy
  Cs  Cs0  1  0.250000  0.853837  0.093573  1
  Cs  Cs1  1  0.750000  0.146230  0.906444  1
  Cs  Cs2  1  0.750000  0.353874  0.406437  1
  Cs  Cs3  1  0.250000  0.646134  0.593547  1
  Dy  Dy4  1  0.750000  0.797644  0.825435  1
  Y  Y5  1  0.250000  0.202597  0.174575  1
  Y  Y6  1  0.250000  0.297429  0.674575  1
  Y  Y7  1  0.750000  0.702594  0.325423  1
  Y  Y8  1  0.250000  0.958421  0.697343  1
  Y  Y9  1  0.750000  0.041685  0.302472  1
  Y  Y10  1  0.750000  0.458147  0.802481  1
  Y  Y11  1  0.250000  0.541709  0.197526  1
  Y  Y12  1  0.750000  0.390823  0.052834  1
  Y  Y13  1  0.250000  0.609007  0.947302  1
  Y  Y14  1  0.250000  0.890846  0.447155  1
  Y  Y15  1  0.750000  0.109176  0.552820  1
  S  S16  1  0.250000  0.951683  0.568766  1
  S  S17  1  0.750000  0.048352  0.431190  1
  S  S18  1  0.750000  0.451608  0.931210  1
  S  S19  1  0.250000  0.548311  0.068855  1
  S  S20  1  0.750000  0.761834  0.951727  1
  S  S21  1  0.250000  0.238047  0.048466  1
  S  S22  1  0.250000  0.261923  0.548477  1
  S  S23  1  0.750000  0.738077  0.451526  1
  S  S24  1  0.250000  0.946594  0.824264  1
  S  S25  1  0.750000  0.053399  0.175671  1
  S  S26  1  0.750000  0.446590  0.675684  1
  S  S27  1  0.250000  0.553401  0.324311  1
  S  S28  1  0.750000  0.126343  0.682648  1
  S  S29  1  0.250000  0.873697  0.317347  1
  S  S30  1  0.250000  0.626285  0.817375  1
  S  S31  1  0.750000  0.373701  0.182644  1
  S  S32  1  0.750000  0.689366  0.198755  1
  S  S33  1  0.250000  0.310538  0.801246  1
  S  S34  1  0.250000  0.189376  0.301263  1
  S  S35  1  0.750000  0.810724  0.698639  1
