# generated using pymatgen
data_La3Al12Ru3Pt
_symmetry_space_group_name_H-M   'P 1'
_cell_length_a   8.99507787
_cell_length_b   8.99507637
_cell_length_c   9.70803402
_cell_angle_alpha   90.17148505
_cell_angle_beta   89.82851418
_cell_angle_gamma   120.10784302
_symmetry_Int_Tables_number   1
_chemical_formula_structural   La3Al12Ru3Pt
_chemical_formula_sum   'La6 Al24 Ru6 Pt2'
_cell_volume   679.51044883
_cell_formula_units_Z   2
loop_
 _symmetry_equiv_pos_site_id
 _symmetry_equiv_pos_as_xyz
  1  'x, y, z'
loop_
 _atom_site_type_symbol
 _atom_site_label
 _atom_site_symmetry_multiplicity
 _atom_site_fract_x
 _atom_site_fract_y
 _atom_site_fract_z
 _atom_site_occupancy
  La  La0  1  0.192395  0.382734  0.251375  1
  La  La1  1  0.807605  0.617266  0.748625  1
  La  La2  1  0.617266  0.807605  0.251375  1
  La  La3  1  0.382734  0.192395  0.748625  1
  La  La4  1  0.190979  0.809021  0.251250  1
  La  La5  1  0.809021  0.190979  0.748750  1
  Al  Al6  1  0.335860  0.664140  0.009107  1
  Al  Al7  1  0.664140  0.335860  0.990893  1
  Al  Al8  1  0.666372  0.333628  0.503067  1
  Al  Al9  1  0.333628  0.666372  0.496933  1
  Al  Al10  1  0.163269  0.325167  0.576967  1
  Al  Al11  1  0.836731  0.674833  0.423033  1
  Al  Al12  1  0.674833  0.836731  0.576967  1
  Al  Al13  1  0.833955  0.676169  0.076391  1
  Al  Al14  1  0.325167  0.163269  0.423033  1
  Al  Al15  1  0.166045  0.323831  0.923609  1
  Al  Al16  1  0.162376  0.837624  0.576642  1
  Al  Al17  1  0.323831  0.166045  0.076391  1
  Al  Al18  1  0.837624  0.162376  0.423358  1
  Al  Al19  1  0.676169  0.833955  0.923609  1
  Al  Al20  1  0.838970  0.161030  0.076638  1
  Al  Al21  1  0.161030  0.838970  0.923362  1
  Al  Al22  1  0.564339  0.128237  0.251398  1
  Al  Al23  1  0.435661  0.871763  0.748602  1
  Al  Al24  1  0.871763  0.435661  0.251398  1
  Al  Al25  1  0.128237  0.564339  0.748602  1
  Al  Al26  1  0.563492  0.436508  0.247622  1
  Al  Al27  1  0.436508  0.563492  0.752378  1
  Al  Al28  1  0.000459  0.999541  0.250364  1
  Al  Al29  1  0.999541  0.000459  0.749636  1
  Ru  Ru30  1  0.500000  0.000000  0.500000  1
  Ru  Ru31  1  0.500000  0.500000  0.000000  1
  Ru  Ru32  1  0.000000  0.500000  0.500000  1
  Ru  Ru33  1  0.500000  0.500000  0.500000  1
  Ru  Ru34  1  0.000000  0.000000  0.000000  1
  Ru  Ru35  1  0.000000  0.000000  0.500000  1
  Pt  Pt36  1  0.500000  0.000000  0.000000  1
  Pt  Pt37  1  0.000000  0.500000  0.000000  1
