# generated using pymatgen
data_Ca3Hf2(UH8)3
_symmetry_space_group_name_H-M   'P 1'
_cell_length_a   6.44312300
_cell_length_b   6.43440600
_cell_length_c   6.53749500
_cell_angle_alpha   90.00000000
_cell_angle_beta   90.00000000
_cell_angle_gamma   90.00000000
_symmetry_Int_Tables_number   1
_chemical_formula_structural   Ca3Hf2(UH8)3
_chemical_formula_sum   'Ca3 Hf2 U3 H24'
_cell_volume   271.02930569
_cell_formula_units_Z   1
loop_
 _symmetry_equiv_pos_site_id
 _symmetry_equiv_pos_as_xyz
  1  'x, y, z'
loop_
 _atom_site_type_symbol
 _atom_site_label
 _atom_site_symmetry_multiplicity
 _atom_site_fract_x
 _atom_site_fract_y
 _atom_site_fract_z
 _atom_site_occupancy
  Ca  Ca0  1  0.246975  0.000000  0.499342  1
  Ca  Ca1  1  0.753025  0.000000  0.499342  1
  Ca  Ca2  1  0.000000  0.500000  0.254715  1
  Hf  Hf3  1  0.000000  0.000000  0.006201  1
  Hf  Hf4  1  0.500000  0.500000  0.499885  1
  U  U5  1  0.000000  0.500000  0.749806  1
  U  U6  1  0.500000  0.750030  0.998657  1
  U  U7  1  0.500000  0.249970  0.998657  1
  H  H8  1  0.000000  0.151513  0.272399  1
  H  H9  1  0.500000  0.221287  0.658201  1
  H  H10  1  0.500000  0.777510  0.341630  1
  H  H11  1  0.793197  0.648261  0.513345  1
  H  H12  1  0.206803  0.648261  0.513345  1
  H  H13  1  0.347856  0.500000  0.794709  1
  H  H14  1  0.652144  0.500000  0.794709  1
  H  H15  1  0.296785  0.000000  0.146846  1
  H  H16  1  0.152904  0.288185  0.988639  1
  H  H17  1  0.847096  0.711815  0.988639  1
  H  H18  1  0.300476  0.000000  0.853994  1
  H  H19  1  0.847096  0.288185  0.988639  1
  H  H20  1  0.703215  0.000000  0.146846  1
  H  H21  1  0.699524  0.000000  0.853994  1
  H  H22  1  0.152904  0.711815  0.988639  1
  H  H23  1  0.000000  0.840640  0.717518  1
  H  H24  1  0.000000  0.159360  0.717518  1
  H  H25  1  0.000000  0.848487  0.272399  1
  H  H26  1  0.646407  0.500000  0.207433  1
  H  H27  1  0.353593  0.500000  0.207433  1
  H  H28  1  0.793197  0.351739  0.513345  1
  H  H29  1  0.206803  0.351739  0.513345  1
  H  H30  1  0.500000  0.778713  0.658201  1
  H  H31  1  0.500000  0.222490  0.341630  1
