# generated using pymatgen
data_Dy12Re(Si4Ir)3
_symmetry_space_group_name_H-M   'P 1'
_cell_length_a   4.23182600
_cell_length_b   10.70006662
_cell_length_c   12.33789333
_cell_angle_alpha   90.08154736
_cell_angle_beta   90.00000000
_cell_angle_gamma   90.00000000
_symmetry_Int_Tables_number   1
_chemical_formula_structural   Dy12Re(Si4Ir)3
_chemical_formula_sum   'Dy12 Re1 Si12 Ir3'
_cell_volume   558.66936234
_cell_formula_units_Z   1
loop_
 _symmetry_equiv_pos_site_id
 _symmetry_equiv_pos_as_xyz
  1  'x, y, z'
loop_
 _atom_site_type_symbol
 _atom_site_label
 _atom_site_symmetry_multiplicity
 _atom_site_fract_x
 _atom_site_fract_y
 _atom_site_fract_z
 _atom_site_occupancy
  Dy  Dy0  1  0.250000  0.878957  0.020606  1
  Dy  Dy1  1  0.250000  0.620269  0.521652  1
  Dy  Dy2  1  0.750000  0.118833  0.979880  1
  Dy  Dy3  1  0.750000  0.379144  0.479922  1
  Dy  Dy4  1  0.250000  0.921179  0.603544  1
  Dy  Dy5  1  0.250000  0.580456  0.105639  1
  Dy  Dy6  1  0.750000  0.079915  0.394693  1
  Dy  Dy7  1  0.750000  0.420179  0.895948  1
  Dy  Dy8  1  0.250000  0.663456  0.799220  1
  Dy  Dy9  1  0.250000  0.840359  0.300554  1
  Dy  Dy10  1  0.750000  0.341132  0.198362  1
  Dy  Dy11  1  0.750000  0.158068  0.699550  1
  Re  Re12  1  0.250000  0.390667  0.679809  1
  Si  Si13  1  0.250000  0.009606  0.821720  1
  Si  Si14  1  0.250000  0.489028  0.322170  1
  Si  Si15  1  0.750000  0.989663  0.178540  1
  Si  Si16  1  0.750000  0.509250  0.680218  1
  Si  Si17  1  0.250000  0.247871  0.841332  1
  Si  Si18  1  0.250000  0.252056  0.340289  1
  Si  Si19  1  0.750000  0.752608  0.159141  1
  Si  Si20  1  0.750000  0.750534  0.657941  1
  Si  Si21  1  0.250000  0.201504  0.542987  1
  Si  Si22  1  0.250000  0.297004  0.043529  1
  Si  Si23  1  0.750000  0.799409  0.456237  1
  Si  Si24  1  0.750000  0.699304  0.956712  1
  Ir  Ir25  1  0.250000  0.109676  0.180151  1
  Ir  Ir26  1  0.750000  0.611076  0.319419  1
  Ir  Ir27  1  0.750000  0.888794  0.820238  1
