# generated using pymatgen
data_Zr6Co20Si2As11
_symmetry_space_group_name_H-M   'P 1'
_cell_length_a   12.82806226
_cell_length_b   12.85700400
_cell_length_c   3.70220900
_cell_angle_alpha   90.00000000
_cell_angle_beta   90.00000000
_cell_angle_gamma   120.00716115
_symmetry_Int_Tables_number   1
_chemical_formula_structural   Zr6Co20Si2As11
_chemical_formula_sum   'Zr6 Co20 Si2 As11'
_cell_volume   528.76300069
_cell_formula_units_Z   1
loop_
 _symmetry_equiv_pos_site_id
 _symmetry_equiv_pos_as_xyz
  1  'x, y, z'
loop_
 _atom_site_type_symbol
 _atom_site_label
 _atom_site_symmetry_multiplicity
 _atom_site_fract_x
 _atom_site_fract_y
 _atom_site_fract_z
 _atom_site_occupancy
  Zr  Zr0  1  0.807580  0.284214  0.500000  1
  Zr  Zr1  1  0.714990  0.522101  0.500000  1
  Zr  Zr2  1  0.475328  0.193693  0.500000  1
  Zr  Zr3  1  0.193679  0.717238  0.000000  1
  Zr  Zr4  1  0.280869  0.470064  0.000000  1
  Zr  Zr5  1  0.524129  0.805947  0.000000  1
  Co  Co6  1  0.419048  0.982535  0.000000  1
  Co  Co7  1  0.018432  0.437345  0.000000  1
  Co  Co8  1  0.583741  0.019093  0.500000  1
  Co  Co9  1  0.562109  0.580500  0.000000  1
  Co  Co10  1  0.982047  0.564678  0.500000  1
  Co  Co11  1  0.932255  0.077805  0.500000  1
  Co  Co12  1  0.148133  0.073230  0.500000  1
  Co  Co13  1  0.923130  0.852620  0.500000  1
  Co  Co14  1  0.095833  0.897025  0.000000  1
  Co  Co15  1  0.802091  0.904404  0.000000  1
  Co  Co16  1  0.105612  0.200776  0.000000  1
  Co  Co17  1  0.333773  0.668050  0.500000  1
  Co  Co18  1  0.666198  0.333602  0.000000  1
  Co  Co19  1  0.678209  0.746274  0.500000  1
  Co  Co20  1  0.253842  0.932921  0.500000  1
  Co  Co21  1  0.926294  0.678479  0.000000  1
  Co  Co22  1  0.317736  0.247961  0.000000  1
  Co  Co23  1  0.752989  0.074127  0.000000  1
  Co  Co24  1  0.431465  0.414851  0.500000  1
  Co  Co25  1  0.070791  0.321385  0.500000  1
  Si  Si26  1  0.001849  0.001625  0.000000  1
  Si  Si27  1  0.228314  0.282131  0.500000  1
  As  As28  1  0.715713  0.944765  0.500000  1
  As  As29  1  0.056002  0.770776  0.500000  1
  As  As30  1  0.769053  0.712350  0.000000  1
  As  As31  1  0.286390  0.057729  0.000000  1
  As  As32  1  0.472059  0.612273  0.500000  1
  As  As33  1  0.386601  0.860848  0.500000  1
  As  As34  1  0.859336  0.474905  0.000000  1
  As  As35  1  0.522815  0.383635  0.000000  1
  As  As36  1  0.615489  0.141140  0.000000  1
  As  As37  1  0.944887  0.231319  0.000000  1
  As  As38  1  0.141188  0.525587  0.500000  1
