# generated using pymatgen
data_Sc4PaHgPd14
_symmetry_space_group_name_H-M   'P 1'
_cell_length_a   4.07821900
_cell_length_b   4.00864300
_cell_length_c   20.48765300
_cell_angle_alpha   90.00000000
_cell_angle_beta   90.00000000
_cell_angle_gamma   90.00000000
_symmetry_Int_Tables_number   1
_chemical_formula_structural   Sc4PaHgPd14
_chemical_formula_sum   'Sc4 Pa1 Hg1 Pd14'
_cell_volume   334.93469267
_cell_formula_units_Z   1
loop_
 _symmetry_equiv_pos_site_id
 _symmetry_equiv_pos_as_xyz
  1  'x, y, z'
loop_
 _atom_site_type_symbol
 _atom_site_label
 _atom_site_symmetry_multiplicity
 _atom_site_fract_x
 _atom_site_fract_y
 _atom_site_fract_z
 _atom_site_occupancy
  Sc  Sc0  1  0.000000  0.000000  0.204373  1
  Sc  Sc1  1  0.000000  0.000000  0.391033  1
  Sc  Sc2  1  0.000000  0.000000  0.608967  1
  Sc  Sc3  1  0.000000  0.000000  0.795627  1
  Pa  Pa4  1  0.000000  0.000000  0.000000  1
  Hg  Hg5  1  0.500000  0.000000  0.500000  1
  Pd  Pd6  1  0.500000  0.500000  0.000000  1
  Pd  Pd7  1  0.500000  0.500000  0.201616  1
  Pd  Pd8  1  0.500000  0.500000  0.398475  1
  Pd  Pd9  1  0.500000  0.500000  0.601525  1
  Pd  Pd10  1  0.500000  0.500000  0.798384  1
  Pd  Pd11  1  0.500000  0.000000  0.101167  1
  Pd  Pd12  1  0.500000  0.000000  0.300345  1
  Pd  Pd13  1  0.500000  0.000000  0.699655  1
  Pd  Pd14  1  0.500000  0.000000  0.898833  1
  Pd  Pd15  1  0.000000  0.500000  0.101310  1
  Pd  Pd16  1  0.000000  0.500000  0.299974  1
  Pd  Pd17  1  0.000000  0.500000  0.500000  1
  Pd  Pd18  1  0.000000  0.500000  0.700026  1
  Pd  Pd19  1  0.000000  0.500000  0.898690  1
