# generated using pymatgen
data_SmEr(Si2Rh3)2
_symmetry_space_group_name_H-M   'P 1'
_cell_length_a   6.64274350
_cell_length_b   6.64274393
_cell_length_c   6.64274270
_cell_angle_alpha   130.38432123
_cell_angle_beta   114.39564121
_cell_angle_gamma   86.50585021
_symmetry_Int_Tables_number   1
_chemical_formula_structural   SmEr(Si2Rh3)2
_chemical_formula_sum   'Sm1 Er1 Si4 Rh6'
_cell_volume   194.10475211
_cell_formula_units_Z   1
loop_
 _symmetry_equiv_pos_site_id
 _symmetry_equiv_pos_as_xyz
  1  'x, y, z'
loop_
 _atom_site_type_symbol
 _atom_site_label
 _atom_site_symmetry_multiplicity
 _atom_site_fract_x
 _atom_site_fract_y
 _atom_site_fract_z
 _atom_site_occupancy
  Sm  Sm0  1  0.750000  0.040517  0.290517  1
  Er  Er1  1  0.250000  0.952337  0.702337  1
  Si  Si2  1  0.577782  0.382805  0.805023  1
  Si  Si3  1  0.922218  0.727240  0.805023  1
  Si  Si4  1  0.420997  0.614942  0.193944  1
  Si  Si5  1  0.079003  0.272947  0.193944  1
  Rh  Rh6  1  0.215523  0.503679  0.715970  1
  Rh  Rh7  1  0.787710  0.503679  0.288157  1
  Rh  Rh8  1  0.498677  0.500479  0.499156  1
  Rh  Rh9  1  0.001323  0.500479  0.001803  1
  Rh  Rh10  1  0.712290  0.000447  0.715970  1
  Rh  Rh11  1  0.284477  0.000447  0.288157  1
