# generated using pymatgen
data_Th2Si2(GeRh)3
_symmetry_space_group_name_H-M   'P 1'
_cell_length_a   8.37379269
_cell_length_b   8.37379021
_cell_length_c   8.37379139
_cell_angle_alpha   137.43024966
_cell_angle_beta   106.36153691
_cell_angle_gamma   88.95992914
_symmetry_Int_Tables_number   1
_chemical_formula_structural   Th2Si2(GeRh)3
_chemical_formula_sum   'Th4 Si4 Ge6 Rh6'
_cell_volume   364.56024203
_cell_formula_units_Z   2
loop_
 _symmetry_equiv_pos_site_id
 _symmetry_equiv_pos_as_xyz
  1  'x, y, z'
loop_
 _atom_site_type_symbol
 _atom_site_label
 _atom_site_symmetry_multiplicity
 _atom_site_fract_x
 _atom_site_fract_y
 _atom_site_fract_z
 _atom_site_occupancy
  Th  Th0  1  0.865004  0.631992  0.233014  1
  Th  Th1  1  0.134996  0.368008  0.766986  1
  Th  Th2  1  0.398978  0.131992  0.266986  1
  Th  Th3  1  0.601022  0.868008  0.733014  1
  Si  Si4  1  0.048898  0.897887  0.151012  1
  Si  Si5  1  0.951102  0.102113  0.848988  1
  Si  Si6  1  0.746876  0.397887  0.348988  1
  Si  Si7  1  0.253124  0.602113  0.651012  1
  Ge  Ge8  1  0.500000  0.750000  0.250000  1
  Ge  Ge9  1  0.500000  0.250000  0.750000  1
  Ge  Ge10  1  0.225562  0.975562  0.750000  1
  Ge  Ge11  1  0.774438  0.524438  0.750000  1
  Ge  Ge12  1  0.774438  0.024438  0.250000  1
  Ge  Ge13  1  0.225562  0.475562  0.250000  1
  Rh  Rh14  1  0.000000  0.750000  0.750000  1
  Rh  Rh15  1  0.000000  0.250000  0.250000  1
  Rh  Rh16  1  0.242326  0.860969  0.381357  1
  Rh  Rh17  1  0.757674  0.139031  0.618643  1
  Rh  Rh18  1  0.479614  0.360969  0.118643  1
  Rh  Rh19  1  0.520386  0.639031  0.881357  1
