# generated using pymatgen
data_LuCdP6Pd20Pb
_symmetry_space_group_name_H-M   'P 1'
_cell_length_a   8.66709846
_cell_length_b   8.66709787
_cell_length_c   8.66709800
_cell_angle_alpha   59.99999187
_cell_angle_beta   59.99999413
_cell_angle_gamma   59.99999163
_symmetry_Int_Tables_number   1
_chemical_formula_structural   LuCdP6Pd20Pb
_chemical_formula_sum   'Lu1 Cd1 P6 Pd20 Pb1'
_cell_volume   460.36899497
_cell_formula_units_Z   1
loop_
 _symmetry_equiv_pos_site_id
 _symmetry_equiv_pos_as_xyz
  1  'x, y, z'
loop_
 _atom_site_type_symbol
 _atom_site_label
 _atom_site_symmetry_multiplicity
 _atom_site_fract_x
 _atom_site_fract_y
 _atom_site_fract_z
 _atom_site_occupancy
  Lu  Lu0  1  0.000000  0.000000  0.000000  1
  Cd  Cd1  1  0.750000  0.750000  0.750000  1
  P  P2  1  0.734743  0.734743  0.265257  1
  P  P3  1  0.265257  0.265257  0.734743  1
  P  P4  1  0.265257  0.734743  0.734743  1
  P  P5  1  0.734743  0.265257  0.734743  1
  P  P6  1  0.265257  0.734743  0.265257  1
  P  P7  1  0.734743  0.265257  0.265257  1
  Pd  Pd8  1  0.616924  0.616924  0.616924  1
  Pd  Pd9  1  0.384927  0.845217  0.384927  1
  Pd  Pd10  1  0.658333  0.343950  0.998859  1
  Pd  Pd11  1  0.998859  0.343950  0.658333  1
  Pd  Pd12  1  0.658333  0.998859  0.998859  1
  Pd  Pd13  1  0.616924  0.616924  0.149228  1
  Pd  Pd14  1  0.998859  0.998859  0.658333  1
  Pd  Pd15  1  0.998859  0.343950  0.998859  1
  Pd  Pd16  1  0.658333  0.998859  0.343950  1
  Pd  Pd17  1  0.343950  0.998859  0.998859  1
  Pd  Pd18  1  0.998859  0.658333  0.998859  1
  Pd  Pd19  1  0.343950  0.998859  0.658333  1
  Pd  Pd20  1  0.998859  0.658333  0.343950  1
  Pd  Pd21  1  0.343950  0.658333  0.998859  1
  Pd  Pd22  1  0.149228  0.616924  0.616924  1
  Pd  Pd23  1  0.384927  0.384927  0.384927  1
  Pd  Pd24  1  0.845217  0.384927  0.384927  1
  Pd  Pd25  1  0.384927  0.384927  0.845217  1
  Pd  Pd26  1  0.616924  0.149228  0.616924  1
  Pd  Pd27  1  0.998859  0.998859  0.343950  1
  Pb  Pb28  1  0.250000  0.250000  0.250000  1
