# generated using pymatgen
data_Hf18ReMo7As2
_symmetry_space_group_name_H-M   'P 1'
_cell_length_a   8.68475800
_cell_length_b   8.68475845
_cell_length_c   8.68587600
_cell_angle_alpha   90.00000000
_cell_angle_beta   90.00000000
_cell_angle_gamma   120.00000589
_symmetry_Int_Tables_number   1
_chemical_formula_structural   Hf18ReMo7As2
_chemical_formula_sum   'Hf18 Re1 Mo7 As2'
_cell_volume   567.36128351
_cell_formula_units_Z   1
loop_
 _symmetry_equiv_pos_site_id
 _symmetry_equiv_pos_as_xyz
  1  'x, y, z'
loop_
 _atom_site_type_symbol
 _atom_site_label
 _atom_site_symmetry_multiplicity
 _atom_site_fract_x
 _atom_site_fract_y
 _atom_site_fract_z
 _atom_site_occupancy
  Hf  Hf0  1  0.609905  0.804952  0.043948  1
  Hf  Hf1  1  0.803977  0.607955  0.543627  1
  Hf  Hf2  1  0.195048  0.390095  0.043948  1
  Hf  Hf3  1  0.195048  0.804952  0.043948  1
  Hf  Hf4  1  0.803977  0.196023  0.543627  1
  Hf  Hf5  1  0.392045  0.196023  0.543627  1
  Hf  Hf6  1  0.804952  0.609905  0.956052  1
  Hf  Hf7  1  0.804952  0.195048  0.956052  1
  Hf  Hf8  1  0.390095  0.195048  0.956052  1
  Hf  Hf9  1  0.607955  0.803977  0.456373  1
  Hf  Hf10  1  0.196023  0.803977  0.456373  1
  Hf  Hf11  1  0.196023  0.392045  0.456373  1
  Hf  Hf12  1  0.539441  0.078884  0.249748  1
  Hf  Hf13  1  0.460559  0.921116  0.750252  1
  Hf  Hf14  1  0.921116  0.460559  0.249748  1
  Hf  Hf15  1  0.539441  0.460559  0.249748  1
  Hf  Hf16  1  0.460559  0.539441  0.750252  1
  Hf  Hf17  1  0.078884  0.539441  0.750252  1
  Re  Re18  1  0.000000  0.000000  0.000000  1
  Mo  Mo19  1  0.000000  0.000000  0.500000  1
  Mo  Mo20  1  0.890189  0.780377  0.250108  1
  Mo  Mo21  1  0.109811  0.219623  0.749892  1
  Mo  Mo22  1  0.219623  0.109811  0.250108  1
  Mo  Mo23  1  0.890189  0.109811  0.250108  1
  Mo  Mo24  1  0.109811  0.890189  0.749892  1
  Mo  Mo25  1  0.780377  0.890189  0.749892  1
  As  As26  1  0.666667  0.333333  0.750675  1
  As  As27  1  0.333333  0.666667  0.249325  1
