# generated using pymatgen
data_Pr4YGa2Bi
_symmetry_space_group_name_H-M   'P 1'
_cell_length_a   8.21988600
_cell_length_b   8.21988600
_cell_length_c   14.14741300
_cell_angle_alpha   90.00000000
_cell_angle_beta   90.00000000
_cell_angle_gamma   90.00000000
_symmetry_Int_Tables_number   1
_chemical_formula_structural   Pr4YGa2Bi
_chemical_formula_sum   'Pr16 Y4 Ga8 Bi4'
_cell_volume   955.89154622
_cell_formula_units_Z   4
loop_
 _symmetry_equiv_pos_site_id
 _symmetry_equiv_pos_as_xyz
  1  'x, y, z'
loop_
 _atom_site_type_symbol
 _atom_site_label
 _atom_site_symmetry_multiplicity
 _atom_site_fract_x
 _atom_site_fract_y
 _atom_site_fract_z
 _atom_site_occupancy
  Pr  Pr0  1  0.842880  0.841437  0.892796  1
  Pr  Pr1  1  0.158563  0.157120  0.607204  1
  Pr  Pr2  1  0.842880  0.158563  0.392796  1
  Pr  Pr3  1  0.157120  0.841437  0.392796  1
  Pr  Pr4  1  0.341437  0.342880  0.392796  1
  Pr  Pr5  1  0.841437  0.157120  0.107204  1
  Pr  Pr6  1  0.341437  0.657120  0.892796  1
  Pr  Pr7  1  0.158563  0.842880  0.107204  1
  Pr  Pr8  1  0.342880  0.658563  0.607204  1
  Pr  Pr9  1  0.657120  0.658563  0.107204  1
  Pr  Pr10  1  0.657120  0.341437  0.607204  1
  Pr  Pr11  1  0.841437  0.842880  0.607204  1
  Pr  Pr12  1  0.658563  0.342880  0.892796  1
  Pr  Pr13  1  0.157120  0.158563  0.892796  1
  Pr  Pr14  1  0.658563  0.657120  0.392796  1
  Pr  Pr15  1  0.342880  0.341437  0.107204  1
  Y  Y16  1  0.500000  0.000000  0.753083  1
  Y  Y17  1  0.000000  0.500000  0.246917  1
  Y  Y18  1  0.000000  0.500000  0.746917  1
  Y  Y19  1  0.500000  0.000000  0.253083  1
  Ga  Ga20  1  0.642188  0.357812  0.250000  1
  Ga  Ga21  1  0.357812  0.642188  0.250000  1
  Ga  Ga22  1  0.142188  0.142188  0.250000  1
  Ga  Ga23  1  0.357812  0.357812  0.750000  1
  Ga  Ga24  1  0.142188  0.857812  0.750000  1
  Ga  Ga25  1  0.857812  0.857812  0.250000  1
  Ga  Ga26  1  0.642188  0.642188  0.750000  1
  Ga  Ga27  1  0.857812  0.142188  0.750000  1
  Bi  Bi28  1  0.000000  0.500000  0.998864  1
  Bi  Bi29  1  0.500000  0.000000  0.001136  1
  Bi  Bi30  1  0.500000  0.000000  0.501136  1
  Bi  Bi31  1  0.000000  0.500000  0.498864  1
