# generated using pymatgen
data_Tb9Y(SiBi)4
_symmetry_space_group_name_H-M   'P 1'
_cell_length_a   8.69902601
_cell_length_b   8.69902657
_cell_length_c   7.96600300
_cell_angle_alpha   89.99976710
_cell_angle_beta   89.99976637
_cell_angle_gamma   125.59291941
_symmetry_Int_Tables_number   1
_chemical_formula_structural   Tb9Y(SiBi)4
_chemical_formula_sum   'Tb9 Y1 Si4 Bi4'
_cell_volume   490.19010295
_cell_formula_units_Z   1
loop_
 _symmetry_equiv_pos_site_id
 _symmetry_equiv_pos_as_xyz
  1  'x, y, z'
loop_
 _atom_site_type_symbol
 _atom_site_label
 _atom_site_symmetry_multiplicity
 _atom_site_fract_x
 _atom_site_fract_y
 _atom_site_fract_z
 _atom_site_occupancy
  Tb  Tb0  1  0.042798  0.287206  0.335394  1
  Tb  Tb1  1  0.957202  0.712794  0.664606  1
  Tb  Tb2  1  0.457189  0.212790  0.835422  1
  Tb  Tb3  1  0.787210  0.542811  0.164578  1
  Tb  Tb4  1  0.542811  0.787210  0.164578  1
  Tb  Tb5  1  0.212790  0.457189  0.835422  1
  Tb  Tb6  1  0.712794  0.957202  0.664606  1
  Tb  Tb7  1  0.287206  0.042798  0.335394  1
  Tb  Tb8  1  0.000000  0.000000  0.000000  1
  Y  Y9  1  0.500000  0.500000  0.500000  1
  Si  Si10  1  0.365636  0.365636  0.133254  1
  Si  Si11  1  0.634364  0.634364  0.866746  1
  Si  Si12  1  0.134385  0.134385  0.633205  1
  Si  Si13  1  0.865615  0.865615  0.366795  1
  Bi  Bi14  1  0.792481  0.207519  0.000000  1
  Bi  Bi15  1  0.207519  0.792481  0.000000  1
  Bi  Bi16  1  0.707474  0.292526  0.500000  1
  Bi  Bi17  1  0.292526  0.707474  0.500000  1
