# generated using pymatgen
data_Y12TiAl12V7O48
_symmetry_space_group_name_H-M   'P 1'
_cell_length_a   10.69060899
_cell_length_b   10.69060919
_cell_length_c   10.69060735
_cell_angle_alpha   109.50004098
_cell_angle_beta   109.50004781
_cell_angle_gamma   109.50003634
_symmetry_Int_Tables_number   1
_chemical_formula_structural   Y12TiAl12V7O48
_chemical_formula_sum   'Y12 Ti1 Al12 V7 O48'
_cell_volume   939.55259604
_cell_formula_units_Z   1
loop_
 _symmetry_equiv_pos_site_id
 _symmetry_equiv_pos_as_xyz
  1  'x, y, z'
loop_
 _atom_site_type_symbol
 _atom_site_label
 _atom_site_symmetry_multiplicity
 _atom_site_fract_x
 _atom_site_fract_y
 _atom_site_fract_z
 _atom_site_occupancy
  Y  Y0  1  0.244006  0.370885  0.120285  1
  Y  Y1  1  0.375408  0.749328  0.125505  1
  Y  Y2  1  0.874494  0.624592  0.250672  1
  Y  Y3  1  0.370885  0.120285  0.244006  1
  Y  Y4  1  0.120285  0.244006  0.370885  1
  Y  Y5  1  0.749327  0.125505  0.375408  1
  Y  Y6  1  0.250672  0.874494  0.624592  1
  Y  Y7  1  0.879715  0.755994  0.629115  1
  Y  Y8  1  0.629115  0.879715  0.755994  1
  Y  Y9  1  0.125505  0.375407  0.749328  1
  Y  Y10  1  0.624592  0.250672  0.874494  1
  Y  Y11  1  0.755994  0.629115  0.879715  1
  Ti  Ti12  1  0.500000  0.500000  0.500000  1
  Al  Al13  1  0.877002  0.254217  0.126672  1
  Al  Al14  1  0.745783  0.873327  0.122998  1
  Al  Al15  1  0.126673  0.877002  0.254216  1
  Al  Al16  1  0.626524  0.375901  0.252225  1
  Al  Al17  1  0.252225  0.626523  0.375901  1
  Al  Al18  1  0.624099  0.747774  0.373476  1
  Al  Al19  1  0.375901  0.252226  0.626524  1
  Al  Al20  1  0.747774  0.373476  0.624099  1
  Al  Al21  1  0.873327  0.122998  0.745783  1
  Al  Al22  1  0.373476  0.624099  0.747774  1
  Al  Al23  1  0.254217  0.126673  0.877001  1
  Al  Al24  1  0.122998  0.745783  0.873327  1
  V  V25  1  0.000000  0.000000  0.000000  1
  V  V26  1  0.500000  0.000000  0.000000  1
  V  V27  1  0.000000  0.500000  0.000000  1
  V  V28  1  0.500000  0.500000  0.000000  1
  V  V29  1  0.000000  0.000000  0.500000  1
  V  V30  1  0.500000  0.000000  0.500000  1
  V  V31  1  0.000000  0.500000  0.500000  1
  O  O32  1  0.222891  0.131220  0.030480  1
  O  O33  1  0.312152  0.897946  0.023107  1
  O  O34  1  0.876520  0.403180  0.084842  1
  O  O35  1  0.707331  0.684374  0.087204  1
  O  O36  1  0.622484  0.412755  0.100303  1
  O  O37  1  0.976893  0.687847  0.102054  1
  O  O38  1  0.030480  0.222891  0.131220  1
  O  O39  1  0.596821  0.915158  0.123481  1
  O  O40  1  0.209198  0.585037  0.186093  1
  O  O41  1  0.474301  0.597981  0.184897  1
  O  O42  1  0.131220  0.030479  0.222891  1
  O  O43  1  0.585037  0.186093  0.209198  1
  O  O44  1  0.315626  0.912797  0.292670  1
  O  O45  1  0.482137  0.382213  0.301046  1
  O  O46  1  0.897946  0.023107  0.312152  1
  O  O47  1  0.912798  0.292670  0.315626  1
  O  O48  1  0.587245  0.899697  0.377516  1
  O  O49  1  0.301046  0.482137  0.382213  1
  O  O50  1  0.084842  0.876520  0.403180  1
  O  O51  1  0.815102  0.525699  0.402018  1
  O  O52  1  0.813907  0.790802  0.414962  1
  O  O53  1  0.100303  0.622484  0.412755  1
  O  O54  1  0.597981  0.184897  0.474301  1
  O  O55  1  0.382213  0.301046  0.482137  1
  O  O56  1  0.617786  0.698954  0.517863  1
  O  O57  1  0.402018  0.815102  0.525699  1
  O  O58  1  0.899697  0.377515  0.587245  1
  O  O59  1  0.186093  0.209198  0.585037  1
  O  O60  1  0.184897  0.474300  0.597981  1
  O  O61  1  0.915158  0.123480  0.596821  1
  O  O62  1  0.698953  0.517863  0.617787  1
  O  O63  1  0.412755  0.100303  0.622484  1
  O  O64  1  0.087203  0.707331  0.684375  1
  O  O65  1  0.102054  0.976893  0.687847  1
  O  O66  1  0.517862  0.617787  0.698954  1
  O  O67  1  0.684375  0.087203  0.707331  1
  O  O68  1  0.414962  0.813907  0.790802  1
  O  O69  1  0.868780  0.969520  0.777109  1
  O  O70  1  0.525699  0.402018  0.815102  1
  O  O71  1  0.790802  0.414963  0.813907  1
  O  O72  1  0.403180  0.084843  0.876520  1
  O  O73  1  0.969520  0.777109  0.868780  1
  O  O74  1  0.023107  0.312153  0.897945  1
  O  O75  1  0.377516  0.587245  0.899697  1
  O  O76  1  0.292670  0.315626  0.912797  1
  O  O77  1  0.123480  0.596821  0.915158  1
  O  O78  1  0.687847  0.102054  0.976893  1
  O  O79  1  0.777109  0.868780  0.969520  1
