# generated using pymatgen
data_Ho9Lu3Co4SnOs
_symmetry_space_group_name_H-M   'P 1'
_cell_length_a   8.20278658
_cell_length_b   8.20791721
_cell_length_c   8.20278585
_cell_angle_alpha   111.73556935
_cell_angle_beta   110.38041711
_cell_angle_gamma   106.32093074
_symmetry_Int_Tables_number   1
_chemical_formula_structural   Ho9Lu3Co4SnOs
_chemical_formula_sum   'Ho9 Lu3 Co4 Sn1 Os1'
_cell_volume   424.25660412
_cell_formula_units_Z   1
loop_
 _symmetry_equiv_pos_site_id
 _symmetry_equiv_pos_as_xyz
  1  'x, y, z'
loop_
 _atom_site_type_symbol
 _atom_site_label
 _atom_site_symmetry_multiplicity
 _atom_site_fract_x
 _atom_site_fract_y
 _atom_site_fract_z
 _atom_site_occupancy
  Ho  Ho0  1  0.415305  0.219336  0.194456  1
  Ho  Ho1  1  0.585930  0.780305  0.806192  1
  Ho  Ho2  1  0.024880  0.219336  0.804032  1
  Ho  Ho3  1  0.974111  0.780305  0.194374  1
  Ho  Ho4  1  0.182170  0.280197  0.463895  1
  Ho  Ho5  1  0.818956  0.719011  0.536716  1
  Ho  Ho6  1  0.182294  0.719011  0.900055  1
  Ho  Ho7  1  0.816302  0.280197  0.098027  1
  Ho  Ho8  1  0.314095  0.621262  0.307168  1
  Lu  Lu9  1  0.685052  0.376731  0.691679  1
  Lu  Lu10  1  0.314968  0.006391  0.691423  1
  Lu  Lu11  1  0.685494  0.994376  0.308882  1
  Co  Co12  1  0.377693  0.002202  0.377908  1
  Co  Co13  1  0.624295  0.002202  0.624510  1
  Co  Co14  1  0.111458  0.611796  0.500338  1
  Co  Co15  1  0.886816  0.386388  0.499572  1
  Sn  Sn16  1  0.500749  0.500815  0.000066  1
  Os  Os17  1  0.999433  0.000139  0.000706  1
