# generated using pymatgen
data_Sr5Si12Ir12Pt7
_symmetry_space_group_name_H-M   'P 1'
_cell_length_a   13.09090100
_cell_length_b   13.09090140
_cell_length_c   4.03738800
_cell_angle_alpha   90.00000000
_cell_angle_beta   90.00000000
_cell_angle_gamma   120.00000151
_symmetry_Int_Tables_number   1
_chemical_formula_structural   Sr5Si12Ir12Pt7
_chemical_formula_sum   'Sr5 Si12 Ir12 Pt7'
_cell_volume   599.19779059
_cell_formula_units_Z   1
loop_
 _symmetry_equiv_pos_site_id
 _symmetry_equiv_pos_as_xyz
  1  'x, y, z'
loop_
 _atom_site_type_symbol
 _atom_site_label
 _atom_site_symmetry_multiplicity
 _atom_site_fract_x
 _atom_site_fract_y
 _atom_site_fract_z
 _atom_site_occupancy
  Sr  Sr0  1  0.000000  0.814905  0.500000  1
  Sr  Sr1  1  0.185095  0.185095  0.500000  1
  Sr  Sr2  1  0.814905  0.000000  0.500000  1
  Sr  Sr3  1  0.333333  0.666667  0.000000  1
  Sr  Sr4  1  0.666667  0.333333  0.000000  1
  Si  Si5  1  0.000000  0.184894  0.000000  1
  Si  Si6  1  0.815106  0.815106  0.000000  1
  Si  Si7  1  0.184894  0.000000  0.000000  1
  Si  Si8  1  0.517693  0.681273  0.500000  1
  Si  Si9  1  0.318727  0.836420  0.500000  1
  Si  Si10  1  0.163580  0.482307  0.500000  1
  Si  Si11  1  0.482307  0.163580  0.500000  1
  Si  Si12  1  0.681273  0.517693  0.500000  1
  Si  Si13  1  0.836420  0.318727  0.500000  1
  Si  Si14  1  0.000000  0.625199  0.000000  1
  Si  Si15  1  0.374801  0.374801  0.000000  1
  Si  Si16  1  0.625199  0.000000  0.000000  1
  Ir  Ir17  1  0.000000  0.285914  0.500000  1
  Ir  Ir18  1  0.714086  0.714086  0.500000  1
  Ir  Ir19  1  0.285914  0.000000  0.500000  1
  Ir  Ir20  1  0.516394  0.874791  0.500000  1
  Ir  Ir21  1  0.125209  0.641603  0.500000  1
  Ir  Ir22  1  0.358397  0.483606  0.500000  1
  Ir  Ir23  1  0.483606  0.358397  0.500000  1
  Ir  Ir24  1  0.874791  0.516394  0.500000  1
  Ir  Ir25  1  0.641603  0.125209  0.500000  1
  Ir  Ir26  1  0.000000  0.447975  0.000000  1
  Ir  Ir27  1  0.552025  0.552025  0.000000  1
  Ir  Ir28  1  0.447975  0.000000  0.000000  1
  Pt  Pt29  1  0.622647  0.806013  0.000000  1
  Pt  Pt30  1  0.193987  0.816634  0.000000  1
  Pt  Pt31  1  0.183366  0.377353  0.000000  1
  Pt  Pt32  1  0.377353  0.183366  0.000000  1
  Pt  Pt33  1  0.806013  0.622647  0.000000  1
  Pt  Pt34  1  0.816634  0.193987  0.000000  1
  Pt  Pt35  1  0.000000  0.000000  0.000000  1
