# generated using pymatgen
data_Th2Al3Cu4Si
_symmetry_space_group_name_H-M   'P 1'
_cell_length_a   4.18444400
_cell_length_b   4.18444400
_cell_length_c   10.11435000
_cell_angle_alpha   90.00000000
_cell_angle_beta   90.00000000
_cell_angle_gamma   90.00000000
_symmetry_Int_Tables_number   1
_chemical_formula_structural   Th2Al3Cu4Si
_chemical_formula_sum   'Th2 Al3 Cu4 Si1'
_cell_volume   177.09793540
_cell_formula_units_Z   1
loop_
 _symmetry_equiv_pos_site_id
 _symmetry_equiv_pos_as_xyz
  1  'x, y, z'
loop_
 _atom_site_type_symbol
 _atom_site_label
 _atom_site_symmetry_multiplicity
 _atom_site_fract_x
 _atom_site_fract_y
 _atom_site_fract_z
 _atom_site_occupancy
  Th  Th0  1  0.000000  0.500000  0.242614  1
  Th  Th1  1  0.500000  0.000000  0.760035  1
  Al  Al2  1  0.000000  0.000000  0.501601  1
  Al  Al3  1  0.500000  0.500000  0.501601  1
  Al  Al4  1  0.500000  0.000000  0.126500  1
  Cu  Cu5  1  0.000000  0.000000  0.994320  1
  Cu  Cu6  1  0.500000  0.500000  0.994320  1
  Cu  Cu7  1  0.000000  0.500000  0.638230  1
  Cu  Cu8  1  0.500000  0.000000  0.367101  1
  Si  Si9  1  0.000000  0.500000  0.873679  1
