# generated using pymatgen
data_DyTm2B6Ir7Os
_symmetry_space_group_name_H-M   'P 1'
_cell_length_a   9.97117045
_cell_length_b   9.16176619
_cell_length_c   5.54698431
_cell_angle_alpha   81.35214800
_cell_angle_beta   65.28235821
_cell_angle_gamma   33.36549059
_symmetry_Int_Tables_number   1
_chemical_formula_structural   DyTm2B6Ir7Os
_chemical_formula_sum   'Dy1 Tm2 B6 Ir7 Os1'
_cell_volume   232.23847405
_cell_formula_units_Z   1
loop_
 _symmetry_equiv_pos_site_id
 _symmetry_equiv_pos_as_xyz
  1  'x, y, z'
loop_
 _atom_site_type_symbol
 _atom_site_label
 _atom_site_symmetry_multiplicity
 _atom_site_fract_x
 _atom_site_fract_y
 _atom_site_fract_z
 _atom_site_occupancy
  Dy  Dy0  1  0.000000  0.000000  0.000000  1
  Tm  Tm1  1  0.179106  0.179106  0.820894  1
  Tm  Tm2  1  0.820894  0.820894  0.179106  1
  B  B3  1  0.820094  0.531456  0.480899  1
  B  B4  1  0.167550  0.480899  0.531456  1
  B  B5  1  0.480899  0.167550  0.820094  1
  B  B6  1  0.670597  0.329403  0.670597  1
  B  B7  1  0.531456  0.820094  0.167550  1
  B  B8  1  0.329403  0.670597  0.329403  1
  Ir  Ir9  1  0.414117  0.414117  0.585883  1
  Ir  Ir10  1  0.586020  0.586020  0.913980  1
  Ir  Ir11  1  0.086395  0.086395  0.413605  1
  Ir  Ir12  1  0.913980  0.913980  0.586020  1
  Ir  Ir13  1  0.585883  0.585883  0.414117  1
  Ir  Ir14  1  0.250000  0.250000  0.250000  1
  Ir  Ir15  1  0.413605  0.413605  0.086395  1
  Os  Os16  1  0.750000  0.750000  0.750000  1
