# generated using pymatgen
data_Pr6GdHoSb20
_symmetry_space_group_name_H-M   'P 1'
_cell_length_a   4.32593800
_cell_length_b   13.66066248
_cell_length_c   15.26812400
_cell_angle_alpha   78.12918314
_cell_angle_beta   90.00000000
_cell_angle_gamma   90.00000000
_symmetry_Int_Tables_number   1
_chemical_formula_structural   Pr6GdHoSb20
_chemical_formula_sum   'Pr6 Gd1 Ho1 Sb20'
_cell_volume   882.97641704
_cell_formula_units_Z   1
loop_
 _symmetry_equiv_pos_site_id
 _symmetry_equiv_pos_as_xyz
  1  'x, y, z'
loop_
 _atom_site_type_symbol
 _atom_site_label
 _atom_site_symmetry_multiplicity
 _atom_site_fract_x
 _atom_site_fract_y
 _atom_site_fract_z
 _atom_site_occupancy
  Pr  Pr0  1  0.750000  0.333140  0.142530  1
  Pr  Pr1  1  0.250000  0.947775  0.363363  1
  Pr  Pr2  1  0.250000  0.667006  0.856996  1
  Pr  Pr3  1  0.250000  0.667627  0.576872  1
  Pr  Pr4  1  0.750000  0.052768  0.636545  1
  Pr  Pr5  1  0.750000  0.332010  0.423609  1
  Gd  Gd6  1  0.750000  0.600377  0.228363  1
  Ho  Ho7  1  0.250000  0.399160  0.771478  1
  Sb  Sb8  1  0.750000  0.855067  0.816617  1
  Sb  Sb9  1  0.250000  0.863423  0.674309  1
  Sb  Sb10  1  0.250000  0.144888  0.476705  1
  Sb  Sb11  1  0.750000  0.288300  0.932520  1
  Sb  Sb12  1  0.250000  0.150197  0.778200  1
  Sb  Sb13  1  0.750000  0.575265  0.441697  1
  Sb  Sb14  1  0.750000  0.136930  0.325652  1
  Sb  Sb15  1  0.250000  0.702969  0.352220  1
  Sb  Sb16  1  0.750000  0.297342  0.648604  1
  Sb  Sb17  1  0.750000  0.850857  0.222162  1
  Sb  Sb18  1  0.250000  0.420389  0.971239  1
  Sb  Sb19  1  0.250000  0.424963  0.559284  1
  Sb  Sb20  1  0.750000  0.572139  0.737663  1
  Sb  Sb21  1  0.250000  0.425092  0.263147  1
  Sb  Sb22  1  0.750000  0.855298  0.523288  1
  Sb  Sb23  1  0.750000  0.036846  0.884480  1
  Sb  Sb24  1  0.250000  0.711229  0.065873  1
  Sb  Sb25  1  0.250000  0.963927  0.116213  1
  Sb  Sb26  1  0.250000  0.145724  0.183452  1
  Sb  Sb27  1  0.750000  0.579293  0.026919  1
