# generated using pymatgen
data_Ho12Al2Ni3Ru
_symmetry_space_group_name_H-M   'P 1'
_cell_length_a   8.32154019
_cell_length_b   8.32157585
_cell_length_c   8.32154065
_cell_angle_alpha   112.85298403
_cell_angle_beta   109.93182236
_cell_angle_gamma   105.70755483
_symmetry_Int_Tables_number   1
_chemical_formula_structural   Ho12Al2Ni3Ru
_chemical_formula_sum   'Ho12 Al2 Ni3 Ru1'
_cell_volume   441.86865708
_cell_formula_units_Z   1
loop_
 _symmetry_equiv_pos_site_id
 _symmetry_equiv_pos_as_xyz
  1  'x, y, z'
loop_
 _atom_site_type_symbol
 _atom_site_label
 _atom_site_symmetry_multiplicity
 _atom_site_fract_x
 _atom_site_fract_y
 _atom_site_fract_z
 _atom_site_occupancy
  Ho  Ho0  1  0.440391  0.244940  0.195450  1
  Ho  Ho1  1  0.570877  0.766503  0.804376  1
  Ho  Ho2  1  0.037873  0.233497  0.804374  1
  Ho  Ho3  1  0.950510  0.755060  0.195450  1
  Ho  Ho4  1  0.184743  0.282430  0.467175  1
  Ho  Ho5  1  0.822957  0.718531  0.541487  1
  Ho  Ho6  1  0.184747  0.717570  0.902314  1
  Ho  Ho7  1  0.822955  0.281469  0.104425  1
  Ho  Ho8  1  0.324415  0.635296  0.307658  1
  Ho  Ho9  1  0.672361  0.364704  0.689118  1
  Ho  Ho10  1  0.324415  0.016761  0.689114  1
  Ho  Ho11  1  0.672353  0.983239  0.307654  1
  Al  Al12  1  0.497099  0.500000  0.997099  1
  Al  Al13  1  0.012044  0.000000  0.012044  1
  Ni  Ni14  1  0.655011  0.000000  0.655011  1
  Ni  Ni15  1  0.119551  0.619522  0.500030  1
  Ni  Ni16  1  0.880508  0.380478  0.500029  1
  Ru  Ru17  1  0.327190  0.000000  0.327190  1
