# generated using pymatgen
data_Li6Dy6Sb(TeO8)3
_symmetry_space_group_name_H-M   'P 1'
_cell_length_a   10.75397230
_cell_length_b   10.75397209
_cell_length_c   12.42765019
_cell_angle_alpha   54.93356880
_cell_angle_beta   54.93356979
_cell_angle_gamma   70.70497574
_symmetry_Int_Tables_number   1
_chemical_formula_structural   Li6Dy6Sb(TeO8)3
_chemical_formula_sum   'Li12 Dy12 Sb2 Te6 O48'
_cell_volume   962.83038516
_cell_formula_units_Z   2
loop_
 _symmetry_equiv_pos_site_id
 _symmetry_equiv_pos_as_xyz
  1  'x, y, z'
loop_
 _atom_site_type_symbol
 _atom_site_label
 _atom_site_symmetry_multiplicity
 _atom_site_fract_x
 _atom_site_fract_y
 _atom_site_fract_z
 _atom_site_occupancy
  Li  Li0  1  0.874969  0.374305  0.875732  1
  Li  Li1  1  0.874806  0.125194  0.250000  1
  Li  Li2  1  0.751382  0.750733  0.373579  1
  Li  Li3  1  0.624756  0.375244  0.750000  1
  Li  Li4  1  0.750733  0.751382  0.873579  1
  Li  Li5  1  0.625695  0.125031  0.624268  1
  Li  Li6  1  0.374305  0.874969  0.375732  1
  Li  Li7  1  0.248618  0.249267  0.626421  1
  Li  Li8  1  0.249267  0.248618  0.126421  1
  Li  Li9  1  0.375244  0.624756  0.250000  1
  Li  Li10  1  0.125194  0.874806  0.750000  1
  Li  Li11  1  0.125031  0.625695  0.124268  1
  Dy  Dy12  1  0.875175  0.124825  0.750000  1
  Dy  Dy13  1  0.748846  0.749623  0.625893  1
  Dy  Dy14  1  0.873644  0.375413  0.374665  1
  Dy  Dy15  1  0.375240  0.624760  0.750000  1
  Dy  Dy16  1  0.749623  0.748846  0.125893  1
  Dy  Dy17  1  0.624587  0.126356  0.125335  1
  Dy  Dy18  1  0.375413  0.873644  0.874665  1
  Dy  Dy19  1  0.250377  0.251154  0.874107  1
  Dy  Dy20  1  0.624760  0.375240  0.250000  1
  Dy  Dy21  1  0.126356  0.624587  0.625335  1
  Dy  Dy22  1  0.251154  0.250377  0.374107  1
  Dy  Dy23  1  0.124825  0.875175  0.250000  1
  Sb  Sb24  1  0.500000  0.500000  0.500000  1
  Sb  Sb25  1  0.500000  0.500000  0.000000  1
  Te  Te26  1  0.000000  0.500000  0.000000  1
  Te  Te27  1  0.500000  0.000000  0.500000  1
  Te  Te28  1  0.500000  0.000000  0.000000  1
  Te  Te29  1  0.000000  0.500000  0.500000  1
  Te  Te30  1  0.000000  0.000000  0.500000  1
  Te  Te31  1  0.000000  0.000000  0.000000  1
  O  O32  1  0.906794  0.801466  0.671117  1
  O  O33  1  0.973428  0.922119  0.905602  1
  O  O34  1  0.879516  0.171469  0.921396  1
  O  O35  1  0.922254  0.526561  0.671810  1
  O  O36  1  0.922119  0.973428  0.405602  1
  O  O37  1  0.906702  0.699004  0.422033  1
  O  O38  1  0.828106  0.378707  0.593884  1
  O  O39  1  0.580990  0.533588  0.793262  1
  O  O40  1  0.621293  0.171894  0.906116  1
  O  O41  1  0.699004  0.906702  0.922033  1
  O  O42  1  0.828531  0.120484  0.578604  1
  O  O43  1  0.671456  0.119832  0.302411  1
  O  O44  1  0.972966  0.577961  0.120738  1
  O  O45  1  0.801466  0.906794  0.171117  1
  O  O46  1  0.594456  0.802234  0.525463  1
  O  O47  1  0.706070  0.593416  0.374196  1
  O  O48  1  0.673680  0.374324  0.032061  1
  O  O49  1  0.880168  0.328544  0.197589  1
  O  O50  1  0.593416  0.706070  0.874196  1
  O  O51  1  0.466412  0.419010  0.706738  1
  O  O52  1  0.473439  0.077746  0.828190  1
  O  O53  1  0.625676  0.326320  0.467939  1
  O  O54  1  0.802234  0.594456  0.025463  1
  O  O55  1  0.422039  0.027034  0.379262  1
  O  O56  1  0.197766  0.405544  0.974537  1
  O  O57  1  0.577961  0.972966  0.620738  1
  O  O58  1  0.374324  0.673680  0.532061  1
  O  O59  1  0.526561  0.922254  0.171810  1
  O  O60  1  0.533588  0.580990  0.293262  1
  O  O61  1  0.406584  0.293930  0.125804  1
  O  O62  1  0.119832  0.671456  0.802411  1
  O  O63  1  0.326320  0.625676  0.967939  1
  O  O64  1  0.293930  0.406584  0.625804  1
  O  O65  1  0.405544  0.197766  0.474537  1
  O  O66  1  0.198534  0.093206  0.828883  1
  O  O67  1  0.027034  0.422039  0.879262  1
  O  O68  1  0.328544  0.880168  0.697589  1
  O  O69  1  0.171469  0.879516  0.421396  1
  O  O70  1  0.300996  0.093298  0.077967  1
  O  O71  1  0.378707  0.828106  0.093884  1
  O  O72  1  0.419010  0.466412  0.206738  1
  O  O73  1  0.171894  0.621293  0.406116  1
  O  O74  1  0.093298  0.300996  0.577967  1
  O  O75  1  0.077881  0.026572  0.594398  1
  O  O76  1  0.077746  0.473439  0.328190  1
  O  O77  1  0.120484  0.828531  0.078604  1
  O  O78  1  0.026572  0.077881  0.094398  1
  O  O79  1  0.093206  0.198534  0.328883  1
