# generated using pymatgen
data_Dy6P13(Ir2Rh3)4
_symmetry_space_group_name_H-M   'P 1'
_cell_length_a   13.33579300
_cell_length_b   13.33579230
_cell_length_c   3.95359500
_cell_angle_alpha   90.00000000
_cell_angle_beta   90.00000000
_cell_angle_gamma   119.99999925
_symmetry_Int_Tables_number   1
_chemical_formula_structural   Dy6P13(Ir2Rh3)4
_chemical_formula_sum   'Dy6 P13 Ir8 Rh12'
_cell_volume   608.92034173
_cell_formula_units_Z   1
loop_
 _symmetry_equiv_pos_site_id
 _symmetry_equiv_pos_as_xyz
  1  'x, y, z'
loop_
 _atom_site_type_symbol
 _atom_site_label
 _atom_site_symmetry_multiplicity
 _atom_site_fract_x
 _atom_site_fract_y
 _atom_site_fract_z
 _atom_site_occupancy
  Dy  Dy0  1  0.528738  0.716991  0.247680  1
  Dy  Dy1  1  0.283009  0.811746  0.247680  1
  Dy  Dy2  1  0.188254  0.471262  0.247680  1
  Dy  Dy3  1  0.470841  0.283012  0.751886  1
  Dy  Dy4  1  0.716988  0.187829  0.751886  1
  Dy  Dy5  1  0.812171  0.529159  0.751886  1
  P  P6  1  0.525362  0.139247  0.250544  1
  P  P7  1  0.860753  0.386116  0.250544  1
  P  P8  1  0.613884  0.474638  0.250544  1
  P  P9  1  0.945744  0.714322  0.255803  1
  P  P10  1  0.285678  0.231421  0.255803  1
  P  P11  1  0.768579  0.054256  0.255803  1
  P  P12  1  0.386696  0.525870  0.749846  1
  P  P13  1  0.474130  0.860826  0.749846  1
  P  P14  1  0.139174  0.613304  0.749846  1
  P  P15  1  0.714193  0.769422  0.745218  1
  P  P16  1  0.230578  0.944772  0.745218  1
  P  P17  1  0.055228  0.285807  0.745218  1
  P  P18  1  0.000000  0.000000  0.000434  1
  Ir  Ir19  1  0.333333  0.666667  0.751469  1
  Ir  Ir20  1  0.919583  0.248452  0.254206  1
  Ir  Ir21  1  0.751548  0.671131  0.254206  1
  Ir  Ir22  1  0.328869  0.080417  0.254206  1
  Ir  Ir23  1  0.438450  0.022782  0.751804  1
  Ir  Ir24  1  0.977218  0.415669  0.751804  1
  Ir  Ir25  1  0.584331  0.561550  0.751804  1
  Ir  Ir26  1  0.666667  0.333333  0.248134  1
  Rh  Rh27  1  0.094338  0.185221  0.247322  1
  Rh  Rh28  1  0.814779  0.909117  0.247322  1
  Rh  Rh29  1  0.090883  0.905662  0.247322  1
  Rh  Rh30  1  0.023357  0.584971  0.247981  1
  Rh  Rh31  1  0.415029  0.438384  0.247981  1
  Rh  Rh32  1  0.561616  0.976643  0.247981  1
  Rh  Rh33  1  0.671025  0.920310  0.744773  1
  Rh  Rh34  1  0.079690  0.750715  0.744773  1
  Rh  Rh35  1  0.249285  0.328975  0.744773  1
  Rh  Rh36  1  0.904493  0.813152  0.752925  1
  Rh  Rh37  1  0.186848  0.091341  0.752925  1
  Rh  Rh38  1  0.908659  0.095507  0.752925  1
