# generated using pymatgen
data_Tb2Al9FePt2
_symmetry_space_group_name_H-M   'P 1'
_cell_length_a   7.56469009
_cell_length_b   7.56469040
_cell_length_c   9.44287100
_cell_angle_alpha   90.00000000
_cell_angle_beta   90.00000000
_cell_angle_gamma   119.81978585
_symmetry_Int_Tables_number   1
_chemical_formula_structural   Tb2Al9FePt2
_chemical_formula_sum   'Tb4 Al18 Fe2 Pt4'
_cell_volume   468.81639045
_cell_formula_units_Z   2
loop_
 _symmetry_equiv_pos_site_id
 _symmetry_equiv_pos_as_xyz
  1  'x, y, z'
loop_
 _atom_site_type_symbol
 _atom_site_label
 _atom_site_symmetry_multiplicity
 _atom_site_fract_x
 _atom_site_fract_y
 _atom_site_fract_z
 _atom_site_occupancy
  Tb  Tb0  1  0.993041  0.664069  0.250000  1
  Tb  Tb1  1  0.006959  0.335931  0.750000  1
  Tb  Tb2  1  0.664069  0.993041  0.250000  1
  Tb  Tb3  1  0.335931  0.006959  0.750000  1
  Al  Al4  1  0.112565  0.112565  0.250000  1
  Al  Al5  1  0.887435  0.887435  0.750000  1
  Al  Al6  1  0.999357  0.322051  0.074130  1
  Al  Al7  1  0.000643  0.677949  0.925870  1
  Al  Al8  1  0.000643  0.677949  0.574130  1
  Al  Al9  1  0.322051  0.999357  0.425870  1
  Al  Al10  1  0.999357  0.322051  0.425870  1
  Al  Al11  1  0.677949  0.000643  0.574130  1
  Al  Al12  1  0.677949  0.000643  0.925870  1
  Al  Al13  1  0.322051  0.999357  0.074130  1
  Al  Al14  1  0.322179  0.322179  0.551885  1
  Al  Al15  1  0.677821  0.677821  0.448115  1
  Al  Al16  1  0.677821  0.677821  0.051885  1
  Al  Al17  1  0.322179  0.322179  0.948115  1
  Al  Al18  1  0.339816  0.541722  0.250000  1
  Al  Al19  1  0.660184  0.458278  0.750000  1
  Al  Al20  1  0.541722  0.339816  0.250000  1
  Al  Al21  1  0.458278  0.660184  0.750000  1
  Fe  Fe22  1  0.000000  0.000000  0.000000  1
  Fe  Fe23  1  0.000000  0.000000  0.500000  1
  Pt  Pt24  1  0.672129  0.327871  0.000000  1
  Pt  Pt25  1  0.327871  0.672129  0.000000  1
  Pt  Pt26  1  0.327871  0.672129  0.500000  1
  Pt  Pt27  1  0.672129  0.327871  0.500000  1
