# generated using pymatgen
data_Cs3InSnBr6
_symmetry_space_group_name_H-M   'P 1'
_cell_length_a   9.86604467
_cell_length_b   9.86604417
_cell_length_c   9.86604465
_cell_angle_alpha   91.21207037
_cell_angle_beta   91.21207468
_cell_angle_gamma   91.21207964
_symmetry_Int_Tables_number   1
_chemical_formula_structural   Cs3InSnBr6
_chemical_formula_sum   'Cs6 In2 Sn2 Br12'
_cell_volume   959.69538678
_cell_formula_units_Z   2
loop_
 _symmetry_equiv_pos_site_id
 _symmetry_equiv_pos_as_xyz
  1  'x, y, z'
loop_
 _atom_site_type_symbol
 _atom_site_label
 _atom_site_symmetry_multiplicity
 _atom_site_fract_x
 _atom_site_fract_y
 _atom_site_fract_z
 _atom_site_occupancy
  Cs  Cs0  1  0.250000  0.626555  0.873445  1
  Cs  Cs1  1  0.873445  0.250000  0.626555  1
  Cs  Cs2  1  0.626555  0.873445  0.250000  1
  Cs  Cs3  1  0.750000  0.373445  0.126555  1
  Cs  Cs4  1  0.126555  0.750000  0.373445  1
  Cs  Cs5  1  0.373445  0.126555  0.750000  1
  In  In6  1  0.250000  0.250000  0.250000  1
  In  In7  1  0.750000  0.750000  0.750000  1
  Sn  Sn8  1  0.000000  0.000000  0.000000  1
  Sn  Sn9  1  0.500000  0.500000  0.500000  1
  Br  Br10  1  0.547842  0.208663  0.418795  1
  Br  Br11  1  0.418795  0.547842  0.208663  1
  Br  Br12  1  0.208663  0.418795  0.547842  1
  Br  Br13  1  0.952158  0.081205  0.291337  1
  Br  Br14  1  0.291337  0.952158  0.081205  1
  Br  Br15  1  0.081205  0.291337  0.952158  1
  Br  Br16  1  0.452158  0.791337  0.581205  1
  Br  Br17  1  0.581205  0.452158  0.791337  1
  Br  Br18  1  0.791337  0.581205  0.452158  1
  Br  Br19  1  0.047842  0.918795  0.708663  1
  Br  Br20  1  0.918795  0.708663  0.047842  1
  Br  Br21  1  0.708663  0.047842  0.918795  1
