# generated using pymatgen
data_La6Tm13ThSn16
_symmetry_space_group_name_H-M   'P 1'
_cell_length_a   8.10712215
_cell_length_b   8.26692846
_cell_length_c   15.57421400
_cell_angle_alpha   90.02312089
_cell_angle_beta   90.31709191
_cell_angle_gamma   89.63920736
_symmetry_Int_Tables_number   1
_chemical_formula_structural   La6Tm13ThSn16
_chemical_formula_sum   'La6 Tm13 Th1 Sn16'
_cell_volume   1043.76262911
_cell_formula_units_Z   1
loop_
 _symmetry_equiv_pos_site_id
 _symmetry_equiv_pos_as_xyz
  1  'x, y, z'
loop_
 _atom_site_type_symbol
 _atom_site_label
 _atom_site_symmetry_multiplicity
 _atom_site_fract_x
 _atom_site_fract_y
 _atom_site_fract_z
 _atom_site_occupancy
  La  La0  1  0.014341  0.177998  0.598944  1
  La  La1  1  0.487378  0.676600  0.404479  1
  La  La2  1  0.986996  0.823134  0.094325  1
  La  La3  1  0.485587  0.675471  0.094364  1
  La  La4  1  0.986885  0.823852  0.404320  1
  La  La5  1  0.511744  0.324605  0.595716  1
  Tm  Tm6  1  0.356539  0.836635  0.875762  1
  Tm  Tm7  1  0.854390  0.663527  0.625766  1
  Tm  Tm8  1  0.644743  0.163566  0.375288  1
  Tm  Tm9  1  0.139739  0.337053  0.121722  1
  Tm  Tm10  1  0.641370  0.163410  0.122753  1
  Tm  Tm11  1  0.144412  0.336412  0.376149  1
  Tm  Tm12  1  0.355769  0.837644  0.627110  1
  Tm  Tm13  1  0.858278  0.661748  0.877111  1
  Tm  Tm14  1  0.520711  0.321622  0.901781  1
  Tm  Tm15  1  0.190307  0.501097  0.751849  1
  Tm  Tm16  1  0.689047  0.996449  0.751904  1
  Tm  Tm17  1  0.808975  0.496135  0.249527  1
  Tm  Tm18  1  0.310089  0.004006  0.248854  1
  Th  Th19  1  0.014201  0.179087  0.902829  1
  Sn  Sn20  1  0.306268  0.045686  0.039325  1
  Sn  Sn21  1  0.810487  0.456283  0.457975  1
  Sn  Sn22  1  0.689519  0.958640  0.543605  1
  Sn  Sn23  1  0.201931  0.532475  0.954120  1
  Sn  Sn24  1  0.692914  0.964537  0.955684  1
  Sn  Sn25  1  0.188185  0.545195  0.543633  1
  Sn  Sn26  1  0.311008  0.042353  0.458548  1
  Sn  Sn27  1  0.800756  0.452179  0.038523  1
  Sn  Sn28  1  0.554532  0.624513  0.751607  1
  Sn  Sn29  1  0.053281  0.873784  0.752256  1
  Sn  Sn30  1  0.443996  0.372568  0.249091  1
  Sn  Sn31  1  0.945414  0.127976  0.249150  1
  Sn  Sn32  1  0.327184  0.147538  0.754559  1
  Sn  Sn33  1  0.818792  0.357898  0.752340  1
  Sn  Sn34  1  0.676992  0.857461  0.249384  1
  Sn  Sn35  1  0.177245  0.640861  0.249646  1
