# generated using pymatgen
data_ScBiI18
_symmetry_space_group_name_H-M   'P 1'
_cell_length_a   10.39407343
_cell_length_b   10.39407533
_cell_length_c   10.39407579
_cell_angle_alpha   87.89986680
_cell_angle_beta   87.89985953
_cell_angle_gamma   87.89987099
_symmetry_Int_Tables_number   1
_chemical_formula_structural   ScBiI18
_chemical_formula_sum   'Sc1 Bi1 I18'
_cell_volume   1120.73353906
_cell_formula_units_Z   1
loop_
 _symmetry_equiv_pos_site_id
 _symmetry_equiv_pos_as_xyz
  1  'x, y, z'
loop_
 _atom_site_type_symbol
 _atom_site_label
 _atom_site_symmetry_multiplicity
 _atom_site_fract_x
 _atom_site_fract_y
 _atom_site_fract_z
 _atom_site_occupancy
  Sc  Sc0  1  0.000000  0.000000  0.000000  1
  Bi  Bi1  1  0.500000  0.500000  0.500000  1
  I  I2  1  0.721808  0.999817  0.034473  1
  I  I3  1  0.751901  0.119544  0.613991  1
  I  I4  1  0.034473  0.721808  0.999817  1
  I  I5  1  0.248099  0.880456  0.386009  1
  I  I6  1  0.119544  0.613991  0.751901  1
  I  I7  1  0.000183  0.965527  0.278192  1
  I  I8  1  0.613991  0.751901  0.119544  1
  I  I9  1  0.965527  0.278192  0.000183  1
  I  I10  1  0.880456  0.386009  0.248099  1
  I  I11  1  0.386009  0.248099  0.880456  1
  I  I12  1  0.999817  0.034473  0.721808  1
  I  I13  1  0.278192  0.000183  0.965527  1
  I  I14  1  0.800189  0.515928  0.485654  1
  I  I15  1  0.514346  0.199811  0.484072  1
  I  I16  1  0.484072  0.514346  0.199811  1
  I  I17  1  0.485654  0.800189  0.515928  1
  I  I18  1  0.515928  0.485654  0.800189  1
  I  I19  1  0.199811  0.484072  0.514346  1
