# generated using pymatgen
data_Li4MnAlPd6
_symmetry_space_group_name_H-M   'P 1'
_cell_length_a   4.28949700
_cell_length_b   4.28949606
_cell_length_c   10.42513100
_cell_angle_alpha   90.00000000
_cell_angle_beta   90.00000000
_cell_angle_gamma   120.00001494
_symmetry_Int_Tables_number   1
_chemical_formula_structural   Li4MnAlPd6
_chemical_formula_sum   'Li4 Mn1 Al1 Pd6'
_cell_volume   166.12107358
_cell_formula_units_Z   1
loop_
 _symmetry_equiv_pos_site_id
 _symmetry_equiv_pos_as_xyz
  1  'x, y, z'
loop_
 _atom_site_type_symbol
 _atom_site_label
 _atom_site_symmetry_multiplicity
 _atom_site_fract_x
 _atom_site_fract_y
 _atom_site_fract_z
 _atom_site_occupancy
  Li  Li0  1  0.000000  0.000000  0.497373  1
  Li  Li1  1  0.333333  0.666667  0.165432  1
  Li  Li2  1  0.666667  0.333333  0.837124  1
  Li  Li3  1  0.000000  0.000000  0.998877  1
  Mn  Mn4  1  0.666667  0.333333  0.330310  1
  Al  Al5  1  0.333333  0.666667  0.670898  1
  Pd  Pd6  1  0.333333  0.666667  0.422534  1
  Pd  Pd7  1  0.666667  0.333333  0.080571  1
  Pd  Pd8  1  0.000000  0.000000  0.747419  1
  Pd  Pd9  1  0.000000  0.000000  0.247050  1
  Pd  Pd10  1  0.333333  0.666667  0.914475  1
  Pd  Pd11  1  0.666667  0.333333  0.587937  1
