# generated using pymatgen
data_Zr2Mn11FeP7
_symmetry_space_group_name_H-M   'P 1'
_cell_length_a   9.17788572
_cell_length_b   9.16575636
_cell_length_c   3.55869600
_cell_angle_alpha   90.00000000
_cell_angle_beta   90.00000000
_cell_angle_gamma   119.99833995
_symmetry_Int_Tables_number   1
_chemical_formula_structural   Zr2Mn11FeP7
_chemical_formula_sum   'Zr2 Mn11 Fe1 P7'
_cell_volume   259.26252172
_cell_formula_units_Z   1
loop_
 _symmetry_equiv_pos_site_id
 _symmetry_equiv_pos_as_xyz
  1  'x, y, z'
loop_
 _atom_site_type_symbol
 _atom_site_label
 _atom_site_symmetry_multiplicity
 _atom_site_fract_x
 _atom_site_fract_y
 _atom_site_fract_z
 _atom_site_occupancy
  Zr  Zr0  1  0.000709  0.000720  0.000000  1
  Zr  Zr1  1  0.333400  0.666668  0.500000  1
  Mn  Mn2  1  0.094347  0.383080  0.000000  1
  Mn  Mn3  1  0.289373  0.904986  0.000000  1
  Mn  Mn4  1  0.615172  0.709279  0.000000  1
  Mn  Mn5  1  0.825693  0.612088  0.000000  1
  Mn  Mn6  1  0.785770  0.173348  0.000000  1
  Mn  Mn7  1  0.059698  0.771768  0.500000  1
  Mn  Mn8  1  0.711395  0.941102  0.500000  1
  Mn  Mn9  1  0.228200  0.288969  0.500000  1
  Mn  Mn10  1  0.897931  0.437545  0.500000  1
  Mn  Mn11  1  0.538236  0.100271  0.500000  1
  Mn  Mn12  1  0.562987  0.461205  0.500000  1
  Fe  Fe13  1  0.389656  0.215591  0.000000  1
  P  P14  1  0.080957  0.623429  0.000000  1
  P  P15  1  0.542274  0.918352  0.000000  1
  P  P16  1  0.375536  0.455798  0.000000  1
  P  P17  1  0.796757  0.746122  0.500000  1
  P  P18  1  0.948988  0.203072  0.500000  1
  P  P19  1  0.257336  0.054125  0.500000  1
  P  P20  1  0.665586  0.332480  0.000000  1
