# generated using pymatgen
data_Cs6Ti2Se2S5
_symmetry_space_group_name_H-M   'P 1'
_cell_length_a   11.79797531
_cell_length_b   8.70638247
_cell_length_c   14.41411019
_cell_angle_alpha   54.75958670
_cell_angle_beta   90.07454509
_cell_angle_gamma   90.10686563
_symmetry_Int_Tables_number   1
_chemical_formula_structural   Cs6Ti2Se2S5
_chemical_formula_sum   'Cs12 Ti4 Se4 S10'
_cell_volume   1209.24725929
_cell_formula_units_Z   2
loop_
 _symmetry_equiv_pos_site_id
 _symmetry_equiv_pos_as_xyz
  1  'x, y, z'
loop_
 _atom_site_type_symbol
 _atom_site_label
 _atom_site_symmetry_multiplicity
 _atom_site_fract_x
 _atom_site_fract_y
 _atom_site_fract_z
 _atom_site_occupancy
  Cs  Cs0  1  0.790106  0.570326  0.293292  1
  Cs  Cs1  1  0.651752  0.936401  0.922004  1
  Cs  Cs2  1  0.533210  0.177753  0.569288  1
  Cs  Cs3  1  0.023142  0.814400  0.925652  1
  Cs  Cs4  1  0.297062  0.423943  0.204791  1
  Cs  Cs5  1  0.150317  0.053831  0.582427  1
  Cs  Cs6  1  0.849845  0.942835  0.414056  1
  Cs  Cs7  1  0.700573  0.562180  0.795359  1
  Cs  Cs8  1  0.968214  0.200144  0.059090  1
  Cs  Cs9  1  0.475753  0.818079  0.437543  1
  Cs  Cs10  1  0.353106  0.059874  0.083080  1
  Cs  Cs11  1  0.201754  0.432301  0.708798  1
  Ti  Ti12  1  0.858529  0.325252  0.634105  1
  Ti  Ti13  1  0.359537  0.674926  0.866754  1
  Ti  Ti14  1  0.642191  0.318798  0.134038  1
  Ti  Ti15  1  0.139821  0.685998  0.367840  1
  Se  Se16  1  0.084318  0.746452  0.190850  1
  Se  Se17  1  0.306108  0.496097  0.429950  1
  Se  Se18  1  0.334580  0.960643  0.854448  1
  Se  Se19  1  0.834749  0.037899  0.646394  1
  S  S20  1  0.999247  0.505616  0.501210  1
  S  S21  1  0.797451  0.502701  0.071568  1
  S  S22  1  0.590598  0.258440  0.302041  1
  S  S23  1  0.500537  0.496518  0.999711  1
  S  S24  1  0.409593  0.737406  0.698398  1
  S  S25  1  0.202240  0.497408  0.929031  1
  S  S26  1  0.167480  0.951656  0.357348  1
  S  S27  1  0.669435  0.050823  0.145322  1
  S  S28  1  0.700937  0.501336  0.572265  1
  S  S29  1  0.907817  0.259967  0.803349  1
