# generated using pymatgen
data_Ca2Sm2Si3Rh4
_symmetry_space_group_name_H-M   'P 1'
_cell_length_a   10.77336039
_cell_length_b   10.77336112
_cell_length_c   7.65103593
_cell_angle_alpha   72.47543534
_cell_angle_beta   72.47544121
_cell_angle_gamma   30.71692948
_symmetry_Int_Tables_number   1
_chemical_formula_structural   Ca2Sm2Si3Rh4
_chemical_formula_sum   'Ca4 Sm4 Si6 Rh8'
_cell_volume   430.91546514
_cell_formula_units_Z   2
loop_
 _symmetry_equiv_pos_site_id
 _symmetry_equiv_pos_as_xyz
  1  'x, y, z'
loop_
 _atom_site_type_symbol
 _atom_site_label
 _atom_site_symmetry_multiplicity
 _atom_site_fract_x
 _atom_site_fract_y
 _atom_site_fract_z
 _atom_site_occupancy
  Ca  Ca0  1  0.803413  0.063282  0.168184  1
  Ca  Ca1  1  0.936718  0.196587  0.331816  1
  Ca  Ca2  1  0.196587  0.936718  0.831816  1
  Ca  Ca3  1  0.063282  0.803413  0.668184  1
  Sm  Sm4  1  0.781428  0.558095  0.596438  1
  Sm  Sm5  1  0.441905  0.218572  0.903562  1
  Sm  Sm6  1  0.218572  0.441905  0.403562  1
  Sm  Sm7  1  0.558095  0.781428  0.096438  1
  Si  Si8  1  0.949396  0.703100  0.061476  1
  Si  Si9  1  0.296900  0.050604  0.438524  1
  Si  Si10  1  0.050604  0.296900  0.938524  1
  Si  Si11  1  0.703100  0.949396  0.561476  1
  Si  Si12  1  0.597761  0.402239  0.750000  1
  Si  Si13  1  0.402239  0.597761  0.250000  1
  Rh  Rh14  1  0.573650  0.301982  0.529297  1
  Rh  Rh15  1  0.698018  0.426350  0.970703  1
  Rh  Rh16  1  0.426350  0.698018  0.470703  1
  Rh  Rh17  1  0.301982  0.573650  0.029297  1
  Rh  Rh18  1  0.628909  0.927712  0.311436  1
  Rh  Rh19  1  0.072288  0.371091  0.188564  1
  Rh  Rh20  1  0.371091  0.072288  0.688564  1
  Rh  Rh21  1  0.927712  0.628909  0.811436  1
