# generated using pymatgen
data_Ho4Tm(LuSe4)3
_symmetry_space_group_name_H-M   'P 1'
_cell_length_a   13.37879724
_cell_length_b   12.76895266
_cell_length_c   7.03879337
_cell_angle_alpha   79.22736688
_cell_angle_beta   69.65186333
_cell_angle_gamma   30.98625821
_symmetry_Int_Tables_number   1
_chemical_formula_structural   Ho4Tm(LuSe4)3
_chemical_formula_sum   'Ho4 Tm1 Lu3 Se12'
_cell_volume   564.82568139
_cell_formula_units_Z   1
loop_
 _symmetry_equiv_pos_site_id
 _symmetry_equiv_pos_as_xyz
  1  'x, y, z'
loop_
 _atom_site_type_symbol
 _atom_site_label
 _atom_site_symmetry_multiplicity
 _atom_site_fract_x
 _atom_site_fract_y
 _atom_site_fract_z
 _atom_site_occupancy
  Ho  Ho0  1  0.084165  0.084165  0.915835  1
  Ho  Ho1  1  0.997119  0.997119  0.502881  1
  Ho  Ho2  1  0.502629  0.502629  0.997371  1
  Ho  Ho3  1  0.252968  0.252968  0.747032  1
  Tm  Tm4  1  0.747682  0.747682  0.252318  1
  Lu  Lu5  1  0.333575  0.333575  0.166425  1
  Lu  Lu6  1  0.166632  0.166632  0.333368  1
  Lu  Lu7  1  0.916238  0.916238  0.083762  1
  Se  Se8  1  0.008959  0.490997  0.489433  1
  Se  Se9  1  0.490997  0.008959  0.010611  1
  Se  Se10  1  0.241060  0.757235  0.759067  1
  Se  Se11  1  0.757235  0.241060  0.242638  1
  Se  Se12  1  0.663582  0.172112  0.845276  1
  Se  Se13  1  0.842689  0.321323  0.660897  1
  Se  Se14  1  0.321323  0.842689  0.175090  1
  Se  Se15  1  0.172112  0.663582  0.319030  1
  Se  Se16  1  0.587098  0.076141  0.404131  1
  Se  Se17  1  0.408808  0.928987  0.582314  1
  Se  Se18  1  0.928987  0.408808  0.079891  1
  Se  Se19  1  0.076141  0.587098  0.932631  1
