# generated using pymatgen
data_Th4Co9P12Ru11
_symmetry_space_group_name_H-M   'P 1'
_cell_length_a   3.83594600
_cell_length_b   10.70562571
_cell_length_c   12.17138702
_cell_angle_alpha   89.91885689
_cell_angle_beta   90.00000000
_cell_angle_gamma   90.00000000
_symmetry_Int_Tables_number   1
_chemical_formula_structural   Th4Co9P12Ru11
_chemical_formula_sum   'Th4 Co9 P12 Ru11'
_cell_volume   499.83213828
_cell_formula_units_Z   1
loop_
 _symmetry_equiv_pos_site_id
 _symmetry_equiv_pos_as_xyz
  1  'x, y, z'
loop_
 _atom_site_type_symbol
 _atom_site_label
 _atom_site_symmetry_multiplicity
 _atom_site_fract_x
 _atom_site_fract_y
 _atom_site_fract_z
 _atom_site_occupancy
  Th  Th0  1  0.250000  0.584932  0.706007  1
  Th  Th1  1  0.250000  0.912999  0.207873  1
  Th  Th2  1  0.750000  0.416286  0.293899  1
  Th  Th3  1  0.750000  0.084351  0.793525  1
  Co  Co4  1  0.750000  0.726550  0.321909  1
  Co  Co5  1  0.250000  0.888665  0.696545  1
  Co  Co6  1  0.250000  0.616185  0.200855  1
  Co  Co7  1  0.750000  0.108645  0.302439  1
  Co  Co8  1  0.750000  0.390000  0.801719  1
  Co  Co9  1  0.250000  0.463994  0.933515  1
  Co  Co10  1  0.250000  0.034828  0.432309  1
  Co  Co11  1  0.750000  0.535873  0.068097  1
  Co  Co12  1  0.750000  0.963697  0.565598  1
  P  P13  1  0.250000  0.427191  0.109039  1
  P  P14  1  0.250000  0.074099  0.607233  1
  P  P15  1  0.750000  0.574384  0.892757  1
  P  P16  1  0.750000  0.921437  0.391003  1
  P  P17  1  0.250000  0.277309  0.871259  1
  P  P18  1  0.250000  0.222468  0.371022  1
  P  P19  1  0.750000  0.721203  0.135182  1
  P  P20  1  0.750000  0.777397  0.628139  1
  P  P21  1  0.250000  0.606149  0.387165  1
  P  P22  1  0.250000  0.894687  0.890010  1
  P  P23  1  0.750000  0.396372  0.609194  1
  P  P24  1  0.750000  0.104043  0.111367  1
  Ru  Ru25  1  0.250000  0.707530  0.989569  1
  Ru  Ru26  1  0.250000  0.792534  0.484787  1
  Ru  Ru27  1  0.750000  0.291693  0.010782  1
  Ru  Ru28  1  0.750000  0.208386  0.509800  1
  Ru  Ru29  1  0.250000  0.405399  0.484242  1
  Ru  Ru30  1  0.250000  0.094615  0.985107  1
  Ru  Ru31  1  0.750000  0.598365  0.511260  1
  Ru  Ru32  1  0.750000  0.902487  0.017911  1
  Ru  Ru33  1  0.250000  0.224790  0.179053  1
  Ru  Ru34  1  0.250000  0.274929  0.678643  1
  Ru  Ru35  1  0.750000  0.775526  0.821185  1
