# generated using pymatgen
data_Lu3ScVRe7
_symmetry_space_group_name_H-M   'P 1'
_cell_length_a   5.33386178
_cell_length_b   5.31725659
_cell_length_c   8.77110247
_cell_angle_alpha   89.99999843
_cell_angle_beta   90.03253013
_cell_angle_gamma   119.89707508
_symmetry_Int_Tables_number   1
_chemical_formula_structural   Lu3ScVRe7
_chemical_formula_sum   'Lu3 Sc1 V1 Re7'
_cell_volume   215.65701464
_cell_formula_units_Z   1
loop_
 _symmetry_equiv_pos_site_id
 _symmetry_equiv_pos_as_xyz
  1  'x, y, z'
loop_
 _atom_site_type_symbol
 _atom_site_label
 _atom_site_symmetry_multiplicity
 _atom_site_fract_x
 _atom_site_fract_y
 _atom_site_fract_z
 _atom_site_occupancy
  Lu  Lu0  1  0.333282  0.666642  0.435646  1
  Lu  Lu1  1  0.666676  0.333338  0.941929  1
  Lu  Lu2  1  0.666753  0.333376  0.559221  1
  Sc  Sc3  1  0.333586  0.666794  0.063708  1
  V  V4  1  0.659504  0.829752  0.751556  1
  Re  Re5  1  0.338825  0.169412  0.248480  1
  Re  Re6  1  0.828869  0.170318  0.248449  1
  Re  Re7  1  0.169246  0.344458  0.751388  1
  Re  Re8  1  0.169246  0.824788  0.751388  1
  Re  Re9  1  0.828869  0.658551  0.248449  1
  Re  Re10  1  0.002740  0.001370  0.504082  1
  Re  Re11  1  0.002405  0.001203  0.995706  1
