# generated using pymatgen
data_Pr6TiAl23Ru8
_symmetry_space_group_name_H-M   'P 1'
_cell_length_a   8.93359100
_cell_length_b   8.93359146
_cell_length_c   9.70993800
_cell_angle_alpha   90.00000000
_cell_angle_beta   90.00000000
_cell_angle_gamma   120.00000199
_symmetry_Int_Tables_number   1
_chemical_formula_structural   Pr6TiAl23Ru8
_chemical_formula_sum   'Pr6 Ti1 Al23 Ru8'
_cell_volume   671.11853542
_cell_formula_units_Z   1
loop_
 _symmetry_equiv_pos_site_id
 _symmetry_equiv_pos_as_xyz
  1  'x, y, z'
loop_
 _atom_site_type_symbol
 _atom_site_label
 _atom_site_symmetry_multiplicity
 _atom_site_fract_x
 _atom_site_fract_y
 _atom_site_fract_z
 _atom_site_occupancy
  Pr  Pr0  1  0.192578  0.385155  0.250702  1
  Pr  Pr1  1  0.807575  0.615152  0.748468  1
  Pr  Pr2  1  0.614845  0.807422  0.250702  1
  Pr  Pr3  1  0.384848  0.192425  0.748468  1
  Pr  Pr4  1  0.192578  0.807422  0.250702  1
  Pr  Pr5  1  0.807575  0.192425  0.748468  1
  Ti  Ti6  1  0.333333  0.666667  0.988856  1
  Al  Al7  1  0.666667  0.333333  0.990598  1
  Al  Al8  1  0.666667  0.333333  0.508204  1
  Al  Al9  1  0.333333  0.666667  0.490263  1
  Al  Al10  1  0.161955  0.323912  0.575889  1
  Al  Al11  1  0.837739  0.675478  0.423972  1
  Al  Al12  1  0.676088  0.838045  0.575889  1
  Al  Al13  1  0.837469  0.674936  0.076489  1
  Al  Al14  1  0.324522  0.162261  0.423972  1
  Al  Al15  1  0.158838  0.317676  0.925040  1
  Al  Al16  1  0.161955  0.838045  0.575889  1
  Al  Al17  1  0.325064  0.162531  0.076489  1
  Al  Al18  1  0.837739  0.162261  0.423972  1
  Al  Al19  1  0.682324  0.841162  0.925040  1
  Al  Al20  1  0.837469  0.162531  0.076489  1
  Al  Al21  1  0.158838  0.841162  0.925040  1
  Al  Al22  1  0.563225  0.126450  0.252216  1
  Al  Al23  1  0.438349  0.876699  0.749563  1
  Al  Al24  1  0.873550  0.436775  0.252216  1
  Al  Al25  1  0.123301  0.561651  0.749563  1
  Al  Al26  1  0.563225  0.436775  0.252216  1
  Al  Al27  1  0.438349  0.561651  0.749563  1
  Al  Al28  1  0.000000  0.000000  0.249919  1
  Al  Al29  1  0.000000  0.000000  0.749193  1
  Ru  Ru30  1  0.497609  0.995217  0.002908  1
  Ru  Ru31  1  0.004783  0.502391  0.002908  1
  Ru  Ru32  1  0.499450  0.998901  0.502569  1
  Ru  Ru33  1  0.497609  0.502391  0.002908  1
  Ru  Ru34  1  0.001099  0.500550  0.502569  1
  Ru  Ru35  1  0.499450  0.500550  0.502569  1
  Ru  Ru36  1  0.000000  0.000000  0.000536  1
  Ru  Ru37  1  0.000000  0.000000  0.498982  1
