# generated using pymatgen
data_V5Re(PbO3)8
_symmetry_space_group_name_H-M   'P 1'
_cell_length_a   9.70906551
_cell_length_b   9.70906547
_cell_length_c   9.70906505
_cell_angle_alpha   109.39657751
_cell_angle_beta   109.39656739
_cell_angle_gamma   109.62061198
_symmetry_Int_Tables_number   1
_chemical_formula_structural   V5Re(PbO3)8
_chemical_formula_sum   'V5 Re1 Pb8 O24'
_cell_volume   704.54414623
_cell_formula_units_Z   1
loop_
 _symmetry_equiv_pos_site_id
 _symmetry_equiv_pos_as_xyz
  1  'x, y, z'
loop_
 _atom_site_type_symbol
 _atom_site_label
 _atom_site_symmetry_multiplicity
 _atom_site_fract_x
 _atom_site_fract_y
 _atom_site_fract_z
 _atom_site_occupancy
  V  V0  1  0.375000  0.625000  0.750000  1
  V  V1  1  0.877353  0.252851  0.127210  1
  V  V2  1  0.625640  0.750142  0.372790  1
  V  V3  1  0.249858  0.122647  0.875498  1
  V  V4  1  0.747149  0.374360  0.624502  1
  Re  Re5  1  0.125000  0.875000  0.250000  1
  Pb  Pb6  1  0.345880  0.361531  0.326528  1
  Pb  Pb7  1  0.169210  0.490332  0.988338  1
  Pb  Pb8  1  0.001994  0.180872  0.511662  1
  Pb  Pb9  1  0.819128  0.830790  0.821122  1
  Pb  Pb10  1  0.535003  0.019352  0.173472  1
  Pb  Pb11  1  0.638469  0.464997  0.984349  1
  Pb  Pb12  1  0.509668  0.998006  0.678878  1
  Pb  Pb13  1  0.980648  0.654120  0.515651  1
  O  O14  1  0.306483  0.159811  0.079166  1
  O  O15  1  0.189185  0.264256  0.840765  1
  O  O16  1  0.923491  0.348420  0.659235  1
  O  O17  1  0.153968  0.077913  0.305385  1
  O  O18  1  0.807431  0.577419  0.647297  1
  O  O19  1  0.580646  0.227317  0.420834  1
  O  O20  1  0.272528  0.848584  0.194615  1
  O  O21  1  0.686722  0.348778  0.768034  1
  O  O22  1  0.344417  0.652670  0.922719  1
  O  O23  1  0.430121  0.160133  0.852703  1
  O  O24  1  0.229949  0.421697  0.577281  1
  O  O25  1  0.080744  0.918688  0.731966  1
  O  O26  1  0.081312  0.313278  0.162055  1
  O  O27  1  0.651580  0.810815  0.575070  1
  O  O28  1  0.651222  0.919256  0.337945  1
  O  O29  1  0.840189  0.419354  0.146671  1
  O  O30  1  0.422581  0.569879  0.230011  1
  O  O31  1  0.735744  0.076509  0.924930  1
  O  O32  1  0.839867  0.192569  0.269989  1
  O  O33  1  0.772683  0.693517  0.353329  1
  O  O34  1  0.578303  0.655583  0.808253  1
  O  O35  1  0.347330  0.770051  0.691747  1
  O  O36  1  0.922087  0.727472  0.076055  1
  O  O37  1  0.151416  0.846032  0.423945  1
