# generated using pymatgen
data_TbY4Lu3Pt4
_symmetry_space_group_name_H-M   'P 1'
_cell_length_a   4.73725800
_cell_length_b   7.13981084
_cell_length_c   8.71299900
_cell_angle_alpha   89.87554279
_cell_angle_beta   90.00000000
_cell_angle_gamma   90.00000000
_symmetry_Int_Tables_number   1
_chemical_formula_structural   TbY4Lu3Pt4
_chemical_formula_sum   'Tb1 Y4 Lu3 Pt4'
_cell_volume   294.70016811
_cell_formula_units_Z   1
loop_
 _symmetry_equiv_pos_site_id
 _symmetry_equiv_pos_as_xyz
  1  'x, y, z'
loop_
 _atom_site_type_symbol
 _atom_site_label
 _atom_site_symmetry_multiplicity
 _atom_site_fract_x
 _atom_site_fract_y
 _atom_site_fract_z
 _atom_site_occupancy
  Tb  Tb0  1  0.750000  0.644069  0.420974  1
  Y  Y1  1  0.250000  0.991336  0.330651  1
  Y  Y2  1  0.250000  0.487533  0.167730  1
  Y  Y3  1  0.750000  0.012822  0.672067  1
  Y  Y4  1  0.750000  0.511206  0.829969  1
  Lu  Lu5  1  0.250000  0.857429  0.922848  1
  Lu  Lu6  1  0.250000  0.355833  0.578854  1
  Lu  Lu7  1  0.750000  0.142707  0.077347  1
  Pt  Pt8  1  0.250000  0.251822  0.904936  1
  Pt  Pt9  1  0.250000  0.753965  0.598327  1
  Pt  Pt10  1  0.750000  0.747920  0.090520  1
  Pt  Pt11  1  0.750000  0.243358  0.405778  1
