# generated using pymatgen
data_Yb4Re3B16Os
_symmetry_space_group_name_H-M   'P 1'
_cell_length_a   3.55571200
_cell_length_b   5.98325599
_cell_length_c   11.57009192
_cell_angle_alpha   89.93398565
_cell_angle_beta   90.00000000
_cell_angle_gamma   90.00000000
_symmetry_Int_Tables_number   1
_chemical_formula_structural   Yb4Re3B16Os
_chemical_formula_sum   'Yb4 Re3 B16 Os1'
_cell_volume   246.15047768
_cell_formula_units_Z   1
loop_
 _symmetry_equiv_pos_site_id
 _symmetry_equiv_pos_as_xyz
  1  'x, y, z'
loop_
 _atom_site_type_symbol
 _atom_site_label
 _atom_site_symmetry_multiplicity
 _atom_site_fract_x
 _atom_site_fract_y
 _atom_site_fract_z
 _atom_site_occupancy
  Yb  Yb0  1  0.000000  0.128922  0.651006  1
  Yb  Yb1  1  0.000000  0.872345  0.349259  1
  Yb  Yb2  1  0.000000  0.628110  0.850268  1
  Yb  Yb3  1  0.000000  0.371737  0.150041  1
  Re  Re4  1  0.000000  0.130091  0.916198  1
  Re  Re5  1  0.000000  0.869887  0.084757  1
  Re  Re6  1  0.000000  0.633140  0.584282  1
  B  B7  1  0.500000  0.475657  0.692021  1
  B  B8  1  0.500000  0.523894  0.307819  1
  B  B9  1  0.500000  0.976166  0.807192  1
  B  B10  1  0.500000  0.024428  0.193164  1
  B  B11  1  0.500000  0.285253  0.815061  1
  B  B12  1  0.500000  0.714140  0.185358  1
  B  B13  1  0.500000  0.784859  0.684734  1
  B  B14  1  0.500000  0.215982  0.315369  1
  B  B15  1  0.500000  0.365481  0.968147  1
  B  B16  1  0.500000  0.634208  0.032069  1
  B  B17  1  0.500000  0.864523  0.530902  1
  B  B18  1  0.500000  0.135904  0.468251  1
  B  B19  1  0.500000  0.384577  0.546851  1
  B  B20  1  0.500000  0.612635  0.451322  1
  B  B21  1  0.500000  0.884708  0.952453  1
  B  B22  1  0.500000  0.114590  0.047955  1
  Os  Os23  1  0.000000  0.368762  0.415521  1
