# generated using pymatgen
data_Hf16TaCo4Pt3
_symmetry_space_group_name_H-M   'P 1'
_cell_length_a   8.69436274
_cell_length_b   8.61017426
_cell_length_c   8.61017300
_cell_angle_alpha   60.00000100
_cell_angle_beta   60.31980211
_cell_angle_gamma   60.31980336
_symmetry_Int_Tables_number   1
_chemical_formula_structural   Hf16TaCo4Pt3
_chemical_formula_sum   'Hf16 Ta1 Co4 Pt3'
_cell_volume   457.96158902
_cell_formula_units_Z   1
loop_
 _symmetry_equiv_pos_site_id
 _symmetry_equiv_pos_as_xyz
  1  'x, y, z'
loop_
 _atom_site_type_symbol
 _atom_site_label
 _atom_site_symmetry_multiplicity
 _atom_site_fract_x
 _atom_site_fract_y
 _atom_site_fract_z
 _atom_site_occupancy
  Hf  Hf0  1  0.070703  0.643099  0.643099  1
  Hf  Hf1  1  0.651274  0.049417  0.649655  1
  Hf  Hf2  1  0.651274  0.649655  0.049417  1
  Hf  Hf3  1  0.651274  0.649655  0.649655  1
  Hf  Hf4  1  0.810592  0.801932  0.193738  1
  Hf  Hf5  1  0.196025  0.196299  0.803838  1
  Hf  Hf6  1  0.810592  0.193738  0.801932  1
  Hf  Hf7  1  0.196025  0.803838  0.196299  1
  Hf  Hf8  1  0.196025  0.803838  0.803838  1
  Hf  Hf9  1  0.810592  0.193738  0.193738  1
  Hf  Hf10  1  0.435758  0.437304  0.063469  1
  Hf  Hf11  1  0.052411  0.073052  0.437268  1
  Hf  Hf12  1  0.435758  0.063469  0.437304  1
  Hf  Hf13  1  0.052411  0.437268  0.073052  1
  Hf  Hf14  1  0.052411  0.437268  0.437268  1
  Hf  Hf15  1  0.435758  0.063469  0.063469  1
  Ta  Ta16  1  0.734546  0.421818  0.421818  1
  Co  Co17  1  0.421189  0.859604  0.859604  1
  Co  Co18  1  0.864147  0.427092  0.854381  1
  Co  Co19  1  0.864147  0.854381  0.427092  1
  Co  Co20  1  0.864147  0.854381  0.854381  1
  Pt  Pt21  1  0.414315  0.762005  0.411840  1
  Pt  Pt22  1  0.414315  0.411840  0.762005  1
  Pt  Pt23  1  0.414315  0.411840  0.411840  1
