# generated using pymatgen
data_CaEr3Mg4(B6Os)4
_symmetry_space_group_name_H-M   'P 1'
_cell_length_a   3.55710400
_cell_length_b   8.89912516
_cell_length_c   11.25170428
_cell_angle_alpha   90.04891504
_cell_angle_beta   90.00000000
_cell_angle_gamma   90.00000000
_symmetry_Int_Tables_number   1
_chemical_formula_structural   CaEr3Mg4(B6Os)4
_chemical_formula_sum   'Ca1 Er3 Mg4 B24 Os4'
_cell_volume   356.17384863
_cell_formula_units_Z   1
loop_
 _symmetry_equiv_pos_site_id
 _symmetry_equiv_pos_as_xyz
  1  'x, y, z'
loop_
 _atom_site_type_symbol
 _atom_site_label
 _atom_site_symmetry_multiplicity
 _atom_site_fract_x
 _atom_site_fract_y
 _atom_site_fract_z
 _atom_site_occupancy
  Ca  Ca0  1  0.000000  0.178329  0.913878  1
  Er  Er1  1  0.000000  0.323420  0.413755  1
  Er  Er2  1  0.000000  0.676700  0.586837  1
  Er  Er3  1  0.000000  0.824204  0.085259  1
  Mg  Mg4  1  0.000000  0.944129  0.372449  1
  Mg  Mg5  1  0.000000  0.056701  0.629484  1
  Mg  Mg6  1  0.000000  0.443198  0.127102  1
  Mg  Mg7  1  0.000000  0.555704  0.872126  1
  B  B8  1  0.500000  0.555550  0.432561  1
  B  B9  1  0.500000  0.444873  0.566376  1
  B  B10  1  0.500000  0.054572  0.067924  1
  B  B11  1  0.500000  0.944541  0.932339  1
  B  B12  1  0.500000  0.755545  0.418238  1
  B  B13  1  0.500000  0.244526  0.581789  1
  B  B14  1  0.500000  0.255166  0.082684  1
  B  B15  1  0.500000  0.744612  0.917912  1
  B  B16  1  0.500000  0.793807  0.263182  1
  B  B17  1  0.500000  0.206289  0.736276  1
  B  B18  1  0.500000  0.293484  0.237777  1
  B  B19  1  0.500000  0.705495  0.762657  1
  B  B20  1  0.500000  0.628262  0.182066  1
  B  B21  1  0.500000  0.372046  0.817128  1
  B  B22  1  0.500000  0.127842  0.318801  1
  B  B23  1  0.500000  0.871585  0.682287  1
  B  B24  1  0.500000  0.980201  0.213270  1
  B  B25  1  0.500000  0.019729  0.787064  1
  B  B26  1  0.500000  0.480407  0.286829  1
  B  B27  1  0.500000  0.519905  0.712267  1
  B  B28  1  0.500000  0.592763  0.025224  1
  B  B29  1  0.500000  0.407867  0.974858  1
  B  B30  1  0.500000  0.092539  0.474905  1
  B  B31  1  0.500000  0.906937  0.525655  1
  Os  Os32  1  0.000000  0.639760  0.318545  1
  Os  Os33  1  0.000000  0.361973  0.679778  1
  Os  Os34  1  0.000000  0.139749  0.182992  1
  Os  Os35  1  0.000000  0.857588  0.817720  1
