# generated using pymatgen
data_Ti5Nb7Ga8Cu3RhC4
_symmetry_space_group_name_H-M   'P 1'
_cell_length_a   8.23715085
_cell_length_b   8.26161313
_cell_length_c   8.25212800
_cell_angle_alpha   59.94511011
_cell_angle_beta   60.09533574
_cell_angle_gamma   59.92528220
_symmetry_Int_Tables_number   1
_chemical_formula_structural   Ti5Nb7Ga8Cu3RhC4
_chemical_formula_sum   'Ti5 Nb7 Ga8 Cu3 Rh1 C4'
_cell_volume   396.98859573
_cell_formula_units_Z   1
loop_
 _symmetry_equiv_pos_site_id
 _symmetry_equiv_pos_as_xyz
  1  'x, y, z'
loop_
 _atom_site_type_symbol
 _atom_site_label
 _atom_site_symmetry_multiplicity
 _atom_site_fract_x
 _atom_site_fract_y
 _atom_site_fract_z
 _atom_site_occupancy
  Ti  Ti0  1  0.565248  0.933678  0.934799  1
  Ti  Ti1  1  0.935448  0.572784  0.558006  1
  Ti  Ti2  1  0.935785  0.569998  0.935573  1
  Ti  Ti3  1  0.315105  0.318357  0.683826  1
  Ti  Ti4  1  0.557993  0.571631  0.935993  1
  Nb  Nb5  1  0.936416  0.934081  0.563851  1
  Nb  Nb6  1  0.686919  0.316645  0.312407  1
  Nb  Nb7  1  0.313064  0.680198  0.691329  1
  Nb  Nb8  1  0.690147  0.678219  0.314705  1
  Nb  Nb9  1  0.687147  0.314405  0.685415  1
  Nb  Nb10  1  0.314310  0.681335  0.314471  1
  Nb  Nb11  1  0.563542  0.936818  0.563035  1
  Ga  Ga12  1  0.911200  0.264445  0.912429  1
  Ga  Ga13  1  0.336163  0.329708  0.995189  1
  Ga  Ga14  1  0.999616  0.328902  0.335659  1
  Ga  Ga15  1  0.336185  0.330526  0.339320  1
  Ga  Ga16  1  0.256909  0.916661  0.914820  1
  Ga  Ga17  1  0.911196  0.916067  0.914568  1
  Ga  Ga18  1  0.914638  0.917233  0.253466  1
  Ga  Ga19  1  0.336215  0.991027  0.336811  1
  Cu  Cu20  1  0.124171  0.124593  0.628655  1
  Cu  Cu21  1  0.625053  0.125638  0.124328  1
  Cu  Cu22  1  0.125579  0.124851  0.122989  1
  Rh  Rh23  1  0.126002  0.623666  0.124873  1
  C  C24  1  0.617800  0.127469  0.630033  1
  C  C25  1  0.628119  0.628942  0.113815  1
  C  C26  1  0.122196  0.618285  0.629974  1
  C  C27  1  0.627834  0.623841  0.629661  1
