# generated using pymatgen
data_Te(PbO3)2
_symmetry_space_group_name_H-M   'P 1'
_cell_length_a   9.36751900
_cell_length_b   9.36751888
_cell_length_c   5.44392200
_cell_angle_alpha   90.00000000
_cell_angle_beta   90.00000000
_cell_angle_gamma   120.00000395
_symmetry_Int_Tables_number   1
_chemical_formula_structural   Te(PbO3)2
_chemical_formula_sum   'Te3 Pb6 O18'
_cell_volume   413.70585593
_cell_formula_units_Z   3
loop_
 _symmetry_equiv_pos_site_id
 _symmetry_equiv_pos_as_xyz
  1  'x, y, z'
loop_
 _atom_site_type_symbol
 _atom_site_label
 _atom_site_symmetry_multiplicity
 _atom_site_fract_x
 _atom_site_fract_y
 _atom_site_fract_z
 _atom_site_occupancy
  Te  Te0  1  0.666667  0.333333  0.500413  1
  Te  Te1  1  0.333333  0.666667  0.499587  1
  Te  Te2  1  0.000000  0.000000  0.000000  1
  Pb  Pb3  1  0.709211  0.709211  0.500000  1
  Pb  Pb4  1  0.000000  0.290789  0.500000  1
  Pb  Pb5  1  0.290789  0.000000  0.500000  1
  Pb  Pb6  1  0.382773  0.382773  0.000000  1
  Pb  Pb7  1  0.000000  0.617227  0.000000  1
  Pb  Pb8  1  0.617227  0.000000  0.000000  1
  O  O9  1  0.770264  0.235248  0.707067  1
  O  O10  1  0.764752  0.535016  0.707067  1
  O  O11  1  0.464984  0.229736  0.707067  1
  O  O12  1  0.535016  0.764752  0.292933  1
  O  O13  1  0.229736  0.464984  0.292933  1
  O  O14  1  0.235248  0.770264  0.292933  1
  O  O15  1  0.605934  0.467057  0.296252  1
  O  O16  1  0.532943  0.138877  0.296252  1
  O  O17  1  0.861123  0.394066  0.296252  1
  O  O18  1  0.093393  0.894698  0.789577  1
  O  O19  1  0.105302  0.198694  0.789577  1
  O  O20  1  0.801306  0.906607  0.789577  1
  O  O21  1  0.198694  0.105302  0.210423  1
  O  O22  1  0.906607  0.801306  0.210423  1
  O  O23  1  0.894698  0.093393  0.210423  1
  O  O24  1  0.467057  0.605934  0.703748  1
  O  O25  1  0.394066  0.861123  0.703748  1
  O  O26  1  0.138877  0.532943  0.703748  1
