# generated using pymatgen
data_Tb2DyThC5
_symmetry_space_group_name_H-M   'P 1'
_cell_length_a   3.70047200
_cell_length_b   6.71419183
_cell_length_c   12.08358072
_cell_angle_alpha   88.63224643
_cell_angle_beta   90.00000000
_cell_angle_gamma   90.00000000
_symmetry_Int_Tables_number   1
_chemical_formula_structural   Tb2DyThC5
_chemical_formula_sum   'Tb4 Dy2 Th2 C10'
_cell_volume   300.13922688
_cell_formula_units_Z   2
loop_
 _symmetry_equiv_pos_site_id
 _symmetry_equiv_pos_as_xyz
  1  'x, y, z'
loop_
 _atom_site_type_symbol
 _atom_site_label
 _atom_site_symmetry_multiplicity
 _atom_site_fract_x
 _atom_site_fract_y
 _atom_site_fract_z
 _atom_site_occupancy
  Tb  Tb0  1  0.500000  0.095206  0.802885  1
  Tb  Tb1  1  0.500000  0.904794  0.197115  1
  Tb  Tb2  1  0.500000  0.606703  0.704396  1
  Tb  Tb3  1  0.500000  0.393297  0.295604  1
  Dy  Dy4  1  0.000000  0.755988  0.960311  1
  Dy  Dy5  1  0.000000  0.244012  0.039689  1
  Th  Th6  1  0.000000  0.243255  0.543565  1
  Th  Th7  1  0.000000  0.756745  0.456435  1
  C  C8  1  0.500000  0.500000  0.500000  1
  C  C9  1  0.500000  0.000000  0.000000  1
  C  C10  1  0.000000  0.350371  0.746461  1
  C  C11  1  0.000000  0.649629  0.253539  1
  C  C12  1  0.000000  0.856877  0.769850  1
  C  C13  1  0.000000  0.143123  0.230150  1
  C  C14  1  0.000000  0.431299  0.846598  1
  C  C15  1  0.000000  0.568701  0.153402  1
  C  C16  1  0.000000  0.126860  0.341742  1
  C  C17  1  0.000000  0.873140  0.658258  1
