# generated using pymatgen
data_Lu7Th3(Si5Ir2)4
_symmetry_space_group_name_H-M   'P 1'
_cell_length_a   12.60154977
_cell_length_b   12.60155040
_cell_length_c   4.27983700
_cell_angle_alpha   90.00000000
_cell_angle_beta   90.00000000
_cell_angle_gamma   89.45066700
_symmetry_Int_Tables_number   1
_chemical_formula_structural   Lu7Th3(Si5Ir2)4
_chemical_formula_sum   'Lu7 Th3 Si20 Ir8'
_cell_volume   679.60287465
_cell_formula_units_Z   1
loop_
 _symmetry_equiv_pos_site_id
 _symmetry_equiv_pos_as_xyz
  1  'x, y, z'
loop_
 _atom_site_type_symbol
 _atom_site_label
 _atom_site_symmetry_multiplicity
 _atom_site_fract_x
 _atom_site_fract_y
 _atom_site_fract_z
 _atom_site_occupancy
  Lu  Lu0  1  0.500715  0.499496  0.000000  1
  Lu  Lu1  1  0.999496  0.000715  0.000000  1
  Lu  Lu2  1  0.675543  0.175543  0.500000  1
  Lu  Lu3  1  0.324170  0.824170  0.500000  1
  Lu  Lu4  1  0.176522  0.323998  0.500000  1
  Lu  Lu5  1  0.823998  0.676522  0.500000  1
  Lu  Lu6  1  0.886543  0.386543  0.500000  1
  Th  Th7  1  0.114631  0.614631  0.500000  1
  Th  Th8  1  0.385931  0.113422  0.500000  1
  Th  Th9  1  0.613422  0.885931  0.500000  1
  Si  Si10  1  0.567345  0.067345  0.000000  1
  Si  Si11  1  0.432413  0.932413  0.000000  1
  Si  Si12  1  0.065229  0.431220  0.000000  1
  Si  Si13  1  0.931220  0.565229  0.000000  1
  Si  Si14  1  0.663281  0.698931  0.000000  1
  Si  Si15  1  0.336999  0.299918  0.000000  1
  Si  Si16  1  0.163255  0.800394  0.000000  1
  Si  Si17  1  0.836783  0.202285  0.000000  1
  Si  Si18  1  0.300394  0.663255  0.000000  1
  Si  Si19  1  0.702285  0.336783  0.000000  1
  Si  Si20  1  0.198931  0.163281  0.000000  1
  Si  Si21  1  0.799918  0.836999  0.000000  1
  Si  Si22  1  0.655513  0.511743  0.500000  1
  Si  Si23  1  0.345774  0.488817  0.500000  1
  Si  Si24  1  0.155949  0.000159  0.500000  1
  Si  Si25  1  0.843472  0.999971  0.500000  1
  Si  Si26  1  0.500159  0.655949  0.500000  1
  Si  Si27  1  0.499971  0.343472  0.500000  1
  Si  Si28  1  0.011743  0.155513  0.500000  1
  Si  Si29  1  0.988817  0.845774  0.500000  1
  Ir  Ir30  1  0.744520  0.520335  0.000000  1
  Ir  Ir31  1  0.256125  0.477556  0.000000  1
  Ir  Ir32  1  0.240186  0.976970  0.000000  1
  Ir  Ir33  1  0.759508  0.024375  0.000000  1
  Ir  Ir34  1  0.476970  0.740186  0.000000  1
  Ir  Ir35  1  0.524375  0.259508  0.000000  1
  Ir  Ir36  1  0.020335  0.244520  0.000000  1
  Ir  Ir37  1  0.977556  0.756125  0.000000  1
