# generated using pymatgen
data_AsS8Cl3
_symmetry_space_group_name_H-M   'P 1'
_cell_length_a   8.62808176
_cell_length_b   9.60403752
_cell_length_c   11.59745263
_cell_angle_alpha   97.98424528
_cell_angle_beta   108.20958563
_cell_angle_gamma   107.64146219
_symmetry_Int_Tables_number   1
_chemical_formula_structural   AsS8Cl3
_chemical_formula_sum   'As2 S16 Cl6'
_cell_volume   840.49097271
_cell_formula_units_Z   2
loop_
 _symmetry_equiv_pos_site_id
 _symmetry_equiv_pos_as_xyz
  1  'x, y, z'
loop_
 _atom_site_type_symbol
 _atom_site_label
 _atom_site_symmetry_multiplicity
 _atom_site_fract_x
 _atom_site_fract_y
 _atom_site_fract_z
 _atom_site_occupancy
  As  As0  1  0.784989  0.041050  0.851762  1
  As  As1  1  0.215011  0.958950  0.148238  1
  S  S2  1  0.857334  0.509917  0.816784  1
  S  S3  1  0.142666  0.490083  0.183216  1
  S  S4  1  0.728533  0.425658  0.625062  1
  S  S5  1  0.271467  0.574342  0.374938  1
  S  S6  1  0.739159  0.215340  0.572820  1
  S  S7  1  0.260841  0.784660  0.427180  1
  S  S8  1  0.942125  0.236364  0.510169  1
  S  S9  1  0.057875  0.763636  0.489831  1
  S  S10  1  0.889211  0.346505  0.144558  1
  S  S11  1  0.110789  0.653495  0.855442  1
  S  S12  1  0.721896  0.462971  0.101024  1
  S  S13  1  0.278104  0.537029  0.898976  1
  S  S14  1  0.675539  0.535070  0.258497  1
  S  S15  1  0.324461  0.464930  0.741503  1
  S  S16  1  0.840747  0.757392  0.345715  1
  S  S17  1  0.159253  0.242608  0.654285  1
  Cl  Cl18  1  0.515917  0.040903  0.791555  1
  Cl  Cl19  1  0.484083  0.959097  0.208445  1
  Cl  Cl20  1  0.767415  0.904425  0.990519  1
  Cl  Cl21  1  0.232585  0.095575  0.009481  1
  Cl  Cl22  1  0.750570  0.862388  0.693417  1
  Cl  Cl23  1  0.249430  0.137612  0.306583  1
