# generated using pymatgen
data_ErTm3MgNi2Bi
_symmetry_space_group_name_H-M   'P 1'
_cell_length_a   8.66579581
_cell_length_b   8.66579586
_cell_length_c   8.66721078
_cell_angle_alpha   129.49061305
_cell_angle_beta   129.49061017
_cell_angle_gamma   74.21005980
_symmetry_Int_Tables_number   1
_chemical_formula_structural   ErTm3MgNi2Bi
_chemical_formula_sum   'Er2 Tm6 Mg2 Ni4 Bi2'
_cell_volume   377.94857143
_cell_formula_units_Z   2
loop_
 _symmetry_equiv_pos_site_id
 _symmetry_equiv_pos_as_xyz
  1  'x, y, z'
loop_
 _atom_site_type_symbol
 _atom_site_label
 _atom_site_symmetry_multiplicity
 _atom_site_fract_x
 _atom_site_fract_y
 _atom_site_fract_z
 _atom_site_occupancy
  Er  Er0  1  0.708116  0.540288  0.500000  1
  Er  Er1  1  0.959712  0.791884  0.500000  1
  Tm  Tm2  1  0.791589  0.291613  0.832093  1
  Tm  Tm3  1  0.208387  0.708411  0.167907  1
  Tm  Tm4  1  0.459495  0.959519  0.167907  1
  Tm  Tm5  1  0.291644  0.459481  0.500000  1
  Tm  Tm6  1  0.040519  0.208356  0.500000  1
  Tm  Tm7  1  0.540481  0.040505  0.832093  1
  Mg  Mg8  1  0.000055  0.000094  0.000149  1
  Mg  Mg9  1  0.499906  0.499945  0.999851  1
  Ni  Ni10  1  0.126973  0.626669  0.753643  1
  Ni  Ni11  1  0.873331  0.373027  0.246357  1
  Ni  Ni12  1  0.626602  0.873398  0.500000  1
  Ni  Ni13  1  0.373229  0.126771  0.500000  1
  Bi  Bi14  1  0.249981  0.250019  0.000000  1
  Bi  Bi15  1  0.749981  0.750019  0.000000  1
