# generated using pymatgen
data_Al3(ZnAu5)2
_symmetry_space_group_name_H-M   'P 1'
_cell_length_a   3.24332800
_cell_length_b   9.20682400
_cell_length_c   17.02555000
_cell_angle_alpha   90.00000000
_cell_angle_beta   90.00000000
_cell_angle_gamma   90.00000000
_symmetry_Int_Tables_number   1
_chemical_formula_structural   Al3(ZnAu5)2
_chemical_formula_sum   'Al6 Zn4 Au20'
_cell_volume   508.39569336
_cell_formula_units_Z   2
loop_
 _symmetry_equiv_pos_site_id
 _symmetry_equiv_pos_as_xyz
  1  'x, y, z'
loop_
 _atom_site_type_symbol
 _atom_site_label
 _atom_site_symmetry_multiplicity
 _atom_site_fract_x
 _atom_site_fract_y
 _atom_site_fract_z
 _atom_site_occupancy
  Al  Al0  1  0.000000  0.000000  0.000000  1
  Al  Al1  1  0.500000  0.500000  0.500000  1
  Al  Al2  1  0.000000  0.031705  0.398044  1
  Al  Al3  1  0.000000  0.968295  0.601956  1
  Al  Al4  1  0.500000  0.531705  0.101956  1
  Al  Al5  1  0.500000  0.468295  0.898044  1
  Zn  Zn6  1  0.000000  0.974987  0.200986  1
  Zn  Zn7  1  0.000000  0.025013  0.799014  1
  Zn  Zn8  1  0.500000  0.474987  0.299014  1
  Zn  Zn9  1  0.500000  0.525013  0.700986  1
  Au  Au10  1  0.000000  0.349364  0.014076  1
  Au  Au11  1  0.000000  0.650636  0.985924  1
  Au  Au12  1  0.500000  0.849364  0.485924  1
  Au  Au13  1  0.500000  0.150636  0.514076  1
  Au  Au14  1  0.000000  0.357839  0.185600  1
  Au  Au15  1  0.000000  0.642161  0.814400  1
  Au  Au16  1  0.500000  0.857839  0.314400  1
  Au  Au17  1  0.500000  0.142161  0.685600  1
  Au  Au18  1  0.000000  0.325587  0.407327  1
  Au  Au19  1  0.000000  0.674413  0.592673  1
  Au  Au20  1  0.500000  0.825587  0.092673  1
  Au  Au21  1  0.500000  0.174413  0.907327  1
  Au  Au22  1  0.000000  0.365958  0.602974  1
  Au  Au23  1  0.000000  0.634042  0.397026  1
  Au  Au24  1  0.500000  0.865958  0.897026  1
  Au  Au25  1  0.500000  0.134042  0.102974  1
  Au  Au26  1  0.000000  0.333504  0.786603  1
  Au  Au27  1  0.000000  0.666496  0.213397  1
  Au  Au28  1  0.500000  0.833504  0.713397  1
  Au  Au29  1  0.500000  0.166496  0.286603  1
