# generated using pymatgen
data_Ti3MnCr2As2P
_symmetry_space_group_name_H-M   'P 1'
_cell_length_a   6.53814670
_cell_length_b   6.53814715
_cell_length_c   3.30461800
_cell_angle_alpha   90.00000000
_cell_angle_beta   90.00000000
_cell_angle_gamma   120.25895705
_symmetry_Int_Tables_number   1
_chemical_formula_structural   Ti3MnCr2As2P
_chemical_formula_sum   'Ti3 Mn1 Cr2 As2 P1'
_cell_volume   122.01748362
_cell_formula_units_Z   1
loop_
 _symmetry_equiv_pos_site_id
 _symmetry_equiv_pos_as_xyz
  1  'x, y, z'
loop_
 _atom_site_type_symbol
 _atom_site_label
 _atom_site_symmetry_multiplicity
 _atom_site_fract_x
 _atom_site_fract_y
 _atom_site_fract_z
 _atom_site_occupancy
  Ti  Ti0  1  0.390932  0.390932  0.500000  1
  Ti  Ti1  1  0.605833  0.004747  0.500000  1
  Ti  Ti2  1  0.004747  0.605833  0.500000  1
  Mn  Mn3  1  0.754124  0.754124  0.000000  1
  Cr  Cr4  1  0.245364  0.999377  0.000000  1
  Cr  Cr5  1  0.999377  0.245364  0.000000  1
  As  As6  1  0.668296  0.337970  0.000000  1
  As  As7  1  0.337970  0.668296  0.000000  1
  P  P8  1  0.993357  0.993357  0.500000  1
