# generated using pymatgen
data_Ca10Tl2CuPd3
_symmetry_space_group_name_H-M   'P 1'
_cell_length_a   9.24343172
_cell_length_b   9.24343077
_cell_length_c   9.21275400
_cell_angle_alpha   128.87115701
_cell_angle_beta   128.87115228
_cell_angle_gamma   75.46468287
_symmetry_Int_Tables_number   1
_chemical_formula_structural   Ca10Tl2CuPd3
_chemical_formula_sum   'Ca10 Tl2 Cu1 Pd3'
_cell_volume   463.69023100
_cell_formula_units_Z   1
loop_
 _symmetry_equiv_pos_site_id
 _symmetry_equiv_pos_as_xyz
  1  'x, y, z'
loop_
 _atom_site_type_symbol
 _atom_site_label
 _atom_site_symmetry_multiplicity
 _atom_site_fract_x
 _atom_site_fract_y
 _atom_site_fract_z
 _atom_site_occupancy
  Ca  Ca0  1  0.529072  0.029072  0.831480  1
  Ca  Ca1  1  0.195388  0.695388  0.162728  1
  Ca  Ca2  1  0.033909  0.194357  0.503063  1
  Ca  Ca3  1  0.694357  0.533909  0.503063  1
  Ca  Ca4  1  0.467340  0.967340  0.162728  1
  Ca  Ca5  1  0.802407  0.302407  0.831480  1
  Ca  Ca6  1  0.969154  0.808707  0.503063  1
  Ca  Ca7  1  0.308707  0.469154  0.503063  1
  Ca  Ca8  1  0.497240  0.500789  0.998029  1
  Ca  Ca9  1  0.000789  0.997240  0.998029  1
  Tl  Tl10  1  0.250813  0.250813  0.001625  1
  Tl  Tl11  1  0.750813  0.750813  0.001625  1
  Cu  Cu12  1  0.882484  0.382484  0.264969  1
  Pd  Pd13  1  0.626058  0.873929  0.499988  1
  Pd  Pd14  1  0.373929  0.126058  0.499988  1
  Pd  Pd15  1  0.117540  0.617540  0.735079  1
