# generated using pymatgen
data_Dy17Y3(Cd3Os)2
_symmetry_space_group_name_H-M   'P 1'
_cell_length_a   9.60382000
_cell_length_b   9.60381992
_cell_length_c   9.88672100
_cell_angle_alpha   90.00000000
_cell_angle_beta   90.00000000
_cell_angle_gamma   120.00000028
_symmetry_Int_Tables_number   1
_chemical_formula_structural   Dy17Y3(Cd3Os)2
_chemical_formula_sum   'Dy17 Y3 Cd6 Os2'
_cell_volume   789.71598501
_cell_formula_units_Z   1
loop_
 _symmetry_equiv_pos_site_id
 _symmetry_equiv_pos_as_xyz
  1  'x, y, z'
loop_
 _atom_site_type_symbol
 _atom_site_label
 _atom_site_symmetry_multiplicity
 _atom_site_fract_x
 _atom_site_fract_y
 _atom_site_fract_z
 _atom_site_occupancy
  Dy  Dy0  1  0.000000  0.000000  0.500089  1
  Dy  Dy1  1  0.000000  0.000000  0.999911  1
  Dy  Dy2  1  0.209740  0.790260  0.440252  1
  Dy  Dy3  1  0.209740  0.419479  0.440252  1
  Dy  Dy4  1  0.580521  0.790260  0.440252  1
  Dy  Dy5  1  0.790216  0.209784  0.559591  1
  Dy  Dy6  1  0.790216  0.580432  0.559591  1
  Dy  Dy7  1  0.419568  0.209784  0.559591  1
  Dy  Dy8  1  0.790216  0.209784  0.940409  1
  Dy  Dy9  1  0.790216  0.580432  0.940409  1
  Dy  Dy10  1  0.419568  0.209784  0.940409  1
  Dy  Dy11  1  0.209740  0.790260  0.059748  1
  Dy  Dy12  1  0.209740  0.419479  0.059748  1
  Dy  Dy13  1  0.580521  0.790260  0.059748  1
  Dy  Dy14  1  0.540182  0.459818  0.250000  1
  Dy  Dy15  1  0.540182  0.080364  0.250000  1
  Dy  Dy16  1  0.919636  0.459818  0.250000  1
  Y  Y17  1  0.459838  0.540162  0.750000  1
  Y  Y18  1  0.459838  0.919677  0.750000  1
  Y  Y19  1  0.080323  0.540162  0.750000  1
  Cd  Cd20  1  0.885482  0.114518  0.250000  1
  Cd  Cd21  1  0.885482  0.770965  0.250000  1
  Cd  Cd22  1  0.229035  0.114518  0.250000  1
  Cd  Cd23  1  0.114481  0.885519  0.750000  1
  Cd  Cd24  1  0.114481  0.228960  0.750000  1
  Cd  Cd25  1  0.771040  0.885519  0.750000  1
  Os  Os26  1  0.333333  0.666667  0.250000  1
  Os  Os27  1  0.666667  0.333333  0.750000  1
