# generated using pymatgen
data_La5Tc6P12Ir13
_symmetry_space_group_name_H-M   'P 1'
_cell_length_a   12.81565600
_cell_length_b   12.81565579
_cell_length_c   4.04955200
_cell_angle_alpha   90.00000000
_cell_angle_beta   90.00000000
_cell_angle_gamma   119.99999537
_symmetry_Int_Tables_number   1
_chemical_formula_structural   La5Tc6P12Ir13
_chemical_formula_sum   'La5 Tc6 P12 Ir13'
_cell_volume   575.99578846
_cell_formula_units_Z   1
loop_
 _symmetry_equiv_pos_site_id
 _symmetry_equiv_pos_as_xyz
  1  'x, y, z'
loop_
 _atom_site_type_symbol
 _atom_site_label
 _atom_site_symmetry_multiplicity
 _atom_site_fract_x
 _atom_site_fract_y
 _atom_site_fract_z
 _atom_site_occupancy
  La  La0  1  0.333333  0.666667  0.500000  1
  La  La1  1  0.666667  0.333333  0.500000  1
  La  La2  1  0.000653  0.812644  0.000000  1
  La  La3  1  0.187356  0.188008  0.000000  1
  La  La4  1  0.811992  0.999347  0.000000  1
  Tc  Tc5  1  0.990663  0.445817  0.500000  1
  Tc  Tc6  1  0.554183  0.544845  0.500000  1
  Tc  Tc7  1  0.455155  0.009337  0.500000  1
  Tc  Tc8  1  0.619425  0.798068  0.500000  1
  Tc  Tc9  1  0.201932  0.821357  0.500000  1
  Tc  Tc10  1  0.178643  0.380575  0.500000  1
  P  P11  1  0.007401  0.634656  0.500000  1
  P  P12  1  0.365344  0.372746  0.500000  1
  P  P13  1  0.627254  0.992599  0.500000  1
  P  P14  1  0.523703  0.695039  0.000000  1
  P  P15  1  0.304961  0.828664  0.000000  1
  P  P16  1  0.171336  0.476297  0.000000  1
  P  P17  1  0.480536  0.166784  0.000000  1
  P  P18  1  0.686248  0.519464  0.000000  1
  P  P19  1  0.833216  0.313752  0.000000  1
  P  P20  1  0.003069  0.185902  0.500000  1
  P  P21  1  0.814098  0.817168  0.500000  1
  P  P22  1  0.182832  0.996931  0.500000  1
  Ir  Ir23  1  0.508701  0.877847  0.000000  1
  Ir  Ir24  1  0.122153  0.630855  0.000000  1
  Ir  Ir25  1  0.369145  0.491299  0.000000  1
  Ir  Ir26  1  0.492129  0.358972  0.000000  1
  Ir  Ir27  1  0.866844  0.507871  0.000000  1
  Ir  Ir28  1  0.641028  0.133156  0.000000  1
  Ir  Ir29  1  0.995787  0.284710  0.000000  1
  Ir  Ir30  1  0.715290  0.711078  0.000000  1
  Ir  Ir31  1  0.288922  0.004213  0.000000  1
  Ir  Ir32  1  0.376355  0.184451  0.500000  1
  Ir  Ir33  1  0.808096  0.623645  0.500000  1
  Ir  Ir34  1  0.815549  0.191904  0.500000  1
  Ir  Ir35  1  0.000000  0.000000  0.500000  1
