# generated using pymatgen
data_Tb12FeCoBr17
_symmetry_space_group_name_H-M   'P 1'
_cell_length_a   9.26111225
_cell_length_b   11.10823812
_cell_length_c   11.16683036
_cell_angle_alpha   93.32596231
_cell_angle_beta   104.82275166
_cell_angle_gamma   114.22948011
_symmetry_Int_Tables_number   1
_chemical_formula_structural   Tb12FeCoBr17
_chemical_formula_sum   'Tb12 Fe1 Co1 Br17'
_cell_volume   995.26117628
_cell_formula_units_Z   1
loop_
 _symmetry_equiv_pos_site_id
 _symmetry_equiv_pos_as_xyz
  1  'x, y, z'
loop_
 _atom_site_type_symbol
 _atom_site_label
 _atom_site_symmetry_multiplicity
 _atom_site_fract_x
 _atom_site_fract_y
 _atom_site_fract_z
 _atom_site_occupancy
  Tb  Tb0  1  0.056767  0.512106  0.320605  1
  Tb  Tb1  1  0.985122  0.809724  0.578411  1
  Tb  Tb2  1  0.643800  0.239753  0.286709  1
  Tb  Tb3  1  0.014861  0.191424  0.419882  1
  Tb  Tb4  1  0.227043  0.671057  0.990995  1
  Tb  Tb5  1  0.257164  0.988252  0.890666  1
  Tb  Tb6  1  0.357475  0.760229  0.712688  1
  Tb  Tb7  1  0.941356  0.486208  0.677961  1
  Tb  Tb8  1  0.744595  0.012857  0.111195  1
  Tb  Tb9  1  0.153798  0.287362  0.150640  1
  Tb  Tb10  1  0.773556  0.327808  0.009950  1
  Tb  Tb11  1  0.845751  0.712542  0.850784  1
  Fe  Fe12  1  0.895873  0.261630  0.214609  1
  Co  Co13  1  0.103919  0.738282  0.784976  1
  Br  Br14  1  0.789399  0.528281  0.422874  1
  Br  Br15  1  0.647232  0.423803  0.760738  1
  Br  Br16  1  0.847981  0.899130  0.330686  1
  Br  Br17  1  0.326341  0.214214  0.366588  1
  Br  Br18  1  0.153049  0.098809  0.672751  1
  Br  Br19  1  0.582093  0.049992  0.847095  1
  Br  Br20  1  0.761203  0.189577  0.539497  1
  Br  Br21  1  0.548171  0.708478  0.950087  1
  Br  Br22  1  0.353537  0.579337  0.236725  1
  Br  Br23  1  0.211402  0.474284  0.580603  1
  Br  Br24  1  0.055606  0.372842  0.899286  1
  Br  Br25  1  0.448327  0.287069  0.046162  1
  Br  Br26  1  0.999745  0.998592  0.998603  1
  Br  Br27  1  0.240459  0.813378  0.463757  1
  Br  Br28  1  0.413350  0.946430  0.150272  1
  Br  Br29  1  0.674305  0.786405  0.635369  1
  Br  Br30  1  0.946721  0.630150  0.098835  1
