# generated using pymatgen
data_DyY2CdSi2Ag3
_symmetry_space_group_name_H-M   'P 1'
_cell_length_a   7.24438702
_cell_length_b   7.24357925
_cell_length_c   4.22714800
_cell_angle_alpha   90.00000000
_cell_angle_beta   90.00000000
_cell_angle_gamma   119.99630082
_symmetry_Int_Tables_number   1
_chemical_formula_structural   DyY2CdSi2Ag3
_chemical_formula_sum   'Dy1 Y2 Cd1 Si2 Ag3'
_cell_volume   192.10962828
_cell_formula_units_Z   1
loop_
 _symmetry_equiv_pos_site_id
 _symmetry_equiv_pos_as_xyz
  1  'x, y, z'
loop_
 _atom_site_type_symbol
 _atom_site_label
 _atom_site_symmetry_multiplicity
 _atom_site_fract_x
 _atom_site_fract_y
 _atom_site_fract_z
 _atom_site_occupancy
  Dy  Dy0  1  0.000000  0.573555  0.500000  1
  Y  Y1  1  0.426405  0.426433  0.500000  1
  Y  Y2  1  0.573595  0.000028  0.500000  1
  Cd  Cd3  1  0.000000  0.999854  0.500000  1
  Si  Si4  1  0.666773  0.333419  0.000000  1
  Si  Si5  1  0.333227  0.666647  0.000000  1
  Ag  Ag6  1  0.736321  0.736248  0.000000  1
  Ag  Ag7  1  0.263679  0.999927  0.000000  1
  Ag  Ag8  1  0.000000  0.263887  0.000000  1
