# generated using pymatgen
data_La8Tb12Si15Os
_symmetry_space_group_name_H-M   'P 1'
_cell_length_a   7.88410734
_cell_length_b   7.82620595
_cell_length_c   14.62971200
_cell_angle_alpha   90.02034510
_cell_angle_beta   89.77399520
_cell_angle_gamma   90.30858696
_symmetry_Int_Tables_number   1
_chemical_formula_structural   La8Tb12Si15Os
_chemical_formula_sum   'La8 Tb12 Si15 Os1'
_cell_volume   902.67180031
_cell_formula_units_Z   1
loop_
 _symmetry_equiv_pos_site_id
 _symmetry_equiv_pos_as_xyz
  1  'x, y, z'
loop_
 _atom_site_type_symbol
 _atom_site_label
 _atom_site_symmetry_multiplicity
 _atom_site_fract_x
 _atom_site_fract_y
 _atom_site_fract_z
 _atom_site_occupancy
  La  La0  1  0.991796  0.637399  0.044511  1
  La  La1  1  0.010708  0.371489  0.539385  1
  La  La2  1  0.640203  0.988314  0.957995  1
  La  La3  1  0.140397  0.511222  0.792375  1
  La  La4  1  0.867188  0.496107  0.299598  1
  La  La5  1  0.511255  0.140777  0.206847  1
  La  La6  1  0.492753  0.862488  0.706708  1
  La  La7  1  0.357302  0.004181  0.458401  1
  Tb  Tb8  1  0.359724  0.494269  0.378585  1
  Tb  Tb9  1  0.865744  0.003890  0.375641  1
  Tb  Tb10  1  0.989816  0.138289  0.124661  1
  Tb  Tb11  1  0.014689  0.860266  0.620372  1
  Tb  Tb12  1  0.637585  0.511296  0.875669  1
  Tb  Tb13  1  0.492992  0.361360  0.624870  1
  Tb  Tb14  1  0.507811  0.636569  0.124315  1
  Tb  Tb15  1  0.133799  0.990152  0.874652  1
  Tb  Tb16  1  0.693600  0.686108  0.497790  1
  Tb  Tb17  1  0.818395  0.182842  0.747660  1
  Tb  Tb18  1  0.177545  0.811931  0.256746  1
  Tb  Tb19  1  0.312734  0.314744  0.998579  1
  Si  Si20  1  0.930888  0.287813  0.937687  1
  Si  Si21  1  0.707866  0.068857  0.561310  1
  Si  Si22  1  0.214048  0.429427  0.188613  1
  Si  Si23  1  0.788590  0.568981  0.689894  1
  Si  Si24  1  0.431767  0.211907  0.811392  1
  Si  Si25  1  0.564979  0.789105  0.309002  1
  Si  Si26  1  0.288463  0.934569  0.061752  1
  Si  Si27  1  0.845565  0.796677  0.806623  1
  Si  Si28  1  0.156755  0.202935  0.305891  1
  Si  Si29  1  0.790473  0.848351  0.190383  1
  Si  Si30  1  0.300278  0.651476  0.559808  1
  Si  Si31  1  0.701124  0.344067  0.054416  1
  Si  Si32  1  0.650891  0.291911  0.442539  1
  Si  Si33  1  0.343369  0.703280  0.943747  1
  Si  Si34  1  0.204420  0.157482  0.692844  1
  Os  Os35  1  0.064486  0.709471  0.438738  1
