# generated using pymatgen
data_Er2Ga9Pd2Ru
_symmetry_space_group_name_H-M   'P 1'
_cell_length_a   7.60946567
_cell_length_b   7.60946575
_cell_length_c   9.55866133
_cell_angle_alpha   89.88636158
_cell_angle_beta   89.88635777
_cell_angle_gamma   119.85700804
_symmetry_Int_Tables_number   1
_chemical_formula_structural   Er2Ga9Pd2Ru
_chemical_formula_sum   'Er4 Ga18 Pd4 Ru2'
_cell_volume   480.01697770
_cell_formula_units_Z   2
loop_
 _symmetry_equiv_pos_site_id
 _symmetry_equiv_pos_as_xyz
  1  'x, y, z'
loop_
 _atom_site_type_symbol
 _atom_site_label
 _atom_site_symmetry_multiplicity
 _atom_site_fract_x
 _atom_site_fract_y
 _atom_site_fract_z
 _atom_site_occupancy
  Er  Er0  1  0.997118  0.668870  0.250786  1
  Er  Er1  1  0.002882  0.331130  0.749214  1
  Er  Er2  1  0.668870  0.997118  0.250786  1
  Er  Er3  1  0.331130  0.002882  0.749214  1
  Ga  Ga4  1  0.128518  0.128518  0.251028  1
  Ga  Ga5  1  0.871482  0.871482  0.748972  1
  Ga  Ga6  1  0.000736  0.334348  0.083262  1
  Ga  Ga7  1  0.999264  0.665652  0.916738  1
  Ga  Ga8  1  0.000118  0.660537  0.577433  1
  Ga  Ga9  1  0.339463  0.999882  0.422567  1
  Ga  Ga10  1  0.999882  0.339463  0.422567  1
  Ga  Ga11  1  0.660537  0.000118  0.577433  1
  Ga  Ga12  1  0.665652  0.999264  0.916738  1
  Ga  Ga13  1  0.334348  0.000736  0.083262  1
  Ga  Ga14  1  0.336739  0.336739  0.563869  1
  Ga  Ga15  1  0.663261  0.663261  0.436131  1
  Ga  Ga16  1  0.665407  0.665407  0.071985  1
  Ga  Ga17  1  0.334593  0.334593  0.928015  1
  Ga  Ga18  1  0.336877  0.546925  0.254403  1
  Ga  Ga19  1  0.663123  0.453075  0.745597  1
  Ga  Ga20  1  0.546925  0.336877  0.254403  1
  Ga  Ga21  1  0.453075  0.663123  0.745597  1
  Pd  Pd22  1  0.671139  0.328861  0.000000  1
  Pd  Pd23  1  0.328861  0.671139  0.000000  1
  Pd  Pd24  1  0.000000  0.000000  0.000000  1
  Pd  Pd25  1  0.000000  0.000000  0.500000  1
  Ru  Ru26  1  0.327245  0.672755  0.500000  1
  Ru  Ru27  1  0.672755  0.327245  0.500000  1
