# generated using pymatgen
data_Tm2Ga3AsRh8
_symmetry_space_group_name_H-M   'P 1'
_cell_length_a   4.22792700
_cell_length_b   9.23049000
_cell_length_c   11.37889000
_cell_angle_alpha   90.00000000
_cell_angle_beta   90.00000000
_cell_angle_gamma   90.00000000
_symmetry_Int_Tables_number   1
_chemical_formula_structural   Tm2Ga3AsRh8
_chemical_formula_sum   'Tm4 Ga6 As2 Rh16'
_cell_volume   444.07071656
_cell_formula_units_Z   2
loop_
 _symmetry_equiv_pos_site_id
 _symmetry_equiv_pos_as_xyz
  1  'x, y, z'
loop_
 _atom_site_type_symbol
 _atom_site_label
 _atom_site_symmetry_multiplicity
 _atom_site_fract_x
 _atom_site_fract_y
 _atom_site_fract_z
 _atom_site_occupancy
  Tm  Tm0  1  0.250000  0.142216  0.825645  1
  Tm  Tm1  1  0.250000  0.357784  0.325645  1
  Tm  Tm2  1  0.750000  0.851756  0.174014  1
  Tm  Tm3  1  0.750000  0.648244  0.674014  1
  Ga  Ga4  1  0.750000  0.587891  0.363311  1
  Ga  Ga5  1  0.750000  0.912109  0.863311  1
  Ga  Ga6  1  0.250000  0.612315  0.060372  1
  Ga  Ga7  1  0.250000  0.887685  0.560372  1
  Ga  Ga8  1  0.750000  0.387333  0.940142  1
  Ga  Ga9  1  0.750000  0.112667  0.440142  1
  As  As10  1  0.250000  0.414318  0.636374  1
  As  As11  1  0.250000  0.085682  0.136374  1
  Rh  Rh12  1  0.250000  0.615506  0.501262  1
  Rh  Rh13  1  0.250000  0.884494  0.001262  1
  Rh  Rh14  1  0.750000  0.380479  0.499363  1
  Rh  Rh15  1  0.750000  0.119521  0.999363  1
  Rh  Rh16  1  0.250000  0.701573  0.273092  1
  Rh  Rh17  1  0.250000  0.798427  0.773092  1
  Rh  Rh18  1  0.750000  0.299660  0.728140  1
  Rh  Rh19  1  0.750000  0.200340  0.228140  1
  Rh  Rh20  1  0.250000  0.174291  0.564452  1
  Rh  Rh21  1  0.250000  0.325709  0.064452  1
  Rh  Rh22  1  0.750000  0.832295  0.437332  1
  Rh  Rh23  1  0.750000  0.667705  0.937332  1
  Rh  Rh24  1  0.250000  0.006432  0.338316  1
  Rh  Rh25  1  0.250000  0.493568  0.838316  1
  Rh  Rh26  1  0.750000  0.998210  0.658187  1
  Rh  Rh27  1  0.750000  0.501790  0.158187  1
