# generated using pymatgen
data_Rb16Hf3TiSe16
_symmetry_space_group_name_H-M   'P 1'
_cell_length_a   8.84188732
_cell_length_b   10.52475900
_cell_length_c   15.60891508
_cell_angle_alpha   90.00000000
_cell_angle_beta   90.08291392
_cell_angle_gamma   90.00000000
_symmetry_Int_Tables_number   1
_chemical_formula_structural   Rb16Hf3TiSe16
_chemical_formula_sum   'Rb16 Hf3 Ti1 Se16'
_cell_volume   1452.54434189
_cell_formula_units_Z   1
loop_
 _symmetry_equiv_pos_site_id
 _symmetry_equiv_pos_as_xyz
  1  'x, y, z'
loop_
 _atom_site_type_symbol
 _atom_site_label
 _atom_site_symmetry_multiplicity
 _atom_site_fract_x
 _atom_site_fract_y
 _atom_site_fract_z
 _atom_site_occupancy
  Rb  Rb0  1  0.001092  0.001246  0.999269  1
  Rb  Rb1  1  0.499977  0.999773  0.500052  1
  Rb  Rb2  1  0.001092  0.498754  0.999269  1
  Rb  Rb3  1  0.499977  0.500227  0.500052  1
  Rb  Rb4  1  0.984766  0.750000  0.427038  1
  Rb  Rb5  1  0.483461  0.250000  0.071944  1
  Rb  Rb6  1  0.015985  0.250000  0.573818  1
  Rb  Rb7  1  0.514481  0.750000  0.926515  1
  Rb  Rb8  1  0.840017  0.054298  0.277746  1
  Rb  Rb9  1  0.339953  0.945895  0.222395  1
  Rb  Rb10  1  0.160530  0.551627  0.723135  1
  Rb  Rb11  1  0.659194  0.444453  0.778063  1
  Rb  Rb12  1  0.160530  0.948373  0.723135  1
  Rb  Rb13  1  0.659194  0.055547  0.778063  1
  Rb  Rb14  1  0.840017  0.445702  0.277746  1
  Rb  Rb15  1  0.339953  0.554105  0.222395  1
  Hf  Hf16  1  0.757874  0.750000  0.665966  1
  Hf  Hf17  1  0.242299  0.250000  0.334215  1
  Hf  Hf18  1  0.742128  0.750000  0.165768  1
  Ti  Ti19  1  0.257971  0.250000  0.833909  1
  Se  Se20  1  0.983769  0.250000  0.824535  1
  Se  Se21  1  0.528125  0.250000  0.324332  1
  Se  Se22  1  0.471951  0.750000  0.675869  1
  Se  Se23  1  0.027971  0.750000  0.175731  1
  Se  Se24  1  0.654243  0.552141  0.089655  1
  Se  Se25  1  0.154806  0.447806  0.410075  1
  Se  Se26  1  0.342282  0.061013  0.906811  1
  Se  Se27  1  0.845008  0.947923  0.589963  1
  Se  Se28  1  0.342282  0.438987  0.906811  1
  Se  Se29  1  0.845008  0.552077  0.589963  1
  Se  Se30  1  0.654243  0.947859  0.089655  1
  Se  Se31  1  0.154806  0.052194  0.410075  1
  Se  Se32  1  0.630016  0.750000  0.315604  1
  Se  Se33  1  0.129746  0.250000  0.184235  1
  Se  Se34  1  0.365421  0.250000  0.690138  1
  Se  Se35  1  0.869830  0.750000  0.816052  1
