# generated using pymatgen
data_HoCuAuO4
_symmetry_space_group_name_H-M   'P 1'
_cell_length_a   6.42974981
_cell_length_b   6.42974992
_cell_length_c   6.46803272
_cell_angle_alpha   126.03450155
_cell_angle_beta   126.08470695
_cell_angle_gamma   79.38187713
_symmetry_Int_Tables_number   1
_chemical_formula_structural   HoCuAuO4
_chemical_formula_sum   'Ho2 Cu2 Au2 O8'
_cell_volume   169.28124615
_cell_formula_units_Z   2
loop_
 _symmetry_equiv_pos_site_id
 _symmetry_equiv_pos_as_xyz
  1  'x, y, z'
loop_
 _atom_site_type_symbol
 _atom_site_label
 _atom_site_symmetry_multiplicity
 _atom_site_fract_x
 _atom_site_fract_y
 _atom_site_fract_z
 _atom_site_occupancy
  Ho  Ho0  1  0.000034  0.000034  0.000000  1
  Ho  Ho1  1  0.749966  0.249966  0.500000  1
  Cu  Cu2  1  0.375000  0.625000  0.250000  1
  Cu  Cu3  1  0.375000  0.125000  0.750000  1
  Au  Au4  1  0.375000  0.625000  0.750000  1
  Au  Au5  1  0.875000  0.625000  0.250000  1
  O  O6  1  0.741420  0.284672  0.141630  1
  O  O7  1  0.143042  0.599790  0.858370  1
  O  O8  1  0.008580  0.965328  0.358370  1
  O  O9  1  0.606958  0.650210  0.641630  1
  O  O10  1  0.046458  0.385105  0.035715  1
  O  O11  1  0.349390  0.010744  0.964285  1
  O  O12  1  0.400610  0.239256  0.535715  1
  O  O13  1  0.703542  0.864895  0.464285  1
