# generated using pymatgen
data_Ca14Ta2Si3GeN18
_symmetry_space_group_name_H-M   'P 1'
_cell_length_a   10.00320500
_cell_length_b   6.07465731
_cell_length_c   9.05332845
_cell_angle_alpha   87.98411002
_cell_angle_beta   90.00000000
_cell_angle_gamma   90.00000000
_symmetry_Int_Tables_number   1
_chemical_formula_structural   Ca14Ta2Si3GeN18
_chemical_formula_sum   'Ca14 Ta2 Si3 Ge1 N18'
_cell_volume   549.79446703
_cell_formula_units_Z   1
loop_
 _symmetry_equiv_pos_site_id
 _symmetry_equiv_pos_as_xyz
  1  'x, y, z'
loop_
 _atom_site_type_symbol
 _atom_site_label
 _atom_site_symmetry_multiplicity
 _atom_site_fract_x
 _atom_site_fract_y
 _atom_site_fract_z
 _atom_site_occupancy
  Ca  Ca0  1  0.939591  0.429403  0.164767  1
  Ca  Ca1  1  0.077471  0.248738  0.494485  1
  Ca  Ca2  1  0.250000  0.088975  0.799392  1
  Ca  Ca3  1  0.446911  0.567830  0.830343  1
  Ca  Ca4  1  0.577184  0.751840  0.504181  1
  Ca  Ca5  1  0.579256  0.066355  0.828966  1
  Ca  Ca6  1  0.920744  0.066355  0.828966  1
  Ca  Ca7  1  0.423914  0.928965  0.169143  1
  Ca  Ca8  1  0.422529  0.248738  0.494485  1
  Ca  Ca9  1  0.076086  0.928965  0.169143  1
  Ca  Ca10  1  0.922816  0.751840  0.504181  1
  Ca  Ca11  1  0.053089  0.567830  0.830343  1
  Ca  Ca12  1  0.750000  0.908372  0.199659  1
  Ca  Ca13  1  0.560409  0.429403  0.164767  1
  Ta  Ta14  1  0.750000  0.279863  0.439428  1
  Ta  Ta15  1  0.250000  0.720089  0.562459  1
  Si  Si16  1  0.750000  0.458998  0.721721  1
  Si  Si17  1  0.750000  0.675257  0.938027  1
  Si  Si18  1  0.250000  0.544810  0.281549  1
  Ge  Ge19  1  0.250000  0.325035  0.058457  1
  N  N20  1  0.409829  0.228235  0.977281  1
  N  N21  1  0.250000  0.248541  0.269248  1
  N  N22  1  0.900568  0.116087  0.342903  1
  N  N23  1  0.611346  0.365358  0.628257  1
  N  N24  1  0.750000  0.557188  0.332201  1
  N  N25  1  0.250000  0.639111  0.090724  1
  N  N26  1  0.888654  0.365358  0.628257  1
  N  N27  1  0.389025  0.637364  0.374303  1
  N  N28  1  0.750000  0.379452  0.914476  1
  N  N29  1  0.098629  0.883639  0.657957  1
  N  N30  1  0.750000  0.752764  0.741382  1
  N  N31  1  0.110975  0.637364  0.374303  1
  N  N32  1  0.601230  0.765758  0.018242  1
  N  N33  1  0.250000  0.442401  0.669620  1
  N  N34  1  0.401371  0.883639  0.657957  1
  N  N35  1  0.599432  0.116087  0.342903  1
  N  N36  1  0.090171  0.228235  0.977281  1
  N  N37  1  0.898770  0.765758  0.018242  1
