# generated using pymatgen
data_Pr12InNi6
_symmetry_space_group_name_H-M   'P 1'
_cell_length_a   8.80946687
_cell_length_b   8.80946746
_cell_length_c   8.80946800
_cell_angle_alpha   109.47121958
_cell_angle_beta   109.47122094
_cell_angle_gamma   109.47122223
_symmetry_Int_Tables_number   1
_chemical_formula_structural   Pr12InNi6
_chemical_formula_sum   'Pr12 In1 Ni6'
_cell_volume   526.29236467
_cell_formula_units_Z   1
loop_
 _symmetry_equiv_pos_site_id
 _symmetry_equiv_pos_as_xyz
  1  'x, y, z'
loop_
 _atom_site_type_symbol
 _atom_site_label
 _atom_site_symmetry_multiplicity
 _atom_site_fract_x
 _atom_site_fract_y
 _atom_site_fract_z
 _atom_site_occupancy
  Pr  Pr0  1  0.815649  0.692330  0.507979  1
  Pr  Pr1  1  0.184351  0.307670  0.492021  1
  Pr  Pr2  1  0.184351  0.692330  0.876680  1
  Pr  Pr3  1  0.815649  0.307670  0.123320  1
  Pr  Pr4  1  0.692330  0.507979  0.815649  1
  Pr  Pr5  1  0.307670  0.492021  0.184351  1
  Pr  Pr6  1  0.692330  0.876680  0.184351  1
  Pr  Pr7  1  0.307670  0.123320  0.815649  1
  Pr  Pr8  1  0.507979  0.815649  0.692330  1
  Pr  Pr9  1  0.492021  0.184351  0.307670  1
  Pr  Pr10  1  0.123320  0.815649  0.307670  1
  Pr  Pr11  1  0.876680  0.184351  0.692330  1
  In  In12  1  0.000000  0.000000  0.000000  1
  Ni  Ni13  1  0.879874  0.379874  0.500000  1
  Ni  Ni14  1  0.120126  0.620126  0.500000  1
  Ni  Ni15  1  0.379874  0.500000  0.879874  1
  Ni  Ni16  1  0.620126  0.500000  0.120126  1
  Ni  Ni17  1  0.500000  0.879874  0.379874  1
  Ni  Ni18  1  0.500000  0.120126  0.620126  1
