# generated using pymatgen
data_Pr2Nd3MoRuO12
_symmetry_space_group_name_H-M   'P 1'
_cell_length_a   7.09530197
_cell_length_b   7.08827686
_cell_length_c   7.84200397
_cell_angle_alpha   73.87376403
_cell_angle_beta   73.67152507
_cell_angle_gamma   49.07679469
_symmetry_Int_Tables_number   1
_chemical_formula_structural   Pr2Nd3MoRuO12
_chemical_formula_sum   'Pr2 Nd3 Mo1 Ru1 O12'
_cell_volume   283.59310202
_cell_formula_units_Z   1
loop_
 _symmetry_equiv_pos_site_id
 _symmetry_equiv_pos_as_xyz
  1  'x, y, z'
loop_
 _atom_site_type_symbol
 _atom_site_label
 _atom_site_symmetry_multiplicity
 _atom_site_fract_x
 _atom_site_fract_y
 _atom_site_fract_z
 _atom_site_occupancy
  Pr  Pr0  1  0.306185  0.318759  0.829766  1
  Pr  Pr1  1  0.991239  0.008635  0.499939  1
  Nd  Nd2  1  0.294005  0.320742  0.355580  1
  Nd  Nd3  1  0.678755  0.706318  0.642484  1
  Nd  Nd4  1  0.681398  0.693011  0.169851  1
  Mo  Mo5  1  0.800165  0.200016  0.999647  1
  Ru  Ru6  1  0.238655  0.761662  0.001699  1
  O  O7  1  0.083809  0.598482  0.579136  1
  O  O8  1  0.006258  0.993783  0.194215  1
  O  O9  1  0.402056  0.914440  0.419634  1
  O  O10  1  0.510477  0.488456  0.170618  1
  O  O11  1  0.088388  0.580758  0.081651  1
  O  O12  1  0.892615  0.414121  0.424918  1
  O  O13  1  0.005197  0.996028  0.804684  1
  O  O14  1  0.586400  0.106035  0.572666  1
  O  O15  1  0.510042  0.492058  0.832265  1
  O  O16  1  0.597968  0.093841  0.078565  1
  O  O17  1  0.421753  0.909388  0.919408  1
  O  O18  1  0.904633  0.403464  0.923276  1
