# generated using pymatgen
data_Cs3Na2HfBi3
_symmetry_space_group_name_H-M   'P 1'
_cell_length_a   11.98638899
_cell_length_b   11.98638823
_cell_length_c   17.95271000
_cell_angle_alpha   90.00000000
_cell_angle_beta   90.00000000
_cell_angle_gamma   142.93144863
_symmetry_Int_Tables_number   1
_chemical_formula_structural   Cs3Na2HfBi3
_chemical_formula_sum   'Cs12 Na8 Hf4 Bi12'
_cell_volume   1554.74237960
_cell_formula_units_Z   4
loop_
 _symmetry_equiv_pos_site_id
 _symmetry_equiv_pos_as_xyz
  1  'x, y, z'
loop_
 _atom_site_type_symbol
 _atom_site_label
 _atom_site_symmetry_multiplicity
 _atom_site_fract_x
 _atom_site_fract_y
 _atom_site_fract_z
 _atom_site_occupancy
  Cs  Cs0  1  0.946324  0.607513  0.827620  1
  Cs  Cs1  1  0.553676  0.892487  0.327620  1
  Cs  Cs2  1  0.392487  0.053676  0.172380  1
  Cs  Cs3  1  0.053676  0.392487  0.172380  1
  Cs  Cs4  1  0.892487  0.553676  0.327620  1
  Cs  Cs5  1  0.446324  0.107513  0.672380  1
  Cs  Cs6  1  0.607513  0.946324  0.827620  1
  Cs  Cs7  1  0.280107  0.280107  0.318902  1
  Cs  Cs8  1  0.780107  0.780107  0.181098  1
  Cs  Cs9  1  0.219893  0.219893  0.818902  1
  Cs  Cs10  1  0.719893  0.719893  0.681098  1
  Cs  Cs11  1  0.107513  0.446324  0.672380  1
  Na  Na12  1  0.919414  0.080586  0.000000  1
  Na  Na13  1  0.580586  0.419414  0.500000  1
  Na  Na14  1  0.080586  0.919414  0.000000  1
  Na  Na15  1  0.419414  0.580586  0.500000  1
  Na  Na16  1  0.753758  0.246242  0.000000  1
  Na  Na17  1  0.746242  0.253758  0.500000  1
  Na  Na18  1  0.246242  0.753758  0.000000  1
  Na  Na19  1  0.253758  0.746242  0.500000  1
  Hf  Hf20  1  0.585077  0.414923  0.000000  1
  Hf  Hf21  1  0.914923  0.085077  0.500000  1
  Hf  Hf22  1  0.414923  0.585077  0.000000  1
  Hf  Hf23  1  0.085077  0.914923  0.500000  1
  Bi  Bi24  1  0.875764  0.561050  0.095426  1
  Bi  Bi25  1  0.438950  0.124236  0.904574  1
  Bi  Bi26  1  0.624236  0.938950  0.595426  1
  Bi  Bi27  1  0.938950  0.624236  0.595426  1
  Bi  Bi28  1  0.124236  0.438950  0.904574  1
  Bi  Bi29  1  0.561050  0.875764  0.095426  1
  Bi  Bi30  1  0.375764  0.061050  0.404574  1
  Bi  Bi31  1  0.205834  0.205834  0.589571  1
  Bi  Bi32  1  0.705834  0.705834  0.910429  1
  Bi  Bi33  1  0.294166  0.294166  0.089571  1
  Bi  Bi34  1  0.061050  0.375764  0.404574  1
  Bi  Bi35  1  0.794166  0.794166  0.410429  1
