# generated using pymatgen
data_Pr3DyF12
_symmetry_space_group_name_H-M   'P 1'
_cell_length_a   4.55233911
_cell_length_b   6.74078462
_cell_length_c   7.18019400
_cell_angle_alpha   90.00000000
_cell_angle_beta   90.00000000
_cell_angle_gamma   88.83418119
_symmetry_Int_Tables_number   1
_chemical_formula_structural   Pr3DyF12
_chemical_formula_sum   'Pr3 Dy1 F12'
_cell_volume   220.28824703
_cell_formula_units_Z   1
loop_
 _symmetry_equiv_pos_site_id
 _symmetry_equiv_pos_as_xyz
  1  'x, y, z'
loop_
 _atom_site_type_symbol
 _atom_site_label
 _atom_site_symmetry_multiplicity
 _atom_site_fract_x
 _atom_site_fract_y
 _atom_site_fract_z
 _atom_site_occupancy
  Pr  Pr0  1  0.430165  0.367730  0.250000  1
  Pr  Pr1  1  0.558889  0.636183  0.750000  1
  Pr  Pr2  1  0.938010  0.128724  0.750000  1
  Dy  Dy3  1  0.054016  0.866263  0.250000  1
  F  F4  1  0.607241  0.019451  0.250000  1
  F  F5  1  0.426668  0.985504  0.750000  1
  F  F6  1  0.077572  0.478089  0.750000  1
  F  F7  1  0.915860  0.530454  0.250000  1
  F  F8  1  0.123279  0.148625  0.068391  1
  F  F9  1  0.884447  0.833135  0.941547  1
  F  F10  1  0.615569  0.338433  0.938446  1
  F  F11  1  0.884447  0.833135  0.558453  1
  F  F12  1  0.372495  0.673608  0.067187  1
  F  F13  1  0.123279  0.148625  0.431609  1
  F  F14  1  0.372495  0.673608  0.432813  1
  F  F15  1  0.615569  0.338433  0.561554  1
