# generated using pymatgen
data_TiAlCr3S8
_symmetry_space_group_name_H-M   'P 1'
_cell_length_a   7.00498740
_cell_length_b   7.00498698
_cell_length_c   7.00498700
_cell_angle_alpha   60.56403995
_cell_angle_beta   60.56405126
_cell_angle_gamma   60.56404691
_symmetry_Int_Tables_number   1
_chemical_formula_structural   TiAlCr3S8
_chemical_formula_sum   'Ti1 Al1 Cr3 S8'
_cell_volume   246.15341388
_cell_formula_units_Z   1
loop_
 _symmetry_equiv_pos_site_id
 _symmetry_equiv_pos_as_xyz
  1  'x, y, z'
loop_
 _atom_site_type_symbol
 _atom_site_label
 _atom_site_symmetry_multiplicity
 _atom_site_fract_x
 _atom_site_fract_y
 _atom_site_fract_z
 _atom_site_occupancy
  Ti  Ti0  1  0.395571  0.395571  0.395571  1
  Al  Al1  1  0.996101  0.996101  0.996101  1
  Cr  Cr2  1  0.856199  0.379617  0.379617  1
  Cr  Cr3  1  0.379617  0.856199  0.379617  1
  Cr  Cr4  1  0.379617  0.379617  0.856199  1
  S  S5  1  0.130351  0.130351  0.130351  1
  S  S6  1  0.596375  0.132961  0.132961  1
  S  S7  1  0.132961  0.596375  0.132961  1
  S  S8  1  0.132961  0.132961  0.596375  1
  S  S9  1  0.615180  0.615180  0.615180  1
  S  S10  1  0.133124  0.625971  0.625971  1
  S  S11  1  0.625971  0.133124  0.625971  1
  S  S12  1  0.625971  0.625971  0.133124  1
