# generated using pymatgen
data_YbEr2ThSe4
_symmetry_space_group_name_H-M   'P 1'
_cell_length_a   13.78663725
_cell_length_b   13.78663716
_cell_length_c   13.78663800
_cell_angle_alpha   17.06646786
_cell_angle_beta   17.06647023
_cell_angle_gamma   17.06646746
_symmetry_Int_Tables_number   1
_chemical_formula_structural   YbEr2ThSe4
_chemical_formula_sum   'Yb1 Er2 Th1 Se4'
_cell_volume   196.90836974
_cell_formula_units_Z   1
loop_
 _symmetry_equiv_pos_site_id
 _symmetry_equiv_pos_as_xyz
  1  'x, y, z'
loop_
 _atom_site_type_symbol
 _atom_site_label
 _atom_site_symmetry_multiplicity
 _atom_site_fract_x
 _atom_site_fract_y
 _atom_site_fract_z
 _atom_site_occupancy
  Yb  Yb0  1  0.000000  0.000000  0.000000  1
  Er  Er1  1  0.248627  0.248627  0.248627  1
  Er  Er2  1  0.751373  0.751373  0.751373  1
  Th  Th3  1  0.500000  0.500000  0.500000  1
  Se  Se4  1  0.375838  0.375838  0.375838  1
  Se  Se5  1  0.121821  0.121821  0.121821  1
  Se  Se6  1  0.624162  0.624162  0.624162  1
  Se  Se7  1  0.878179  0.878179  0.878179  1
