# generated using pymatgen
data_Zn8IrRh3
_symmetry_space_group_name_H-M   'P 1'
_cell_length_a   13.20992300
_cell_length_b   3.04027500
_cell_length_c   4.20580000
_cell_angle_alpha   90.00000000
_cell_angle_beta   90.00000000
_cell_angle_gamma   90.00000000
_symmetry_Int_Tables_number   1
_chemical_formula_structural   Zn8IrRh3
_chemical_formula_sum   'Zn8 Ir1 Rh3'
_cell_volume   168.91249276
_cell_formula_units_Z   1
loop_
 _symmetry_equiv_pos_site_id
 _symmetry_equiv_pos_as_xyz
  1  'x, y, z'
loop_
 _atom_site_type_symbol
 _atom_site_label
 _atom_site_symmetry_multiplicity
 _atom_site_fract_x
 _atom_site_fract_y
 _atom_site_fract_z
 _atom_site_occupancy
  Zn  Zn0  1  0.285148  0.000000  0.000000  1
  Zn  Zn1  1  0.953766  0.000000  0.000000  1
  Zn  Zn2  1  0.453255  0.500001  0.000000  1
  Zn  Zn3  1  0.785175  0.500001  0.000000  1
  Zn  Zn4  1  0.159471  0.000000  0.500002  1
  Zn  Zn5  1  0.490319  0.000000  0.500002  1
  Zn  Zn6  1  0.659688  0.500001  0.500002  1
  Zn  Zn7  1  0.990739  0.500001  0.500002  1
  Ir  Ir8  1  0.618404  0.000000  0.000000  1
  Rh  Rh9  1  0.118688  0.500001  0.000000  1
  Rh  Rh10  1  0.826225  0.000000  0.500002  1
  Rh  Rh11  1  0.325762  0.500001  0.500002  1
