# generated using pymatgen
data_Pr6P13Rh20
_symmetry_space_group_name_H-M   'P 1'
_cell_length_a   13.49856200
_cell_length_b   13.49856097
_cell_length_c   3.98454600
_cell_angle_alpha   90.00000000
_cell_angle_beta   90.00000000
_cell_angle_gamma   119.99999761
_symmetry_Int_Tables_number   1
_chemical_formula_structural   Pr6P13Rh20
_chemical_formula_sum   'Pr6 P13 Rh20'
_cell_volume   628.75936310
_cell_formula_units_Z   1
loop_
 _symmetry_equiv_pos_site_id
 _symmetry_equiv_pos_as_xyz
  1  'x, y, z'
loop_
 _atom_site_type_symbol
 _atom_site_label
 _atom_site_symmetry_multiplicity
 _atom_site_fract_x
 _atom_site_fract_y
 _atom_site_fract_z
 _atom_site_occupancy
  Pr  Pr0  1  0.530247  0.717343  0.246993  1
  Pr  Pr1  1  0.282657  0.812904  0.246993  1
  Pr  Pr2  1  0.187096  0.469753  0.246993  1
  Pr  Pr3  1  0.469753  0.282657  0.753007  1
  Pr  Pr4  1  0.717343  0.187096  0.753007  1
  Pr  Pr5  1  0.812904  0.530247  0.753007  1
  P  P6  1  0.521681  0.135456  0.251036  1
  P  P7  1  0.864544  0.386226  0.251036  1
  P  P8  1  0.613774  0.478319  0.251036  1
  P  P9  1  0.948625  0.719730  0.255238  1
  P  P10  1  0.280270  0.228895  0.255238  1
  P  P11  1  0.771105  0.051375  0.255238  1
  P  P12  1  0.386226  0.521681  0.748964  1
  P  P13  1  0.478319  0.864544  0.748964  1
  P  P14  1  0.135456  0.613774  0.748964  1
  P  P15  1  0.719730  0.771105  0.744762  1
  P  P16  1  0.228895  0.948625  0.744762  1
  P  P17  1  0.051375  0.280270  0.744762  1
  P  P18  1  0.000000  0.000000  0.000000  1
  Rh  Rh19  1  0.333333  0.666667  0.750704  1
  Rh  Rh20  1  0.923480  0.248711  0.256756  1
  Rh  Rh21  1  0.751289  0.674769  0.256756  1
  Rh  Rh22  1  0.325231  0.076520  0.256756  1
  Rh  Rh23  1  0.439163  0.024593  0.752183  1
  Rh  Rh24  1  0.975407  0.414572  0.752183  1
  Rh  Rh25  1  0.585428  0.560837  0.752183  1
  Rh  Rh26  1  0.666667  0.333333  0.249296  1
  Rh  Rh27  1  0.092608  0.184530  0.245140  1
  Rh  Rh28  1  0.815470  0.908077  0.245140  1
  Rh  Rh29  1  0.091923  0.907392  0.245140  1
  Rh  Rh30  1  0.024593  0.585428  0.247817  1
  Rh  Rh31  1  0.414572  0.439163  0.247817  1
  Rh  Rh32  1  0.560837  0.975407  0.247817  1
  Rh  Rh33  1  0.674769  0.923480  0.743244  1
  Rh  Rh34  1  0.076520  0.751289  0.743244  1
  Rh  Rh35  1  0.248711  0.325231  0.743244  1
  Rh  Rh36  1  0.907392  0.815470  0.754860  1
  Rh  Rh37  1  0.184530  0.091923  0.754860  1
  Rh  Rh38  1  0.908077  0.092608  0.754860  1
