# generated using pymatgen
data_ErNp3(WN2)4
_symmetry_space_group_name_H-M   'P 1'
_cell_length_a   3.17593600
_cell_length_b   5.61982967
_cell_length_c   10.84737253
_cell_angle_alpha   89.83878416
_cell_angle_beta   90.00000000
_cell_angle_gamma   90.00000000
_symmetry_Int_Tables_number   1
_chemical_formula_structural   ErNp3(WN2)4
_chemical_formula_sum   'Er1 Np3 W4 N8'
_cell_volume   193.60551798
_cell_formula_units_Z   1
loop_
 _symmetry_equiv_pos_site_id
 _symmetry_equiv_pos_as_xyz
  1  'x, y, z'
loop_
 _atom_site_type_symbol
 _atom_site_label
 _atom_site_symmetry_multiplicity
 _atom_site_fract_x
 _atom_site_fract_y
 _atom_site_fract_z
 _atom_site_occupancy
  Er  Er0  1  0.750000  0.425420  0.355184  1
  Np  Np1  1  0.250000  0.075230  0.856698  1
  Np  Np2  1  0.250000  0.570604  0.641463  1
  Np  Np3  1  0.750000  0.925324  0.143817  1
  W  W4  1  0.250000  0.430906  0.104636  1
  W  W5  1  0.250000  0.935214  0.401346  1
  W  W6  1  0.750000  0.568738  0.897609  1
  W  W7  1  0.750000  0.066704  0.600727  1
  N  N8  1  0.250000  0.164217  0.246726  1
  N  N9  1  0.250000  0.667953  0.256397  1
  N  N10  1  0.750000  0.832944  0.753742  1
  N  N11  1  0.750000  0.333593  0.744845  1
  N  N12  1  0.250000  0.753351  0.995571  1
  N  N13  1  0.250000  0.260283  0.502250  1
  N  N14  1  0.750000  0.245460  0.004942  1
  N  N15  1  0.750000  0.744059  0.494048  1
