# generated using pymatgen
data_Zr2InRh5
_symmetry_space_group_name_H-M   'P 1'
_cell_length_a   5.65587458
_cell_length_b   5.65587466
_cell_length_c   8.30249300
_cell_angle_alpha   90.00000000
_cell_angle_beta   90.00000000
_cell_angle_gamma   96.19876209
_symmetry_Int_Tables_number   1
_chemical_formula_structural   Zr2InRh5
_chemical_formula_sum   'Zr4 In2 Rh10'
_cell_volume   264.03495255
_cell_formula_units_Z   2
loop_
 _symmetry_equiv_pos_site_id
 _symmetry_equiv_pos_as_xyz
  1  'x, y, z'
loop_
 _atom_site_type_symbol
 _atom_site_label
 _atom_site_symmetry_multiplicity
 _atom_site_fract_x
 _atom_site_fract_y
 _atom_site_fract_z
 _atom_site_occupancy
  Zr  Zr0  1  0.778460  0.221540  0.500000  1
  Zr  Zr1  1  0.221540  0.778460  0.000000  1
  Zr  Zr2  1  0.221540  0.778460  0.500000  1
  Zr  Zr3  1  0.778460  0.221540  0.000000  1
  In  In4  1  0.501797  0.501797  0.750000  1
  In  In5  1  0.498203  0.498203  0.250000  1
  Rh  Rh6  1  0.735762  0.735762  0.000571  1
  Rh  Rh7  1  0.735762  0.735762  0.499429  1
  Rh  Rh8  1  0.264238  0.264238  0.999429  1
  Rh  Rh9  1  0.264238  0.264238  0.500571  1
  Rh  Rh10  1  0.499893  0.001104  0.750000  1
  Rh  Rh11  1  0.500107  0.998896  0.250000  1
  Rh  Rh12  1  0.000759  0.000759  0.250000  1
  Rh  Rh13  1  0.999241  0.999241  0.750000  1
  Rh  Rh14  1  0.001104  0.499893  0.750000  1
  Rh  Rh15  1  0.998896  0.500107  0.250000  1
