# generated using pymatgen
data_Y2ZnReOs2
_symmetry_space_group_name_H-M   'P 1'
_cell_length_a   5.40673651
_cell_length_b   5.29826417
_cell_length_c   8.89791400
_cell_angle_alpha   90.00000000
_cell_angle_beta   90.00000000
_cell_angle_gamma   119.33853964
_symmetry_Int_Tables_number   1
_chemical_formula_structural   Y2ZnReOs2
_chemical_formula_sum   'Y4 Zn2 Re2 Os4'
_cell_volume   222.19994143
_cell_formula_units_Z   2
loop_
 _symmetry_equiv_pos_site_id
 _symmetry_equiv_pos_as_xyz
  1  'x, y, z'
loop_
 _atom_site_type_symbol
 _atom_site_label
 _atom_site_symmetry_multiplicity
 _atom_site_fract_x
 _atom_site_fract_y
 _atom_site_fract_z
 _atom_site_occupancy
  Y  Y0  1  0.324174  0.662088  0.436013  1
  Y  Y1  1  0.656712  0.328356  0.558007  1
  Y  Y2  1  0.656712  0.328356  0.941993  1
  Y  Y3  1  0.324174  0.662088  0.063987  1
  Zn  Zn4  1  0.190104  0.839076  0.750000  1
  Zn  Zn5  1  0.190104  0.351028  0.750000  1
  Re  Re6  1  0.835013  0.168781  0.250000  1
  Re  Re7  1  0.835013  0.666231  0.250000  1
  Os  Os8  1  0.968823  0.984411  0.503633  1
  Os  Os9  1  0.968823  0.984411  0.996367  1
  Os  Os10  1  0.355775  0.177888  0.250000  1
  Os  Os11  1  0.694576  0.847288  0.750000  1
