# generated using pymatgen
data_Tb9Y3Ni4
_symmetry_space_group_name_H-M   'P 1'
_cell_length_a   6.35556065
_cell_length_b   6.86514315
_cell_length_c   9.63781101
_cell_angle_alpha   90.00193171
_cell_angle_beta   89.94764740
_cell_angle_gamma   90.09066809
_symmetry_Int_Tables_number   1
_chemical_formula_structural   Tb9Y3Ni4
_chemical_formula_sum   'Tb9 Y3 Ni4'
_cell_volume   420.51466460
_cell_formula_units_Z   1
loop_
 _symmetry_equiv_pos_site_id
 _symmetry_equiv_pos_as_xyz
  1  'x, y, z'
loop_
 _atom_site_type_symbol
 _atom_site_label
 _atom_site_symmetry_multiplicity
 _atom_site_fract_x
 _atom_site_fract_y
 _atom_site_fract_z
 _atom_site_occupancy
  Tb  Tb0  1  0.176885  0.177662  0.434749  1
  Tb  Tb1  1  0.676453  0.322508  0.565699  1
  Tb  Tb2  1  0.823074  0.822347  0.934234  1
  Tb  Tb3  1  0.676708  0.321677  0.934252  1
  Tb  Tb4  1  0.823483  0.822300  0.566012  1
  Tb  Tb5  1  0.322727  0.677784  0.434347  1
  Tb  Tb6  1  0.177226  0.177563  0.065359  1
  Tb  Tb7  1  0.141343  0.464188  0.749876  1
  Tb  Tb8  1  0.358007  0.964406  0.749567  1
  Y  Y9  1  0.323865  0.677815  0.064704  1
  Y  Y10  1  0.859782  0.534967  0.249611  1
  Y  Y11  1  0.639827  0.034437  0.250016  1
  Ni  Ni12  1  0.058827  0.891991  0.250443  1
  Ni  Ni13  1  0.441589  0.390550  0.250578  1
  Ni  Ni14  1  0.943655  0.109986  0.749821  1
  Ni  Ni15  1  0.556548  0.609818  0.750732  1
