# generated using pymatgen
data_Ce7(TmTc2)3
_symmetry_space_group_name_H-M   'P 1'
_cell_length_a   7.92705100
_cell_length_b   7.92705115
_cell_length_c   6.71977700
_cell_angle_alpha   90.00000000
_cell_angle_beta   90.00000000
_cell_angle_gamma   119.99999522
_symmetry_Int_Tables_number   1
_chemical_formula_structural   Ce7(TmTc2)3
_chemical_formula_sum   'Ce7 Tm3 Tc6'
_cell_volume   365.68641439
_cell_formula_units_Z   1
loop_
 _symmetry_equiv_pos_site_id
 _symmetry_equiv_pos_as_xyz
  1  'x, y, z'
loop_
 _atom_site_type_symbol
 _atom_site_label
 _atom_site_symmetry_multiplicity
 _atom_site_fract_x
 _atom_site_fract_y
 _atom_site_fract_z
 _atom_site_occupancy
  Ce  Ce0  1  0.666667  0.333333  0.500000  1
  Ce  Ce1  1  0.759529  0.761502  0.750048  1
  Ce  Ce2  1  0.238498  0.998027  0.750048  1
  Ce  Ce3  1  0.001973  0.240471  0.750048  1
  Ce  Ce4  1  0.238498  0.240471  0.249952  1
  Ce  Ce5  1  0.759529  0.998027  0.249952  1
  Ce  Ce6  1  0.001973  0.761502  0.249952  1
  Tm  Tm7  1  0.666667  0.333333  0.000000  1
  Tm  Tm8  1  0.333333  0.666667  0.000000  1
  Tm  Tm9  1  0.333333  0.666667  0.500000  1
  Tc  Tc10  1  0.366626  0.363523  0.747952  1
  Tc  Tc11  1  0.636477  0.003103  0.747952  1
  Tc  Tc12  1  0.996897  0.633374  0.747952  1
  Tc  Tc13  1  0.636477  0.633374  0.252048  1
  Tc  Tc14  1  0.366626  0.003103  0.252048  1
  Tc  Tc15  1  0.996897  0.363523  0.252048  1
