# generated using pymatgen
data_Lu5Zr5(Sn3S)2
_symmetry_space_group_name_H-M   'P 1'
_cell_length_a   8.75064278
_cell_length_b   8.72472656
_cell_length_c   6.16526500
_cell_angle_alpha   90.00000000
_cell_angle_beta   90.00000000
_cell_angle_gamma   119.90207836
_symmetry_Int_Tables_number   1
_chemical_formula_structural   Lu5Zr5(Sn3S)2
_chemical_formula_sum   'Lu5 Zr5 Sn6 S2'
_cell_volume   408.03915870
_cell_formula_units_Z   1
loop_
 _symmetry_equiv_pos_site_id
 _symmetry_equiv_pos_as_xyz
  1  'x, y, z'
loop_
 _atom_site_type_symbol
 _atom_site_label
 _atom_site_symmetry_multiplicity
 _atom_site_fract_x
 _atom_site_fract_y
 _atom_site_fract_z
 _atom_site_occupancy
  Lu  Lu0  1  0.751010  0.750105  0.750000  1
  Lu  Lu1  1  0.248990  0.999095  0.750000  1
  Lu  Lu2  1  0.000000  0.246603  0.750000  1
  Lu  Lu3  1  0.249775  0.250823  0.250000  1
  Lu  Lu4  1  0.750225  0.001048  0.250000  1
  Zr  Zr5  1  0.667138  0.335454  0.001315  1
  Zr  Zr6  1  0.332862  0.668317  0.001315  1
  Zr  Zr7  1  0.332862  0.668317  0.498685  1
  Zr  Zr8  1  0.667138  0.335454  0.498685  1
  Zr  Zr9  1  0.000000  0.749587  0.250000  1
  Sn  Sn10  1  0.400236  0.400611  0.750000  1
  Sn  Sn11  1  0.599764  0.000375  0.750000  1
  Sn  Sn12  1  0.000000  0.598497  0.750000  1
  Sn  Sn13  1  0.603873  0.602354  0.250000  1
  Sn  Sn14  1  0.396127  0.998480  0.250000  1
  Sn  Sn15  1  0.000000  0.402909  0.250000  1
  S  S16  1  0.000000  0.995985  0.002347  1
  S  S17  1  0.000000  0.995985  0.497653  1
