# generated using pymatgen
data_Nd3Mn(Ni4P3)2
_symmetry_space_group_name_H-M   'P 1'
_cell_length_a   3.85492700
_cell_length_b   10.66002000
_cell_length_c   12.50089200
_cell_angle_alpha   90.00000000
_cell_angle_beta   90.00000000
_cell_angle_gamma   90.00000000
_symmetry_Int_Tables_number   1
_chemical_formula_structural   Nd3Mn(Ni4P3)2
_chemical_formula_sum   'Nd6 Mn2 Ni16 P12'
_cell_volume   513.70664197
_cell_formula_units_Z   2
loop_
 _symmetry_equiv_pos_site_id
 _symmetry_equiv_pos_as_xyz
  1  'x, y, z'
loop_
 _atom_site_type_symbol
 _atom_site_label
 _atom_site_symmetry_multiplicity
 _atom_site_fract_x
 _atom_site_fract_y
 _atom_site_fract_z
 _atom_site_occupancy
  Nd  Nd0  1  0.000000  0.500000  0.519184  1
  Nd  Nd1  1  0.500000  0.000000  0.480816  1
  Nd  Nd2  1  0.500000  0.815385  0.204778  1
  Nd  Nd3  1  0.500000  0.184615  0.204778  1
  Nd  Nd4  1  0.000000  0.684615  0.795222  1
  Nd  Nd5  1  0.000000  0.315385  0.795222  1
  Mn  Mn6  1  0.500000  0.500000  0.151467  1
  Mn  Mn7  1  0.000000  0.000000  0.848533  1
  Ni  Ni8  1  0.500000  0.500000  0.700178  1
  Ni  Ni9  1  0.000000  0.000000  0.299822  1
  Ni  Ni10  1  0.000000  0.500000  0.983276  1
  Ni  Ni11  1  0.500000  0.000000  0.016724  1
  Ni  Ni12  1  0.500000  0.333140  0.993667  1
  Ni  Ni13  1  0.500000  0.666860  0.993667  1
  Ni  Ni14  1  0.000000  0.166860  0.006333  1
  Ni  Ni15  1  0.000000  0.833140  0.006333  1
  Ni  Ni16  1  0.500000  0.300406  0.426464  1
  Ni  Ni17  1  0.500000  0.699594  0.426464  1
  Ni  Ni18  1  0.000000  0.199594  0.573536  1
  Ni  Ni19  1  0.000000  0.800406  0.573536  1
  Ni  Ni20  1  0.500000  0.882217  0.712729  1
  Ni  Ni21  1  0.500000  0.117783  0.712729  1
  Ni  Ni22  1  0.000000  0.617783  0.287271  1
  Ni  Ni23  1  0.000000  0.382217  0.287271  1
  P  P24  1  0.500000  0.500000  0.879840  1
  P  P25  1  0.000000  0.000000  0.120160  1
  P  P26  1  0.500000  0.500000  0.340157  1
  P  P27  1  0.000000  0.000000  0.659843  1
  P  P28  1  0.500000  0.308920  0.612428  1
  P  P29  1  0.500000  0.691080  0.612428  1
  P  P30  1  0.000000  0.191080  0.387572  1
  P  P31  1  0.000000  0.808920  0.387572  1
  P  P32  1  0.500000  0.848217  0.896750  1
  P  P33  1  0.500000  0.151783  0.896750  1
  P  P34  1  0.000000  0.651783  0.103250  1
  P  P35  1  0.000000  0.348217  0.103250  1
