# generated using pymatgen
data_Pr4NdNb2BiO14
_symmetry_space_group_name_H-M   'P 1'
_cell_length_a   6.70249145
_cell_length_b   6.87007080
_cell_length_c   7.71695400
_cell_angle_alpha   90.00000000
_cell_angle_beta   90.00000000
_cell_angle_gamma   110.48734243
_symmetry_Int_Tables_number   1
_chemical_formula_structural   Pr4NdNb2BiO14
_chemical_formula_sum   'Pr4 Nd1 Nb2 Bi1 O14'
_cell_volume   332.86403826
_cell_formula_units_Z   1
loop_
 _symmetry_equiv_pos_site_id
 _symmetry_equiv_pos_as_xyz
  1  'x, y, z'
loop_
 _atom_site_type_symbol
 _atom_site_label
 _atom_site_symmetry_multiplicity
 _atom_site_fract_x
 _atom_site_fract_y
 _atom_site_fract_z
 _atom_site_occupancy
  Pr  Pr0  1  0.524882  0.075979  0.250000  1
  Pr  Pr1  1  0.073903  0.528678  0.250000  1
  Pr  Pr2  1  0.029420  0.042596  0.501096  1
  Pr  Pr3  1  0.029420  0.042596  0.998904  1
  Nd  Nd4  1  0.943374  0.492725  0.750000  1
  Nb  Nb5  1  0.510741  0.514224  0.497680  1
  Nb  Nb6  1  0.510741  0.514224  0.002320  1
  Bi  Bi7  1  0.473745  0.972595  0.750000  1
  O  O8  1  0.576820  0.539255  0.750000  1
  O  O9  1  0.421725  0.411571  0.250000  1
  O  O10  1  0.833868  0.127752  0.750000  1
  O  O11  1  0.148715  0.891518  0.250000  1
  O  O12  1  0.090802  0.853100  0.750000  1
  O  O13  1  0.894558  0.163052  0.250000  1
  O  O14  1  0.421300  0.167204  0.964830  1
  O  O15  1  0.560375  0.798876  0.452398  1
  O  O16  1  0.186916  0.430156  0.964593  1
  O  O17  1  0.800052  0.518833  0.459613  1
  O  O18  1  0.421300  0.167204  0.535170  1
  O  O19  1  0.560375  0.798876  0.047602  1
  O  O20  1  0.800052  0.518833  0.040387  1
  O  O21  1  0.186916  0.430156  0.535407  1
