# generated using pymatgen
data_Na2Ni7P4
_symmetry_space_group_name_H-M   'P 1'
_cell_length_a   3.60475300
_cell_length_b   9.13975500
_cell_length_c   10.34974600
_cell_angle_alpha   90.00000000
_cell_angle_beta   90.00000000
_cell_angle_gamma   90.00000000
_symmetry_Int_Tables_number   1
_chemical_formula_structural   Na2Ni7P4
_chemical_formula_sum   'Na4 Ni14 P8'
_cell_volume   340.98851987
_cell_formula_units_Z   2
loop_
 _symmetry_equiv_pos_site_id
 _symmetry_equiv_pos_as_xyz
  1  'x, y, z'
loop_
 _atom_site_type_symbol
 _atom_site_label
 _atom_site_symmetry_multiplicity
 _atom_site_fract_x
 _atom_site_fract_y
 _atom_site_fract_z
 _atom_site_occupancy
  Na  Na0  1  0.000000  0.060881  0.394244  1
  Na  Na1  1  0.500000  0.939119  0.894244  1
  Na  Na2  1  0.000000  0.443194  0.176253  1
  Na  Na3  1  0.500000  0.556806  0.676253  1
  Ni  Ni4  1  0.000000  0.059430  0.703161  1
  Ni  Ni5  1  0.500000  0.940570  0.203161  1
  Ni  Ni6  1  0.000000  0.727464  0.511610  1
  Ni  Ni7  1  0.500000  0.272536  0.011610  1
  Ni  Ni8  1  0.000000  0.097660  0.100748  1
  Ni  Ni9  1  0.500000  0.902340  0.600748  1
  Ni  Ni10  1  0.000000  0.753693  0.273399  1
  Ni  Ni11  1  0.500000  0.246307  0.773399  1
  Ni  Ni12  1  0.000000  0.302546  0.594883  1
  Ni  Ni13  1  0.500000  0.697454  0.094883  1
  Ni  Ni14  1  0.000000  0.684439  0.912720  1
  Ni  Ni15  1  0.500000  0.315561  0.412720  1
  Ni  Ni16  1  0.000000  0.412302  0.872841  1
  Ni  Ni17  1  0.500000  0.587698  0.372841  1
  P  P18  1  0.000000  0.176666  0.895804  1
  P  P19  1  0.500000  0.823334  0.395804  1
  P  P20  1  0.000000  0.846162  0.080560  1
  P  P21  1  0.500000  0.153838  0.580560  1
  P  P22  1  0.000000  0.811511  0.716245  1
  P  P23  1  0.500000  0.188489  0.216245  1
  P  P24  1  0.000000  0.476188  0.451631  1
  P  P25  1  0.500000  0.523812  0.951631  1
