# generated using pymatgen
data_Ca9Tb2Pr9Pb16
_symmetry_space_group_name_H-M   'P 1'
_cell_length_a   8.11314412
_cell_length_b   8.63174665
_cell_length_c   16.20778900
_cell_angle_alpha   89.97003698
_cell_angle_beta   89.77399831
_cell_angle_gamma   90.10477816
_symmetry_Int_Tables_number   1
_chemical_formula_structural   Ca9Tb2Pr9Pb16
_chemical_formula_sum   'Ca9 Tb2 Pr9 Pb16'
_cell_volume   1135.03037407
_cell_formula_units_Z   1
loop_
 _symmetry_equiv_pos_site_id
 _symmetry_equiv_pos_as_xyz
  1  'x, y, z'
loop_
 _atom_site_type_symbol
 _atom_site_label
 _atom_site_symmetry_multiplicity
 _atom_site_fract_x
 _atom_site_fract_y
 _atom_site_fract_z
 _atom_site_occupancy
  Ca  Ca0  1  0.669732  0.163896  0.622386  1
  Ca  Ca1  1  0.169389  0.335956  0.878005  1
  Ca  Ca2  1  0.331585  0.835379  0.122170  1
  Ca  Ca3  1  0.829239  0.664594  0.376138  1
  Ca  Ca4  1  0.332942  0.833507  0.376308  1
  Ca  Ca5  1  0.836023  0.500280  0.751060  1
  Ca  Ca6  1  0.336647  0.001026  0.750440  1
  Ca  Ca7  1  0.163755  0.502644  0.250860  1
  Ca  Ca8  1  0.663259  0.998471  0.249880  1
  Tb  Tb9  1  0.835564  0.669352  0.124028  1
  Tb  Tb10  1  0.666123  0.168993  0.877191  1
  Pr  Pr11  1  0.166585  0.330746  0.624294  1
  Pr  Pr12  1  0.503624  0.688063  0.593809  1
  Pr  Pr13  1  0.003232  0.814181  0.906009  1
  Pr  Pr14  1  0.495711  0.313503  0.093710  1
  Pr  Pr15  1  0.994793  0.186380  0.403631  1
  Pr  Pr16  1  0.496333  0.313084  0.405244  1
  Pr  Pr17  1  0.999823  0.185522  0.094981  1
  Pr  Pr18  1  0.502305  0.685431  0.906636  1
  Pr  Pr19  1  0.003038  0.814664  0.595038  1
  Pb  Pb20  1  0.680166  0.961288  0.458664  1
  Pb  Pb21  1  0.176656  0.538552  0.042163  1
  Pb  Pb22  1  0.323709  0.038669  0.958080  1
  Pb  Pb23  1  0.819436  0.463432  0.540735  1
  Pb  Pb24  1  0.321922  0.036330  0.539195  1
  Pb  Pb25  1  0.815943  0.460497  0.962342  1
  Pb  Pb26  1  0.685449  0.960453  0.038864  1
  Pb  Pb27  1  0.177773  0.537575  0.459063  1
  Pb  Pb28  1  0.472528  0.388188  0.749600  1
  Pb  Pb29  1  0.968021  0.108773  0.753476  1
  Pb  Pb30  1  0.531526  0.607608  0.246128  1
  Pb  Pb31  1  0.028414  0.888660  0.249896  1
  Pb  Pb32  1  0.703470  0.854523  0.752201  1
  Pb  Pb33  1  0.206540  0.647581  0.750196  1
  Pb  Pb34  1  0.293805  0.147371  0.249722  1
  Pb  Pb35  1  0.794939  0.354828  0.247859  1
