# generated using pymatgen
data_LaTb4SmTa2O14
_symmetry_space_group_name_H-M   'P 1'
_cell_length_a   6.52656088
_cell_length_b   6.52656145
_cell_length_c   7.61880823
_cell_angle_alpha   89.97725250
_cell_angle_beta   90.02274742
_cell_angle_gamma   109.21948193
_symmetry_Int_Tables_number   1
_chemical_formula_structural   LaTb4SmTa2O14
_chemical_formula_sum   'La1 Tb4 Sm1 Ta2 O14'
_cell_volume   306.44283758
_cell_formula_units_Z   1
loop_
 _symmetry_equiv_pos_site_id
 _symmetry_equiv_pos_as_xyz
  1  'x, y, z'
loop_
 _atom_site_type_symbol
 _atom_site_label
 _atom_site_symmetry_multiplicity
 _atom_site_fract_x
 _atom_site_fract_y
 _atom_site_fract_z
 _atom_site_occupancy
  La  La0  1  0.500000  0.500000  0.500000  1
  Tb  Tb1  1  0.533901  0.000650  0.751618  1
  Tb  Tb2  1  0.000650  0.533901  0.248382  1
  Tb  Tb3  1  0.466099  0.999350  0.248382  1
  Tb  Tb4  1  0.999350  0.466099  0.751618  1
  Sm  Sm5  1  0.500000  0.500000  0.000000  1
  Ta  Ta6  1  0.000000  0.000000  0.500000  1
  Ta  Ta7  1  0.000000  0.000000  0.000000  1
  O  O8  1  0.681659  0.933409  0.467877  1
  O  O9  1  0.933409  0.681659  0.532123  1
  O  O10  1  0.681270  0.930323  0.031724  1
  O  O11  1  0.930323  0.681270  0.968276  1
  O  O12  1  0.318341  0.066591  0.532123  1
  O  O13  1  0.066591  0.318341  0.467877  1
  O  O14  1  0.318730  0.069677  0.968276  1
  O  O15  1  0.069677  0.318730  0.031724  1
  O  O16  1  0.936648  0.063352  0.750001  1
  O  O17  1  0.063352  0.936648  0.249999  1
  O  O18  1  0.365320  0.634679  0.755696  1
  O  O19  1  0.634679  0.365320  0.244304  1
  O  O20  1  0.641094  0.358906  0.754687  1
  O  O21  1  0.358906  0.641094  0.245313  1
