# generated using pymatgen
data_Cs3ScIrBr9
_symmetry_space_group_name_H-M   'P 1'
_cell_length_a   7.86952800
_cell_length_b   7.86952686
_cell_length_c   19.48631800
_cell_angle_alpha   90.00000000
_cell_angle_beta   90.00000000
_cell_angle_gamma   119.99998799
_symmetry_Int_Tables_number   1
_chemical_formula_structural   Cs3ScIrBr9
_chemical_formula_sum   'Cs6 Sc2 Ir2 Br18'
_cell_volume   1045.09982913
_cell_formula_units_Z   2
loop_
 _symmetry_equiv_pos_site_id
 _symmetry_equiv_pos_as_xyz
  1  'x, y, z'
loop_
 _atom_site_type_symbol
 _atom_site_label
 _atom_site_symmetry_multiplicity
 _atom_site_fract_x
 _atom_site_fract_y
 _atom_site_fract_z
 _atom_site_occupancy
  Cs  Cs0  1  0.333333  0.666667  0.070222  1
  Cs  Cs1  1  0.666667  0.333333  0.929778  1
  Cs  Cs2  1  0.666667  0.333333  0.570636  1
  Cs  Cs3  1  0.333333  0.666667  0.429364  1
  Cs  Cs4  1  0.000000  0.000000  0.253423  1
  Cs  Cs5  1  0.000000  0.000000  0.746577  1
  Sc  Sc6  1  0.666667  0.333333  0.162339  1
  Sc  Sc7  1  0.333333  0.666667  0.837661  1
  Ir  Ir8  1  0.333333  0.666667  0.668530  1
  Ir  Ir9  1  0.666667  0.333333  0.331470  1
  Br  Br10  1  0.183370  0.366739  0.594985  1
  Br  Br11  1  0.816630  0.633261  0.405015  1
  Br  Br12  1  0.633261  0.816630  0.594985  1
  Br  Br13  1  0.827148  0.654297  0.091955  1
  Br  Br14  1  0.366739  0.183370  0.405015  1
  Br  Br15  1  0.172852  0.345703  0.908045  1
  Br  Br16  1  0.183370  0.816630  0.594985  1
  Br  Br17  1  0.345703  0.172852  0.091955  1
  Br  Br18  1  0.816630  0.183370  0.405015  1
  Br  Br19  1  0.654297  0.827148  0.908045  1
  Br  Br20  1  0.827148  0.172852  0.091955  1
  Br  Br21  1  0.172852  0.827148  0.908045  1
  Br  Br22  1  0.513452  0.026905  0.255668  1
  Br  Br23  1  0.486548  0.973095  0.744332  1
  Br  Br24  1  0.973095  0.486548  0.255668  1
  Br  Br25  1  0.026905  0.513452  0.744332  1
  Br  Br26  1  0.513452  0.486548  0.255668  1
  Br  Br27  1  0.486548  0.513452  0.744332  1
