# generated using pymatgen
data_HoEr7Re2(B12Ir)2
_symmetry_space_group_name_H-M   'P 1'
_cell_length_a   3.64771000
_cell_length_b   9.11405625
_cell_length_c   11.49881901
_cell_angle_alpha   90.32068056
_cell_angle_beta   90.00000000
_cell_angle_gamma   90.00000000
_symmetry_Int_Tables_number   1
_chemical_formula_structural   HoEr7Re2(B12Ir)2
_chemical_formula_sum   'Ho1 Er7 Re2 B24 Ir2'
_cell_volume   382.27724199
_cell_formula_units_Z   1
loop_
 _symmetry_equiv_pos_site_id
 _symmetry_equiv_pos_as_xyz
  1  'x, y, z'
loop_
 _atom_site_type_symbol
 _atom_site_label
 _atom_site_symmetry_multiplicity
 _atom_site_fract_x
 _atom_site_fract_y
 _atom_site_fract_z
 _atom_site_occupancy
  Ho  Ho0  1  0.000000  0.316830  0.409798  1
  Er  Er1  1  0.000000  0.683395  0.590284  1
  Er  Er2  1  0.000000  0.826367  0.082154  1
  Er  Er3  1  0.000000  0.173619  0.917828  1
  Er  Er4  1  0.000000  0.945835  0.372370  1
  Er  Er5  1  0.000000  0.054038  0.627666  1
  Er  Er6  1  0.000000  0.441730  0.125756  1
  Er  Er7  1  0.000000  0.558293  0.874205  1
  Re  Re8  1  0.000000  0.138082  0.179858  1
  Re  Re9  1  0.000000  0.861832  0.820056  1
  B  B10  1  0.500000  0.554018  0.434206  1
  B  B11  1  0.500000  0.446171  0.565896  1
  B  B12  1  0.500000  0.052998  0.067022  1
  B  B13  1  0.500000  0.946988  0.932966  1
  B  B14  1  0.500000  0.749447  0.421510  1
  B  B15  1  0.500000  0.250510  0.578664  1
  B  B16  1  0.500000  0.247926  0.080379  1
  B  B17  1  0.500000  0.752063  0.919593  1
  B  B18  1  0.500000  0.790951  0.266021  1
  B  B19  1  0.500000  0.209053  0.733994  1
  B  B20  1  0.500000  0.292341  0.234272  1
  B  B21  1  0.500000  0.707584  0.765586  1
  B  B22  1  0.500000  0.631589  0.183846  1
  B  B23  1  0.500000  0.368422  0.816148  1
  B  B24  1  0.500000  0.131254  0.314880  1
  B  B25  1  0.500000  0.868612  0.685031  1
  B  B26  1  0.500000  0.982108  0.213096  1
  B  B27  1  0.500000  0.017854  0.786883  1
  B  B28  1  0.500000  0.482120  0.287211  1
  B  B29  1  0.500000  0.518055  0.712715  1
  B  B30  1  0.500000  0.606825  0.029936  1
  B  B31  1  0.500000  0.393177  0.970054  1
  B  B32  1  0.500000  0.107135  0.470889  1
  B  B33  1  0.500000  0.892628  0.529174  1
  Ir  Ir34  1  0.000000  0.636645  0.322284  1
  Ir  Ir35  1  0.000000  0.363503  0.677769  1
