# generated using pymatgen
data_CaSm2AlSiRh2
_symmetry_space_group_name_H-M   'P 1'
_cell_length_a   5.69699369
_cell_length_b   7.97068949
_cell_length_c   13.48050708
_cell_angle_alpha   90.03474009
_cell_angle_beta   90.31971380
_cell_angle_gamma   89.97969352
_symmetry_Int_Tables_number   1
_chemical_formula_structural   CaSm2AlSiRh2
_chemical_formula_sum   'Ca4 Sm8 Al4 Si4 Rh8'
_cell_volume   612.12623084
_cell_formula_units_Z   4
loop_
 _symmetry_equiv_pos_site_id
 _symmetry_equiv_pos_as_xyz
  1  'x, y, z'
loop_
 _atom_site_type_symbol
 _atom_site_label
 _atom_site_symmetry_multiplicity
 _atom_site_fract_x
 _atom_site_fract_y
 _atom_site_fract_z
 _atom_site_occupancy
  Ca  Ca0  1  0.139341  0.398457  0.102539  1
  Ca  Ca1  1  0.862511  0.600257  0.898251  1
  Ca  Ca2  1  0.858976  0.604793  0.602319  1
  Ca  Ca3  1  0.858578  0.895589  0.397474  1
  Sm  Sm4  1  0.639780  0.254931  0.248702  1
  Sm  Sm5  1  0.364065  0.742069  0.750531  1
  Sm  Sm6  1  0.360258  0.753308  0.251545  1
  Sm  Sm7  1  0.642795  0.248720  0.749036  1
  Sm  Sm8  1  0.142843  0.398201  0.398938  1
  Sm  Sm9  1  0.144295  0.101563  0.601983  1
  Sm  Sm10  1  0.147304  0.105351  0.897432  1
  Sm  Sm11  1  0.854575  0.894939  0.100989  1
  Al  Al12  1  0.617706  0.252361  0.000615  1
  Al  Al13  1  0.381464  0.748165  0.999305  1
  Al  Al14  1  0.386462  0.750577  0.500362  1
  Al  Al15  1  0.619672  0.249587  0.499741  1
  Si  Si16  1  0.142975  0.106753  0.250491  1
  Si  Si17  1  0.857077  0.896536  0.750679  1
  Si  Si18  1  0.854183  0.605887  0.249469  1
  Si  Si19  1  0.148819  0.390010  0.749372  1
  Rh  Rh20  1  0.362739  0.027177  0.094280  1
  Rh  Rh21  1  0.637564  0.971935  0.907303  1
  Rh  Rh22  1  0.629971  0.973697  0.595692  1
  Rh  Rh23  1  0.629726  0.527701  0.404572  1
  Rh  Rh24  1  0.357793  0.031501  0.407809  1
  Rh  Rh25  1  0.358341  0.467590  0.591874  1
  Rh  Rh26  1  0.365342  0.469426  0.905491  1
  Rh  Rh27  1  0.634846  0.532920  0.093207  1
