# generated using pymatgen
data_Ca(BIr)4
_symmetry_space_group_name_H-M   'P 1'
_cell_length_a   4.01067100
_cell_length_b   7.62768800
_cell_length_c   7.62768800
_cell_angle_alpha   90.00000000
_cell_angle_beta   90.00000000
_cell_angle_gamma   90.00000000
_symmetry_Int_Tables_number   1
_chemical_formula_structural   Ca(BIr)4
_chemical_formula_sum   'Ca2 B8 Ir8'
_cell_volume   233.34735301
_cell_formula_units_Z   2
loop_
 _symmetry_equiv_pos_site_id
 _symmetry_equiv_pos_as_xyz
  1  'x, y, z'
loop_
 _atom_site_type_symbol
 _atom_site_label
 _atom_site_symmetry_multiplicity
 _atom_site_fract_x
 _atom_site_fract_y
 _atom_site_fract_z
 _atom_site_occupancy
  Ca  Ca0  1  0.250000  0.250000  0.250000  1
  Ca  Ca1  1  0.750000  0.750000  0.750000  1
  B  B2  1  0.360483  0.907241  0.028996  1
  B  B3  1  0.360483  0.592759  0.471004  1
  B  B4  1  0.860483  0.528996  0.092759  1
  B  B5  1  0.860483  0.971004  0.407241  1
  B  B6  1  0.639517  0.092759  0.971004  1
  B  B7  1  0.639517  0.407241  0.528996  1
  B  B8  1  0.139517  0.471004  0.907241  1
  B  B9  1  0.139517  0.028996  0.592759  1
  Ir  Ir10  1  0.140110  0.403697  0.637053  1
  Ir  Ir11  1  0.140110  0.096303  0.862947  1
  Ir  Ir12  1  0.640110  0.137053  0.596303  1
  Ir  Ir13  1  0.640110  0.362947  0.903697  1
  Ir  Ir14  1  0.859890  0.596303  0.362947  1
  Ir  Ir15  1  0.859890  0.903697  0.137053  1
  Ir  Ir16  1  0.359890  0.862947  0.403697  1
  Ir  Ir17  1  0.359890  0.637053  0.096303  1
