# generated using pymatgen
data_Tm8Mn2B24RuRh
_symmetry_space_group_name_H-M   'P 1'
_cell_length_a   3.57372600
_cell_length_b   9.04561221
_cell_length_c   11.41733164
_cell_angle_alpha   90.09911141
_cell_angle_beta   90.00000000
_cell_angle_gamma   90.00000000
_symmetry_Int_Tables_number   1
_chemical_formula_structural   Tm8Mn2B24RuRh
_chemical_formula_sum   'Tm8 Mn2 B24 Ru1 Rh1'
_cell_volume   369.08227049
_cell_formula_units_Z   1
loop_
 _symmetry_equiv_pos_site_id
 _symmetry_equiv_pos_as_xyz
  1  'x, y, z'
loop_
 _atom_site_type_symbol
 _atom_site_label
 _atom_site_symmetry_multiplicity
 _atom_site_fract_x
 _atom_site_fract_y
 _atom_site_fract_z
 _atom_site_occupancy
  Tm  Tm0  1  0.500000  0.316967  0.413132  1
  Tm  Tm1  1  0.500000  0.680726  0.590647  1
  Tm  Tm2  1  0.500000  0.173986  0.915574  1
  Tm  Tm3  1  0.500000  0.828418  0.081171  1
  Tm  Tm4  1  0.500000  0.438730  0.127665  1
  Tm  Tm5  1  0.500000  0.559693  0.871933  1
  Tm  Tm6  1  0.500000  0.053847  0.630331  1
  Tm  Tm7  1  0.500000  0.946764  0.369261  1
  Mn  Mn8  1  0.500000  0.139052  0.180234  1
  Mn  Mn9  1  0.500000  0.861160  0.820176  1
  B  B10  1  0.000000  0.105146  0.470760  1
  B  B11  1  0.000000  0.893452  0.528839  1
  B  B12  1  0.000000  0.394282  0.970981  1
  B  B13  1  0.000000  0.606232  0.029426  1
  B  B14  1  0.000000  0.131231  0.313828  1
  B  B15  1  0.000000  0.868469  0.686614  1
  B  B16  1  0.000000  0.368817  0.815517  1
  B  B17  1  0.000000  0.631868  0.182694  1
  B  B18  1  0.000000  0.053827  0.067232  1
  B  B19  1  0.000000  0.946669  0.932270  1
  B  B20  1  0.000000  0.446450  0.566561  1
  B  B21  1  0.000000  0.553360  0.434205  1
  B  B22  1  0.000000  0.480905  0.287374  1
  B  B23  1  0.000000  0.518702  0.712699  1
  B  B24  1  0.000000  0.015596  0.788499  1
  B  B25  1  0.000000  0.984843  0.211028  1
  B  B26  1  0.000000  0.246190  0.081768  1
  B  B27  1  0.000000  0.754091  0.918295  1
  B  B28  1  0.000000  0.250385  0.580237  1
  B  B29  1  0.000000  0.749972  0.421125  1
  B  B30  1  0.000000  0.290105  0.234236  1
  B  B31  1  0.000000  0.709912  0.766435  1
  B  B32  1  0.000000  0.207760  0.735204  1
  B  B33  1  0.000000  0.792590  0.263927  1
  Ru  Ru34  1  0.500000  0.361953  0.678955  1
  Rh  Rh35  1  0.500000  0.637852  0.321167  1
