# generated using pymatgen
data_Tb2Yb5Tm(Si3Pd)4
_symmetry_space_group_name_H-M   'P 1'
_cell_length_a   8.23668253
_cell_length_b   8.23668258
_cell_length_c   8.11095900
_cell_angle_alpha   90.00000000
_cell_angle_beta   90.00000000
_cell_angle_gamma   120.22003856
_symmetry_Int_Tables_number   1
_chemical_formula_structural   Tb2Yb5Tm(Si3Pd)4
_chemical_formula_sum   'Tb2 Yb5 Tm1 Si12 Pd4'
_cell_volume   475.48878362
_cell_formula_units_Z   1
loop_
 _symmetry_equiv_pos_site_id
 _symmetry_equiv_pos_as_xyz
  1  'x, y, z'
loop_
 _atom_site_type_symbol
 _atom_site_label
 _atom_site_symmetry_multiplicity
 _atom_site_fract_x
 _atom_site_fract_y
 _atom_site_fract_z
 _atom_site_occupancy
  Tb  Tb0  1  0.999939  0.000061  0.250000  1
  Tb  Tb1  1  0.000024  0.999976  0.750000  1
  Yb  Yb2  1  0.500730  0.001350  0.250000  1
  Yb  Yb3  1  0.499194  0.998598  0.750000  1
  Yb  Yb4  1  0.998650  0.499270  0.250000  1
  Yb  Yb5  1  0.001402  0.500806  0.750000  1
  Yb  Yb6  1  0.500699  0.499301  0.250000  1
  Tm  Tm7  1  0.499348  0.500652  0.750000  1
  Si  Si8  1  0.165017  0.328661  0.997286  1
  Si  Si9  1  0.835009  0.671341  0.996638  1
  Si  Si10  1  0.671339  0.834983  0.997286  1
  Si  Si11  1  0.835009  0.671341  0.503362  1
  Si  Si12  1  0.328659  0.164991  0.996638  1
  Si  Si13  1  0.165017  0.328661  0.502714  1
  Si  Si14  1  0.164445  0.835555  0.999012  1
  Si  Si15  1  0.328659  0.164991  0.503362  1
  Si  Si16  1  0.835530  0.164470  0.997867  1
  Si  Si17  1  0.671339  0.834983  0.502714  1
  Si  Si18  1  0.835530  0.164470  0.502133  1
  Si  Si19  1  0.164445  0.835555  0.500988  1
  Pd  Pd20  1  0.333886  0.666114  0.998406  1
  Pd  Pd21  1  0.666118  0.333882  0.994958  1
  Pd  Pd22  1  0.666118  0.333882  0.505042  1
  Pd  Pd23  1  0.333886  0.666114  0.501594  1
