# generated using pymatgen
data_Ta5Ti9As3P5
_symmetry_space_group_name_H-M   'P 1'
_cell_length_a   7.68409876
_cell_length_b   7.68409866
_cell_length_c   13.89984403
_cell_angle_alpha   75.91821209
_cell_angle_beta   75.91821245
_cell_angle_gamma   25.82894017
_symmetry_Int_Tables_number   1
_chemical_formula_structural   Ta5Ti9As3P5
_chemical_formula_sum   'Ta5 Ti9 As3 P5'
_cell_volume   346.25711065
_cell_formula_units_Z   1
loop_
 _symmetry_equiv_pos_site_id
 _symmetry_equiv_pos_as_xyz
  1  'x, y, z'
loop_
 _atom_site_type_symbol
 _atom_site_label
 _atom_site_symmetry_multiplicity
 _atom_site_fract_x
 _atom_site_fract_y
 _atom_site_fract_z
 _atom_site_occupancy
  Ta  Ta0  1  0.999802  0.999802  0.000111  1
  Ta  Ta1  1  0.501124  0.501124  0.501210  1
  Ta  Ta2  1  0.429278  0.429278  0.173403  1
  Ta  Ta3  1  0.571062  0.571062  0.824405  1
  Ta  Ta4  1  0.198732  0.198732  0.686702  1
  Ti  Ti5  1  0.799599  0.799599  0.308368  1
  Ti  Ti6  1  0.203145  0.203145  0.210446  1
  Ti  Ti7  1  0.797279  0.797279  0.790026  1
  Ti  Ti8  1  0.344421  0.344421  0.964258  1
  Ti  Ti9  1  0.656027  0.656027  0.036296  1
  Ti  Ti10  1  0.006187  0.006187  0.336572  1
  Ti  Ti11  1  0.997251  0.997251  0.663598  1
  Ti  Ti12  1  0.174411  0.174411  0.459244  1
  Ti  Ti13  1  0.822495  0.822495  0.545253  1
  As  As14  1  0.183246  0.183246  0.892524  1
  As  As15  1  0.816551  0.816551  0.108612  1
  As  As16  1  0.371886  0.371886  0.395348  1
  P  P17  1  0.625474  0.625474  0.601413  1
  P  P18  1  0.372294  0.372294  0.660060  1
  P  P19  1  0.629901  0.629901  0.341353  1
  P  P20  1  0.062187  0.062187  0.154967  1
  P  P21  1  0.937647  0.937647  0.845832  1
