# generated using pymatgen
data_Li4Tm3ThSi8
_symmetry_space_group_name_H-M   'P 1'
_cell_length_a   3.77906200
_cell_length_b   7.66822661
_cell_length_c   10.18439472
_cell_angle_alpha   89.99138435
_cell_angle_beta   90.00000000
_cell_angle_gamma   90.00000000
_symmetry_Int_Tables_number   1
_chemical_formula_structural   Li4Tm3ThSi8
_chemical_formula_sum   'Li4 Tm3 Th1 Si8'
_cell_volume   295.13055460
_cell_formula_units_Z   1
loop_
 _symmetry_equiv_pos_site_id
 _symmetry_equiv_pos_as_xyz
  1  'x, y, z'
loop_
 _atom_site_type_symbol
 _atom_site_label
 _atom_site_symmetry_multiplicity
 _atom_site_fract_x
 _atom_site_fract_y
 _atom_site_fract_z
 _atom_site_occupancy
  Li  Li0  1  0.250000  0.990453  0.394525  1
  Li  Li1  1  0.750000  0.013494  0.608984  1
  Li  Li2  1  0.250000  0.487279  0.103015  1
  Li  Li3  1  0.750000  0.511991  0.896023  1
  Tm  Tm4  1  0.250000  0.133031  0.861246  1
  Tm  Tm5  1  0.750000  0.864350  0.136146  1
  Tm  Tm6  1  0.250000  0.636002  0.637214  1
  Th  Th7  1  0.750000  0.359067  0.361108  1
  Si  Si8  1  0.750000  0.257408  0.060791  1
  Si  Si9  1  0.250000  0.735077  0.934231  1
  Si  Si10  1  0.750000  0.771686  0.434639  1
  Si  Si11  1  0.250000  0.237964  0.572214  1
  Si  Si12  1  0.750000  0.843635  0.818274  1
  Si  Si13  1  0.250000  0.151078  0.177261  1
  Si  Si14  1  0.750000  0.344941  0.687751  1
  Si  Si15  1  0.250000  0.662544  0.316577  1
