# generated using pymatgen
data_Tb5ErAl24(Ir3Ru)2
_symmetry_space_group_name_H-M   'P 1'
_cell_length_a   8.84026612
_cell_length_b   8.83254221
_cell_length_c   9.50477500
_cell_angle_alpha   90.00000000
_cell_angle_beta   90.00000000
_cell_angle_gamma   119.97110588
_symmetry_Int_Tables_number   1
_chemical_formula_structural   Tb5ErAl24(Ir3Ru)2
_chemical_formula_sum   'Tb5 Er1 Al24 Ir6 Ru2'
_cell_volume   642.90959457
_cell_formula_units_Z   1
loop_
 _symmetry_equiv_pos_site_id
 _symmetry_equiv_pos_as_xyz
  1  'x, y, z'
loop_
 _atom_site_type_symbol
 _atom_site_label
 _atom_site_symmetry_multiplicity
 _atom_site_fract_x
 _atom_site_fract_y
 _atom_site_fract_z
 _atom_site_occupancy
  Tb  Tb0  1  0.807811  0.192154  0.250000  1
  Tb  Tb1  1  0.807811  0.615656  0.250000  1
  Tb  Tb2  1  0.616270  0.808135  0.750000  1
  Tb  Tb3  1  0.191855  0.808102  0.750000  1
  Tb  Tb4  1  0.191855  0.383753  0.750000  1
  Er  Er5  1  0.385395  0.192697  0.250000  1
  Al  Al6  1  0.437415  0.875574  0.250000  1
  Al  Al7  1  0.124872  0.562436  0.250000  1
  Al  Al8  1  0.437415  0.561840  0.250000  1
  Al  Al9  1  0.562435  0.124697  0.750000  1
  Al  Al10  1  0.875248  0.437625  0.750000  1
  Al  Al11  1  0.562435  0.437739  0.750000  1
  Al  Al12  1  0.163254  0.837162  0.423917  1
  Al  Al13  1  0.163254  0.326093  0.423917  1
  Al  Al14  1  0.673914  0.836958  0.423997  1
  Al  Al15  1  0.836888  0.163073  0.576069  1
  Al  Al16  1  0.836888  0.673814  0.576069  1
  Al  Al17  1  0.326035  0.163017  0.575763  1
  Al  Al18  1  0.836888  0.163073  0.923931  1
  Al  Al19  1  0.836888  0.673814  0.923931  1
  Al  Al20  1  0.326035  0.163017  0.924237  1
  Al  Al21  1  0.163254  0.837162  0.076083  1
  Al  Al22  1  0.163254  0.326093  0.076083  1
  Al  Al23  1  0.673914  0.836958  0.076003  1
  Al  Al24  1  0.333124  0.666563  0.528999  1
  Al  Al25  1  0.666376  0.333187  0.470945  1
  Al  Al26  1  0.666376  0.333187  0.029055  1
  Al  Al27  1  0.333124  0.666563  0.971001  1
  Al  Al28  1  0.000414  0.000207  0.250000  1
  Al  Al29  1  0.999958  0.999979  0.750000  1
  Ir  Ir30  1  0.499867  0.000197  0.499720  1
  Ir  Ir31  1  0.999785  0.499893  0.499834  1
  Ir  Ir32  1  0.499867  0.499670  0.499720  1
  Ir  Ir33  1  0.499867  0.000197  0.000280  1
  Ir  Ir34  1  0.999785  0.499893  0.000166  1
  Ir  Ir35  1  0.499867  0.499670  0.000280  1
  Ru  Ru36  1  0.000154  0.000077  0.499612  1
  Ru  Ru37  1  0.000154  0.000077  0.000388  1
