# generated using pymatgen
data_Lu2MnFeCl2
_symmetry_space_group_name_H-M   'P 1'
_cell_length_a   3.71293900
_cell_length_b   3.71293882
_cell_length_c   11.21782100
_cell_angle_alpha   90.00000000
_cell_angle_beta   90.00000000
_cell_angle_gamma   120.00001051
_symmetry_Int_Tables_number   1
_chemical_formula_structural   Lu2MnFeCl2
_chemical_formula_sum   'Lu2 Mn1 Fe1 Cl2'
_cell_volume   133.92902244
_cell_formula_units_Z   1
loop_
 _symmetry_equiv_pos_site_id
 _symmetry_equiv_pos_as_xyz
  1  'x, y, z'
loop_
 _atom_site_type_symbol
 _atom_site_label
 _atom_site_symmetry_multiplicity
 _atom_site_fract_x
 _atom_site_fract_y
 _atom_site_fract_z
 _atom_site_occupancy
  Lu  Lu0  1  0.000000  0.000000  0.181810  1
  Lu  Lu1  1  0.000000  0.000000  0.819258  1
  Mn  Mn2  1  0.666666  0.333334  0.012501  1
  Fe  Fe3  1  0.333334  0.666667  0.985985  1
  Cl  Cl4  1  0.333334  0.666667  0.334801  1
  Cl  Cl5  1  0.666666  0.333334  0.665646  1
