# generated using pymatgen
data_HoTm3Fe4(CoO5)4
_symmetry_space_group_name_H-M   'P 1'
_cell_length_a   5.75450500
_cell_length_b   7.21563999
_cell_length_c   8.46381116
_cell_angle_alpha   89.94001984
_cell_angle_beta   90.00000000
_cell_angle_gamma   90.00000000
_symmetry_Int_Tables_number   1
_chemical_formula_structural   HoTm3Fe4(CoO5)4
_chemical_formula_sum   'Ho1 Tm3 Fe4 Co4 O20'
_cell_volume   351.43786793
_cell_formula_units_Z   1
loop_
 _symmetry_equiv_pos_site_id
 _symmetry_equiv_pos_as_xyz
  1  'x, y, z'
loop_
 _atom_site_type_symbol
 _atom_site_label
 _atom_site_symmetry_multiplicity
 _atom_site_fract_x
 _atom_site_fract_y
 _atom_site_fract_z
 _atom_site_occupancy
  Ho  Ho0  1  0.500000  0.866388  0.169266  1
  Tm  Tm1  1  0.500000  0.365851  0.331005  1
  Tm  Tm2  1  0.500000  0.634162  0.668962  1
  Tm  Tm3  1  0.500000  0.134728  0.830488  1
  Fe  Fe4  1  0.000000  0.108873  0.147503  1
  Fe  Fe5  1  0.000000  0.891538  0.851818  1
  Fe  Fe6  1  0.000000  0.391771  0.647685  1
  Fe  Fe7  1  0.000000  0.608152  0.352724  1
  Co  Co8  1  0.251427  0.000218  0.500364  1
  Co  Co9  1  0.748573  0.000218  0.500364  1
  Co  Co10  1  0.748483  0.499419  0.999738  1
  Co  Co11  1  0.251517  0.499419  0.999738  1
  O  O12  1  0.236387  0.001415  0.998889  1
  O  O13  1  0.763613  0.001415  0.998889  1
  O  O14  1  0.762283  0.500034  0.500272  1
  O  O15  1  0.237717  0.500034  0.500272  1
  O  O16  1  0.000000  0.353671  0.068796  1
  O  O17  1  0.000000  0.646543  0.930493  1
  O  O18  1  0.000000  0.146223  0.569402  1
  O  O19  1  0.000000  0.853410  0.430345  1
  O  O20  1  0.261347  0.108565  0.297944  1
  O  O21  1  0.737635  0.892614  0.702695  1
  O  O22  1  0.262365  0.892614  0.702695  1
  O  O23  1  0.737918  0.392466  0.797254  1
  O  O24  1  0.738653  0.108565  0.297944  1
  O  O25  1  0.261532  0.605202  0.202864  1
  O  O26  1  0.738468  0.605202  0.202864  1
  O  O27  1  0.262082  0.392466  0.797254  1
  O  O28  1  0.500000  0.339271  0.057932  1
  O  O29  1  0.500000  0.658919  0.941486  1
  O  O30  1  0.500000  0.160455  0.558118  1
  O  O31  1  0.500000  0.840184  0.443932  1
