# generated using pymatgen
data_TbTh2(InNi)3
_symmetry_space_group_name_H-M   'P 1'
_cell_length_a   7.40365000
_cell_length_b   7.49167567
_cell_length_c   4.00514800
_cell_angle_alpha   90.00000000
_cell_angle_beta   90.00000000
_cell_angle_gamma   119.61207505
_symmetry_Int_Tables_number   1
_chemical_formula_structural   TbTh2(InNi)3
_chemical_formula_sum   'Tb1 Th2 In3 Ni3'
_cell_volume   193.13387884
_cell_formula_units_Z   1
loop_
 _symmetry_equiv_pos_site_id
 _symmetry_equiv_pos_as_xyz
  1  'x, y, z'
loop_
 _atom_site_type_symbol
 _atom_site_label
 _atom_site_symmetry_multiplicity
 _atom_site_fract_x
 _atom_site_fract_y
 _atom_site_fract_z
 _atom_site_occupancy
  Tb  Tb0  1  0.413601  0.000000  0.500000  1
  Th  Th1  1  0.999308  0.416509  0.500000  1
  Th  Th2  1  0.582799  0.583491  0.500000  1
  In  In3  1  0.744904  0.000000  0.000000  1
  In  In4  1  0.009513  0.761679  0.000000  1
  In  In5  1  0.247833  0.238321  0.000000  1
  Ni  Ni6  1  0.332391  0.655812  0.000000  1
  Ni  Ni7  1  0.676580  0.344188  0.000000  1
  Ni  Ni8  1  0.993071  0.000000  0.500000  1
