# generated using pymatgen
data_NaSc4CoNi8As7
_symmetry_space_group_name_H-M   'P 1'
_cell_length_a   9.69346708
_cell_length_b   9.71447419
_cell_length_c   3.85232600
_cell_angle_alpha   90.00000000
_cell_angle_beta   90.00000000
_cell_angle_gamma   119.94106913
_symmetry_Int_Tables_number   1
_chemical_formula_structural   NaSc4CoNi8As7
_chemical_formula_sum   'Na1 Sc4 Co1 Ni8 As7'
_cell_volume   314.34726883
_cell_formula_units_Z   1
loop_
 _symmetry_equiv_pos_site_id
 _symmetry_equiv_pos_as_xyz
  1  'x, y, z'
loop_
 _atom_site_type_symbol
 _atom_site_label
 _atom_site_symmetry_multiplicity
 _atom_site_fract_x
 _atom_site_fract_y
 _atom_site_fract_z
 _atom_site_occupancy
  Na  Na0  1  0.665257  0.332275  0.500000  1
  Sc  Sc1  1  0.233764  0.123750  0.500000  1
  Sc  Sc2  1  0.876042  0.111527  0.500000  1
  Sc  Sc3  1  0.889312  0.765472  0.500000  1
  Sc  Sc4  1  0.333434  0.666572  0.000000  1
  Co  Co5  1  0.053661  0.442290  0.500000  1
  Ni  Ni6  1  0.124670  0.289290  0.000000  1
  Ni  Ni7  1  0.712573  0.838650  0.000000  1
  Ni  Ni8  1  0.161275  0.873096  0.000000  1
  Ni  Ni9  1  0.417280  0.361173  0.000000  1
  Ni  Ni10  1  0.642199  0.060255  0.000000  1
  Ni  Ni11  1  0.943478  0.580112  0.000000  1
  Ni  Ni12  1  0.555529  0.610520  0.500000  1
  Ni  Ni13  1  0.388987  0.944437  0.500000  1
  As  As14  1  0.286683  0.424926  0.500000  1
  As  As15  1  0.575875  0.862973  0.500000  1
  As  As16  1  0.136702  0.710296  0.500000  1
  As  As17  1  0.427100  0.109216  0.000000  1
  As  As18  1  0.893925  0.320503  0.000000  1
  As  As19  1  0.682479  0.572434  0.000000  1
  As  As20  1  0.999773  0.000236  0.000000  1
