# generated using pymatgen
data_Ta4Be3BMo2
_symmetry_space_group_name_H-M   'P 1'
_cell_length_a   6.34041154
_cell_length_b   6.34041234
_cell_length_c   3.28975200
_cell_angle_alpha   90.00000000
_cell_angle_beta   90.00000000
_cell_angle_gamma   89.89498549
_symmetry_Int_Tables_number   1
_chemical_formula_structural   Ta4Be3BMo2
_chemical_formula_sum   'Ta4 Be3 B1 Mo2'
_cell_volume   132.25051770
_cell_formula_units_Z   1
loop_
 _symmetry_equiv_pos_site_id
 _symmetry_equiv_pos_as_xyz
  1  'x, y, z'
loop_
 _atom_site_type_symbol
 _atom_site_label
 _atom_site_symmetry_multiplicity
 _atom_site_fract_x
 _atom_site_fract_y
 _atom_site_fract_z
 _atom_site_occupancy
  Ta  Ta0  1  0.682226  0.182226  0.500000  1
  Ta  Ta1  1  0.311923  0.811923  0.500000  1
  Ta  Ta2  1  0.178183  0.328438  0.500000  1
  Ta  Ta3  1  0.828438  0.678183  0.500000  1
  Be  Be4  1  0.889714  0.389714  0.000000  1
  Be  Be5  1  0.614540  0.883498  0.000000  1
  Be  Be6  1  0.383498  0.114540  0.000000  1
  B  B7  1  0.112785  0.612785  0.000000  1
  Mo  Mo8  1  0.497556  0.501138  0.000000  1
  Mo  Mo9  1  0.001138  0.997556  0.000000  1
