# generated using pymatgen
data_Hf8TcNi2Ru
_symmetry_space_group_name_H-M   'P 1'
_cell_length_a   8.64078679
_cell_length_b   8.64078637
_cell_length_c   8.65710200
_cell_angle_alpha   59.93752644
_cell_angle_beta   59.93752806
_cell_angle_gamma   59.86509924
_symmetry_Int_Tables_number   1
_chemical_formula_structural   Hf8TcNi2Ru
_chemical_formula_sum   'Hf16 Tc2 Ni4 Ru2'
_cell_volume   456.15187516
_cell_formula_units_Z   2
loop_
 _symmetry_equiv_pos_site_id
 _symmetry_equiv_pos_as_xyz
  1  'x, y, z'
loop_
 _atom_site_type_symbol
 _atom_site_label
 _atom_site_symmetry_multiplicity
 _atom_site_fract_x
 _atom_site_fract_y
 _atom_site_fract_z
 _atom_site_occupancy
  Hf  Hf0  1  0.679952  0.106495  0.106777  1
  Hf  Hf1  1  0.106495  0.679952  0.106777  1
  Hf  Hf2  1  0.107375  0.107375  0.676941  1
  Hf  Hf3  1  0.107375  0.107375  0.108309  1
  Hf  Hf4  1  0.315549  0.315549  0.684451  1
  Hf  Hf5  1  0.683983  0.683983  0.316017  1
  Hf  Hf6  1  0.315863  0.682154  0.315820  1
  Hf  Hf7  1  0.682154  0.315863  0.686163  1
  Hf  Hf8  1  0.682154  0.315863  0.315820  1
  Hf  Hf9  1  0.315863  0.682154  0.686163  1
  Hf  Hf10  1  0.949527  0.949527  0.550473  1
  Hf  Hf11  1  0.549834  0.549834  0.950166  1
  Hf  Hf12  1  0.950150  0.550342  0.949597  1
  Hf  Hf13  1  0.550342  0.950150  0.549910  1
  Hf  Hf14  1  0.550342  0.950150  0.949597  1
  Hf  Hf15  1  0.950150  0.550342  0.549910  1
  Tc  Tc16  1  0.334874  0.334874  0.996276  1
  Tc  Tc17  1  0.334874  0.334874  0.333973  1
  Ni  Ni18  1  0.317626  0.895304  0.893535  1
  Ni  Ni19  1  0.895304  0.317626  0.893535  1
  Ni  Ni20  1  0.894217  0.894217  0.318805  1
  Ni  Ni21  1  0.894217  0.894217  0.892760  1
  Ru  Ru22  1  0.996236  0.335542  0.334110  1
  Ru  Ru23  1  0.335542  0.996236  0.334110  1
