# generated using pymatgen
data_NdDy(Ni3P2)2
_symmetry_space_group_name_H-M   'P 1'
_cell_length_a   3.82404800
_cell_length_b   10.53900102
_cell_length_c   12.39106103
_cell_angle_alpha   89.99297546
_cell_angle_beta   90.00279912
_cell_angle_gamma   90.00058921
_symmetry_Int_Tables_number   1
_chemical_formula_structural   NdDy(Ni3P2)2
_chemical_formula_sum   'Nd3 Dy3 Ni18 P12'
_cell_volume   499.38014803
_cell_formula_units_Z   3
loop_
 _symmetry_equiv_pos_site_id
 _symmetry_equiv_pos_as_xyz
  1  'x, y, z'
loop_
 _atom_site_type_symbol
 _atom_site_label
 _atom_site_symmetry_multiplicity
 _atom_site_fract_x
 _atom_site_fract_y
 _atom_site_fract_z
 _atom_site_occupancy
  Nd  Nd0  1  0.752063  0.000229  0.479042  1
  Nd  Nd1  1  0.251932  0.499393  0.519704  1
  Nd  Nd2  1  0.251861  0.684301  0.795519  1
  Dy  Dy3  1  0.251919  0.314648  0.795865  1
  Dy  Dy4  1  0.751839  0.816009  0.204266  1
  Dy  Dy5  1  0.751825  0.184301  0.204991  1
  Ni  Ni6  1  0.751736  0.001935  0.017557  1
  Ni  Ni7  1  0.251747  0.498263  0.985522  1
  Ni  Ni8  1  0.252067  0.199511  0.573762  1
  Ni  Ni9  1  0.252094  0.800695  0.571651  1
  Ni  Ni10  1  0.752025  0.299884  0.425774  1
  Ni  Ni11  1  0.752140  0.699485  0.424346  1
  Ni  Ni12  1  0.251786  0.620704  0.285529  1
  Ni  Ni13  1  0.251671  0.379364  0.286067  1
  Ni  Ni14  1  0.751869  0.882279  0.712302  1
  Ni  Ni15  1  0.751852  0.121337  0.713965  1
  Ni  Ni16  1  0.251711  0.166970  0.004506  1
  Ni  Ni17  1  0.251665  0.834793  0.006070  1
  Ni  Ni18  1  0.751742  0.331498  0.996838  1
  Ni  Ni19  1  0.751722  0.667072  0.997596  1
  Ni  Ni20  1  0.251404  0.000370  0.843939  1
  Ni  Ni21  1  0.750626  0.499822  0.156732  1
  Ni  Ni22  1  0.251909  0.000298  0.298060  1
  Ni  Ni23  1  0.752068  0.497650  0.701409  1
  P  P24  1  0.251955  0.189834  0.384439  1
  P  P25  1  0.252068  0.810428  0.383431  1
  P  P26  1  0.752022  0.309318  0.615143  1
  P  P27  1  0.752040  0.690057  0.612030  1
  P  P28  1  0.251760  0.000750  0.123150  1
  P  P29  1  0.751879  0.496790  0.879058  1
  P  P30  1  0.251667  0.652970  0.105211  1
  P  P31  1  0.251735  0.346449  0.106414  1
  P  P32  1  0.751698  0.850645  0.896168  1
  P  P33  1  0.751740  0.152380  0.894337  1
  P  P34  1  0.251936  0.999858  0.660837  1
  P  P35  1  0.751836  0.499710  0.338770  1
