# generated using pymatgen
data_Bi12Ir3Cl2
_symmetry_space_group_name_H-M   'P 1'
_cell_length_a   18.15514277
_cell_length_b   16.50833193
_cell_length_c   9.18751827
_cell_angle_alpha   84.83153568
_cell_angle_beta   64.90357953
_cell_angle_gamma   30.26488862
_symmetry_Int_Tables_number   1
_chemical_formula_structural   Bi12Ir3Cl2
_chemical_formula_sum   'Bi24 Ir6 Cl4'
_cell_volume   1000.44846563
_cell_formula_units_Z   2
loop_
 _symmetry_equiv_pos_site_id
 _symmetry_equiv_pos_as_xyz
  1  'x, y, z'
loop_
 _atom_site_type_symbol
 _atom_site_label
 _atom_site_symmetry_multiplicity
 _atom_site_fract_x
 _atom_site_fract_y
 _atom_site_fract_z
 _atom_site_occupancy
  Bi  Bi0  1  0.801952  0.302854  0.453855  1
  Bi  Bi1  1  0.441339  0.453855  0.302854  1
  Bi  Bi2  1  0.453855  0.441339  0.801952  1
  Bi  Bi3  1  0.302854  0.801952  0.441339  1
  Bi  Bi4  1  0.448048  0.947146  0.796145  1
  Bi  Bi5  1  0.808661  0.796145  0.947146  1
  Bi  Bi6  1  0.796145  0.808661  0.448048  1
  Bi  Bi7  1  0.947146  0.448048  0.808661  1
  Bi  Bi8  1  0.319513  0.786038  0.786868  1
  Bi  Bi9  1  0.107582  0.786868  0.786038  1
  Bi  Bi10  1  0.786868  0.107582  0.319513  1
  Bi  Bi11  1  0.786038  0.319513  0.107582  1
  Bi  Bi12  1  0.930487  0.463962  0.463132  1
  Bi  Bi13  1  0.142418  0.463132  0.463962  1
  Bi  Bi14  1  0.463132  0.142418  0.930487  1
  Bi  Bi15  1  0.463962  0.930487  0.142418  1
  Bi  Bi16  1  0.857404  0.366207  0.720584  1
  Bi  Bi17  1  0.055805  0.720584  0.366207  1
  Bi  Bi18  1  0.720584  0.055805  0.857404  1
  Bi  Bi19  1  0.366207  0.857404  0.055805  1
  Bi  Bi20  1  0.392596  0.883793  0.529416  1
  Bi  Bi21  1  0.194195  0.529416  0.883793  1
  Bi  Bi22  1  0.529416  0.194195  0.392596  1
  Bi  Bi23  1  0.883793  0.392596  0.194195  1
  Ir  Ir24  1  0.625000  0.625000  0.625000  1
  Ir  Ir25  1  0.125000  0.625000  0.625000  1
  Ir  Ir26  1  0.625000  0.125000  0.625000  1
  Ir  Ir27  1  0.625000  0.625000  0.125000  1
  Ir  Ir28  1  0.500000  0.500000  0.500000  1
  Ir  Ir29  1  0.750000  0.750000  0.750000  1
  Cl  Cl30  1  0.791118  0.208882  0.791118  1
  Cl  Cl31  1  0.208882  0.791118  0.208882  1
  Cl  Cl32  1  0.458882  0.041118  0.458882  1
  Cl  Cl33  1  0.041118  0.458882  0.041118  1
