# generated using pymatgen
data_Ca20NiAgIr2
_symmetry_space_group_name_H-M   'P 1'
_cell_length_a   6.92307904
_cell_length_b   7.60087904
_cell_length_c   16.07885800
_cell_angle_alpha   90.00000000
_cell_angle_beta   90.00000000
_cell_angle_gamma   90.14387736
_symmetry_Int_Tables_number   1
_chemical_formula_structural   Ca20NiAgIr2
_chemical_formula_sum   'Ca20 Ni1 Ag1 Ir2'
_cell_volume   846.09073893
_cell_formula_units_Z   1
loop_
 _symmetry_equiv_pos_site_id
 _symmetry_equiv_pos_as_xyz
  1  'x, y, z'
loop_
 _atom_site_type_symbol
 _atom_site_label
 _atom_site_symmetry_multiplicity
 _atom_site_fract_x
 _atom_site_fract_y
 _atom_site_fract_z
 _atom_site_occupancy
  Ca  Ca0  1  0.155459  0.093646  0.250000  1
  Ca  Ca1  1  0.854173  0.188554  0.556370  1
  Ca  Ca2  1  0.832509  0.892285  0.750000  1
  Ca  Ca3  1  0.825183  0.467659  0.145890  1
  Ca  Ca4  1  0.178968  0.554756  0.639903  1
  Ca  Ca5  1  0.355159  0.309591  0.063921  1
  Ca  Ca6  1  0.338454  0.593551  0.250000  1
  Ca  Ca7  1  0.825183  0.467659  0.354110  1
  Ca  Ca8  1  0.337659  0.027185  0.859710  1
  Ca  Ca9  1  0.142493  0.810891  0.069525  1
  Ca  Ca10  1  0.648875  0.685021  0.563761  1
  Ca  Ca11  1  0.677836  0.960666  0.354091  1
  Ca  Ca12  1  0.648875  0.685021  0.936239  1
  Ca  Ca13  1  0.337659  0.027185  0.640290  1
  Ca  Ca14  1  0.142493  0.810891  0.430475  1
  Ca  Ca15  1  0.633447  0.406458  0.750000  1
  Ca  Ca16  1  0.178968  0.554756  0.860097  1
  Ca  Ca17  1  0.355159  0.309591  0.436079  1
  Ca  Ca18  1  0.677836  0.960666  0.145909  1
  Ca  Ca19  1  0.854173  0.188554  0.943630  1
  Ni  Ni20  1  0.534710  0.260945  0.250000  1
  Ag  Ag21  1  0.043859  0.243855  0.750000  1
  Ir  Ir22  1  0.457032  0.738038  0.750000  1
  Ir  Ir23  1  0.963837  0.762583  0.250000  1
