# generated using pymatgen
data_Sm4Sc4Re3B24Ru
_symmetry_space_group_name_H-M   'P 1'
_cell_length_a   3.61753600
_cell_length_b   9.05003461
_cell_length_c   11.47745078
_cell_angle_alpha   90.04216224
_cell_angle_beta   90.00000000
_cell_angle_gamma   90.00000000
_symmetry_Int_Tables_number   1
_chemical_formula_structural   Sm4Sc4Re3B24Ru
_chemical_formula_sum   'Sm4 Sc4 Re3 B24 Ru1'
_cell_volume   375.75816231
_cell_formula_units_Z   1
loop_
 _symmetry_equiv_pos_site_id
 _symmetry_equiv_pos_as_xyz
  1  'x, y, z'
loop_
 _atom_site_type_symbol
 _atom_site_label
 _atom_site_symmetry_multiplicity
 _atom_site_fract_x
 _atom_site_fract_y
 _atom_site_fract_z
 _atom_site_occupancy
  Sm  Sm0  1  0.000000  0.320956  0.414862  1
  Sm  Sm1  1  0.000000  0.678739  0.586251  1
  Sm  Sm2  1  0.000000  0.822043  0.084650  1
  Sm  Sm3  1  0.000000  0.178360  0.914261  1
  Sc  Sc4  1  0.000000  0.944523  0.370379  1
  Sc  Sc5  1  0.000000  0.055478  0.629451  1
  Sc  Sc6  1  0.000000  0.443497  0.129299  1
  Sc  Sc7  1  0.000000  0.555825  0.870682  1
  Re  Re8  1  0.000000  0.359112  0.681915  1
  Re  Re9  1  0.000000  0.141240  0.182861  1
  Re  Re10  1  0.000000  0.858843  0.817615  1
  B  B11  1  0.500000  0.556022  0.430611  1
  B  B12  1  0.500000  0.444867  0.568850  1
  B  B13  1  0.500000  0.055039  0.068803  1
  B  B14  1  0.500000  0.944643  0.931132  1
  B  B15  1  0.500000  0.754013  0.416242  1
  B  B16  1  0.500000  0.245237  0.583298  1
  B  B17  1  0.500000  0.254707  0.083204  1
  B  B18  1  0.500000  0.745514  0.916753  1
  B  B19  1  0.500000  0.793735  0.265455  1
  B  B20  1  0.500000  0.205085  0.734654  1
  B  B21  1  0.500000  0.294914  0.234950  1
  B  B22  1  0.500000  0.705097  0.765457  1
  B  B23  1  0.500000  0.628777  0.183654  1
  B  B24  1  0.500000  0.371671  0.816524  1
  B  B25  1  0.500000  0.128822  0.317037  1
  B  B26  1  0.500000  0.871366  0.683190  1
  B  B27  1  0.500000  0.982114  0.214702  1
  B  B28  1  0.500000  0.017672  0.785206  1
  B  B29  1  0.500000  0.483503  0.285587  1
  B  B30  1  0.500000  0.518083  0.714543  1
  B  B31  1  0.500000  0.595272  0.026120  1
  B  B32  1  0.500000  0.404902  0.974598  1
  B  B33  1  0.500000  0.094766  0.474172  1
  B  B34  1  0.500000  0.904336  0.525515  1
  Ru  Ru35  1  0.000000  0.641228  0.317515  1
