# generated using pymatgen
data_Ac9Pb3Au8
_symmetry_space_group_name_H-M   'P 1'
_cell_length_a   8.65177800
_cell_length_b   8.65177800
_cell_length_c   8.32171900
_cell_angle_alpha   90.00000000
_cell_angle_beta   90.00000000
_cell_angle_gamma   90.00000000
_symmetry_Int_Tables_number   1
_chemical_formula_structural   Ac9Pb3Au8
_chemical_formula_sum   'Ac9 Pb3 Au8'
_cell_volume   622.90781727
_cell_formula_units_Z   1
loop_
 _symmetry_equiv_pos_site_id
 _symmetry_equiv_pos_as_xyz
  1  'x, y, z'
loop_
 _atom_site_type_symbol
 _atom_site_label
 _atom_site_symmetry_multiplicity
 _atom_site_fract_x
 _atom_site_fract_y
 _atom_site_fract_z
 _atom_site_occupancy
  Ac  Ac0  1  0.811774  0.154661  0.504193  1
  Ac  Ac1  1  0.188226  0.845339  0.504193  1
  Ac  Ac2  1  0.345339  0.311774  0.995807  1
  Ac  Ac3  1  0.654661  0.688226  0.995807  1
  Ac  Ac4  1  0.656031  0.692686  0.502110  1
  Ac  Ac5  1  0.343969  0.307314  0.502110  1
  Ac  Ac6  1  0.192687  0.843969  0.997890  1
  Ac  Ac7  1  0.807314  0.156032  0.997890  1
  Ac  Ac8  1  0.000000  0.500000  0.250000  1
  Pb  Pb9  1  0.500000  0.000000  0.250000  1
  Pb  Pb10  1  0.000000  0.500000  0.750000  1
  Pb  Pb11  1  0.500000  0.000000  0.750000  1
  Au  Au12  1  0.638780  0.395368  0.252324  1
  Au  Au13  1  0.361220  0.604632  0.252324  1
  Au  Au14  1  0.111503  0.130184  0.753849  1
  Au  Au15  1  0.888497  0.869816  0.753849  1
  Au  Au16  1  0.369816  0.611503  0.746151  1
  Au  Au17  1  0.630184  0.388497  0.746151  1
  Au  Au18  1  0.895368  0.861220  0.247676  1
  Au  Au19  1  0.104632  0.138780  0.247676  1
