# generated using pymatgen
data_Li(IrCl5)2
_symmetry_space_group_name_H-M   'P 1'
_cell_length_a   9.46996244
_cell_length_b   9.46996126
_cell_length_c   12.55137028
_cell_angle_alpha   86.99297980
_cell_angle_beta   86.99297236
_cell_angle_gamma   140.97144899
_symmetry_Int_Tables_number   1
_chemical_formula_structural   Li(IrCl5)2
_chemical_formula_sum   'Li2 Ir4 Cl20'
_cell_volume   700.00974968
_cell_formula_units_Z   2
loop_
 _symmetry_equiv_pos_site_id
 _symmetry_equiv_pos_as_xyz
  1  'x, y, z'
loop_
 _atom_site_type_symbol
 _atom_site_label
 _atom_site_symmetry_multiplicity
 _atom_site_fract_x
 _atom_site_fract_y
 _atom_site_fract_z
 _atom_site_occupancy
  Li  Li0  1  0.552715  0.447285  0.250000  1
  Li  Li1  1  0.447285  0.552715  0.750000  1
  Ir  Ir2  1  0.953578  0.046422  0.250000  1
  Ir  Ir3  1  0.046422  0.953578  0.750000  1
  Ir  Ir4  1  0.752188  0.247812  0.250000  1
  Ir  Ir5  1  0.247812  0.752188  0.750000  1
  Cl  Cl6  1  0.035258  0.742170  0.643878  1
  Cl  Cl7  1  0.257830  0.964742  0.856122  1
  Cl  Cl8  1  0.964742  0.257830  0.356122  1
  Cl  Cl9  1  0.742170  0.035258  0.143878  1
  Cl  Cl10  1  0.715928  0.623095  0.859025  1
  Cl  Cl11  1  0.376905  0.284072  0.640975  1
  Cl  Cl12  1  0.284072  0.376905  0.140975  1
  Cl  Cl13  1  0.623095  0.715928  0.359025  1
  Cl  Cl14  1  0.914789  0.425467  0.852113  1
  Cl  Cl15  1  0.574533  0.085211  0.647887  1
  Cl  Cl16  1  0.085211  0.574533  0.147887  1
  Cl  Cl17  1  0.425467  0.914789  0.352113  1
  Cl  Cl18  1  0.833213  0.917221  0.641203  1
  Cl  Cl19  1  0.082779  0.166787  0.858797  1
  Cl  Cl20  1  0.166787  0.082779  0.358797  1
  Cl  Cl21  1  0.917221  0.833213  0.141203  1
  Cl  Cl22  1  0.230815  0.552014  0.640199  1
  Cl  Cl23  1  0.447986  0.769185  0.859801  1
  Cl  Cl24  1  0.769185  0.447986  0.359801  1
  Cl  Cl25  1  0.552014  0.230815  0.140199  1
