# generated using pymatgen
data_LaNd3Re16Si7Ge
_symmetry_space_group_name_H-M   'P 1'
_cell_length_a   4.17621900
_cell_length_b   7.37884302
_cell_length_c   15.57896603
_cell_angle_alpha   89.80542425
_cell_angle_beta   90.00000000
_cell_angle_gamma   90.00000000
_symmetry_Int_Tables_number   1
_chemical_formula_structural   LaNd3Re16Si7Ge
_chemical_formula_sum   'La1 Nd3 Re16 Si7 Ge1'
_cell_volume   480.07342079
_cell_formula_units_Z   1
loop_
 _symmetry_equiv_pos_site_id
 _symmetry_equiv_pos_as_xyz
  1  'x, y, z'
loop_
 _atom_site_type_symbol
 _atom_site_label
 _atom_site_symmetry_multiplicity
 _atom_site_fract_x
 _atom_site_fract_y
 _atom_site_fract_z
 _atom_site_occupancy
  La  La0  1  0.000000  0.577620  0.117938  1
  Nd  Nd1  1  0.000000  0.419022  0.881390  1
  Nd  Nd2  1  0.500000  0.082438  0.381662  1
  Nd  Nd3  1  0.500000  0.923074  0.620243  1
  Re  Re4  1  0.000000  0.132753  0.051185  1
  Re  Re5  1  0.000000  0.860117  0.946603  1
  Re  Re6  1  0.500000  0.635216  0.446754  1
  Re  Re7  1  0.500000  0.363534  0.552378  1
  Re  Re8  1  0.000000  0.732721  0.320920  1
  Re  Re9  1  0.000000  0.268049  0.679627  1
  Re  Re10  1  0.500000  0.230257  0.179347  1
  Re  Re11  1  0.500000  0.766822  0.820338  1
  Re  Re12  1  0.000000  0.432833  0.418052  1
  Re  Re13  1  0.000000  0.565890  0.581916  1
  Re  Re14  1  0.500000  0.931202  0.080663  1
  Re  Re15  1  0.500000  0.064644  0.917469  1
  Re  Re16  1  0.000000  0.991741  0.206971  1
  Re  Re17  1  0.000000  0.008642  0.793370  1
  Re  Re18  1  0.500000  0.489065  0.293472  1
  Re  Re19  1  0.500000  0.509485  0.706274  1
  Si  Si20  1  0.000000  0.179820  0.525605  1
  Si  Si21  1  0.500000  0.322036  0.023954  1
  Si  Si22  1  0.500000  0.671961  0.974538  1
  Si  Si23  1  0.000000  0.291772  0.273918  1
  Si  Si24  1  0.000000  0.706684  0.726749  1
  Si  Si25  1  0.500000  0.793944  0.227460  1
  Si  Si26  1  0.500000  0.207888  0.773380  1
  Ge  Ge27  1  0.000000  0.840769  0.477827  1
