# generated using pymatgen
data_CeSm3Y4(ReB6)4
_symmetry_space_group_name_H-M   'P 1'
_cell_length_a   3.72183400
_cell_length_b   9.23747269
_cell_length_c   11.65290312
_cell_angle_alpha   90.06916977
_cell_angle_beta   90.00000000
_cell_angle_gamma   90.00000000
_symmetry_Int_Tables_number   1
_chemical_formula_structural   CeSm3Y4(ReB6)4
_chemical_formula_sum   'Ce1 Sm3 Y4 Re4 B24'
_cell_volume   400.63047830
_cell_formula_units_Z   1
loop_
 _symmetry_equiv_pos_site_id
 _symmetry_equiv_pos_as_xyz
  1  'x, y, z'
loop_
 _atom_site_type_symbol
 _atom_site_label
 _atom_site_symmetry_multiplicity
 _atom_site_fract_x
 _atom_site_fract_y
 _atom_site_fract_z
 _atom_site_occupancy
  Ce  Ce0  1  0.000000  0.676266  0.585919  1
  Sm  Sm1  1  0.000000  0.823640  0.086008  1
  Sm  Sm2  1  0.000000  0.176627  0.914232  1
  Sm  Sm3  1  0.000000  0.322974  0.413770  1
  Y  Y4  1  0.000000  0.442990  0.130245  1
  Y  Y5  1  0.000000  0.556927  0.870413  1
  Y  Y6  1  0.000000  0.943298  0.369866  1
  Y  Y7  1  0.000000  0.057264  0.629973  1
  Re  Re8  1  0.000000  0.138645  0.179689  1
  Re  Re9  1  0.000000  0.860029  0.819000  1
  Re  Re10  1  0.000000  0.638637  0.321765  1
  Re  Re11  1  0.000000  0.362745  0.679083  1
  B  B12  1  0.500000  0.053748  0.068184  1
  B  B13  1  0.500000  0.945685  0.931407  1
  B  B14  1  0.500000  0.554920  0.432160  1
  B  B15  1  0.500000  0.446720  0.568718  1
  B  B16  1  0.500000  0.249016  0.082800  1
  B  B17  1  0.500000  0.751197  0.917102  1
  B  B18  1  0.500000  0.748655  0.417845  1
  B  B19  1  0.500000  0.251194  0.582904  1
  B  B20  1  0.500000  0.291437  0.234238  1
  B  B21  1  0.500000  0.708617  0.765298  1
  B  B22  1  0.500000  0.791117  0.266121  1
  B  B23  1  0.500000  0.208956  0.733826  1
  B  B24  1  0.500000  0.130680  0.313731  1
  B  B25  1  0.500000  0.868465  0.685657  1
  B  B26  1  0.500000  0.630395  0.186469  1
  B  B27  1  0.500000  0.369440  0.813851  1
  B  B28  1  0.500000  0.483646  0.287378  1
  B  B29  1  0.500000  0.516507  0.712229  1
  B  B30  1  0.500000  0.983658  0.212495  1
  B  B31  1  0.500000  0.016008  0.787340  1
  B  B32  1  0.500000  0.100651  0.471892  1
  B  B33  1  0.500000  0.899331  0.527997  1
  B  B34  1  0.500000  0.599112  0.027912  1
  B  B35  1  0.500000  0.400801  0.972485  1
