# generated using pymatgen
data_Ho4Al4Rh3Au
_symmetry_space_group_name_H-M   'P 1'
_cell_length_a   4.32766600
_cell_length_b   6.85172120
_cell_length_c   7.90465843
_cell_angle_alpha   89.90923452
_cell_angle_beta   90.00000000
_cell_angle_gamma   90.00000000
_symmetry_Int_Tables_number   1
_chemical_formula_structural   Ho4Al4Rh3Au
_chemical_formula_sum   'Ho4 Al4 Rh3 Au1'
_cell_volume   234.38832818
_cell_formula_units_Z   1
loop_
 _symmetry_equiv_pos_site_id
 _symmetry_equiv_pos_as_xyz
  1  'x, y, z'
loop_
 _atom_site_type_symbol
 _atom_site_label
 _atom_site_symmetry_multiplicity
 _atom_site_fract_x
 _atom_site_fract_y
 _atom_site_fract_z
 _atom_site_occupancy
  Ho  Ho0  1  0.250000  0.525721  0.185256  1
  Ho  Ho1  1  0.750000  0.457243  0.819791  1
  Ho  Ho2  1  0.750000  0.973221  0.673827  1
  Ho  Ho3  1  0.250000  0.033618  0.321632  1
  Al  Al4  1  0.250000  0.634125  0.556293  1
  Al  Al5  1  0.750000  0.361880  0.438067  1
  Al  Al6  1  0.750000  0.864930  0.067127  1
  Al  Al7  1  0.250000  0.148812  0.940193  1
  Rh  Rh8  1  0.750000  0.234638  0.119327  1
  Rh  Rh9  1  0.750000  0.733599  0.380938  1
  Rh  Rh10  1  0.250000  0.264465  0.620793  1
  Au  Au11  1  0.250000  0.767749  0.876756  1
