# generated using pymatgen
data_Te2WF12
_symmetry_space_group_name_H-M   'P 1'
_cell_length_a   5.79963371
_cell_length_b   6.56150364
_cell_length_c   9.18906113
_cell_angle_alpha   70.29272712
_cell_angle_beta   88.55924717
_cell_angle_gamma   62.32674302
_symmetry_Int_Tables_number   1
_chemical_formula_structural   Te2WF12
_chemical_formula_sum   'Te2 W1 F12'
_cell_volume   287.89705267
_cell_formula_units_Z   1
loop_
 _symmetry_equiv_pos_site_id
 _symmetry_equiv_pos_as_xyz
  1  'x, y, z'
loop_
 _atom_site_type_symbol
 _atom_site_label
 _atom_site_symmetry_multiplicity
 _atom_site_fract_x
 _atom_site_fract_y
 _atom_site_fract_z
 _atom_site_occupancy
  Te  Te0  1  0.242092  0.504991  0.750706  1
  Te  Te1  1  0.757908  0.495009  0.249294  1
  W  W2  1  0.000000  0.000000  0.000000  1
  F  F3  1  0.993503  0.725227  0.565668  1
  F  F4  1  0.006497  0.274773  0.434332  1
  F  F5  1  0.416298  0.695745  0.705461  1
  F  F6  1  0.594971  0.234407  0.948812  1
  F  F7  1  0.405029  0.765593  0.051188  1
  F  F8  1  0.954775  0.776890  0.194704  1
  F  F9  1  0.045225  0.223110  0.805296  1
  F  F10  1  0.972407  0.799369  0.886193  1
  F  F11  1  0.027593  0.200631  0.113807  1
  F  F12  1  0.542716  0.690211  0.359282  1
  F  F13  1  0.457284  0.309789  0.640718  1
  F  F14  1  0.583702  0.304255  0.294539  1
