# generated using pymatgen
data_TbErSc3Ga4
_symmetry_space_group_name_H-M   'P 1'
_cell_length_a   7.27048310
_cell_length_b   7.57278504
_cell_length_c   14.45404312
_cell_angle_alpha   90.00064960
_cell_angle_beta   90.01487576
_cell_angle_gamma   90.01205085
_symmetry_Int_Tables_number   1
_chemical_formula_structural   TbErSc3Ga4
_chemical_formula_sum   'Tb4 Er4 Sc12 Ga16'
_cell_volume   795.80785301
_cell_formula_units_Z   4
loop_
 _symmetry_equiv_pos_site_id
 _symmetry_equiv_pos_as_xyz
  1  'x, y, z'
loop_
 _atom_site_type_symbol
 _atom_site_label
 _atom_site_symmetry_multiplicity
 _atom_site_fract_x
 _atom_site_fract_y
 _atom_site_fract_z
 _atom_site_occupancy
  Tb  Tb0  1  0.010636  0.180226  0.094379  1
  Tb  Tb1  1  0.989330  0.820021  0.905627  1
  Tb  Tb2  1  0.489265  0.679889  0.905960  1
  Tb  Tb3  1  0.989317  0.820018  0.594138  1
  Er  Er4  1  0.510730  0.319472  0.094540  1
  Er  Er5  1  0.010583  0.180709  0.405372  1
  Er  Er6  1  0.510681  0.319467  0.405705  1
  Er  Er7  1  0.489218  0.680284  0.594312  1
  Sc  Sc8  1  0.162557  0.502587  0.749799  1
  Sc  Sc9  1  0.837378  0.496684  0.250196  1
  Sc  Sc10  1  0.338024  0.003303  0.250184  1
  Sc  Sc11  1  0.661911  0.997446  0.749811  1
  Sc  Sc12  1  0.330291  0.172781  0.624585  1
  Sc  Sc13  1  0.669963  0.827414  0.375211  1
  Sc  Sc14  1  0.170422  0.672590  0.375169  1
  Sc  Sc15  1  0.669819  0.827325  0.125078  1
  Sc  Sc16  1  0.829809  0.327266  0.624506  1
  Sc  Sc17  1  0.330356  0.172775  0.875231  1
  Sc  Sc18  1  0.829937  0.327188  0.875180  1
  Sc  Sc19  1  0.170337  0.672605  0.125009  1
  Ga  Ga20  1  0.030658  0.116599  0.749983  1
  Ga  Ga21  1  0.969361  0.883909  0.250189  1
  Ga  Ga22  1  0.469490  0.615737  0.250024  1
  Ga  Ga23  1  0.530519  0.383698  0.749814  1
  Ga  Ga24  1  0.284115  0.871017  0.749622  1
  Ga  Ga25  1  0.715944  0.129565  0.250353  1
  Ga  Ga26  1  0.217002  0.370671  0.250371  1
  Ga  Ga27  1  0.783096  0.628690  0.749653  1
  Ga  Ga28  1  0.163332  0.464865  0.540234  1
  Ga  Ga29  1  0.836850  0.533617  0.459236  1
  Ga  Ga30  1  0.337473  0.965696  0.459335  1
  Ga  Ga31  1  0.836881  0.534602  0.040665  1
  Ga  Ga32  1  0.661967  0.034872  0.540223  1
  Ga  Ga33  1  0.162551  0.464840  0.959762  1
  Ga  Ga34  1  0.661868  0.035851  0.959870  1
  Ga  Ga35  1  0.338325  0.965721  0.040674  1
