# generated using pymatgen
data_Er4Al4OsPdPt2
_symmetry_space_group_name_H-M   'P 1'
_cell_length_a   4.32940300
_cell_length_b   6.83129403
_cell_length_c   7.86370072
_cell_angle_alpha   89.84026065
_cell_angle_beta   90.00000000
_cell_angle_gamma   90.00000000
_symmetry_Int_Tables_number   1
_chemical_formula_structural   Er4Al4OsPdPt2
_chemical_formula_sum   'Er4 Al4 Os1 Pd1 Pt2'
_cell_volume   232.57138589
_cell_formula_units_Z   1
loop_
 _symmetry_equiv_pos_site_id
 _symmetry_equiv_pos_as_xyz
  1  'x, y, z'
loop_
 _atom_site_type_symbol
 _atom_site_label
 _atom_site_symmetry_multiplicity
 _atom_site_fract_x
 _atom_site_fract_y
 _atom_site_fract_z
 _atom_site_occupancy
  Er  Er0  1  0.250000  0.472323  0.182020  1
  Er  Er1  1  0.750000  0.535717  0.814686  1
  Er  Er2  1  0.750000  0.020252  0.677646  1
  Er  Er3  1  0.250000  0.967670  0.322036  1
  Al  Al4  1  0.250000  0.854833  0.936679  1
  Al  Al5  1  0.750000  0.141817  0.062482  1
  Al  Al6  1  0.750000  0.645291  0.439917  1
  Al  Al7  1  0.250000  0.360835  0.560777  1
  Os  Os8  1  0.250000  0.733340  0.622079  1
  Pd  Pd9  1  0.250000  0.230348  0.882602  1
  Pt  Pt10  1  0.750000  0.268951  0.378901  1
  Pt  Pt11  1  0.750000  0.768622  0.120175  1
