# generated using pymatgen
data_Y2Er8Tl7InPd4
_symmetry_space_group_name_H-M   'P 1'
_cell_length_a   3.61939300
_cell_length_b   8.18998207
_cell_length_c   18.35621825
_cell_angle_alpha   89.98276516
_cell_angle_beta   90.00000000
_cell_angle_gamma   90.00000000
_symmetry_Int_Tables_number   1
_chemical_formula_structural   Y2Er8Tl7InPd4
_chemical_formula_sum   'Y2 Er8 Tl7 In1 Pd4'
_cell_volume   544.12901713
_cell_formula_units_Z   1
loop_
 _symmetry_equiv_pos_site_id
 _symmetry_equiv_pos_as_xyz
  1  'x, y, z'
loop_
 _atom_site_type_symbol
 _atom_site_label
 _atom_site_symmetry_multiplicity
 _atom_site_fract_x
 _atom_site_fract_y
 _atom_site_fract_z
 _atom_site_occupancy
  Y  Y0  1  0.000000  0.499941  0.500281  1
  Y  Y1  1  0.000000  0.000892  0.998856  1
  Er  Er2  1  0.000000  0.740475  0.282374  1
  Er  Er3  1  0.000000  0.259693  0.717993  1
  Er  Er4  1  0.000000  0.759120  0.782684  1
  Er  Er5  1  0.000000  0.240877  0.217405  1
  Er  Er6  1  0.000000  0.616420  0.085786  1
  Er  Er7  1  0.000000  0.383271  0.914312  1
  Er  Er8  1  0.000000  0.883631  0.586811  1
  Er  Er9  1  0.000000  0.116130  0.413716  1
  Tl  Tl10  1  0.500000  0.706436  0.934003  1
  Tl  Tl11  1  0.500000  0.296078  0.064773  1
  Tl  Tl12  1  0.500000  0.795995  0.435517  1
  Tl  Tl13  1  0.500000  0.203716  0.565025  1
  Tl  Tl14  1  0.500000  0.584510  0.650662  1
  Tl  Tl15  1  0.500000  0.415375  0.350004  1
  Tl  Tl16  1  0.500000  0.915573  0.149442  1
  In  In17  1  0.500000  0.085401  0.848806  1
  Pd  Pd18  1  0.500000  0.526161  0.196667  1
  Pd  Pd19  1  0.500000  0.470428  0.803586  1
  Pd  Pd20  1  0.500000  0.974090  0.698502  1
  Pd  Pd21  1  0.500000  0.025786  0.302795  1
