# generated using pymatgen
data_Lu11Sc(ZnTe2)2
_symmetry_space_group_name_H-M   'P 1'
_cell_length_a   4.03141900
_cell_length_b   11.30943220
_cell_length_c   20.93425642
_cell_angle_alpha   89.97072696
_cell_angle_beta   90.00000000
_cell_angle_gamma   90.00000000
_symmetry_Int_Tables_number   1
_chemical_formula_structural   Lu11Sc(ZnTe2)2
_chemical_formula_sum   'Lu22 Sc2 Zn4 Te8'
_cell_volume   954.45668161
_cell_formula_units_Z   2
loop_
 _symmetry_equiv_pos_site_id
 _symmetry_equiv_pos_as_xyz
  1  'x, y, z'
loop_
 _atom_site_type_symbol
 _atom_site_label
 _atom_site_symmetry_multiplicity
 _atom_site_fract_x
 _atom_site_fract_y
 _atom_site_fract_z
 _atom_site_occupancy
  Lu  Lu0  1  0.250000  0.742588  0.270426  1
  Lu  Lu1  1  0.750000  0.257412  0.729574  1
  Lu  Lu2  1  0.750000  0.242762  0.234397  1
  Lu  Lu3  1  0.250000  0.757238  0.765603  1
  Lu  Lu4  1  0.250000  0.612120  0.006442  1
  Lu  Lu5  1  0.750000  0.387880  0.993558  1
  Lu  Lu6  1  0.750000  0.112876  0.499042  1
  Lu  Lu7  1  0.250000  0.887124  0.500958  1
  Lu  Lu8  1  0.250000  0.375902  0.479411  1
  Lu  Lu9  1  0.750000  0.624098  0.520589  1
  Lu  Lu10  1  0.750000  0.878574  0.025703  1
  Lu  Lu11  1  0.250000  0.121426  0.974297  1
  Lu  Lu12  1  0.250000  0.030687  0.157305  1
  Lu  Lu13  1  0.750000  0.969313  0.842695  1
  Lu  Lu14  1  0.750000  0.533204  0.346966  1
  Lu  Lu15  1  0.250000  0.466796  0.653034  1
  Lu  Lu16  1  0.250000  0.062751  0.361772  1
  Lu  Lu17  1  0.750000  0.937249  0.638228  1
  Lu  Lu18  1  0.750000  0.562033  0.140919  1
  Lu  Lu19  1  0.250000  0.437967  0.859081  1
  Lu  Lu20  1  0.250000  0.315062  0.110207  1
  Lu  Lu21  1  0.750000  0.684938  0.889793  1
  Sc  Sc22  1  0.750000  0.819239  0.388143  1
  Sc  Sc23  1  0.250000  0.180761  0.611857  1
  Zn  Zn24  1  0.250000  0.649878  0.421149  1
  Zn  Zn25  1  0.750000  0.350122  0.578851  1
  Zn  Zn26  1  0.750000  0.135651  0.075751  1
  Zn  Zn27  1  0.250000  0.864349  0.924249  1
  Te  Te28  1  0.250000  0.769978  0.126209  1
  Te  Te29  1  0.750000  0.230022  0.873791  1
  Te  Te30  1  0.750000  0.270918  0.378394  1
  Te  Te31  1  0.250000  0.729082  0.621606  1
  Te  Te32  1  0.250000  0.460164  0.240290  1
  Te  Te33  1  0.750000  0.539836  0.759710  1
  Te  Te34  1  0.750000  0.958937  0.263123  1
  Te  Te35  1  0.250000  0.041063  0.736877  1
