# generated using pymatgen
data_Dy4Y8Ru7
_symmetry_space_group_name_H-M   'P 1'
_cell_length_a   11.36567000
_cell_length_b   8.41058126
_cell_length_c   11.25237905
_cell_angle_alpha   56.47172273
_cell_angle_beta   90.00000000
_cell_angle_gamma   90.00000000
_symmetry_Int_Tables_number   1
_chemical_formula_structural   Dy4Y8Ru7
_chemical_formula_sum   'Dy8 Y16 Ru14'
_cell_volume   896.66466072
_cell_formula_units_Z   2
loop_
 _symmetry_equiv_pos_site_id
 _symmetry_equiv_pos_as_xyz
  1  'x, y, z'
loop_
 _atom_site_type_symbol
 _atom_site_label
 _atom_site_symmetry_multiplicity
 _atom_site_fract_x
 _atom_site_fract_y
 _atom_site_fract_z
 _atom_site_occupancy
  Dy  Dy0  1  0.301437  0.241751  0.676120  1
  Dy  Dy1  1  0.801437  0.758249  0.823880  1
  Dy  Dy2  1  0.698563  0.758249  0.323880  1
  Dy  Dy3  1  0.198563  0.241751  0.176120  1
  Dy  Dy4  1  0.926130  0.281228  0.293498  1
  Dy  Dy5  1  0.426130  0.718772  0.206502  1
  Dy  Dy6  1  0.073870  0.718772  0.706502  1
  Dy  Dy7  1  0.573870  0.281228  0.793498  1
  Y  Y8  1  0.705453  0.241582  0.532139  1
  Y  Y9  1  0.205453  0.758418  0.967861  1
  Y  Y10  1  0.844698  0.507528  0.655531  1
  Y  Y11  1  0.344698  0.492472  0.844469  1
  Y  Y12  1  0.155302  0.492472  0.344469  1
  Y  Y13  1  0.655302  0.507528  0.155531  1
  Y  Y14  1  0.006195  0.853433  0.359976  1
  Y  Y15  1  0.506195  0.146567  0.140024  1
  Y  Y16  1  0.993805  0.146567  0.640024  1
  Y  Y17  1  0.493805  0.853433  0.859976  1
  Y  Y18  1  0.794547  0.241582  0.032139  1
  Y  Y19  1  0.294547  0.758418  0.467861  1
  Y  Y20  1  0.931078  0.777868  0.089132  1
  Y  Y21  1  0.431078  0.222132  0.410868  1
  Y  Y22  1  0.068922  0.222132  0.910868  1
  Y  Y23  1  0.568922  0.777868  0.589132  1
  Ru  Ru24  1  0.500000  0.500000  0.500000  1
  Ru  Ru25  1  0.000000  0.500000  0.000000  1
  Ru  Ru26  1  0.647177  0.925490  0.033701  1
  Ru  Ru27  1  0.147177  0.074510  0.466299  1
  Ru  Ru28  1  0.352823  0.074510  0.966299  1
  Ru  Ru29  1  0.852823  0.925490  0.533701  1
  Ru  Ru30  1  0.397460  0.484476  0.103221  1
  Ru  Ru31  1  0.897460  0.515524  0.396779  1
  Ru  Ru32  1  0.602540  0.515524  0.896779  1
  Ru  Ru33  1  0.102540  0.484476  0.603221  1
  Ru  Ru34  1  0.816261  0.095983  0.849813  1
  Ru  Ru35  1  0.316261  0.904017  0.650187  1
  Ru  Ru36  1  0.183739  0.904017  0.150187  1
  Ru  Ru37  1  0.683739  0.095983  0.349813  1
