# generated using pymatgen
data_Ta12Ga8BPt4C3
_symmetry_space_group_name_H-M   'P 1'
_cell_length_a   8.36099126
_cell_length_b   8.39097005
_cell_length_c   8.36107100
_cell_angle_alpha   60.11847863
_cell_angle_beta   60.00018732
_cell_angle_gamma   60.11805811
_symmetry_Int_Tables_number   1
_chemical_formula_structural   Ta12Ga8BPt4C3
_chemical_formula_sum   'Ta12 Ga8 B1 Pt4 C3'
_cell_volume   415.51960397
_cell_formula_units_Z   1
loop_
 _symmetry_equiv_pos_site_id
 _symmetry_equiv_pos_as_xyz
  1  'x, y, z'
loop_
 _atom_site_type_symbol
 _atom_site_label
 _atom_site_symmetry_multiplicity
 _atom_site_fract_x
 _atom_site_fract_y
 _atom_site_fract_z
 _atom_site_occupancy
  Ta  Ta0  1  0.565993  0.931035  0.565982  1
  Ta  Ta1  1  0.317424  0.682245  0.682909  1
  Ta  Ta2  1  0.684013  0.318966  0.313007  1
  Ta  Ta3  1  0.317422  0.682251  0.317421  1
  Ta  Ta4  1  0.682906  0.682252  0.317421  1
  Ta  Ta5  1  0.313009  0.318965  0.684018  1
  Ta  Ta6  1  0.567094  0.567748  0.932579  1
  Ta  Ta7  1  0.932576  0.567755  0.567091  1
  Ta  Ta8  1  0.565987  0.931034  0.936993  1
  Ta  Ta9  1  0.936991  0.931035  0.565982  1
  Ta  Ta10  1  0.684007  0.318965  0.684018  1
  Ta  Ta11  1  0.932578  0.567749  0.932579  1
  Ga  Ga12  1  0.912939  0.913581  0.912940  1
  Ga  Ga13  1  0.989460  0.336419  0.337060  1
  Ga  Ga14  1  0.336660  0.990021  0.336659  1
  Ga  Ga15  1  0.337064  0.336423  0.989450  1
  Ga  Ga16  1  0.913340  0.259979  0.913341  1
  Ga  Ga17  1  0.912936  0.913577  0.260550  1
  Ga  Ga18  1  0.260540  0.913581  0.912940  1
  Ga  Ga19  1  0.337061  0.336419  0.337060  1
  B  B20  1  0.625000  0.125000  0.625000  1
  Pt  Pt21  1  0.125000  0.125000  0.125000  1
  Pt  Pt22  1  0.625000  0.125000  0.125000  1
  Pt  Pt23  1  0.125000  0.625000  0.125000  1
  Pt  Pt24  1  0.125000  0.125000  0.625000  1
  C  C25  1  0.625000  0.625000  0.625000  1
  C  C26  1  0.125000  0.625000  0.625000  1
  C  C27  1  0.625000  0.625000  0.125000  1
