# generated using pymatgen
data_Ho4Al24IrPt8
_symmetry_space_group_name_H-M   'P 1'
_cell_length_a   7.51691225
_cell_length_b   7.54306288
_cell_length_c   13.16646412
_cell_angle_alpha   84.64288571
_cell_angle_beta   79.12212708
_cell_angle_gamma   59.91028916
_symmetry_Int_Tables_number   1
_chemical_formula_structural   Ho4Al24IrPt8
_chemical_formula_sum   'Ho4 Al24 Ir1 Pt8'
_cell_volume   634.33505970
_cell_formula_units_Z   1
loop_
 _symmetry_equiv_pos_site_id
 _symmetry_equiv_pos_as_xyz
  1  'x, y, z'
loop_
 _atom_site_type_symbol
 _atom_site_label
 _atom_site_symmetry_multiplicity
 _atom_site_fract_x
 _atom_site_fract_y
 _atom_site_fract_z
 _atom_site_occupancy
  Ho  Ho0  1  0.393296  0.168905  0.808527  1
  Ho  Ho1  1  0.606704  0.831095  0.191473  1
  Ho  Ho2  1  0.734217  0.498517  0.808392  1
  Ho  Ho3  1  0.265783  0.501483  0.191608  1
  Al  Al4  1  0.686698  0.830837  0.945293  1
  Al  Al5  1  0.313302  0.169163  0.054707  1
  Al  Al6  1  0.146604  0.832157  0.561593  1
  Al  Al7  1  0.853396  0.167843  0.438407  1
  Al  Al8  1  0.479720  0.166677  0.558977  1
  Al  Al9  1  0.520280  0.833323  0.441023  1
  Al  Al10  1  0.217481  0.165094  0.328613  1
  Al  Al11  1  0.782519  0.834906  0.671387  1
  Al  Al12  1  0.436681  0.506866  0.671320  1
  Al  Al13  1  0.563319  0.493134  0.328680  1
  Al  Al14  1  0.109366  0.160090  0.669640  1
  Al  Al15  1  0.890634  0.839910  0.330360  1
  Al  Al16  1  0.350011  0.499118  0.945458  1
  Al  Al17  1  0.649989  0.500882  0.054542  1
  Al  Al18  1  0.015238  0.171344  0.953950  1
  Al  Al19  1  0.984762  0.828656  0.046050  1
  Al  Al20  1  0.186563  0.499409  0.441152  1
  Al  Al21  1  0.813437  0.500591  0.558848  1
  Al  Al22  1  0.734212  0.163672  0.183202  1
  Al  Al23  1  0.265788  0.836328  0.816798  1
  Al  Al24  1  0.061201  0.629789  0.817244  1
  Al  Al25  1  0.938799  0.370211  0.182756  1
  Al  Al26  1  0.855352  0.041761  0.816298  1
  Al  Al27  1  0.144648  0.958239  0.183702  1
  Ir  Ir28  1  0.000000  0.500000  0.000000  1
  Pt  Pt29  1  0.119933  0.491909  0.638584  1
  Pt  Pt30  1  0.880067  0.508091  0.361416  1
  Pt  Pt31  1  0.657546  0.171150  0.999753  1
  Pt  Pt32  1  0.342454  0.828850  0.000247  1
  Pt  Pt33  1  0.537488  0.166883  0.361742  1
  Pt  Pt34  1  0.462512  0.833117  0.638258  1
  Pt  Pt35  1  0.778619  0.175041  0.637025  1
  Pt  Pt36  1  0.221381  0.824959  0.362975  1
