# generated using pymatgen
data_Ag6PS5Cl
_symmetry_space_group_name_H-M   'P 1'
_cell_length_a   7.46350776
_cell_length_b   7.46350718
_cell_length_c   12.91615938
_cell_angle_alpha   72.80848050
_cell_angle_beta   72.80848411
_cell_angle_gamma   60.43128690
_symmetry_Int_Tables_number   1
_chemical_formula_structural   Ag6PS5Cl
_chemical_formula_sum   'Ag12 P2 S10 Cl2'
_cell_volume   588.03621888
_cell_formula_units_Z   2
loop_
 _symmetry_equiv_pos_site_id
 _symmetry_equiv_pos_as_xyz
  1  'x, y, z'
loop_
 _atom_site_type_symbol
 _atom_site_label
 _atom_site_symmetry_multiplicity
 _atom_site_fract_x
 _atom_site_fract_y
 _atom_site_fract_z
 _atom_site_occupancy
  Ag  Ag0  1  0.033905  0.982329  0.611070  1
  Ag  Ag1  1  0.982329  0.033905  0.111070  1
  Ag  Ag2  1  0.580470  0.417341  0.182421  1
  Ag  Ag3  1  0.417341  0.580470  0.682421  1
  Ag  Ag4  1  0.638525  0.721814  0.881111  1
  Ag  Ag5  1  0.721814  0.638525  0.381111  1
  Ag  Ag6  1  0.564681  0.078003  0.536380  1
  Ag  Ag7  1  0.078003  0.564681  0.036380  1
  Ag  Ag8  1  0.781609  0.255879  0.887486  1
  Ag  Ag9  1  0.255879  0.781609  0.387486  1
  Ag  Ag10  1  0.240567  0.210888  0.387022  1
  Ag  Ag11  1  0.210888  0.240567  0.887022  1
  P  P12  1  0.502633  0.994701  0.122566  1
  P  P13  1  0.994701  0.502633  0.622566  1
  S  S14  1  0.813951  0.787394  0.677059  1
  S  S15  1  0.787394  0.813951  0.177059  1
  S  S16  1  0.330145  0.279501  0.177741  1
  S  S17  1  0.279501  0.330145  0.677741  1
  S  S18  1  0.561636  0.052465  0.950863  1
  S  S19  1  0.052465  0.561636  0.450863  1
  S  S20  1  0.863652  0.402408  0.008640  1
  S  S21  1  0.402408  0.863652  0.508640  1
  S  S22  1  0.822674  0.330313  0.679455  1
  S  S23  1  0.330313  0.822674  0.179455  1
  Cl  Cl24  1  0.277903  0.734612  0.870589  1
  Cl  Cl25  1  0.734612  0.277903  0.370589  1
