# generated using pymatgen
data_CaHo(Re2Si)4
_symmetry_space_group_name_H-M   'P 1'
_cell_length_a   7.39162536
_cell_length_b   7.39162544
_cell_length_c   4.15953600
_cell_angle_alpha   90.00000000
_cell_angle_beta   90.00000000
_cell_angle_gamma   90.02870361
_symmetry_Int_Tables_number   1
_chemical_formula_structural   CaHo(Re2Si)4
_chemical_formula_sum   'Ca1 Ho1 Re8 Si4'
_cell_volume   227.26090488
_cell_formula_units_Z   1
loop_
 _symmetry_equiv_pos_site_id
 _symmetry_equiv_pos_as_xyz
  1  'x, y, z'
loop_
 _atom_site_type_symbol
 _atom_site_label
 _atom_site_symmetry_multiplicity
 _atom_site_fract_x
 _atom_site_fract_y
 _atom_site_fract_z
 _atom_site_occupancy
  Ca  Ca0  1  0.000000  0.000000  0.500000  1
  Ho  Ho1  1  0.500000  0.500000  0.000000  1
  Re  Re2  1  0.657068  0.903640  0.000000  1
  Re  Re3  1  0.158675  0.593137  0.500000  1
  Re  Re4  1  0.096360  0.342932  0.000000  1
  Re  Re5  1  0.903640  0.657068  0.000000  1
  Re  Re6  1  0.406863  0.841325  0.500000  1
  Re  Re7  1  0.593137  0.158675  0.500000  1
  Re  Re8  1  0.342932  0.096360  0.000000  1
  Re  Re9  1  0.841325  0.406863  0.500000  1
  Si  Si10  1  0.208193  0.791807  0.000000  1
  Si  Si11  1  0.791807  0.208193  0.000000  1
  Si  Si12  1  0.709286  0.709286  0.500000  1
  Si  Si13  1  0.290714  0.290714  0.500000  1
