# generated using pymatgen
data_Ho3Tm7In8(HgPt)2
_symmetry_space_group_name_H-M   'P 1'
_cell_length_a   3.65949300
_cell_length_b   8.18219151
_cell_length_c   18.27958854
_cell_angle_alpha   89.68144360
_cell_angle_beta   90.00000000
_cell_angle_gamma   90.00000000
_symmetry_Int_Tables_number   1
_chemical_formula_structural   Ho3Tm7In8(HgPt)2
_chemical_formula_sum   'Ho3 Tm7 In8 Hg2 Pt2'
_cell_volume   547.33127485
_cell_formula_units_Z   1
loop_
 _symmetry_equiv_pos_site_id
 _symmetry_equiv_pos_as_xyz
  1  'x, y, z'
loop_
 _atom_site_type_symbol
 _atom_site_label
 _atom_site_symmetry_multiplicity
 _atom_site_fract_x
 _atom_site_fract_y
 _atom_site_fract_z
 _atom_site_occupancy
  Ho  Ho0  1  0.000000  0.715051  0.278136  1
  Ho  Ho1  1  0.000000  0.999984  0.999930  1
  Ho  Ho2  1  0.000000  0.500067  0.500045  1
  Tm  Tm3  1  0.000000  0.123458  0.423557  1
  Tm  Tm4  1  0.000000  0.876752  0.576674  1
  Tm  Tm5  1  0.000000  0.384009  0.916377  1
  Tm  Tm6  1  0.000000  0.615927  0.083313  1
  Tm  Tm7  1  0.000000  0.262903  0.213623  1
  Tm  Tm8  1  0.000000  0.736757  0.786186  1
  Tm  Tm9  1  0.000000  0.285610  0.722340  1
  In  In10  1  0.500000  0.417364  0.353116  1
  In  In11  1  0.500000  0.581645  0.647047  1
  In  In12  1  0.500000  0.081847  0.853677  1
  In  In13  1  0.500000  0.918602  0.146052  1
  In  In14  1  0.500000  0.293314  0.064076  1
  In  In15  1  0.500000  0.706321  0.935795  1
  In  In16  1  0.500000  0.210526  0.568496  1
  In  In17  1  0.500000  0.789838  0.432252  1
  Hg  Hg18  1  0.500000  0.028264  0.301033  1
  Hg  Hg19  1  0.500000  0.973856  0.699198  1
  Pt  Pt20  1  0.500000  0.474238  0.805293  1
  Pt  Pt21  1  0.500000  0.523668  0.193784  1
