# generated using pymatgen
data_Tb10In8Cu3Ru
_symmetry_space_group_name_H-M   'P 1'
_cell_length_a   3.62342900
_cell_length_b   8.14072198
_cell_length_c   18.19428139
_cell_angle_alpha   90.07974877
_cell_angle_beta   90.00000000
_cell_angle_gamma   90.00000000
_symmetry_Int_Tables_number   1
_chemical_formula_structural   Tb10In8Cu3Ru
_chemical_formula_sum   'Tb10 In8 Cu3 Ru1'
_cell_volume   536.68216781
_cell_formula_units_Z   1
loop_
 _symmetry_equiv_pos_site_id
 _symmetry_equiv_pos_as_xyz
  1  'x, y, z'
loop_
 _atom_site_type_symbol
 _atom_site_label
 _atom_site_symmetry_multiplicity
 _atom_site_fract_x
 _atom_site_fract_y
 _atom_site_fract_z
 _atom_site_occupancy
  Tb  Tb0  1  0.000000  0.116797  0.414966  1
  Tb  Tb1  1  0.000000  0.878374  0.584251  1
  Tb  Tb2  1  0.000000  0.379598  0.916275  1
  Tb  Tb3  1  0.000000  0.619928  0.082738  1
  Tb  Tb4  1  0.000000  0.229763  0.221269  1
  Tb  Tb5  1  0.000000  0.759189  0.779996  1
  Tb  Tb6  1  0.000000  0.260665  0.719728  1
  Tb  Tb7  1  0.000000  0.756669  0.280854  1
  Tb  Tb8  1  0.000000  0.002214  0.999973  1
  Tb  Tb9  1  0.000000  0.502248  0.500159  1
  In  In10  1  0.500000  0.421910  0.348613  1
  In  In11  1  0.500000  0.575623  0.650860  1
  In  In12  1  0.500000  0.075982  0.849068  1
  In  In13  1  0.500000  0.924241  0.150008  1
  In  In14  1  0.500000  0.293889  0.068600  1
  In  In15  1  0.500000  0.707861  0.930740  1
  In  In16  1  0.500000  0.207412  0.569054  1
  In  In17  1  0.500000  0.793870  0.430786  1
  Cu  Cu18  1  0.500000  0.974816  0.697903  1
  Cu  Cu19  1  0.500000  0.474175  0.802186  1
  Cu  Cu20  1  0.500000  0.521799  0.197711  1
  Ru  Ru21  1  0.500000  0.022976  0.304262  1
