# generated using pymatgen
data_Er4ScZn2Sb
_symmetry_space_group_name_H-M   'P 1'
_cell_length_a   8.39629881
_cell_length_b   8.39629824
_cell_length_c   8.39629892
_cell_angle_alpha   123.69424267
_cell_angle_beta   123.69423985
_cell_angle_gamma   83.71226461
_symmetry_Int_Tables_number   1
_chemical_formula_structural   Er4ScZn2Sb
_chemical_formula_sum   'Er8 Sc2 Zn4 Sb2'
_cell_volume   392.59059365
_cell_formula_units_Z   2
loop_
 _symmetry_equiv_pos_site_id
 _symmetry_equiv_pos_as_xyz
  1  'x, y, z'
loop_
 _atom_site_type_symbol
 _atom_site_label
 _atom_site_symmetry_multiplicity
 _atom_site_fract_x
 _atom_site_fract_y
 _atom_site_fract_z
 _atom_site_occupancy
  Er  Er0  1  0.012182  0.512182  0.811074  1
  Er  Er1  1  0.701108  0.201108  0.188926  1
  Er  Er2  1  0.512182  0.701108  0.500000  1
  Er  Er3  1  0.201108  0.012182  0.500000  1
  Er  Er4  1  0.987818  0.487818  0.188926  1
  Er  Er5  1  0.298892  0.798892  0.811074  1
  Er  Er6  1  0.487818  0.298892  0.500000  1
  Er  Er7  1  0.798892  0.987818  0.500000  1
  Sc  Sc8  1  0.000000  0.000000  0.000000  1
  Sc  Sc9  1  0.500000  0.500000  0.000000  1
  Zn  Zn10  1  0.637901  0.137901  0.775800  1
  Zn  Zn11  1  0.362099  0.862099  0.224200  1
  Zn  Zn12  1  0.137901  0.362099  0.500000  1
  Zn  Zn13  1  0.862099  0.637901  0.500000  1
  Sb  Sb14  1  0.750000  0.750000  0.000000  1
  Sb  Sb15  1  0.250000  0.250000  0.000000  1
