# generated using pymatgen
data_Tb2Y2Ir3PdO14
_symmetry_space_group_name_H-M   'P 1'
_cell_length_a   7.28414168
_cell_length_b   7.24483818
_cell_length_c   7.28414224
_cell_angle_alpha   59.84791670
_cell_angle_beta   60.01857729
_cell_angle_gamma   59.84791218
_symmetry_Int_Tables_number   1
_chemical_formula_structural   Tb2Y2Ir3PdO14
_chemical_formula_sum   'Tb2 Y2 Ir3 Pd1 O14'
_cell_volume   271.22453290
_cell_formula_units_Z   1
loop_
 _symmetry_equiv_pos_site_id
 _symmetry_equiv_pos_as_xyz
  1  'x, y, z'
loop_
 _atom_site_type_symbol
 _atom_site_label
 _atom_site_symmetry_multiplicity
 _atom_site_fract_x
 _atom_site_fract_y
 _atom_site_fract_z
 _atom_site_occupancy
  Tb  Tb0  1  0.625000  0.125000  0.125000  1
  Tb  Tb1  1  0.125000  0.125000  0.625000  1
  Y  Y2  1  0.125000  0.625000  0.125000  1
  Y  Y3  1  0.125000  0.125000  0.125000  1
  Ir  Ir4  1  0.125000  0.625000  0.625000  1
  Ir  Ir5  1  0.625000  0.625000  0.125000  1
  Ir  Ir6  1  0.625000  0.625000  0.625000  1
  Pd  Pd7  1  0.625000  0.125000  0.625000  1
  O  O8  1  0.715607  0.705107  0.289811  1
  O  O9  1  0.280392  0.288279  0.715846  1
  O  O10  1  0.715863  0.288128  0.715863  1
  O  O11  1  0.289939  0.704850  0.289939  1
  O  O12  1  0.289811  0.705107  0.715607  1
  O  O13  1  0.715846  0.288279  0.280392  1
  O  O14  1  0.534393  0.544893  0.960189  1
  O  O15  1  0.969608  0.961721  0.534154  1
  O  O16  1  0.534137  0.961872  0.534137  1
  O  O17  1  0.960061  0.545150  0.960061  1
  O  O18  1  0.960189  0.544893  0.534393  1
  O  O19  1  0.534154  0.961721  0.969608  1
  O  O20  1  0.249168  0.250940  0.249168  1
  O  O21  1  0.000832  0.999060  0.000832  1
