# generated using pymatgen
data_YbTm(LuOs4)2
_symmetry_space_group_name_H-M   'P 1'
_cell_length_a   5.28929500
_cell_length_b   5.28929576
_cell_length_c   8.76628000
_cell_angle_alpha   90.00000000
_cell_angle_beta   90.00000000
_cell_angle_gamma   119.99998902
_symmetry_Int_Tables_number   1
_chemical_formula_structural   YbTm(LuOs4)2
_chemical_formula_sum   'Yb1 Tm1 Lu2 Os8'
_cell_volume   212.39371400
_cell_formula_units_Z   1
loop_
 _symmetry_equiv_pos_site_id
 _symmetry_equiv_pos_as_xyz
  1  'x, y, z'
loop_
 _atom_site_type_symbol
 _atom_site_label
 _atom_site_symmetry_multiplicity
 _atom_site_fract_x
 _atom_site_fract_y
 _atom_site_fract_z
 _atom_site_occupancy
  Yb  Yb0  1  0.666667  0.333333  0.562881  1
  Tm  Tm1  1  0.333333  0.666667  0.438258  1
  Lu  Lu2  1  0.666667  0.333333  0.929744  1
  Lu  Lu3  1  0.333333  0.666667  0.066149  1
  Os  Os4  1  0.172385  0.344770  0.751800  1
  Os  Os5  1  0.172385  0.827615  0.751800  1
  Os  Os6  1  0.345967  0.172984  0.248633  1
  Os  Os7  1  0.827016  0.654033  0.248633  1
  Os  Os8  1  0.655230  0.827615  0.751800  1
  Os  Os9  1  0.000000  0.000000  0.000889  1
  Os  Os10  1  0.827016  0.172984  0.248633  1
  Os  Os11  1  0.000000  0.000000  0.500777  1
