# generated using pymatgen
data_Dy2Pu3(PaH8)3
_symmetry_space_group_name_H-M   'P 1'
_cell_length_a   6.61639300
_cell_length_b   6.55806800
_cell_length_c   6.59136500
_cell_angle_alpha   90.00000000
_cell_angle_beta   90.00000000
_cell_angle_gamma   90.00000000
_symmetry_Int_Tables_number   1
_chemical_formula_structural   Dy2Pu3(PaH8)3
_chemical_formula_sum   'Dy2 Pu3 Pa3 H24'
_cell_volume   286.00430521
_cell_formula_units_Z   1
loop_
 _symmetry_equiv_pos_site_id
 _symmetry_equiv_pos_as_xyz
  1  'x, y, z'
loop_
 _atom_site_type_symbol
 _atom_site_label
 _atom_site_symmetry_multiplicity
 _atom_site_fract_x
 _atom_site_fract_y
 _atom_site_fract_z
 _atom_site_occupancy
  Dy  Dy0  1  0.000000  0.000000  0.003300  1
  Dy  Dy1  1  0.500000  0.500000  0.498531  1
  Pu  Pu2  1  0.249365  0.000000  0.501766  1
  Pu  Pu3  1  0.750635  0.000000  0.501766  1
  Pu  Pu4  1  0.000000  0.500000  0.250515  1
  Pa  Pa5  1  0.000000  0.500000  0.746762  1
  Pa  Pa6  1  0.500000  0.750537  0.999198  1
  Pa  Pa7  1  0.500000  0.249463  0.999198  1
  H  H8  1  0.000000  0.156137  0.304538  1
  H  H9  1  0.500000  0.195863  0.658785  1
  H  H10  1  0.500000  0.804197  0.340592  1
  H  H11  1  0.807744  0.653415  0.504464  1
  H  H12  1  0.192256  0.653415  0.504464  1
  H  H13  1  0.343976  0.500000  0.806366  1
  H  H14  1  0.656024  0.500000  0.806366  1
  H  H15  1  0.307965  0.000000  0.152181  1
  H  H16  1  0.157967  0.306024  0.994710  1
  H  H17  1  0.842033  0.693976  0.994710  1
  H  H18  1  0.307951  0.000000  0.848462  1
  H  H19  1  0.842033  0.306024  0.994710  1
  H  H20  1  0.692035  0.000000  0.152181  1
  H  H21  1  0.692049  0.000000  0.848462  1
  H  H22  1  0.157967  0.693976  0.994710  1
  H  H23  1  0.000000  0.841822  0.696550  1
  H  H24  1  0.000000  0.158178  0.696550  1
  H  H25  1  0.000000  0.843863  0.304538  1
  H  H26  1  0.653824  0.500000  0.193659  1
  H  H27  1  0.346176  0.500000  0.193659  1
  H  H28  1  0.807744  0.346585  0.504464  1
  H  H29  1  0.192256  0.346585  0.504464  1
  H  H30  1  0.500000  0.804137  0.658785  1
  H  H31  1  0.500000  0.195803  0.340592  1
