# generated using pymatgen
data_Tb3In4IrPd
_symmetry_space_group_name_H-M   'P 1'
_cell_length_a   7.92168600
_cell_length_b   7.92168709
_cell_length_c   3.84829000
_cell_angle_alpha   90.00000000
_cell_angle_beta   90.00000000
_cell_angle_gamma   120.00000379
_symmetry_Int_Tables_number   1
_chemical_formula_structural   Tb3In4IrPd
_chemical_formula_sum   'Tb3 In4 Ir1 Pd1'
_cell_volume   209.13836807
_cell_formula_units_Z   1
loop_
 _symmetry_equiv_pos_site_id
 _symmetry_equiv_pos_as_xyz
  1  'x, y, z'
loop_
 _atom_site_type_symbol
 _atom_site_label
 _atom_site_symmetry_multiplicity
 _atom_site_fract_x
 _atom_site_fract_y
 _atom_site_fract_z
 _atom_site_occupancy
  Tb  Tb0  1  0.387553  0.422199  0.500000  1
  Tb  Tb1  1  0.034647  0.612448  0.500000  1
  Tb  Tb2  1  0.577801  0.965353  0.500000  1
  In  In3  1  0.002637  0.258480  0.000000  1
  In  In4  1  0.666667  0.333334  0.000000  1
  In  In5  1  0.741519  0.744157  0.000000  1
  In  In6  1  0.255844  0.997363  0.000000  1
  Ir  Ir7  1  0.333334  0.666667  0.000000  1
  Pd  Pd8  1  0.000000  0.000000  0.500000  1
