# generated using pymatgen
data_Tb16Cd3AgIr2PdPt
_symmetry_space_group_name_H-M   'P 1'
_cell_length_a   9.67800223
_cell_length_b   9.67801553
_cell_length_c   9.65275300
_cell_angle_alpha   60.11968719
_cell_angle_beta   60.11954634
_cell_angle_gamma   60.20683363
_symmetry_Int_Tables_number   1
_chemical_formula_structural   Tb16Cd3AgIr2PdPt
_chemical_formula_sum   'Tb16 Cd3 Ag1 Ir2 Pd1 Pt1'
_cell_volume   641.45736585
_cell_formula_units_Z   1
loop_
 _symmetry_equiv_pos_site_id
 _symmetry_equiv_pos_as_xyz
  1  'x, y, z'
loop_
 _atom_site_type_symbol
 _atom_site_label
 _atom_site_symmetry_multiplicity
 _atom_site_fract_x
 _atom_site_fract_y
 _atom_site_fract_z
 _atom_site_occupancy
  Tb  Tb0  1  0.600279  0.600287  0.596742  1
  Tb  Tb1  1  0.602292  0.602302  0.199472  1
  Tb  Tb2  1  0.606695  0.193215  0.602478  1
  Tb  Tb3  1  0.193218  0.606703  0.602471  1
  Tb  Tb4  1  0.055911  0.440303  0.439777  1
  Tb  Tb5  1  0.438491  0.057104  0.063095  1
  Tb  Tb6  1  0.440301  0.055906  0.439781  1
  Tb  Tb7  1  0.057108  0.438493  0.063090  1
  Tb  Tb8  1  0.440875  0.440881  0.058191  1
  Tb  Tb9  1  0.061564  0.061555  0.436541  1
  Tb  Tb10  1  0.184421  0.816062  0.811492  1
  Tb  Tb11  1  0.815804  0.185429  0.185043  1
  Tb  Tb12  1  0.816062  0.184418  0.811493  1
  Tb  Tb13  1  0.185433  0.815801  0.185042  1
  Tb  Tb14  1  0.813964  0.813963  0.183493  1
  Tb  Tb15  1  0.185063  0.185059  0.813848  1
  Cd  Cd16  1  0.831367  0.831368  0.507089  1
  Cd  Cd17  1  0.830795  0.507984  0.831404  1
  Cd  Cd18  1  0.507985  0.830796  0.831404  1
  Ag  Ag19  1  0.833793  0.833793  0.833405  1
  Ir  Ir20  1  0.391094  0.823095  0.393460  1
  Ir  Ir21  1  0.823095  0.391093  0.393458  1
  Pd  Pd22  1  0.392456  0.392456  0.395711  1
  Pt  Pt23  1  0.391935  0.391937  0.822022  1
