# generated using pymatgen
data_Zr6Al16Co2Pd4Rh
_symmetry_space_group_name_H-M   'P 1'
_cell_length_a   8.71123757
_cell_length_b   8.73514016
_cell_length_c   8.71123580
_cell_angle_alpha   59.90918512
_cell_angle_beta   60.18163614
_cell_angle_gamma   59.90918425
_symmetry_Int_Tables_number   1
_chemical_formula_structural   Zr6Al16Co2Pd4Rh
_chemical_formula_sum   'Zr6 Al16 Co2 Pd4 Rh1'
_cell_volume   468.71404429
_cell_formula_units_Z   1
loop_
 _symmetry_equiv_pos_site_id
 _symmetry_equiv_pos_as_xyz
  1  'x, y, z'
loop_
 _atom_site_type_symbol
 _atom_site_label
 _atom_site_symmetry_multiplicity
 _atom_site_fract_x
 _atom_site_fract_y
 _atom_site_fract_z
 _atom_site_occupancy
  Zr  Zr0  1  0.686795  0.686795  0.313205  1
  Zr  Zr1  1  0.308317  0.691683  0.308317  1
  Zr  Zr2  1  0.686795  0.313205  0.313205  1
  Zr  Zr3  1  0.313205  0.313205  0.686795  1
  Zr  Zr4  1  0.691683  0.308317  0.691683  1
  Zr  Zr5  1  0.313205  0.686795  0.686795  1
  Al  Al6  1  0.871295  0.884777  0.359149  1
  Al  Al7  1  0.884777  0.359149  0.884777  1
  Al  Al8  1  0.359149  0.884777  0.871295  1
  Al  Al9  1  0.884777  0.871295  0.884777  1
  Al  Al10  1  0.128705  0.115223  0.640851  1
  Al  Al11  1  0.115223  0.640851  0.115223  1
  Al  Al12  1  0.640851  0.115223  0.128705  1
  Al  Al13  1  0.115223  0.128705  0.115223  1
  Al  Al14  1  0.674102  0.660531  0.004836  1
  Al  Al15  1  0.660531  0.004836  0.660531  1
  Al  Al16  1  0.004836  0.660531  0.674102  1
  Al  Al17  1  0.660531  0.674102  0.660531  1
  Al  Al18  1  0.325898  0.339469  0.995164  1
  Al  Al19  1  0.339469  0.995164  0.339469  1
  Al  Al20  1  0.995164  0.339469  0.325898  1
  Al  Al21  1  0.339469  0.325898  0.339469  1
  Co  Co22  1  0.500000  0.000000  0.500000  1
  Co  Co23  1  0.000000  0.500000  0.000000  1
  Pd  Pd24  1  0.000000  0.000000  0.500000  1
  Pd  Pd25  1  0.000000  0.500000  0.500000  1
  Pd  Pd26  1  0.500000  0.500000  0.000000  1
  Pd  Pd27  1  0.500000  0.000000  0.000000  1
  Rh  Rh28  1  0.000000  0.000000  0.000000  1
