# generated using pymatgen
data_MoPt5Rh3
_symmetry_space_group_name_H-M   'P 1'
_cell_length_a   6.24379866
_cell_length_b   6.24379841
_cell_length_c   6.19323435
_cell_angle_alpha   95.66732002
_cell_angle_beta   95.66731001
_cell_angle_gamma   143.52297286
_symmetry_Int_Tables_number   1
_chemical_formula_structural   MoPt5Rh3
_chemical_formula_sum   'Mo1 Pt5 Rh3'
_cell_volume   136.20568516
_cell_formula_units_Z   1
loop_
 _symmetry_equiv_pos_site_id
 _symmetry_equiv_pos_as_xyz
  1  'x, y, z'
loop_
 _atom_site_type_symbol
 _atom_site_label
 _atom_site_symmetry_multiplicity
 _atom_site_fract_x
 _atom_site_fract_y
 _atom_site_fract_z
 _atom_site_occupancy
  Mo  Mo0  1  0.003524  0.996476  0.000000  1
  Pt  Pt1  1  0.337628  0.662372  0.000000  1
  Pt  Pt2  1  0.001731  0.328024  0.329754  1
  Pt  Pt3  1  0.998332  0.673496  0.671828  1
  Pt  Pt4  1  0.671976  0.998269  0.670246  1
  Pt  Pt5  1  0.326504  0.001668  0.328172  1
  Rh  Rh6  1  0.339878  0.338406  0.678284  1
  Rh  Rh7  1  0.661594  0.660122  0.321716  1
  Rh  Rh8  1  0.658833  0.341167  0.000000  1
