# generated using pymatgen
data_Y2(GaNi)5
_symmetry_space_group_name_H-M   'P 1'
_cell_length_a   4.04913800
_cell_length_b   8.86084217
_cell_length_c   15.52186580
_cell_angle_alpha   89.70816534
_cell_angle_beta   90.00000000
_cell_angle_gamma   90.00000000
_symmetry_Int_Tables_number   1
_chemical_formula_structural   Y2(GaNi)5
_chemical_formula_sum   'Y6 Ga15 Ni15'
_cell_volume   556.89827198
_cell_formula_units_Z   3
loop_
 _symmetry_equiv_pos_site_id
 _symmetry_equiv_pos_as_xyz
  1  'x, y, z'
loop_
 _atom_site_type_symbol
 _atom_site_label
 _atom_site_symmetry_multiplicity
 _atom_site_fract_x
 _atom_site_fract_y
 _atom_site_fract_z
 _atom_site_occupancy
  Y  Y0  1  0.000000  0.000317  0.336904  1
  Y  Y1  1  0.000000  0.504284  0.833832  1
  Y  Y2  1  0.000000  0.503869  0.170222  1
  Y  Y3  1  0.000000  0.005391  0.663828  1
  Y  Y4  1  0.500000  0.990046  0.001555  1
  Y  Y5  1  0.500000  0.497674  0.495537  1
  Ga  Ga6  1  0.500000  0.015483  0.501407  1
  Ga  Ga7  1  0.500000  0.512367  0.001309  1
  Ga  Ga8  1  0.500000  0.743801  0.259488  1
  Ga  Ga9  1  0.500000  0.251936  0.753168  1
  Ga  Ga10  1  0.500000  0.245056  0.246179  1
  Ga  Ga11  1  0.500000  0.751797  0.745368  1
  Ga  Ga12  1  0.000000  0.146700  0.854084  1
  Ga  Ga13  1  0.000000  0.144009  0.146753  1
  Ga  Ga14  1  0.000000  0.649887  0.646043  1
  Ga  Ga15  1  0.000000  0.777251  0.493354  1
  Ga  Ga16  1  0.000000  0.295359  0.000878  1
  Ga  Ga17  1  0.000000  0.849153  0.138066  1
  Ga  Ga18  1  0.000000  0.355232  0.633980  1
  Ga  Ga19  1  0.000000  0.364114  0.364565  1
  Ga  Ga20  1  0.000000  0.853047  0.865386  1
  Ni  Ni21  1  0.500000  0.989378  0.185045  1
  Ni  Ni22  1  0.500000  0.497490  0.682160  1
  Ni  Ni23  1  0.500000  0.224436  0.401812  1
  Ni  Ni24  1  0.500000  0.723622  0.903306  1
  Ni  Ni25  1  0.500000  0.785232  0.411307  1
  Ni  Ni26  1  0.500000  0.278030  0.911335  1
  Ni  Ni27  1  0.500000  0.490279  0.314419  1
  Ni  Ni28  1  0.500000  0.996209  0.816355  1
  Ni  Ni29  1  0.500000  0.722235  0.098702  1
  Ni  Ni30  1  0.500000  0.227500  0.596204  1
  Ni  Ni31  1  0.500000  0.277436  0.089628  1
  Ni  Ni32  1  0.500000  0.780170  0.587386  1
  Ni  Ni33  1  0.000000  0.204214  0.498654  1
  Ni  Ni34  1  0.000000  0.699486  0.000924  1
  Ni  Ni35  1  0.000000  0.647710  0.350856  1
