# generated using pymatgen
data_LuSc4Pa3(ReB6)4
_symmetry_space_group_name_H-M   'P 1'
_cell_length_a   3.62512400
_cell_length_b   8.98908446
_cell_length_c   11.35320901
_cell_angle_alpha   90.07592360
_cell_angle_beta   90.00000000
_cell_angle_gamma   90.00000000
_symmetry_Int_Tables_number   1
_chemical_formula_structural   LuSc4Pa3(ReB6)4
_chemical_formula_sum   'Lu1 Sc4 Pa3 Re4 B24'
_cell_volume   369.96154076
_cell_formula_units_Z   1
loop_
 _symmetry_equiv_pos_site_id
 _symmetry_equiv_pos_as_xyz
  1  'x, y, z'
loop_
 _atom_site_type_symbol
 _atom_site_label
 _atom_site_symmetry_multiplicity
 _atom_site_fract_x
 _atom_site_fract_y
 _atom_site_fract_z
 _atom_site_occupancy
  Lu  Lu0  1  0.000000  0.181943  0.913187  1
  Sc  Sc1  1  0.000000  0.946413  0.374693  1
  Sc  Sc2  1  0.000000  0.055083  0.626888  1
  Sc  Sc3  1  0.000000  0.443935  0.123957  1
  Sc  Sc4  1  0.000000  0.553149  0.874730  1
  Pa  Pa5  1  0.000000  0.319293  0.413775  1
  Pa  Pa6  1  0.000000  0.679825  0.587089  1
  Pa  Pa7  1  0.000000  0.821549  0.085424  1
  Re  Re8  1  0.000000  0.640436  0.319428  1
  Re  Re9  1  0.000000  0.360951  0.679221  1
  Re  Re10  1  0.000000  0.139950  0.181844  1
  Re  Re11  1  0.000000  0.858536  0.819511  1
  B  B12  1  0.500000  0.554621  0.432590  1
  B  B13  1  0.500000  0.445362  0.567413  1
  B  B14  1  0.500000  0.054777  0.066650  1
  B  B15  1  0.500000  0.945665  0.932814  1
  B  B16  1  0.500000  0.753746  0.419450  1
  B  B17  1  0.500000  0.246443  0.581967  1
  B  B18  1  0.500000  0.252639  0.079076  1
  B  B19  1  0.500000  0.747464  0.919478  1
  B  B20  1  0.500000  0.794507  0.264491  1
  B  B21  1  0.500000  0.205239  0.736359  1
  B  B22  1  0.500000  0.294472  0.233535  1
  B  B23  1  0.500000  0.705527  0.765436  1
  B  B24  1  0.500000  0.629617  0.182137  1
  B  B25  1  0.500000  0.369304  0.817827  1
  B  B26  1  0.500000  0.129959  0.316937  1
  B  B27  1  0.500000  0.870741  0.683824  1
  B  B28  1  0.500000  0.981818  0.213538  1
  B  B29  1  0.500000  0.019690  0.786374  1
  B  B30  1  0.500000  0.481612  0.284333  1
  B  B31  1  0.500000  0.517530  0.715961  1
  B  B32  1  0.500000  0.599467  0.027163  1
  B  B33  1  0.500000  0.398461  0.972002  1
  B  B34  1  0.500000  0.100417  0.472989  1
  B  B35  1  0.500000  0.899857  0.527907  1
