# generated using pymatgen
data_YbPr3Ga18(Ir2Pd)2
_symmetry_space_group_name_H-M   'P 1'
_cell_length_a   7.67132673
_cell_length_b   7.67849436
_cell_length_c   9.60634300
_cell_angle_alpha   90.00000000
_cell_angle_beta   90.00000000
_cell_angle_gamma   119.56189082
_symmetry_Int_Tables_number   1
_chemical_formula_structural   YbPr3Ga18(Ir2Pd)2
_chemical_formula_sum   'Yb1 Pr3 Ga18 Ir4 Pd2'
_cell_volume   492.19326011
_cell_formula_units_Z   1
loop_
 _symmetry_equiv_pos_site_id
 _symmetry_equiv_pos_as_xyz
  1  'x, y, z'
loop_
 _atom_site_type_symbol
 _atom_site_label
 _atom_site_symmetry_multiplicity
 _atom_site_fract_x
 _atom_site_fract_y
 _atom_site_fract_z
 _atom_site_occupancy
  Yb  Yb0  1  0.328848  0.001791  0.750000  1
  Pr  Pr1  1  0.998407  0.671809  0.250000  1
  Pr  Pr2  1  0.002310  0.329229  0.750000  1
  Pr  Pr3  1  0.669948  0.997228  0.250000  1
  Ga  Ga4  1  0.133086  0.132003  0.250000  1
  Ga  Ga5  1  0.870079  0.868158  0.750000  1
  Ga  Ga6  1  0.002865  0.338400  0.078654  1
  Ga  Ga7  1  0.001500  0.666075  0.918864  1
  Ga  Ga8  1  0.001500  0.666075  0.581136  1
  Ga  Ga9  1  0.338161  0.002562  0.425984  1
  Ga  Ga10  1  0.002865  0.338400  0.421346  1
  Ga  Ga11  1  0.657050  0.997677  0.581478  1
  Ga  Ga12  1  0.657050  0.997677  0.918522  1
  Ga  Ga13  1  0.338161  0.002562  0.074016  1
  Ga  Ga14  1  0.338409  0.334524  0.565052  1
  Ga  Ga15  1  0.662141  0.662012  0.438085  1
  Ga  Ga16  1  0.662141  0.662012  0.061915  1
  Ga  Ga17  1  0.338409  0.334524  0.934948  1
  Ga  Ga18  1  0.337469  0.544834  0.250000  1
  Ga  Ga19  1  0.659582  0.450814  0.750000  1
  Ga  Ga20  1  0.544501  0.336177  0.250000  1
  Ga  Ga21  1  0.453257  0.663981  0.750000  1
  Ir  Ir22  1  0.672615  0.329842  0.999740  1
  Ir  Ir23  1  0.328750  0.670430  0.999822  1
  Ir  Ir24  1  0.328750  0.670430  0.500178  1
  Ir  Ir25  1  0.672615  0.329842  0.500260  1
  Pd  Pd26  1  0.999766  0.000466  0.999563  1
  Pd  Pd27  1  0.999766  0.000466  0.500437  1
