# generated using pymatgen
data_Ho3Lu5B24(OsW)2
_symmetry_space_group_name_H-M   'P 1'
_cell_length_a   3.59250000
_cell_length_b   9.14208329
_cell_length_c   11.54220001
_cell_angle_alpha   89.83420266
_cell_angle_beta   90.00000000
_cell_angle_gamma   90.00000000
_symmetry_Int_Tables_number   1
_chemical_formula_structural   Ho3Lu5B24(OsW)2
_chemical_formula_sum   'Ho3 Lu5 B24 Os2 W2'
_cell_volume   379.07812854
_cell_formula_units_Z   1
loop_
 _symmetry_equiv_pos_site_id
 _symmetry_equiv_pos_as_xyz
  1  'x, y, z'
loop_
 _atom_site_type_symbol
 _atom_site_label
 _atom_site_symmetry_multiplicity
 _atom_site_fract_x
 _atom_site_fract_y
 _atom_site_fract_z
 _atom_site_occupancy
  Ho  Ho0  1  0.000000  0.321311  0.413945  1
  Ho  Ho1  1  0.000000  0.678648  0.586201  1
  Ho  Ho2  1  0.000000  0.821037  0.086114  1
  Lu  Lu3  1  0.000000  0.179349  0.913675  1
  Lu  Lu4  1  0.000000  0.945189  0.371529  1
  Lu  Lu5  1  0.000000  0.055014  0.628585  1
  Lu  Lu6  1  0.000000  0.442419  0.127066  1
  Lu  Lu7  1  0.000000  0.557128  0.872746  1
  B  B8  1  0.500000  0.551498  0.434207  1
  B  B9  1  0.500000  0.448289  0.566016  1
  B  B10  1  0.500000  0.054547  0.066025  1
  B  B11  1  0.500000  0.946559  0.933285  1
  B  B12  1  0.500000  0.752724  0.421189  1
  B  B13  1  0.500000  0.247363  0.579047  1
  B  B14  1  0.500000  0.249628  0.080057  1
  B  B15  1  0.500000  0.750347  0.918896  1
  B  B16  1  0.500000  0.796602  0.263378  1
  B  B17  1  0.500000  0.203160  0.737555  1
  B  B18  1  0.500000  0.290729  0.233038  1
  B  B19  1  0.500000  0.709300  0.766749  1
  B  B20  1  0.500000  0.630681  0.181385  1
  B  B21  1  0.500000  0.368393  0.819135  1
  B  B22  1  0.500000  0.129846  0.313565  1
  B  B23  1  0.500000  0.870423  0.686453  1
  B  B24  1  0.500000  0.983038  0.211951  1
  B  B25  1  0.500000  0.017876  0.788347  1
  B  B26  1  0.500000  0.477110  0.285436  1
  B  B27  1  0.500000  0.522555  0.714563  1
  B  B28  1  0.500000  0.601751  0.027153  1
  B  B29  1  0.500000  0.397057  0.972554  1
  B  B30  1  0.500000  0.100912  0.471287  1
  B  B31  1  0.500000  0.899190  0.528801  1
  Os  Os32  1  0.000000  0.138103  0.177941  1
  Os  Os33  1  0.000000  0.862502  0.821732  1
  W  W34  1  0.000000  0.639055  0.319009  1
  W  W35  1  0.000000  0.360668  0.681387  1
