# generated using pymatgen
data_TbDy5TlTcNi
_symmetry_space_group_name_H-M   'P 1'
_cell_length_a   8.48098965
_cell_length_b   8.48102536
_cell_length_c   8.48098974
_cell_angle_alpha   104.38939860
_cell_angle_beta   110.69446541
_cell_angle_gamma   113.45959226
_symmetry_Int_Tables_number   1
_chemical_formula_structural   TbDy5TlTcNi
_chemical_formula_sum   'Tb2 Dy10 Tl2 Tc2 Ni2'
_cell_volume   466.55438477
_cell_formula_units_Z   2
loop_
 _symmetry_equiv_pos_site_id
 _symmetry_equiv_pos_as_xyz
  1  'x, y, z'
loop_
 _atom_site_type_symbol
 _atom_site_label
 _atom_site_symmetry_multiplicity
 _atom_site_fract_x
 _atom_site_fract_y
 _atom_site_fract_z
 _atom_site_occupancy
  Tb  Tb0  1  0.031171  0.214735  0.816430  1
  Tb  Tb1  1  0.398305  0.214735  0.183566  1
  Dy  Dy2  1  0.699549  0.258847  0.958537  1
  Dy  Dy3  1  0.300295  0.741005  0.041444  1
  Dy  Dy4  1  0.699560  0.741005  0.440710  1
  Dy  Dy5  1  0.300310  0.258847  0.559297  1
  Dy  Dy6  1  0.816660  0.148278  0.331619  1
  Dy  Dy7  1  0.816689  0.485075  0.668385  1
  Dy  Dy8  1  0.183158  0.851034  0.667876  1
  Dy  Dy9  1  0.183189  0.515319  0.332129  1
  Dy  Dy10  1  0.602062  0.785498  0.816561  1
  Dy  Dy11  1  0.968936  0.785498  0.183438  1
  Tl  Tl12  1  0.501209  0.501208  0.999999  1
  Tl  Tl13  1  0.500018  0.000014  0.499996  1
  Tc  Tc14  1  0.826141  0.500247  0.325909  1
  Tc  Tc15  1  0.174339  0.500247  0.674106  1
  Ni  Ni16  1  0.999210  0.115357  0.116146  1
  Ni  Ni17  1  0.999200  0.883049  0.883849  1
