# generated using pymatgen
data_SrGdBrO2
_symmetry_space_group_name_H-M   'P 1'
_cell_length_a   6.51014775
_cell_length_b   6.51014853
_cell_length_c   8.96890606
_cell_angle_alpha   80.82365501
_cell_angle_beta   80.82366139
_cell_angle_gamma   37.22931250
_symmetry_Int_Tables_number   1
_chemical_formula_structural   SrGdBrO2
_chemical_formula_sum   'Sr2 Gd2 Br2 O4'
_cell_volume   226.69585597
_cell_formula_units_Z   2
loop_
 _symmetry_equiv_pos_site_id
 _symmetry_equiv_pos_as_xyz
  1  'x, y, z'
loop_
 _atom_site_type_symbol
 _atom_site_label
 _atom_site_symmetry_multiplicity
 _atom_site_fract_x
 _atom_site_fract_y
 _atom_site_fract_z
 _atom_site_occupancy
  Sr  Sr0  1  0.388813  0.388813  0.789022  1
  Sr  Sr1  1  0.611187  0.611187  0.210978  1
  Gd  Gd2  1  0.867488  0.867488  0.464090  1
  Gd  Gd3  1  0.132512  0.132512  0.535910  1
  Br  Br4  1  0.661519  0.661519  0.850190  1
  Br  Br5  1  0.338481  0.338481  0.149810  1
  O  O6  1  0.318918  0.318918  0.552388  1
  O  O7  1  0.960273  0.960273  0.667100  1
  O  O8  1  0.039727  0.039727  0.332900  1
  O  O9  1  0.681082  0.681082  0.447612  1
