# generated using pymatgen
data_Nd5Sn3(Rh6C)2
_symmetry_space_group_name_H-M   'P 1'
_cell_length_a   5.88122400
_cell_length_b   5.88122230
_cell_length_c   13.77170700
_cell_angle_alpha   90.00000000
_cell_angle_beta   90.00000000
_cell_angle_gamma   119.99999833
_symmetry_Int_Tables_number   1
_chemical_formula_structural   Nd5Sn3(Rh6C)2
_chemical_formula_sum   'Nd5 Sn3 Rh12 C2'
_cell_volume   412.52828298
_cell_formula_units_Z   1
loop_
 _symmetry_equiv_pos_site_id
 _symmetry_equiv_pos_as_xyz
  1  'x, y, z'
loop_
 _atom_site_type_symbol
 _atom_site_label
 _atom_site_symmetry_multiplicity
 _atom_site_fract_x
 _atom_site_fract_y
 _atom_site_fract_z
 _atom_site_occupancy
  Nd  Nd0  1  0.000000  0.000000  0.750000  1
  Nd  Nd1  1  0.333333  0.666667  0.399755  1
  Nd  Nd2  1  0.666667  0.333333  0.909482  1
  Nd  Nd3  1  0.666667  0.333333  0.590518  1
  Nd  Nd4  1  0.333333  0.666667  0.100245  1
  Sn  Sn5  1  0.000000  0.000000  0.250000  1
  Sn  Sn6  1  0.333333  0.666667  0.750000  1
  Sn  Sn7  1  0.666667  0.333333  0.250000  1
  Rh  Rh8  1  0.332590  0.166296  0.407699  1
  Rh  Rh9  1  0.833704  0.166296  0.407699  1
  Rh  Rh10  1  0.833704  0.667410  0.407699  1
  Rh  Rh11  1  0.170656  0.341310  0.918621  1
  Rh  Rh12  1  0.658690  0.829344  0.581379  1
  Rh  Rh13  1  0.658690  0.829344  0.918621  1
  Rh  Rh14  1  0.332590  0.166296  0.092301  1
  Rh  Rh15  1  0.170656  0.341310  0.581379  1
  Rh  Rh16  1  0.170656  0.829344  0.581379  1
  Rh  Rh17  1  0.833704  0.166296  0.092301  1
  Rh  Rh18  1  0.833704  0.667410  0.092301  1
  Rh  Rh19  1  0.170656  0.829344  0.918621  1
  C  C20  1  0.000000  0.000000  0.498396  1
  C  C21  1  0.000000  0.000000  0.001604  1
