# generated using pymatgen
data_SmTh2(CoSn)3
_symmetry_space_group_name_H-M   'P 1'
_cell_length_a   7.40848964
_cell_length_b   7.30968843
_cell_length_c   4.02659700
_cell_angle_alpha   90.00000000
_cell_angle_beta   90.00000000
_cell_angle_gamma   119.55980900
_symmetry_Int_Tables_number   1
_chemical_formula_structural   SmTh2(CoSn)3
_chemical_formula_sum   'Sm1 Th2 Co3 Sn3'
_cell_volume   189.67351082
_cell_formula_units_Z   1
loop_
 _symmetry_equiv_pos_site_id
 _symmetry_equiv_pos_as_xyz
  1  'x, y, z'
loop_
 _atom_site_type_symbol
 _atom_site_label
 _atom_site_symmetry_multiplicity
 _atom_site_fract_x
 _atom_site_fract_y
 _atom_site_fract_z
 _atom_site_occupancy
  Sm  Sm0  1  0.000000  0.590399  0.500000  1
  Th  Th1  1  0.414014  0.415942  0.500000  1
  Th  Th2  1  0.585986  0.001928  0.500000  1
  Co  Co3  1  0.353252  0.667557  0.000000  1
  Co  Co4  1  0.000000  0.008509  0.500000  1
  Co  Co5  1  0.646748  0.314305  0.000000  1
  Sn  Sn6  1  0.758416  0.751634  0.000000  1
  Sn  Sn7  1  0.000000  0.256509  0.000000  1
  Sn  Sn8  1  0.241584  0.993218  0.000000  1
