# generated using pymatgen
data_Er2Lu2Al7Tc
_symmetry_space_group_name_H-M   'P 1'
_cell_length_a   5.40345900
_cell_length_b   5.40345846
_cell_length_c   8.84093600
_cell_angle_alpha   90.00000000
_cell_angle_beta   90.00000000
_cell_angle_gamma   119.99998497
_symmetry_Int_Tables_number   1
_chemical_formula_structural   Er2Lu2Al7Tc
_chemical_formula_sum   'Er2 Lu2 Al7 Tc1'
_cell_volume   223.54894337
_cell_formula_units_Z   1
loop_
 _symmetry_equiv_pos_site_id
 _symmetry_equiv_pos_as_xyz
  1  'x, y, z'
loop_
 _atom_site_type_symbol
 _atom_site_label
 _atom_site_symmetry_multiplicity
 _atom_site_fract_x
 _atom_site_fract_y
 _atom_site_fract_z
 _atom_site_occupancy
  Er  Er0  1  0.333333  0.666667  0.446494  1
  Er  Er1  1  0.666667  0.333333  0.553506  1
  Lu  Lu2  1  0.666667  0.333333  0.936549  1
  Lu  Lu3  1  0.333333  0.666667  0.063451  1
  Al  Al4  1  0.000000  0.000000  0.500000  1
  Al  Al5  1  0.832279  0.167721  0.242756  1
  Al  Al6  1  0.832279  0.664560  0.242756  1
  Al  Al7  1  0.335440  0.167721  0.242756  1
  Al  Al8  1  0.167721  0.832279  0.757244  1
  Al  Al9  1  0.167721  0.335440  0.757244  1
  Al  Al10  1  0.664560  0.832279  0.757244  1
  Tc  Tc11  1  0.000000  0.000000  0.000000  1
