# generated using pymatgen
data_Mg8Si6Ni3Pd5
_symmetry_space_group_name_H-M   'P 1'
_cell_length_a   10.15749950
_cell_length_b   10.19480866
_cell_length_c   7.17871689
_cell_angle_alpha   72.58079929
_cell_angle_beta   72.28822830
_cell_angle_gamma   30.03907573
_symmetry_Int_Tables_number   1
_chemical_formula_structural   Mg8Si6Ni3Pd5
_chemical_formula_sum   'Mg8 Si6 Ni3 Pd5'
_cell_volume   353.47988701
_cell_formula_units_Z   1
loop_
 _symmetry_equiv_pos_site_id
 _symmetry_equiv_pos_as_xyz
  1  'x, y, z'
loop_
 _atom_site_type_symbol
 _atom_site_label
 _atom_site_symmetry_multiplicity
 _atom_site_fract_x
 _atom_site_fract_y
 _atom_site_fract_z
 _atom_site_occupancy
  Mg  Mg0  1  0.198642  0.465620  0.405697  1
  Mg  Mg1  1  0.458061  0.205297  0.906705  1
  Mg  Mg2  1  0.543905  0.795654  0.090978  1
  Mg  Mg3  1  0.797836  0.067973  0.170422  1
  Mg  Mg4  1  0.066004  0.800957  0.665848  1
  Mg  Mg5  1  0.208807  0.922280  0.837334  1
  Mg  Mg6  1  0.934325  0.197983  0.332582  1
  Mg  Mg7  1  0.794181  0.548080  0.597566  1
  Si  Si8  1  0.979897  0.698004  0.047177  1
  Si  Si9  1  0.054784  0.282227  0.938859  1
  Si  Si10  1  0.292991  0.040643  0.460075  1
  Si  Si11  1  0.625415  0.356764  0.755237  1
  Si  Si12  1  0.679919  0.991601  0.554707  1
  Si  Si13  1  0.360389  0.621991  0.256431  1
  Ni  Ni14  1  0.302488  0.575770  0.016432  1
  Ni  Ni15  1  0.369641  0.080211  0.687831  1
  Ni  Ni16  1  0.577922  0.300393  0.515772  1
  Pd  Pd17  1  0.705063  0.416179  0.979487  1
  Pd  Pd18  1  0.067828  0.377482  0.198611  1
  Pd  Pd19  1  0.923397  0.634162  0.798400  1
  Pd  Pd20  1  0.631857  0.924966  0.303480  1
  Pd  Pd21  1  0.426647  0.695762  0.480370  1
