# generated using pymatgen
data_Cs3K3(VTe4)2
_symmetry_space_group_name_H-M   'P 1'
_cell_length_a   10.77627901
_cell_length_b   10.76773750
_cell_length_c   11.85930300
_cell_angle_alpha   90.00000000
_cell_angle_beta   90.00000000
_cell_angle_gamma   90.44096312
_symmetry_Int_Tables_number   1
_chemical_formula_structural   Cs3K3(VTe4)2
_chemical_formula_sum   'Cs6 K6 V4 Te16'
_cell_volume   1376.06703152
_cell_formula_units_Z   2
loop_
 _symmetry_equiv_pos_site_id
 _symmetry_equiv_pos_as_xyz
  1  'x, y, z'
loop_
 _atom_site_type_symbol
 _atom_site_label
 _atom_site_symmetry_multiplicity
 _atom_site_fract_x
 _atom_site_fract_y
 _atom_site_fract_z
 _atom_site_occupancy
  Cs  Cs0  1  0.046926  0.209795  0.044102  1
  Cs  Cs1  1  0.138671  0.408701  0.749009  1
  Cs  Cs2  1  0.351315  0.905505  0.245546  1
  Cs  Cs3  1  0.648685  0.094495  0.745546  1
  Cs  Cs4  1  0.861329  0.591299  0.249009  1
  Cs  Cs5  1  0.953074  0.790205  0.544102  1
  K  K6  1  0.545068  0.301411  0.453773  1
  K  K7  1  0.454932  0.698589  0.953773  1
  K  K8  1  0.549591  0.298628  0.051524  1
  K  K9  1  0.050414  0.202277  0.445627  1
  K  K10  1  0.450409  0.701372  0.551524  1
  K  K11  1  0.949586  0.797723  0.945627  1
  V  V12  1  0.774436  0.018060  0.249136  1
  V  V13  1  0.709347  0.515532  0.752144  1
  V  V14  1  0.290653  0.484468  0.252144  1
  V  V15  1  0.225564  0.981940  0.749136  1
  Te  Te16  1  0.340560  0.056491  0.919601  1
  Te  Te17  1  0.213450  0.748596  0.758532  1
  Te  Te18  1  0.306606  0.252202  0.252060  1
  Te  Te19  1  0.693394  0.747798  0.752060  1
  Te  Te20  1  0.786550  0.251404  0.258532  1
  Te  Te21  1  0.007262  0.067483  0.748017  1
  Te  Te22  1  0.506671  0.574519  0.251548  1
  Te  Te23  1  0.493329  0.425481  0.751548  1
  Te  Te24  1  0.992738  0.932517  0.248017  1
  Te  Te25  1  0.659440  0.943509  0.419601  1
  Te  Te26  1  0.823965  0.443531  0.580085  1
  Te  Te27  1  0.176035  0.556469  0.080085  1
  Te  Te28  1  0.667512  0.952298  0.070610  1
  Te  Te29  1  0.332488  0.047702  0.570610  1
  Te  Te30  1  0.179146  0.546125  0.428684  1
  Te  Te31  1  0.820854  0.453875  0.928684  1
