# generated using pymatgen
data_Ba12Sm3Sc(Co4O15)2
_symmetry_space_group_name_H-M   'P 1'
_cell_length_a   6.08803902
_cell_length_b   8.10652114
_cell_length_c   18.61710600
_cell_angle_alpha   89.19690899
_cell_angle_beta   90.06587845
_cell_angle_gamma   90.02689067
_symmetry_Int_Tables_number   1
_chemical_formula_structural   Ba12Sm3Sc(Co4O15)2
_chemical_formula_sum   'Ba12 Sm3 Sc1 Co8 O30'
_cell_volume   918.71566998
_cell_formula_units_Z   1
loop_
 _symmetry_equiv_pos_site_id
 _symmetry_equiv_pos_as_xyz
  1  'x, y, z'
loop_
 _atom_site_type_symbol
 _atom_site_label
 _atom_site_symmetry_multiplicity
 _atom_site_fract_x
 _atom_site_fract_y
 _atom_site_fract_z
 _atom_site_occupancy
  Ba  Ba0  1  0.277521  0.997254  0.247292  1
  Ba  Ba1  1  0.724096  0.999389  0.756137  1
  Ba  Ba2  1  0.338485  0.498472  0.250215  1
  Ba  Ba3  1  0.671018  0.503701  0.754175  1
  Ba  Ba4  1  0.744918  0.978702  0.081258  1
  Ba  Ba5  1  0.752415  0.024487  0.407717  1
  Ba  Ba6  1  0.248009  0.016573  0.910670  1
  Ba  Ba7  1  0.247763  0.974321  0.592949  1
  Ba  Ba8  1  0.248599  0.496323  0.579477  1
  Ba  Ba9  1  0.242775  0.506803  0.919429  1
  Ba  Ba10  1  0.753612  0.501876  0.421657  1
  Ba  Ba11  1  0.748004  0.501698  0.073642  1
  Sm  Sm12  1  0.252949  0.755550  0.410792  1
  Sm  Sm13  1  0.249684  0.248102  0.087347  1
  Sm  Sm14  1  0.748142  0.243275  0.591241  1
  Sc  Sc15  1  0.743705  0.747990  0.911811  1
  Co  Co16  1  0.247563  0.754901  0.055514  1
  Co  Co17  1  0.254814  0.245049  0.437915  1
  Co  Co18  1  0.742035  0.248437  0.935043  1
  Co  Co19  1  0.747088  0.754014  0.563666  1
  Co  Co20  1  0.781336  0.768937  0.261334  1
  Co  Co21  1  0.781034  0.230440  0.234708  1
  Co  Co22  1  0.222355  0.230541  0.738625  1
  Co  Co23  1  0.224732  0.768766  0.770060  1
  O  O24  1  0.827187  0.001080  0.251121  1
  O  O25  1  0.178904  0.998464  0.753770  1
  O  O26  1  0.770886  0.950807  0.612007  1
  O  O27  1  0.761492  0.037481  0.897309  1
  O  O28  1  0.230292  0.047328  0.390194  1
  O  O29  1  0.229052  0.953767  0.101180  1
  O  O30  1  0.241930  0.537787  0.083217  1
  O  O31  1  0.242324  0.465149  0.411375  1
  O  O32  1  0.748197  0.476110  0.911822  1
  O  O33  1  0.757774  0.534275  0.590648  1
  O  O34  1  0.045678  0.716066  0.304903  1
  O  O35  1  0.046548  0.283475  0.192454  1
  O  O36  1  0.955129  0.282309  0.697643  1
  O  O37  1  0.969241  0.722900  0.822123  1
  O  O38  1  0.557250  0.751258  0.335940  1
  O  O39  1  0.554332  0.247695  0.161743  1
  O  O40  1  0.441314  0.246716  0.663718  1
  O  O41  1  0.473954  0.754011  0.837693  1
  O  O42  1  0.484396  0.764104  0.506958  1
  O  O43  1  0.487079  0.237287  0.994112  1
  O  O44  1  0.516847  0.235442  0.494912  1
  O  O45  1  0.510746  0.763487  0.995544  1
  O  O46  1  0.998312  0.763659  0.988271  1
  O  O47  1  0.025362  0.231226  0.509319  1
  O  O48  1  0.978164  0.238917  0.003858  1
  O  O49  1  0.976803  0.767978  0.492717  1
  O  O50  1  0.331823  0.690287  0.687999  1
  O  O51  1  0.357831  0.299857  0.818495  1
  O  O52  1  0.656691  0.302953  0.316313  1
  O  O53  1  0.651811  0.702521  0.179970  1
