# generated using pymatgen
data_Tb2Ho2Mg3ZnRh4
_symmetry_space_group_name_H-M   'P 1'
_cell_length_a   4.08783700
_cell_length_b   7.06498101
_cell_length_c   8.43108014
_cell_angle_alpha   90.09100333
_cell_angle_beta   90.00000000
_cell_angle_gamma   90.00000000
_symmetry_Int_Tables_number   1
_chemical_formula_structural   Tb2Ho2Mg3ZnRh4
_chemical_formula_sum   'Tb2 Ho2 Mg3 Zn1 Rh4'
_cell_volume   243.49342491
_cell_formula_units_Z   1
loop_
 _symmetry_equiv_pos_site_id
 _symmetry_equiv_pos_as_xyz
  1  'x, y, z'
loop_
 _atom_site_type_symbol
 _atom_site_label
 _atom_site_symmetry_multiplicity
 _atom_site_fract_x
 _atom_site_fract_y
 _atom_site_fract_z
 _atom_site_occupancy
  Tb  Tb0  1  0.250000  0.534346  0.183435  1
  Tb  Tb1  1  0.250000  0.048961  0.328613  1
  Ho  Ho2  1  0.750000  0.459411  0.819168  1
  Ho  Ho3  1  0.750000  0.962072  0.675298  1
  Mg  Mg4  1  0.250000  0.135268  0.938871  1
  Mg  Mg5  1  0.750000  0.863369  0.059465  1
  Mg  Mg6  1  0.250000  0.630303  0.556334  1
  Zn  Zn7  1  0.750000  0.366810  0.439643  1
  Rh  Rh8  1  0.750000  0.749528  0.372847  1
  Rh  Rh9  1  0.250000  0.253354  0.625996  1
  Rh  Rh10  1  0.750000  0.249315  0.131267  1
  Rh  Rh11  1  0.250000  0.747261  0.869061  1
