# generated using pymatgen
data_CaPrB4(IrOs)2
_symmetry_space_group_name_H-M   'P 1'
_cell_length_a   6.93181792
_cell_length_b   6.07848864
_cell_length_c   5.59992562
_cell_angle_alpha   72.68910448
_cell_angle_beta   56.84320150
_cell_angle_gamma   50.46767968
_symmetry_Int_Tables_number   1
_chemical_formula_structural   CaPrB4(IrOs)2
_chemical_formula_sum   'Ca1 Pr1 B4 Ir2 Os2'
_cell_volume   151.88329556
_cell_formula_units_Z   1
loop_
 _symmetry_equiv_pos_site_id
 _symmetry_equiv_pos_as_xyz
  1  'x, y, z'
loop_
 _atom_site_type_symbol
 _atom_site_label
 _atom_site_symmetry_multiplicity
 _atom_site_fract_x
 _atom_site_fract_y
 _atom_site_fract_z
 _atom_site_occupancy
  Ca  Ca0  1  0.500000  0.500000  0.500000  1
  Pr  Pr1  1  0.750000  0.750000  0.750000  1
  B  B2  1  0.177973  0.822027  0.177973  1
  B  B3  1  0.065269  0.434731  0.065269  1
  B  B4  1  0.822027  0.177973  0.822027  1
  B  B5  1  0.434731  0.065269  0.434731  1
  Ir  Ir6  1  0.384419  0.384419  0.115581  1
  Ir  Ir7  1  0.115581  0.115581  0.384419  1
  Os  Os8  1  0.866208  0.866208  0.133792  1
  Os  Os9  1  0.133792  0.133792  0.866208  1
