# generated using pymatgen
data_Pr3Nd2DyTaSbO14
_symmetry_space_group_name_H-M   'P 1'
_cell_length_a   6.69160300
_cell_length_b   6.65486148
_cell_length_c   7.71192500
_cell_angle_alpha   90.00000000
_cell_angle_beta   90.00000000
_cell_angle_gamma   108.71243443
_symmetry_Int_Tables_number   1
_chemical_formula_structural   Pr3Nd2DyTaSbO14
_chemical_formula_sum   'Pr3 Nd2 Dy1 Ta1 Sb1 O14'
_cell_volume   325.27184482
_cell_formula_units_Z   1
loop_
 _symmetry_equiv_pos_site_id
 _symmetry_equiv_pos_as_xyz
  1  'x, y, z'
loop_
 _atom_site_type_symbol
 _atom_site_label
 _atom_site_symmetry_multiplicity
 _atom_site_fract_x
 _atom_site_fract_y
 _atom_site_fract_z
 _atom_site_occupancy
  Pr  Pr0  1  0.520456  0.516498  0.498960  1
  Pr  Pr1  1  0.535021  0.528235  0.000620  1
  Pr  Pr2  1  0.462380  0.003925  0.247480  1
  Nd  Nd3  1  0.006886  0.462718  0.752559  1
  Nd  Nd4  1  0.530282  0.003698  0.749333  1
  Dy  Dy5  1  0.004086  0.528336  0.251358  1
  Ta  Ta6  1  0.999653  0.000406  0.000991  1
  Sb  Sb7  1  0.997934  0.998585  0.497854  1
  O  O8  1  0.940385  0.058301  0.750064  1
  O  O9  1  0.057237  0.932705  0.249184  1
  O  O10  1  0.353920  0.632713  0.248653  1
  O  O11  1  0.643313  0.368248  0.749654  1
  O  O12  1  0.371214  0.632927  0.750738  1
  O  O13  1  0.647410  0.377662  0.250474  1
  O  O14  1  0.306559  0.069097  0.967905  1
  O  O15  1  0.681021  0.920236  0.472070  1
  O  O16  1  0.311039  0.074510  0.528741  1
  O  O17  1  0.679666  0.919732  0.024967  1
  O  O18  1  0.046356  0.307290  0.464239  1
  O  O19  1  0.932511  0.681357  0.976667  1
  O  O20  1  0.936088  0.683460  0.525671  1
  O  O21  1  0.036585  0.299358  0.041819  1
