# generated using pymatgen
data_Rb2Cu(BrF)2
_symmetry_space_group_name_H-M   'P 1'
_cell_length_a   8.68276448
_cell_length_b   8.68276437
_cell_length_c   6.86756800
_cell_angle_alpha   90.00000000
_cell_angle_beta   90.00000000
_cell_angle_gamma   133.46904384
_symmetry_Int_Tables_number   1
_chemical_formula_structural   Rb2Cu(BrF)2
_chemical_formula_sum   'Rb4 Cu2 Br4 F4'
_cell_volume   375.75412727
_cell_formula_units_Z   2
loop_
 _symmetry_equiv_pos_site_id
 _symmetry_equiv_pos_as_xyz
  1  'x, y, z'
loop_
 _atom_site_type_symbol
 _atom_site_label
 _atom_site_symmetry_multiplicity
 _atom_site_fract_x
 _atom_site_fract_y
 _atom_site_fract_z
 _atom_site_occupancy
  Rb  Rb0  1  0.882312  0.117688  0.500000  1
  Rb  Rb1  1  0.382312  0.617688  0.000000  1
  Rb  Rb2  1  0.117688  0.882312  0.500000  1
  Rb  Rb3  1  0.617688  0.382312  0.000000  1
  Cu  Cu4  1  0.000000  0.000000  0.000000  1
  Cu  Cu5  1  0.500000  0.500000  0.500000  1
  Br  Br6  1  0.843517  0.156483  0.000000  1
  Br  Br7  1  0.156483  0.843517  0.000000  1
  Br  Br8  1  0.343517  0.656483  0.500000  1
  Br  Br9  1  0.656483  0.343517  0.500000  1
  F  F10  1  0.805002  0.805002  0.195024  1
  F  F11  1  0.194998  0.194998  0.804976  1
  F  F12  1  0.305002  0.305002  0.304976  1
  F  F13  1  0.694998  0.694998  0.695024  1
