# generated using pymatgen
data_RbHo2Cu3Se5
_symmetry_space_group_name_H-M   'P 1'
_cell_length_a   4.13602000
_cell_length_b   7.55802069
_cell_length_c   17.06375200
_cell_angle_alpha   90.00000000
_cell_angle_beta   90.00000000
_cell_angle_gamma   74.12033108
_symmetry_Int_Tables_number   1
_chemical_formula_structural   RbHo2Cu3Se5
_chemical_formula_sum   'Rb2 Ho4 Cu6 Se10'
_cell_volume   513.05907882
_cell_formula_units_Z   2
loop_
 _symmetry_equiv_pos_site_id
 _symmetry_equiv_pos_as_xyz
  1  'x, y, z'
loop_
 _atom_site_type_symbol
 _atom_site_label
 _atom_site_symmetry_multiplicity
 _atom_site_fract_x
 _atom_site_fract_y
 _atom_site_fract_z
 _atom_site_occupancy
  Rb  Rb0  1  0.938628  0.122743  0.250000  1
  Rb  Rb1  1  0.061373  0.877257  0.750000  1
  Ho  Ho2  1  0.191992  0.616019  0.092010  1
  Ho  Ho3  1  0.191992  0.616019  0.407989  1
  Ho  Ho4  1  0.808009  0.383981  0.592011  1
  Ho  Ho5  1  0.808009  0.383981  0.907989  1
  Cu  Cu6  1  0.416251  0.167501  0.030690  1
  Cu  Cu7  1  0.657443  0.685114  0.250000  1
  Cu  Cu8  1  0.416251  0.167501  0.469310  1
  Cu  Cu9  1  0.583750  0.832499  0.530690  1
  Cu  Cu10  1  0.342558  0.314886  0.750000  1
  Cu  Cu11  1  0.583750  0.832499  0.969310  1
  Se  Se12  1  0.832547  0.334906  0.071889  1
  Se  Se13  1  0.560243  0.879514  0.116066  1
  Se  Se14  1  0.244374  0.511253  0.250000  1
  Se  Se15  1  0.560243  0.879514  0.383934  1
  Se  Se16  1  0.832547  0.334906  0.428111  1
  Se  Se17  1  0.167455  0.665092  0.571888  1
  Se  Se18  1  0.439758  0.120486  0.616066  1
  Se  Se19  1  0.755627  0.488747  0.750000  1
  Se  Se20  1  0.439758  0.120486  0.883934  1
  Se  Se21  1  0.167455  0.665092  0.928111  1
