# generated using pymatgen
data_BaOsO5
_symmetry_space_group_name_H-M   'P 1'
_cell_length_a   5.34700100
_cell_length_b   5.71860300
_cell_length_c   14.37979200
_cell_angle_alpha   90.00000000
_cell_angle_beta   90.00000000
_cell_angle_gamma   90.00000000
_symmetry_Int_Tables_number   1
_chemical_formula_structural   BaOsO5
_chemical_formula_sum   'Ba4 Os4 O20'
_cell_volume   439.69630620
_cell_formula_units_Z   4
loop_
 _symmetry_equiv_pos_site_id
 _symmetry_equiv_pos_as_xyz
  1  'x, y, z'
loop_
 _atom_site_type_symbol
 _atom_site_label
 _atom_site_symmetry_multiplicity
 _atom_site_fract_x
 _atom_site_fract_y
 _atom_site_fract_z
 _atom_site_occupancy
  Ba  Ba0  1  0.717579  0.619669  0.644517  1
  Ba  Ba1  1  0.217579  0.880331  0.355483  1
  Ba  Ba2  1  0.282421  0.119669  0.855483  1
  Ba  Ba3  1  0.782421  0.380331  0.144517  1
  Os  Os4  1  0.274160  0.125924  0.597644  1
  Os  Os5  1  0.774160  0.374076  0.402356  1
  Os  Os6  1  0.725840  0.625924  0.902356  1
  Os  Os7  1  0.225840  0.874076  0.097644  1
  O  O8  1  0.922102  0.610168  0.467258  1
  O  O9  1  0.422102  0.889832  0.532742  1
  O  O10  1  0.077898  0.110168  0.032742  1
  O  O11  1  0.577898  0.389832  0.967258  1
  O  O12  1  0.573717  0.527918  0.326002  1
  O  O13  1  0.073717  0.972082  0.673998  1
  O  O14  1  0.426283  0.027918  0.173998  1
  O  O15  1  0.926283  0.472082  0.826002  1
  O  O16  1  0.210727  0.426522  0.631243  1
  O  O17  1  0.710727  0.073478  0.368757  1
  O  O18  1  0.789273  0.926522  0.868757  1
  O  O19  1  0.289273  0.573478  0.131243  1
  O  O20  1  0.546453  0.130339  0.675873  1
  O  O21  1  0.046453  0.369661  0.324127  1
  O  O22  1  0.453547  0.630339  0.824127  1
  O  O23  1  0.953547  0.869661  0.175873  1
  O  O24  1  0.560754  0.338849  0.502389  1
  O  O25  1  0.060754  0.161151  0.497611  1
  O  O26  1  0.439246  0.838849  0.997611  1
  O  O27  1  0.939246  0.661151  0.002389  1
