# generated using pymatgen
data_PrNdSm(Si3Pd10)2
_symmetry_space_group_name_H-M   'P 1'
_cell_length_a   8.77218557
_cell_length_b   8.77218479
_cell_length_c   8.77218600
_cell_angle_alpha   60.00000299
_cell_angle_beta   60.00000591
_cell_angle_gamma   60.00000102
_symmetry_Int_Tables_number   1
_chemical_formula_structural   PrNdSm(Si3Pd10)2
_chemical_formula_sum   'Pr1 Nd1 Sm1 Si6 Pd20'
_cell_volume   477.31869908
_cell_formula_units_Z   1
loop_
 _symmetry_equiv_pos_site_id
 _symmetry_equiv_pos_as_xyz
  1  'x, y, z'
loop_
 _atom_site_type_symbol
 _atom_site_label
 _atom_site_symmetry_multiplicity
 _atom_site_fract_x
 _atom_site_fract_y
 _atom_site_fract_z
 _atom_site_occupancy
  Pr  Pr0  1  0.750000  0.750000  0.750000  1
  Nd  Nd1  1  0.250000  0.250000  0.250000  1
  Sm  Sm2  1  0.000000  0.000000  0.000000  1
  Si  Si3  1  0.733278  0.266722  0.266722  1
  Si  Si4  1  0.266722  0.733278  0.733278  1
  Si  Si5  1  0.266722  0.733278  0.266722  1
  Si  Si6  1  0.733278  0.266722  0.733278  1
  Si  Si7  1  0.266722  0.266722  0.733278  1
  Si  Si8  1  0.733278  0.733278  0.266722  1
  Pd  Pd9  1  0.384958  0.384958  0.384958  1
  Pd  Pd10  1  0.614083  0.614083  0.614083  1
  Pd  Pd11  1  0.384958  0.384958  0.845128  1
  Pd  Pd12  1  0.384958  0.845128  0.384958  1
  Pd  Pd13  1  0.614083  0.614083  0.157751  1
  Pd  Pd14  1  0.614083  0.157751  0.614083  1
  Pd  Pd15  1  0.845128  0.384958  0.384958  1
  Pd  Pd16  1  0.157751  0.614083  0.614083  1
  Pd  Pd17  1  0.346164  0.000119  0.000119  1
  Pd  Pd18  1  0.653598  0.000119  0.000119  1
  Pd  Pd19  1  0.000119  0.346164  0.653598  1
  Pd  Pd20  1  0.000119  0.653598  0.346164  1
  Pd  Pd21  1  0.000119  0.346164  0.000119  1
  Pd  Pd22  1  0.653598  0.000119  0.346164  1
  Pd  Pd23  1  0.000119  0.653598  0.000119  1
  Pd  Pd24  1  0.346164  0.000119  0.653598  1
  Pd  Pd25  1  0.000119  0.000119  0.346164  1
  Pd  Pd26  1  0.000119  0.000119  0.653598  1
  Pd  Pd27  1  0.653598  0.346164  0.000119  1
  Pd  Pd28  1  0.346164  0.653598  0.000119  1
