# generated using pymatgen
data_Hf18FeRe6SiW2
_symmetry_space_group_name_H-M   'P 1'
_cell_length_a   8.58432000
_cell_length_b   8.61275096
_cell_length_c   8.61270600
_cell_angle_alpha   119.99867776
_cell_angle_beta   89.99921371
_cell_angle_gamma   89.99996883
_symmetry_Int_Tables_number   1
_chemical_formula_structural   Hf18FeRe6SiW2
_chemical_formula_sum   'Hf18 Fe1 Re6 Si1 W2'
_cell_volume   551.47245931
_cell_formula_units_Z   1
loop_
 _symmetry_equiv_pos_site_id
 _symmetry_equiv_pos_as_xyz
  1  'x, y, z'
loop_
 _atom_site_type_symbol
 _atom_site_label
 _atom_site_symmetry_multiplicity
 _atom_site_fract_x
 _atom_site_fract_y
 _atom_site_fract_z
 _atom_site_occupancy
  Hf  Hf0  1  0.546886  0.805370  0.610729  1
  Hf  Hf1  1  0.546893  0.805341  0.194658  1
  Hf  Hf2  1  0.546888  0.389272  0.194634  1
  Hf  Hf3  1  0.442545  0.202157  0.404332  1
  Hf  Hf4  1  0.442565  0.202139  0.797862  1
  Hf  Hf5  1  0.442546  0.595676  0.797846  1
  Hf  Hf6  1  0.057460  0.202161  0.404342  1
  Hf  Hf7  1  0.057441  0.202144  0.797857  1
  Hf  Hf8  1  0.057457  0.595664  0.797844  1
  Hf  Hf9  1  0.953112  0.805370  0.610729  1
  Hf  Hf10  1  0.953106  0.805340  0.194657  1
  Hf  Hf11  1  0.953112  0.389271  0.194630  1
  Hf  Hf12  1  0.750000  0.461533  0.923096  1
  Hf  Hf13  1  0.750002  0.461526  0.538477  1
  Hf  Hf14  1  0.750000  0.076907  0.538469  1
  Hf  Hf15  1  0.250001  0.539511  0.079031  1
  Hf  Hf16  1  0.250000  0.539495  0.460506  1
  Hf  Hf17  1  0.250004  0.920976  0.460493  1
  Fe  Fe18  1  0.249989  0.333518  0.666436  1
  Re  Re19  1  0.749999  0.111429  0.222867  1
  Re  Re20  1  0.750001  0.111421  0.888573  1
  Re  Re21  1  0.750000  0.777136  0.888567  1
  Re  Re22  1  0.250000  0.888972  0.777975  1
  Re  Re23  1  0.249997  0.888979  0.111030  1
  Re  Re24  1  0.250000  0.222027  0.111032  1
  Si  Si25  1  0.750002  0.666649  0.333350  1
  W  W26  1  0.500534  0.000007  0.999990  1
  W  W27  1  0.999461  0.000007  0.999990  1
