# generated using pymatgen
data_KRb3CaBr6
_symmetry_space_group_name_H-M   'P 1'
_cell_length_a   9.52201893
_cell_length_b   9.52201803
_cell_length_c   9.52201863
_cell_angle_alpha   90.76160754
_cell_angle_beta   90.76160782
_cell_angle_gamma   90.76160331
_symmetry_Int_Tables_number   1
_chemical_formula_structural   KRb3CaBr6
_chemical_formula_sum   'K2 Rb6 Ca2 Br12'
_cell_volume   863.11947974
_cell_formula_units_Z   2
loop_
 _symmetry_equiv_pos_site_id
 _symmetry_equiv_pos_as_xyz
  1  'x, y, z'
loop_
 _atom_site_type_symbol
 _atom_site_label
 _atom_site_symmetry_multiplicity
 _atom_site_fract_x
 _atom_site_fract_y
 _atom_site_fract_z
 _atom_site_occupancy
  K  K0  1  0.250000  0.250000  0.250000  1
  K  K1  1  0.750000  0.750000  0.750000  1
  Rb  Rb2  1  0.372884  0.127116  0.750000  1
  Rb  Rb3  1  0.127116  0.750000  0.372884  1
  Rb  Rb4  1  0.750000  0.372884  0.127116  1
  Rb  Rb5  1  0.627116  0.872884  0.250000  1
  Rb  Rb6  1  0.250000  0.627116  0.872884  1
  Rb  Rb7  1  0.872884  0.250000  0.627116  1
  Ca  Ca8  1  0.000000  0.000000  0.000000  1
  Ca  Ca9  1  0.500000  0.500000  0.500000  1
  Br  Br10  1  0.947832  0.076602  0.292795  1
  Br  Br11  1  0.076602  0.292795  0.947832  1
  Br  Br12  1  0.292795  0.947832  0.076602  1
  Br  Br13  1  0.576602  0.447832  0.792795  1
  Br  Br14  1  0.792795  0.576602  0.447832  1
  Br  Br15  1  0.447832  0.792795  0.576602  1
  Br  Br16  1  0.207205  0.423398  0.552168  1
  Br  Br17  1  0.423398  0.552168  0.207205  1
  Br  Br18  1  0.552168  0.207205  0.423398  1
  Br  Br19  1  0.923398  0.707205  0.052168  1
  Br  Br20  1  0.052168  0.923398  0.707205  1
  Br  Br21  1  0.707205  0.052168  0.923398  1
