# generated using pymatgen
data_VOsO5
_symmetry_space_group_name_H-M   'P 1'
_cell_length_a   5.46807900
_cell_length_b   6.87996800
_cell_length_c   11.86586300
_cell_angle_alpha   90.00000000
_cell_angle_beta   90.00000000
_cell_angle_gamma   90.00000000
_symmetry_Int_Tables_number   1
_chemical_formula_structural   VOsO5
_chemical_formula_sum   'V4 Os4 O20'
_cell_volume   446.39624058
_cell_formula_units_Z   4
loop_
 _symmetry_equiv_pos_site_id
 _symmetry_equiv_pos_as_xyz
  1  'x, y, z'
loop_
 _atom_site_type_symbol
 _atom_site_label
 _atom_site_symmetry_multiplicity
 _atom_site_fract_x
 _atom_site_fract_y
 _atom_site_fract_z
 _atom_site_occupancy
  V  V0  1  0.250000  0.967478  0.844249  1
  V  V1  1  0.750000  0.032522  0.155751  1
  V  V2  1  0.750000  0.467478  0.655751  1
  V  V3  1  0.250000  0.532522  0.344249  1
  Os  Os4  1  0.250000  0.154518  0.556715  1
  Os  Os5  1  0.750000  0.845482  0.443285  1
  Os  Os6  1  0.750000  0.654518  0.943285  1
  Os  Os7  1  0.250000  0.345482  0.056715  1
  O  O8  1  0.250000  0.183498  0.919556  1
  O  O9  1  0.750000  0.816502  0.080444  1
  O  O10  1  0.750000  0.683498  0.580444  1
  O  O11  1  0.250000  0.316502  0.419556  1
  O  O12  1  0.250000  0.012425  0.699734  1
  O  O13  1  0.750000  0.987575  0.300266  1
  O  O14  1  0.750000  0.512425  0.800266  1
  O  O15  1  0.250000  0.487575  0.199734  1
  O  O16  1  0.000000  0.500000  0.000000  1
  O  O17  1  0.500000  0.500000  0.000000  1
  O  O18  1  0.000000  0.000000  0.500000  1
  O  O19  1  0.500000  0.000000  0.500000  1
  O  O20  1  0.005382  0.171181  0.118854  1
  O  O21  1  0.505382  0.828819  0.881146  1
  O  O22  1  0.994618  0.671181  0.381146  1
  O  O23  1  0.494618  0.328819  0.618854  1
  O  O24  1  0.994618  0.828819  0.881146  1
  O  O25  1  0.494618  0.171181  0.118854  1
  O  O26  1  0.005382  0.328819  0.618854  1
  O  O27  1  0.505382  0.671181  0.381146  1
