# generated using pymatgen
data_Ca3Pr16HoGa12
_symmetry_space_group_name_H-M   'P 1'
_cell_length_a   7.92708900
_cell_length_b   7.92708900
_cell_length_c   14.60303600
_cell_angle_alpha   90.00000000
_cell_angle_beta   90.00000000
_cell_angle_gamma   90.00000000
_symmetry_Int_Tables_number   1
_chemical_formula_structural   Ca3Pr16HoGa12
_chemical_formula_sum   'Ca3 Pr16 Ho1 Ga12'
_cell_volume   917.63638262
_cell_formula_units_Z   1
loop_
 _symmetry_equiv_pos_site_id
 _symmetry_equiv_pos_as_xyz
  1  'x, y, z'
loop_
 _atom_site_type_symbol
 _atom_site_label
 _atom_site_symmetry_multiplicity
 _atom_site_fract_x
 _atom_site_fract_y
 _atom_site_fract_z
 _atom_site_occupancy
  Ca  Ca0  1  0.000000  0.500000  0.736394  1
  Ca  Ca1  1  0.000000  0.500000  0.240245  1
  Ca  Ca2  1  0.500000  0.000000  0.256457  1
  Pr  Pr3  1  0.818308  0.834345  0.603486  1
  Pr  Pr4  1  0.176531  0.832445  0.100594  1
  Pr  Pr5  1  0.167444  0.822825  0.397761  1
  Pr  Pr6  1  0.832556  0.177175  0.397761  1
  Pr  Pr7  1  0.677175  0.667444  0.397761  1
  Pr  Pr8  1  0.665655  0.318308  0.603486  1
  Pr  Pr9  1  0.334345  0.681692  0.603486  1
  Pr  Pr10  1  0.667555  0.676531  0.100594  1
  Pr  Pr11  1  0.677906  0.336732  0.897677  1
  Pr  Pr12  1  0.836732  0.822094  0.897677  1
  Pr  Pr13  1  0.322825  0.332556  0.397761  1
  Pr  Pr14  1  0.181692  0.165655  0.603486  1
  Pr  Pr15  1  0.823469  0.167555  0.100594  1
  Pr  Pr16  1  0.322094  0.663268  0.897677  1
  Pr  Pr17  1  0.332445  0.323469  0.100594  1
  Pr  Pr18  1  0.163268  0.177906  0.897677  1
  Ho  Ho19  1  0.500000  0.000000  0.777315  1
  Ga  Ga20  1  0.617151  0.382676  0.249219  1
  Ga  Ga21  1  0.123147  0.885195  0.750014  1
  Ga  Ga22  1  0.385195  0.376853  0.750014  1
  Ga  Ga23  1  0.382849  0.617324  0.249219  1
  Ga  Ga24  1  0.882676  0.882849  0.249219  1
  Ga  Ga25  1  0.614805  0.623147  0.750014  1
  Ga  Ga26  1  0.000000  0.500000  0.503842  1
  Ga  Ga27  1  0.876853  0.114805  0.750014  1
  Ga  Ga28  1  0.500000  0.000000  0.492876  1
  Ga  Ga29  1  0.500000  0.000000  0.993730  1
  Ga  Ga30  1  0.117324  0.117151  0.249219  1
  Ga  Ga31  1  0.000000  0.500000  0.004139  1
