# generated using pymatgen
data_Ce3Sm(Ta3Si4)2
_symmetry_space_group_name_H-M   'P 1'
_cell_length_a   6.94264789
_cell_length_b   7.12403575
_cell_length_c   13.45125073
_cell_angle_alpha   89.92079097
_cell_angle_beta   90.13577812
_cell_angle_gamma   89.98648370
_symmetry_Int_Tables_number   1
_chemical_formula_structural   Ce3Sm(Ta3Si4)2
_chemical_formula_sum   'Ce6 Sm2 Ta12 Si16'
_cell_volume   665.29192284
_cell_formula_units_Z   2
loop_
 _symmetry_equiv_pos_site_id
 _symmetry_equiv_pos_as_xyz
  1  'x, y, z'
loop_
 _atom_site_type_symbol
 _atom_site_label
 _atom_site_symmetry_multiplicity
 _atom_site_fract_x
 _atom_site_fract_y
 _atom_site_fract_z
 _atom_site_occupancy
  Ce  Ce0  1  0.004908  0.168706  0.094698  1
  Ce  Ce1  1  0.995092  0.831294  0.905302  1
  Ce  Ce2  1  0.496066  0.668360  0.905576  1
  Ce  Ce3  1  0.995221  0.832377  0.593510  1
  Ce  Ce4  1  0.503934  0.331640  0.094424  1
  Ce  Ce5  1  0.004779  0.167623  0.406490  1
  Sm  Sm6  1  0.503571  0.329822  0.404603  1
  Sm  Sm7  1  0.496429  0.670178  0.595397  1
  Ta  Ta8  1  0.160991  0.492642  0.749823  1
  Ta  Ta9  1  0.839009  0.507358  0.250177  1
  Ta  Ta10  1  0.337657  0.991902  0.248972  1
  Ta  Ta11  1  0.662343  0.008098  0.751028  1
  Ta  Ta12  1  0.333596  0.172487  0.625478  1
  Ta  Ta13  1  0.666404  0.827513  0.374522  1
  Ta  Ta14  1  0.162019  0.673756  0.374473  1
  Ta  Ta15  1  0.664230  0.826489  0.124901  1
  Ta  Ta16  1  0.837981  0.326244  0.625527  1
  Ta  Ta17  1  0.335770  0.173511  0.875099  1
  Ta  Ta18  1  0.835665  0.327997  0.875035  1
  Ta  Ta19  1  0.164335  0.672003  0.124965  1
  Si  Si20  1  0.039139  0.125775  0.750432  1
  Si  Si21  1  0.960861  0.874225  0.249568  1
  Si  Si22  1  0.460585  0.627086  0.250217  1
  Si  Si23  1  0.539415  0.372914  0.749783  1
  Si  Si24  1  0.295905  0.878059  0.750052  1
  Si  Si25  1  0.704095  0.121941  0.249948  1
  Si  Si26  1  0.203811  0.377665  0.250283  1
  Si  Si27  1  0.796189  0.622335  0.749717  1
  Si  Si28  1  0.160613  0.460810  0.543075  1
  Si  Si29  1  0.839387  0.539190  0.456925  1
  Si  Si30  1  0.341272  0.959711  0.456516  1
  Si  Si31  1  0.839881  0.540307  0.043263  1
  Si  Si32  1  0.658728  0.040289  0.543484  1
  Si  Si33  1  0.160119  0.459693  0.956737  1
  Si  Si34  1  0.660068  0.040683  0.957018  1
  Si  Si35  1  0.339932  0.959317  0.042982  1
