# generated using pymatgen
data_Ta4V3Ga4Cu
_symmetry_space_group_name_H-M   'P 1'
_cell_length_a   4.98017435
_cell_length_b   4.98211601
_cell_length_c   8.37297400
_cell_angle_alpha   90.00000000
_cell_angle_beta   90.00000000
_cell_angle_gamma   61.08556215
_symmetry_Int_Tables_number   1
_chemical_formula_structural   Ta4V3Ga4Cu
_chemical_formula_sum   'Ta4 V3 Ga4 Cu1'
_cell_volume   181.85123249
_cell_formula_units_Z   1
loop_
 _symmetry_equiv_pos_site_id
 _symmetry_equiv_pos_as_xyz
  1  'x, y, z'
loop_
 _atom_site_type_symbol
 _atom_site_label
 _atom_site_symmetry_multiplicity
 _atom_site_fract_x
 _atom_site_fract_y
 _atom_site_fract_z
 _atom_site_occupancy
  Ta  Ta0  1  0.334464  0.334479  0.557379  1
  Ta  Ta1  1  0.664070  0.664091  0.434463  1
  Ta  Ta2  1  0.664070  0.664091  0.065537  1
  Ta  Ta3  1  0.334464  0.334479  0.942621  1
  V  V4  1  0.171494  0.649299  0.250000  1
  V  V5  1  0.649197  0.171638  0.250000  1
  V  V6  1  0.170886  0.171114  0.250000  1
  Ga  Ga7  1  0.993529  0.993392  0.498727  1
  Ga  Ga8  1  0.993529  0.993392  0.001273  1
  Ga  Ga9  1  0.834934  0.352107  0.750000  1
  Ga  Ga10  1  0.352230  0.834851  0.750000  1
  Cu  Cu11  1  0.837133  0.837066  0.750000  1
