# generated using pymatgen
data_CaHo2Zn11
_symmetry_space_group_name_H-M   'P 1'
_cell_length_a   8.17952683
_cell_length_b   8.17952745
_cell_length_c   8.17952768
_cell_angle_alpha   148.36923637
_cell_angle_beta   115.43653655
_cell_angle_gamma   73.68270092
_symmetry_Int_Tables_number   1
_chemical_formula_structural   CaHo2Zn11
_chemical_formula_sum   'Ca1 Ho2 Zn11'
_cell_volume   254.99599713
_cell_formula_units_Z   1
loop_
 _symmetry_equiv_pos_site_id
 _symmetry_equiv_pos_as_xyz
  1  'x, y, z'
loop_
 _atom_site_type_symbol
 _atom_site_label
 _atom_site_symmetry_multiplicity
 _atom_site_fract_x
 _atom_site_fract_y
 _atom_site_fract_z
 _atom_site_occupancy
  Ca  Ca0  1  0.000000  0.000000  0.000000  1
  Ho  Ho1  1  0.298339  0.298339  0.000000  1
  Ho  Ho2  1  0.701661  0.701661  0.000000  1
  Zn  Zn3  1  0.681235  0.500000  0.181235  1
  Zn  Zn4  1  0.421636  0.137628  0.284008  1
  Zn  Zn5  1  0.146380  0.862372  0.284007  1
  Zn  Zn6  1  0.693014  0.337049  0.355965  1
  Zn  Zn7  1  0.018917  0.662951  0.355964  1
  Zn  Zn8  1  0.500000  0.000000  0.500000  1
  Zn  Zn9  1  0.981083  0.337049  0.644035  1
  Zn  Zn10  1  0.306987  0.662951  0.644035  1
  Zn  Zn11  1  0.853620  0.137628  0.715993  1
  Zn  Zn12  1  0.578364  0.862372  0.715992  1
  Zn  Zn13  1  0.318765  0.499999  0.818764  1
