# generated using pymatgen
data_DyTm(WN3)2
_symmetry_space_group_name_H-M   'P 1'
_cell_length_a   7.37005257
_cell_length_b   7.36995535
_cell_length_c   6.26009048
_cell_angle_alpha   73.23066854
_cell_angle_beta   73.23042273
_cell_angle_gamma   81.51365855
_symmetry_Int_Tables_number   1
_chemical_formula_structural   DyTm(WN3)2
_chemical_formula_sum   'Dy2 Tm2 W4 N12'
_cell_volume   310.95510143
_cell_formula_units_Z   2
loop_
 _symmetry_equiv_pos_site_id
 _symmetry_equiv_pos_as_xyz
  1  'x, y, z'
loop_
 _atom_site_type_symbol
 _atom_site_label
 _atom_site_symmetry_multiplicity
 _atom_site_fract_x
 _atom_site_fract_y
 _atom_site_fract_z
 _atom_site_occupancy
  Dy  Dy0  1  0.715639  0.284362  0.250001  1
  Dy  Dy1  1  0.284361  0.715638  0.749999  1
  Tm  Tm2  1  0.910039  0.089960  0.750001  1
  Tm  Tm3  1  0.089961  0.910040  0.249999  1
  W  W4  1  0.620754  0.798987  0.275566  1
  W  W5  1  0.201012  0.379244  0.224437  1
  W  W6  1  0.379246  0.201013  0.724434  1
  W  W7  1  0.798988  0.620756  0.775563  1
  N  N8  1  0.663535  0.626739  0.080033  1
  N  N9  1  0.374352  0.885922  0.331412  1
  N  N10  1  0.373259  0.336468  0.419967  1
  N  N11  1  0.114076  0.625651  0.168588  1
  N  N12  1  0.003492  0.214463  0.347718  1
  N  N13  1  0.785536  0.996509  0.152282  1
  N  N14  1  0.214464  0.003491  0.847718  1
  N  N15  1  0.625648  0.114078  0.668588  1
  N  N16  1  0.336465  0.373261  0.919967  1
  N  N17  1  0.885924  0.374349  0.831412  1
  N  N18  1  0.626741  0.663532  0.580033  1
  N  N19  1  0.996508  0.785537  0.652282  1
