# generated using pymatgen
data_NaEuCr2O8
_symmetry_space_group_name_H-M   'P 1'
_cell_length_a   6.02256434
_cell_length_b   6.02256361
_cell_length_c   6.02256300
_cell_angle_alpha   105.60117812
_cell_angle_beta   105.60118606
_cell_angle_gamma   117.52403191
_symmetry_Int_Tables_number   1
_chemical_formula_structural   NaEuCr2O8
_chemical_formula_sum   'Na1 Eu1 Cr2 O8'
_cell_volume   165.63604335
_cell_formula_units_Z   1
loop_
 _symmetry_equiv_pos_site_id
 _symmetry_equiv_pos_as_xyz
  1  'x, y, z'
loop_
 _atom_site_type_symbol
 _atom_site_label
 _atom_site_symmetry_multiplicity
 _atom_site_fract_x
 _atom_site_fract_y
 _atom_site_fract_z
 _atom_site_occupancy
  Na  Na0  1  0.000000  0.000000  0.000000  1
  Eu  Eu1  1  0.250000  0.750000  0.500000  1
  Cr  Cr2  1  0.750000  0.250000  0.500000  1
  Cr  Cr3  1  0.500000  0.500000  0.000000  1
  O  O4  1  0.343911  0.527897  0.183986  1
  O  O5  1  0.406190  0.084955  0.321236  1
  O  O6  1  0.763720  0.084955  0.678764  1
  O  O7  1  0.343911  0.159926  0.816014  1
  O  O8  1  0.840074  0.656089  0.183986  1
  O  O9  1  0.915045  0.236280  0.321236  1
  O  O10  1  0.915045  0.593810  0.678764  1
  O  O11  1  0.472103  0.656089  0.816014  1
