# generated using pymatgen
data_Ta4BeNb4NiTe8
_symmetry_space_group_name_H-M   'P 1'
_cell_length_a   4.85072500
_cell_length_b   10.90994400
_cell_length_c   18.92468300
_cell_angle_alpha   90.00000000
_cell_angle_beta   90.00000000
_cell_angle_gamma   90.00000000
_symmetry_Int_Tables_number   1
_chemical_formula_structural   Ta4BeNb4NiTe8
_chemical_formula_sum   'Ta8 Be2 Nb8 Ni2 Te16'
_cell_volume   1001.51576272
_cell_formula_units_Z   2
loop_
 _symmetry_equiv_pos_site_id
 _symmetry_equiv_pos_as_xyz
  1  'x, y, z'
loop_
 _atom_site_type_symbol
 _atom_site_label
 _atom_site_symmetry_multiplicity
 _atom_site_fract_x
 _atom_site_fract_y
 _atom_site_fract_z
 _atom_site_occupancy
  Ta  Ta0  1  0.007915  0.685711  0.444188  1
  Ta  Ta1  1  0.007915  0.314289  0.555812  1
  Ta  Ta2  1  0.992085  0.185711  0.055812  1
  Ta  Ta3  1  0.992085  0.814289  0.944188  1
  Ta  Ta4  1  0.005817  0.402702  0.393845  1
  Ta  Ta5  1  0.005817  0.597298  0.606155  1
  Ta  Ta6  1  0.994183  0.902702  0.106155  1
  Ta  Ta7  1  0.994183  0.097298  0.893845  1
  Be  Be8  1  0.254740  0.500000  0.500000  1
  Be  Be9  1  0.745260  0.000000  0.000000  1
  Nb  Nb10  1  0.496030  0.563621  0.383812  1
  Nb  Nb11  1  0.496030  0.436379  0.616188  1
  Nb  Nb12  1  0.503970  0.063621  0.116188  1
  Nb  Nb13  1  0.503970  0.936379  0.883812  1
  Nb  Nb14  1  0.486451  0.703383  0.536449  1
  Nb  Nb15  1  0.486451  0.296617  0.463551  1
  Nb  Nb16  1  0.513549  0.203383  0.963551  1
  Nb  Nb17  1  0.513549  0.796617  0.036449  1
  Ni  Ni18  1  0.750363  0.500000  0.500000  1
  Ni  Ni19  1  0.249637  0.000000  0.000000  1
  Te  Te20  1  0.988992  0.846606  0.562556  1
  Te  Te21  1  0.988992  0.153394  0.437444  1
  Te  Te22  1  0.011008  0.346606  0.937444  1
  Te  Te23  1  0.011008  0.653394  0.062556  1
  Te  Te24  1  0.508416  0.332845  0.314703  1
  Te  Te25  1  0.508416  0.667155  0.685297  1
  Te  Te26  1  0.491584  0.832845  0.185297  1
  Te  Te27  1  0.491584  0.167155  0.814703  1
  Te  Te28  1  0.509784  0.822522  0.402371  1
  Te  Te29  1  0.509784  0.177478  0.597629  1
  Te  Te30  1  0.490216  0.322522  0.097629  1
  Te  Te31  1  0.490216  0.677478  0.902371  1
  Te  Te32  1  0.993743  0.607304  0.301171  1
  Te  Te33  1  0.993743  0.392696  0.698829  1
  Te  Te34  1  0.006257  0.107304  0.198829  1
  Te  Te35  1  0.006257  0.892696  0.801171  1
