# generated using pymatgen
data_Tb7YTm2(SiB4)4
_symmetry_space_group_name_H-M   'P 1'
_cell_length_a   7.23887202
_cell_length_b   7.23887202
_cell_length_c   8.08975201
_cell_angle_alpha   89.99704663
_cell_angle_beta   90.00295337
_cell_angle_gamma   90.00770926
_symmetry_Int_Tables_number   1
_chemical_formula_structural   Tb7YTm2(SiB4)4
_chemical_formula_sum   'Tb7 Y1 Tm2 Si4 B16'
_cell_volume   423.91325877
_cell_formula_units_Z   1
loop_
 _symmetry_equiv_pos_site_id
 _symmetry_equiv_pos_as_xyz
  1  'x, y, z'
loop_
 _atom_site_type_symbol
 _atom_site_label
 _atom_site_symmetry_multiplicity
 _atom_site_fract_x
 _atom_site_fract_y
 _atom_site_fract_z
 _atom_site_occupancy
  Tb  Tb0  1  0.680329  0.180300  0.225339  1
  Tb  Tb1  1  0.319713  0.819758  0.774674  1
  Tb  Tb2  1  0.319700  0.819671  0.225339  1
  Tb  Tb3  1  0.819589  0.680411  0.225291  1
  Tb  Tb4  1  0.819609  0.680391  0.774756  1
  Tb  Tb5  1  0.680242  0.180287  0.774674  1
  Tb  Tb6  1  0.180397  0.319603  0.774816  1
  Y  Y7  1  0.180346  0.319654  0.224796  1
  Tm  Tm8  1  0.000006  0.000041  0.499969  1
  Tm  Tm9  1  0.499959  0.499994  0.499969  1
  Si  Si10  1  0.115490  0.615300  0.499908  1
  Si  Si11  1  0.884700  0.384510  0.499908  1
  Si  Si12  1  0.384474  0.115526  0.499908  1
  Si  Si13  1  0.615359  0.884641  0.499942  1
  B  B14  1  0.172393  0.039154  0.000029  1
  B  B15  1  0.827679  0.960919  0.000061  1
  B  B16  1  0.960919  0.172363  0.000045  1
  B  B17  1  0.327637  0.539081  0.000045  1
  B  B18  1  0.039091  0.827695  0.000055  1
  B  B19  1  0.672305  0.460909  0.000055  1
  B  B20  1  0.539081  0.672321  0.000061  1
  B  B21  1  0.460846  0.327607  0.000029  1
  B  B22  1  0.089902  0.589829  0.000052  1
  B  B23  1  0.910171  0.410098  0.000052  1
  B  B24  1  0.410103  0.089897  0.999932  1
  B  B25  1  0.589955  0.910045  0.000009  1
  B  B26  1  0.000054  0.000092  0.162585  1
  B  B27  1  0.000062  0.000017  0.837558  1
  B  B28  1  0.499983  0.499938  0.837558  1
  B  B29  1  0.499908  0.499946  0.162585  1
