# generated using pymatgen
data_Yb3Pa(NiGe)4
_symmetry_space_group_name_H-M   'P 1'
_cell_length_a   4.27406500
_cell_length_b   6.92216209
_cell_length_c   7.09822784
_cell_angle_alpha   90.37962040
_cell_angle_beta   90.00000000
_cell_angle_gamma   90.00000000
_symmetry_Int_Tables_number   1
_chemical_formula_structural   Yb3Pa(NiGe)4
_chemical_formula_sum   'Yb3 Pa1 Ni4 Ge4'
_cell_volume   210.00193190
_cell_formula_units_Z   1
loop_
 _symmetry_equiv_pos_site_id
 _symmetry_equiv_pos_as_xyz
  1  'x, y, z'
loop_
 _atom_site_type_symbol
 _atom_site_label
 _atom_site_symmetry_multiplicity
 _atom_site_fract_x
 _atom_site_fract_y
 _atom_site_fract_z
 _atom_site_occupancy
  Yb  Yb0  1  0.250000  0.514636  0.695848  1
  Yb  Yb1  1  0.750000  0.986755  0.204637  1
  Yb  Yb2  1  0.750000  0.486011  0.298359  1
  Pa  Pa3  1  0.250000  0.015128  0.797783  1
  Ni  Ni4  1  0.250000  0.811842  0.417059  1
  Ni  Ni5  1  0.250000  0.299091  0.080020  1
  Ni  Ni6  1  0.750000  0.182622  0.593454  1
  Ni  Ni7  1  0.750000  0.700303  0.917855  1
  Ge  Ge8  1  0.250000  0.189438  0.408635  1
  Ge  Ge9  1  0.250000  0.687953  0.087583  1
  Ge  Ge10  1  0.750000  0.811190  0.585065  1
  Ge  Ge11  1  0.750000  0.315030  0.913703  1
