# generated using pymatgen
data_Er4PaOs2
_symmetry_space_group_name_H-M   'P 1'
_cell_length_a   6.32916175
_cell_length_b   7.17018885
_cell_length_c   8.52123161
_cell_angle_alpha   98.39777832
_cell_angle_beta   111.80050438
_cell_angle_gamma   90.00000787
_symmetry_Int_Tables_number   1
_chemical_formula_structural   Er4PaOs2
_chemical_formula_sum   'Er8 Pa2 Os4'
_cell_volume   354.57883038
_cell_formula_units_Z   2
loop_
 _symmetry_equiv_pos_site_id
 _symmetry_equiv_pos_as_xyz
  1  'x, y, z'
loop_
 _atom_site_type_symbol
 _atom_site_label
 _atom_site_symmetry_multiplicity
 _atom_site_fract_x
 _atom_site_fract_y
 _atom_site_fract_z
 _atom_site_occupancy
  Er  Er0  1  0.786443  0.079738  0.815208  1
  Er  Er1  1  0.971236  0.420262  0.184792  1
  Er  Er2  1  0.213557  0.920262  0.184792  1
  Er  Er3  1  0.028764  0.579738  0.815208  1
  Er  Er4  1  0.205509  0.185934  0.556854  1
  Er  Er5  1  0.648656  0.314066  0.443146  1
  Er  Er6  1  0.794491  0.814066  0.443146  1
  Er  Er7  1  0.351344  0.685934  0.556854  1
  Pa  Pa8  1  0.415306  0.250000  0.000000  1
  Pa  Pa9  1  0.584694  0.750000  0.000000  1
  Os  Os10  1  0.590447  0.437279  0.798261  1
  Os  Os11  1  0.792184  0.062721  0.201739  1
  Os  Os12  1  0.409553  0.562721  0.201739  1
  Os  Os13  1  0.207816  0.937279  0.798261  1
