# generated using pymatgen
data_Y6Ni3Ir14Rh
_symmetry_space_group_name_H-M   'P 1'
_cell_length_a   5.32193600
_cell_length_b   5.32193560
_cell_length_c   17.04066200
_cell_angle_alpha   90.00000000
_cell_angle_beta   90.00000000
_cell_angle_gamma   120.00009529
_symmetry_Int_Tables_number   1
_chemical_formula_structural   Y6Ni3Ir14Rh
_chemical_formula_sum   'Y6 Ni3 Ir14 Rh1'
_cell_volume   417.98042128
_cell_formula_units_Z   1
loop_
 _symmetry_equiv_pos_site_id
 _symmetry_equiv_pos_as_xyz
  1  'x, y, z'
loop_
 _atom_site_type_symbol
 _atom_site_label
 _atom_site_symmetry_multiplicity
 _atom_site_fract_x
 _atom_site_fract_y
 _atom_site_fract_z
 _atom_site_occupancy
  Y  Y0  1  0.333333  0.666667  0.961038  1
  Y  Y1  1  0.666667  0.333334  0.042219  1
  Y  Y2  1  0.666667  0.333334  0.457781  1
  Y  Y3  1  0.333333  0.666667  0.538962  1
  Y  Y4  1  0.333333  0.666667  0.750000  1
  Y  Y5  1  0.666667  0.333333  0.250000  1
  Ni  Ni6  1  0.333334  0.666667  0.250000  1
  Ni  Ni7  1  0.666667  0.333333  0.750000  1
  Ni  Ni8  1  0.000000  0.999999  0.250000  1
  Ir  Ir9  1  0.167731  0.832269  0.368999  1
  Ir  Ir10  1  0.167731  0.335462  0.368999  1
  Ir  Ir11  1  0.664538  0.832268  0.368999  1
  Ir  Ir12  1  0.831234  0.168766  0.626082  1
  Ir  Ir13  1  0.831234  0.662469  0.626082  1
  Ir  Ir14  1  0.337531  0.168765  0.626082  1
  Ir  Ir15  1  0.831234  0.168766  0.873918  1
  Ir  Ir16  1  0.831234  0.662469  0.873918  1
  Ir  Ir17  1  0.337531  0.168765  0.873918  1
  Ir  Ir18  1  0.167731  0.832269  0.131001  1
  Ir  Ir19  1  0.167731  0.335462  0.131001  1
  Ir  Ir20  1  0.664538  0.832268  0.131001  1
  Ir  Ir21  1  0.000000  0.000000  0.497583  1
  Ir  Ir22  1  0.000000  0.000000  0.002417  1
  Rh  Rh23  1  0.999999  0.000000  0.750000  1
