# generated using pymatgen
data_DyEr3Sb2(RhO7)2
_symmetry_space_group_name_H-M   'P 1'
_cell_length_a   7.27513878
_cell_length_b   7.23777441
_cell_length_c   7.27719257
_cell_angle_alpha   60.17902818
_cell_angle_beta   60.79961697
_cell_angle_gamma   60.16975453
_symmetry_Int_Tables_number   1
_chemical_formula_structural   DyEr3Sb2(RhO7)2
_chemical_formula_sum   'Dy1 Er3 Sb2 Rh2 O14'
_cell_volume   273.27809989
_cell_formula_units_Z   1
loop_
 _symmetry_equiv_pos_site_id
 _symmetry_equiv_pos_as_xyz
  1  'x, y, z'
loop_
 _atom_site_type_symbol
 _atom_site_label
 _atom_site_symmetry_multiplicity
 _atom_site_fract_x
 _atom_site_fract_y
 _atom_site_fract_z
 _atom_site_occupancy
  Dy  Dy0  1  0.125000  0.125000  0.625000  1
  Er  Er1  1  0.125000  0.625000  0.125000  1
  Er  Er2  1  0.625000  0.125000  0.125000  1
  Er  Er3  1  0.125000  0.125000  0.125000  1
  Sb  Sb4  1  0.125000  0.625000  0.625000  1
  Sb  Sb5  1  0.625000  0.625000  0.125000  1
  Rh  Rh6  1  0.625000  0.625000  0.625000  1
  Rh  Rh7  1  0.625000  0.125000  0.625000  1
  O  O8  1  0.282928  0.706878  0.720152  1
  O  O9  1  0.530386  0.960160  0.967274  1
  O  O10  1  0.724182  0.274526  0.726766  1
  O  O11  1  0.282928  0.290042  0.720152  1
  O  O12  1  0.719614  0.707820  0.282726  1
  O  O13  1  0.002696  0.995467  0.006370  1
  O  O14  1  0.294529  0.705470  0.294530  1
  O  O15  1  0.955471  0.544530  0.955470  1
  O  O16  1  0.967072  0.959958  0.529848  1
  O  O17  1  0.530386  0.542180  0.967274  1
  O  O18  1  0.247304  0.254533  0.243630  1
  O  O19  1  0.525818  0.975474  0.523234  1
  O  O20  1  0.719614  0.289840  0.282726  1
  O  O21  1  0.967072  0.543122  0.529848  1
