# generated using pymatgen
data_NaRh2F9
_symmetry_space_group_name_H-M   'P 1'
_cell_length_a   5.14946606
_cell_length_b   5.15078848
_cell_length_c   7.54970601
_cell_angle_alpha   90.00024005
_cell_angle_beta   90.00453978
_cell_angle_gamma   120.00881605
_symmetry_Int_Tables_number   1
_chemical_formula_structural   NaRh2F9
_chemical_formula_sum   'Na1 Rh2 F9'
_cell_volume   173.40355553
_cell_formula_units_Z   1
loop_
 _symmetry_equiv_pos_site_id
 _symmetry_equiv_pos_as_xyz
  1  'x, y, z'
loop_
 _atom_site_type_symbol
 _atom_site_label
 _atom_site_symmetry_multiplicity
 _atom_site_fract_x
 _atom_site_fract_y
 _atom_site_fract_z
 _atom_site_occupancy
  Na  Na0  1  0.999997  0.000018  0.000384  1
  Rh  Rh1  1  0.666622  0.333331  0.350861  1
  Rh  Rh2  1  0.333347  0.666706  0.649192  1
  F  F3  1  0.356570  0.315814  0.206104  1
  F  F4  1  0.959297  0.643341  0.206119  1
  F  F5  1  0.684125  0.040821  0.206155  1
  F  F6  1  0.999940  0.350434  0.499895  1
  F  F7  1  0.649479  0.649438  0.499844  1
  F  F8  1  0.350539  0.000062  0.499898  1
  F  F9  1  0.315764  0.356642  0.793838  1
  F  F10  1  0.040819  0.684196  0.793854  1
  F  F11  1  0.643507  0.959203  0.793861  1
