# generated using pymatgen
data_BaI28
_symmetry_space_group_name_H-M   'P 1'
_cell_length_a   10.67681737
_cell_length_b   14.33344904
_cell_length_c   12.98270300
_cell_angle_alpha   108.44914254
_cell_angle_beta   105.43469067
_cell_angle_gamma   86.57346759
_symmetry_Int_Tables_number   1
_chemical_formula_structural   BaI28
_chemical_formula_sum   'Ba1 I28'
_cell_volume   1816.08072199
_cell_formula_units_Z   1
loop_
 _symmetry_equiv_pos_site_id
 _symmetry_equiv_pos_as_xyz
  1  'x, y, z'
loop_
 _atom_site_type_symbol
 _atom_site_label
 _atom_site_symmetry_multiplicity
 _atom_site_fract_x
 _atom_site_fract_y
 _atom_site_fract_z
 _atom_site_occupancy
  Ba  Ba0  1  0.500000  0.000000  0.000000  1
  I  I1  1  0.135279  0.140548  0.428498  1
  I  I2  1  0.607636  0.154756  0.466373  1
  I  I3  1  0.284567  0.271900  0.854646  1
  I  I4  1  0.794626  0.296165  0.873367  1
  I  I5  1  0.194083  0.498152  0.651332  1
  I  I6  1  0.735714  0.511510  0.695119  1
  I  I7  1  0.392364  0.845244  0.533627  1
  I  I8  1  0.864721  0.859452  0.571502  1
  I  I9  1  0.205374  0.703835  0.126633  1
  I  I10  1  0.715433  0.728100  0.145354  1
  I  I11  1  0.264286  0.488490  0.304881  1
  I  I12  1  0.805917  0.501848  0.348668  1
  I  I13  1  0.835071  0.033007  0.739375  1
  I  I14  1  0.311907  0.971263  0.735164  1
  I  I15  1  0.000960  0.659681  0.932519  1
  I  I16  1  0.519118  0.750832  0.949620  1
  I  I17  1  0.717449  0.337852  0.380344  1
  I  I18  1  0.199014  0.324370  0.352004  1
  I  I19  1  0.688093  0.028737  0.264836  1
  I  I20  1  0.164929  0.966993  0.260625  1
  I  I21  1  0.480882  0.249168  0.050380  1
  I  I22  1  0.999040  0.340319  0.067481  1
  I  I23  1  0.800986  0.675630  0.647996  1
  I  I24  1  0.282551  0.662148  0.619656  1
  I  I25  1  0.083580  0.300736  0.661554  1
  I  I26  1  0.547942  0.280839  0.667892  1
  I  I27  1  0.452058  0.719161  0.332108  1
  I  I28  1  0.916420  0.699264  0.338446  1
