# generated using pymatgen
data_Nd2CuSiPt7
_symmetry_space_group_name_H-M   'P 1'
_cell_length_a   4.21734300
_cell_length_b   9.24121928
_cell_length_c   9.24318818
_cell_angle_alpha   145.68684284
_cell_angle_beta   90.00000000
_cell_angle_gamma   90.00000000
_symmetry_Int_Tables_number   1
_chemical_formula_structural   Nd2CuSiPt7
_chemical_formula_sum   'Nd2 Cu1 Si1 Pt7'
_cell_volume   203.07204975
_cell_formula_units_Z   1
loop_
 _symmetry_equiv_pos_site_id
 _symmetry_equiv_pos_as_xyz
  1  'x, y, z'
loop_
 _atom_site_type_symbol
 _atom_site_label
 _atom_site_symmetry_multiplicity
 _atom_site_fract_x
 _atom_site_fract_y
 _atom_site_fract_z
 _atom_site_occupancy
  Nd  Nd0  1  0.500000  0.615845  0.372377  1
  Nd  Nd1  1  0.500000  0.376755  0.620289  1
  Cu  Cu2  1  0.500000  0.789877  0.193055  1
  Si  Si3  1  0.000000  0.224019  0.227780  1
  Pt  Pt4  1  0.000000  0.877734  0.106062  1
  Pt  Pt5  1  0.000000  0.988895  0.483984  1
  Pt  Pt6  1  0.000000  0.642092  0.642459  1
  Pt  Pt7  1  0.500000  0.193070  0.789249  1
  Pt  Pt8  1  0.000000  0.109808  0.887483  1
  Pt  Pt9  1  0.000000  0.494313  0.987711  1
  Pt  Pt10  1  0.500000  0.001176  0.003134  1
