# generated using pymatgen
data_Er2Ga8Fe9
_symmetry_space_group_name_H-M   'P 1'
_cell_length_a   6.55763820
_cell_length_b   6.55625816
_cell_length_c   6.55779873
_cell_angle_alpha   83.75599620
_cell_angle_beta   96.22570531
_cell_angle_gamma   96.24781472
_symmetry_Int_Tables_number   1
_chemical_formula_structural   Er2Ga8Fe9
_chemical_formula_sum   'Er2 Ga8 Fe9'
_cell_volume   277.27125559
_cell_formula_units_Z   1
loop_
 _symmetry_equiv_pos_site_id
 _symmetry_equiv_pos_as_xyz
  1  'x, y, z'
loop_
 _atom_site_type_symbol
 _atom_site_label
 _atom_site_symmetry_multiplicity
 _atom_site_fract_x
 _atom_site_fract_y
 _atom_site_fract_z
 _atom_site_occupancy
  Er  Er0  1  0.635602  0.364490  0.364461  1
  Er  Er1  1  0.364478  0.635551  0.635581  1
  Ga  Ga2  1  0.320036  0.320033  0.000038  1
  Ga  Ga3  1  0.679994  0.679964  0.999930  1
  Ga  Ga4  1  0.870658  0.129358  0.129289  1
  Ga  Ga5  1  0.000005  0.679935  0.320056  1
  Ga  Ga6  1  0.320024  0.000000  0.319969  1
  Ga  Ga7  1  0.680005  0.999967  0.680029  1
  Ga  Ga8  1  0.999941  0.320102  0.679979  1
  Ga  Ga9  1  0.129284  0.870614  0.870682  1
  Fe  Fe10  1  0.500011  0.000001  0.000003  1
  Fe  Fe11  1  0.999984  0.500007  0.999982  1
  Fe  Fe12  1  0.336991  0.662993  0.164920  1
  Fe  Fe13  1  0.164886  0.336989  0.336972  1
  Fe  Fe14  1  0.663003  0.835032  0.337018  1
  Fe  Fe15  1  0.999989  0.999988  0.500007  1
  Fe  Fe16  1  0.835083  0.663013  0.663028  1
  Fe  Fe17  1  0.337003  0.164950  0.662998  1
  Fe  Fe18  1  0.663025  0.337015  0.835059  1
