# generated using pymatgen
data_Tb8HfZr8Si16W3
_symmetry_space_group_name_H-M   'P 1'
_cell_length_a   7.22764737
_cell_length_b   7.22682550
_cell_length_c   13.31745856
_cell_angle_alpha   90.05926804
_cell_angle_beta   90.06986251
_cell_angle_gamma   90.08385971
_symmetry_Int_Tables_number   1
_chemical_formula_structural   Tb8HfZr8Si16W3
_chemical_formula_sum   'Tb8 Hf1 Zr8 Si16 W3'
_cell_volume   695.60846265
_cell_formula_units_Z   1
loop_
 _symmetry_equiv_pos_site_id
 _symmetry_equiv_pos_as_xyz
  1  'x, y, z'
loop_
 _atom_site_type_symbol
 _atom_site_label
 _atom_site_symmetry_multiplicity
 _atom_site_fract_x
 _atom_site_fract_y
 _atom_site_fract_z
 _atom_site_occupancy
  Tb  Tb0  1  0.000514  0.345336  0.214486  1
  Tb  Tb1  1  0.002204  0.655022  0.714087  1
  Tb  Tb2  1  0.153063  0.500433  0.462268  1
  Tb  Tb3  1  0.500196  0.846811  0.037532  1
  Tb  Tb4  1  0.848389  0.501280  0.966898  1
  Tb  Tb5  1  0.498390  0.151840  0.533380  1
  Tb  Tb6  1  0.344694  0.997424  0.786180  1
  Tb  Tb7  1  0.654254  0.999633  0.285192  1
  Hf  Hf8  1  0.006660  0.853656  0.127158  1
  Zr  Zr9  1  0.675793  0.324197  0.750123  1
  Zr  Zr10  1  0.146302  0.994384  0.372738  1
  Zr  Zr11  1  0.855581  0.003868  0.875994  1
  Zr  Zr12  1  0.503522  0.648135  0.621048  1
  Zr  Zr13  1  0.351455  0.496258  0.879285  1
  Zr  Zr14  1  0.494903  0.352863  0.125452  1
  Zr  Zr15  1  0.647145  0.505594  0.374111  1
  Zr  Zr16  1  0.995734  0.144207  0.624264  1
  Si  Si17  1  0.358920  0.299900  0.314933  1
  Si  Si18  1  0.640855  0.704999  0.815236  1
  Si  Si19  1  0.199135  0.858178  0.563361  1
  Si  Si20  1  0.141490  0.801207  0.937320  1
  Si  Si21  1  0.800105  0.139663  0.066371  1
  Si  Si22  1  0.858948  0.200922  0.434172  1
  Si  Si23  1  0.294688  0.358981  0.685071  1
  Si  Si24  1  0.702044  0.641261  0.184283  1
  Si  Si25  1  0.293244  0.051386  0.184477  1
  Si  Si26  1  0.706287  0.944137  0.682492  1
  Si  Si27  1  0.448147  0.793689  0.432665  1
  Si  Si28  1  0.206268  0.552967  0.067636  1
  Si  Si29  1  0.547390  0.203455  0.938274  1
  Si  Si30  1  0.796407  0.452699  0.561591  1
  Si  Si31  1  0.055596  0.293488  0.817696  1
  Si  Si32  1  0.948459  0.706803  0.314513  1
  W  W33  1  0.176950  0.174888  0.002673  1
  W  W34  1  0.823980  0.822450  0.497468  1
  W  W35  1  0.322286  0.677986  0.249573  1
