# generated using pymatgen
data_Er7CdCo4(TcSn11)2
_symmetry_space_group_name_H-M   'P 1'
_cell_length_a   9.70187711
_cell_length_b   9.70187802
_cell_length_c   10.04712933
_cell_angle_alpha   89.91856065
_cell_angle_beta   90.08144118
_cell_angle_gamma   119.57076612
_symmetry_Int_Tables_number   1
_chemical_formula_structural   Er7CdCo4(TcSn11)2
_chemical_formula_sum   'Er7 Cd1 Co4 Tc2 Sn22'
_cell_volume   822.51882027
_cell_formula_units_Z   1
loop_
 _symmetry_equiv_pos_site_id
 _symmetry_equiv_pos_as_xyz
  1  'x, y, z'
loop_
 _atom_site_type_symbol
 _atom_site_label
 _atom_site_symmetry_multiplicity
 _atom_site_fract_x
 _atom_site_fract_y
 _atom_site_fract_z
 _atom_site_occupancy
  Er  Er0  1  0.482006  0.517994  0.310149  1
  Er  Er1  1  0.517994  0.482006  0.689851  1
  Er  Er2  1  0.484536  0.961393  0.306348  1
  Er  Er3  1  0.515464  0.038607  0.693652  1
  Er  Er4  1  0.038607  0.515464  0.306348  1
  Er  Er5  1  0.961393  0.484536  0.693652  1
  Er  Er6  1  0.000000  0.000000  0.000000  1
  Cd  Cd7  1  0.000000  0.000000  0.500000  1
  Co  Co8  1  0.829285  0.658400  0.200006  1
  Co  Co9  1  0.170715  0.341600  0.799994  1
  Co  Co10  1  0.341600  0.170715  0.200006  1
  Co  Co11  1  0.658400  0.829285  0.799994  1
  Tc  Tc12  1  0.836045  0.163955  0.201174  1
  Tc  Tc13  1  0.163955  0.836045  0.798826  1
  Sn  Sn14  1  0.117161  0.882839  0.274322  1
  Sn  Sn15  1  0.882839  0.117161  0.725678  1
  Sn  Sn16  1  0.130818  0.242934  0.265144  1
  Sn  Sn17  1  0.869182  0.757066  0.734856  1
  Sn  Sn18  1  0.757066  0.869182  0.265144  1
  Sn  Sn19  1  0.242934  0.130818  0.734856  1
  Sn  Sn20  1  0.783154  0.216846  0.460654  1
  Sn  Sn21  1  0.216846  0.783154  0.539346  1
  Sn  Sn22  1  0.782607  0.562194  0.454091  1
  Sn  Sn23  1  0.217393  0.437806  0.545909  1
  Sn  Sn24  1  0.437806  0.217393  0.454091  1
  Sn  Sn25  1  0.562194  0.782607  0.545909  1
  Sn  Sn26  1  0.346944  0.000128  0.006509  1
  Sn  Sn27  1  0.653056  0.999872  0.993491  1
  Sn  Sn28  1  0.000128  0.346944  0.993491  1
  Sn  Sn29  1  0.999872  0.653056  0.006509  1
  Sn  Sn30  1  0.651585  0.651585  0.000000  1
  Sn  Sn31  1  0.348415  0.348415  0.000000  1
  Sn  Sn32  1  0.333735  0.666265  0.123946  1
  Sn  Sn33  1  0.666265  0.333735  0.876054  1
  Sn  Sn34  1  0.332437  0.667563  0.818491  1
  Sn  Sn35  1  0.667563  0.332437  0.181509  1
