# generated using pymatgen
data_Sc6Ti4Al12Os7
_symmetry_space_group_name_H-M   'P 1'
_cell_length_a   8.84232245
_cell_length_b   8.84232322
_cell_length_c   8.84232400
_cell_angle_alpha   60.00000458
_cell_angle_beta   60.00000168
_cell_angle_gamma   60.00000186
_symmetry_Int_Tables_number   1
_chemical_formula_structural   Sc6Ti4Al12Os7
_chemical_formula_sum   'Sc6 Ti4 Al12 Os7'
_cell_volume   488.85964417
_cell_formula_units_Z   1
loop_
 _symmetry_equiv_pos_site_id
 _symmetry_equiv_pos_as_xyz
  1  'x, y, z'
loop_
 _atom_site_type_symbol
 _atom_site_label
 _atom_site_symmetry_multiplicity
 _atom_site_fract_x
 _atom_site_fract_y
 _atom_site_fract_z
 _atom_site_occupancy
  Sc  Sc0  1  0.710093  0.710093  0.289907  1
  Sc  Sc1  1  0.289907  0.710093  0.289907  1
  Sc  Sc2  1  0.710093  0.289907  0.289907  1
  Sc  Sc3  1  0.289907  0.289907  0.710093  1
  Sc  Sc4  1  0.710093  0.289907  0.710093  1
  Sc  Sc5  1  0.289907  0.710093  0.710093  1
  Ti  Ti6  1  0.879758  0.879758  0.360724  1
  Ti  Ti7  1  0.879758  0.360724  0.879758  1
  Ti  Ti8  1  0.360724  0.879758  0.879758  1
  Ti  Ti9  1  0.879758  0.879758  0.879758  1
  Al  Al10  1  0.119630  0.119630  0.641110  1
  Al  Al11  1  0.119630  0.641110  0.119630  1
  Al  Al12  1  0.641110  0.119630  0.119630  1
  Al  Al13  1  0.119630  0.119630  0.119630  1
  Al  Al14  1  0.666044  0.666044  0.001868  1
  Al  Al15  1  0.666044  0.001868  0.666044  1
  Al  Al16  1  0.001868  0.666044  0.666044  1
  Al  Al17  1  0.666044  0.666044  0.666044  1
  Al  Al18  1  0.334725  0.334725  0.995825  1
  Al  Al19  1  0.334725  0.995825  0.334725  1
  Al  Al20  1  0.995825  0.334725  0.334725  1
  Al  Al21  1  0.334725  0.334725  0.334725  1
  Os  Os22  1  0.000000  0.000000  0.000000  1
  Os  Os23  1  0.999052  0.999052  0.500948  1
  Os  Os24  1  0.500948  0.999052  0.500948  1
  Os  Os25  1  0.999052  0.500948  0.500948  1
  Os  Os26  1  0.500948  0.500948  0.999052  1
  Os  Os27  1  0.999052  0.500948  0.999052  1
  Os  Os28  1  0.500948  0.999052  0.999052  1
