# generated using pymatgen
data_DyYTm4FeSb2
_symmetry_space_group_name_H-M   'P 1'
_cell_length_a   8.11160554
_cell_length_b   8.12580952
_cell_length_c   4.12954800
_cell_angle_alpha   90.00000000
_cell_angle_beta   90.00000000
_cell_angle_gamma   119.90052686
_symmetry_Int_Tables_number   1
_chemical_formula_structural   DyYTm4FeSb2
_chemical_formula_sum   'Dy1 Y1 Tm4 Fe1 Sb2'
_cell_volume   235.96145023
_cell_formula_units_Z   1
loop_
 _symmetry_equiv_pos_site_id
 _symmetry_equiv_pos_as_xyz
  1  'x, y, z'
loop_
 _atom_site_type_symbol
 _atom_site_label
 _atom_site_symmetry_multiplicity
 _atom_site_fract_x
 _atom_site_fract_y
 _atom_site_fract_z
 _atom_site_occupancy
  Dy  Dy0  1  0.000129  0.602647  0.500000  1
  Y  Y1  1  0.397641  0.397477  0.500000  1
  Tm  Tm2  1  0.232511  0.999902  0.000000  1
  Tm  Tm3  1  0.766456  0.766979  0.000000  1
  Tm  Tm4  1  0.999379  0.233083  0.000000  1
  Tm  Tm5  1  0.606156  0.999975  0.500000  1
  Fe  Fe6  1  0.996282  0.999904  0.500000  1
  Sb  Sb7  1  0.334987  0.668571  0.000000  1
  Sb  Sb8  1  0.666459  0.331463  0.000000  1
