# generated using pymatgen
data_Pr8Cd3Pd8Pb
_symmetry_space_group_name_H-M   'P 1'
_cell_length_a   7.98070900
_cell_length_b   7.98070900
_cell_length_c   7.77197400
_cell_angle_alpha   90.00000000
_cell_angle_beta   90.00000000
_cell_angle_gamma   90.00000000
_symmetry_Int_Tables_number   1
_chemical_formula_structural   Pr8Cd3Pd8Pb
_chemical_formula_sum   'Pr8 Cd3 Pd8 Pb1'
_cell_volume   495.01036188
_cell_formula_units_Z   1
loop_
 _symmetry_equiv_pos_site_id
 _symmetry_equiv_pos_as_xyz
  1  'x, y, z'
loop_
 _atom_site_type_symbol
 _atom_site_label
 _atom_site_symmetry_multiplicity
 _atom_site_fract_x
 _atom_site_fract_y
 _atom_site_fract_z
 _atom_site_occupancy
  Pr  Pr0  1  0.174336  0.176397  0.000548  1
  Pr  Pr1  1  0.825664  0.823603  0.000548  1
  Pr  Pr2  1  0.676397  0.325664  0.499452  1
  Pr  Pr3  1  0.323603  0.674336  0.499452  1
  Pr  Pr4  1  0.675628  0.326614  0.000666  1
  Pr  Pr5  1  0.324372  0.673386  0.000666  1
  Pr  Pr6  1  0.826614  0.824372  0.499334  1
  Pr  Pr7  1  0.173386  0.175628  0.499334  1
  Cd  Cd8  1  0.500000  0.000000  0.750000  1
  Cd  Cd9  1  0.000000  0.500000  0.250000  1
  Cd  Cd10  1  0.000000  0.500000  0.750000  1
  Pd  Pd11  1  0.371264  0.380044  0.251045  1
  Pd  Pd12  1  0.625201  0.626141  0.749000  1
  Pd  Pd13  1  0.628736  0.619956  0.251045  1
  Pd  Pd14  1  0.873859  0.125201  0.751000  1
  Pd  Pd15  1  0.880044  0.128736  0.248955  1
  Pd  Pd16  1  0.374799  0.373859  0.749000  1
  Pd  Pd17  1  0.119956  0.871264  0.248955  1
  Pd  Pd18  1  0.126141  0.874799  0.751000  1
  Pb  Pb19  1  0.500000  0.000000  0.250000  1
