# generated using pymatgen
data_Pu(SeCl6)2
_symmetry_space_group_name_H-M   'P 1'
_cell_length_a   13.32639480
_cell_length_b   13.12410801
_cell_length_c   9.23782458
_cell_angle_alpha   70.73883592
_cell_angle_beta   68.38732587
_cell_angle_gamma   40.87384193
_symmetry_Int_Tables_number   1
_chemical_formula_structural   Pu(SeCl6)2
_chemical_formula_sum   'Pu2 Se4 Cl24'
_cell_volume   979.44481476
_cell_formula_units_Z   2
loop_
 _symmetry_equiv_pos_site_id
 _symmetry_equiv_pos_as_xyz
  1  'x, y, z'
loop_
 _atom_site_type_symbol
 _atom_site_label
 _atom_site_symmetry_multiplicity
 _atom_site_fract_x
 _atom_site_fract_y
 _atom_site_fract_z
 _atom_site_occupancy
  Pu  Pu0  1  0.123758  0.123758  0.376242  1
  Pu  Pu1  1  0.873758  0.873758  0.126242  1
  Se  Se2  1  0.234009  0.677376  0.312941  1
  Se  Se3  1  0.474326  0.937059  0.572624  1
  Se  Se4  1  0.937059  0.474326  0.015991  1
  Se  Se5  1  0.677376  0.234009  0.775674  1
  Cl  Cl6  1  0.990781  0.101034  0.652424  1
  Cl  Cl7  1  0.454182  0.311913  0.894616  1
  Cl  Cl8  1  0.696096  0.708632  0.013578  1
  Cl  Cl9  1  0.754596  0.153889  0.069273  1
  Cl  Cl10  1  0.829600  0.925972  0.846867  1
  Cl  Cl11  1  0.311913  0.454182  0.339289  1
  Cl  Cl12  1  0.584201  0.466411  0.746617  1
  Cl  Cl13  1  0.403133  0.852440  0.420400  1
  Cl  Cl14  1  0.708632  0.696096  0.581694  1
  Cl  Cl15  1  0.994239  0.597576  0.148966  1
  Cl  Cl16  1  0.852440  0.403133  0.324028  1
  Cl  Cl17  1  0.101034  0.990781  0.255761  1
  Cl  Cl18  1  0.153889  0.754596  0.022242  1
  Cl  Cl19  1  0.047230  0.503383  0.783589  1
  Cl  Cl20  1  0.466411  0.584201  0.202770  1
  Cl  Cl21  1  0.925972  0.829600  0.397560  1
  Cl  Cl22  1  0.597576  0.994239  0.259219  1
  Cl  Cl23  1  0.180727  0.227758  0.495404  1
  Cl  Cl24  1  0.910711  0.355384  0.938087  1
  Cl  Cl25  1  0.236422  0.668306  0.553904  1
  Cl  Cl26  1  0.503383  0.047230  0.665799  1
  Cl  Cl27  1  0.227758  0.180727  0.096111  1
  Cl  Cl28  1  0.668306  0.236422  0.541368  1
  Cl  Cl29  1  0.355384  0.910711  0.795818  1
