# generated using pymatgen
data_Tb3HoAl18(Os2Pt)2
_symmetry_space_group_name_H-M   'P 1'
_cell_length_a   7.58982246
_cell_length_b   7.59027258
_cell_length_c   9.54923200
_cell_angle_alpha   90.00000000
_cell_angle_beta   90.00000000
_cell_angle_gamma   119.62160410
_symmetry_Int_Tables_number   1
_chemical_formula_structural   Tb3HoAl18(Os2Pt)2
_chemical_formula_sum   'Tb3 Ho1 Al18 Os4 Pt2'
_cell_volume   478.22405823
_cell_formula_units_Z   1
loop_
 _symmetry_equiv_pos_site_id
 _symmetry_equiv_pos_as_xyz
  1  'x, y, z'
loop_
 _atom_site_type_symbol
 _atom_site_label
 _atom_site_symmetry_multiplicity
 _atom_site_fract_x
 _atom_site_fract_y
 _atom_site_fract_z
 _atom_site_occupancy
  Tb  Tb0  1  0.997511  0.670156  0.250000  1
  Tb  Tb1  1  0.002601  0.330279  0.750000  1
  Tb  Tb2  1  0.669894  0.997834  0.250000  1
  Ho  Ho3  1  0.330462  0.002447  0.750000  1
  Al  Al4  1  0.133316  0.133353  0.250000  1
  Al  Al5  1  0.867465  0.867189  0.750000  1
  Al  Al6  1  0.002516  0.339711  0.072135  1
  Al  Al7  1  0.997635  0.660574  0.927295  1
  Al  Al8  1  0.997635  0.660574  0.572705  1
  Al  Al9  1  0.339710  0.002387  0.428190  1
  Al  Al10  1  0.002516  0.339711  0.427865  1
  Al  Al11  1  0.659957  0.997392  0.572627  1
  Al  Al12  1  0.659957  0.997392  0.927373  1
  Al  Al13  1  0.339710  0.002387  0.071810  1
  Al  Al14  1  0.338618  0.338417  0.548848  1
  Al  Al15  1  0.661361  0.661379  0.451462  1
  Al  Al16  1  0.661361  0.661379  0.048538  1
  Al  Al17  1  0.338618  0.338417  0.951152  1
  Al  Al18  1  0.336695  0.548975  0.250000  1
  Al  Al19  1  0.663080  0.450682  0.750000  1
  Al  Al20  1  0.548667  0.336481  0.250000  1
  Al  Al21  1  0.450950  0.663638  0.750000  1
  Os  Os22  1  0.671917  0.327619  0.999778  1
  Os  Os23  1  0.327726  0.672107  0.999746  1
  Os  Os24  1  0.327726  0.672107  0.500254  1
  Os  Os25  1  0.671917  0.327619  0.500222  1
  Pt  Pt26  1  0.000239  0.999897  0.999932  1
  Pt  Pt27  1  0.000239  0.999897  0.500068  1
