# generated using pymatgen
data_Ce4Co3Ru5
_symmetry_space_group_name_H-M   'P 1'
_cell_length_a   5.20621241
_cell_length_b   5.17679694
_cell_length_c   8.67806400
_cell_angle_alpha   90.00000000
_cell_angle_beta   90.00000000
_cell_angle_gamma   119.81324896
_symmetry_Int_Tables_number   1
_chemical_formula_structural   Ce4Co3Ru5
_chemical_formula_sum   'Ce4 Co3 Ru5'
_cell_volume   202.93207147
_cell_formula_units_Z   1
loop_
 _symmetry_equiv_pos_site_id
 _symmetry_equiv_pos_as_xyz
  1  'x, y, z'
loop_
 _atom_site_type_symbol
 _atom_site_label
 _atom_site_symmetry_multiplicity
 _atom_site_fract_x
 _atom_site_fract_y
 _atom_site_fract_z
 _atom_site_occupancy
  Ce  Ce0  1  0.329668  0.664835  0.431561  1
  Ce  Ce1  1  0.662442  0.331221  0.578096  1
  Ce  Ce2  1  0.662442  0.331221  0.921904  1
  Ce  Ce3  1  0.329668  0.664835  0.068439  1
  Co  Co4  1  0.168074  0.336352  0.750000  1
  Co  Co5  1  0.168074  0.831723  0.750000  1
  Co  Co6  1  0.337644  0.168822  0.250000  1
  Ru  Ru7  1  0.828326  0.658387  0.250000  1
  Ru  Ru8  1  0.660550  0.830275  0.750000  1
  Ru  Ru9  1  0.012393  0.006196  0.997255  1
  Ru  Ru10  1  0.828326  0.169938  0.250000  1
  Ru  Ru11  1  0.012393  0.006196  0.502745  1
