# generated using pymatgen
data_Re2IrRu4Rh
_symmetry_space_group_name_H-M   'P 1'
_cell_length_a   5.50653800
_cell_length_b   5.48652662
_cell_length_c   4.35565300
_cell_angle_alpha   90.00000000
_cell_angle_beta   90.00000000
_cell_angle_gamma   120.12073955
_symmetry_Int_Tables_number   1
_chemical_formula_structural   Re2IrRu4Rh
_chemical_formula_sum   'Re2 Ir1 Ru4 Rh1'
_cell_volume   113.82308827
_cell_formula_units_Z   1
loop_
 _symmetry_equiv_pos_site_id
 _symmetry_equiv_pos_as_xyz
  1  'x, y, z'
loop_
 _atom_site_type_symbol
 _atom_site_label
 _atom_site_symmetry_multiplicity
 _atom_site_fract_x
 _atom_site_fract_y
 _atom_site_fract_z
 _atom_site_occupancy
  Re  Re0  1  0.335161  0.670322  0.750000  1
  Re  Re1  1  0.665014  0.330028  0.250000  1
  Ir  Ir2  1  0.832836  0.665673  0.750000  1
  Ru  Ru3  1  0.664133  0.834358  0.250000  1
  Ru  Ru4  1  0.170225  0.834358  0.250000  1
  Ru  Ru5  1  0.333744  0.165651  0.750000  1
  Ru  Ru6  1  0.831907  0.165651  0.750000  1
  Rh  Rh7  1  0.166980  0.333960  0.250000  1
