# generated using pymatgen
data_Li8Dy8SnBi2Pb5
_symmetry_space_group_name_H-M   'P 1'
_cell_length_a   9.54093303
_cell_length_b   9.54344510
_cell_length_c   7.30755812
_cell_angle_alpha   90.00024287
_cell_angle_beta   90.08570170
_cell_angle_gamma   120.01580846
_symmetry_Int_Tables_number   1
_chemical_formula_structural   Li8Dy8SnBi2Pb5
_chemical_formula_sum   'Li8 Dy8 Sn1 Bi2 Pb5'
_cell_volume   576.14139901
_cell_formula_units_Z   1
loop_
 _symmetry_equiv_pos_site_id
 _symmetry_equiv_pos_as_xyz
  1  'x, y, z'
loop_
 _atom_site_type_symbol
 _atom_site_label
 _atom_site_symmetry_multiplicity
 _atom_site_fract_x
 _atom_site_fract_y
 _atom_site_fract_z
 _atom_site_occupancy
  Li  Li0  1  0.167719  0.334323  0.283231  1
  Li  Li1  1  0.167720  0.833381  0.283228  1
  Li  Li2  1  0.664933  0.832441  0.285238  1
  Li  Li3  1  0.829969  0.663784  0.785663  1
  Li  Li4  1  0.829989  0.166247  0.785667  1
  Li  Li5  1  0.337464  0.168756  0.789711  1
  Li  Li6  1  0.335985  0.668003  0.671173  1
  Li  Li7  1  0.666346  0.333174  0.173877  1
  Dy  Dy8  1  0.516382  0.027453  0.493033  1
  Dy  Dy9  1  0.516377  0.488957  0.492992  1
  Dy  Dy10  1  0.971429  0.485720  0.491318  1
  Dy  Dy11  1  0.492481  0.979709  0.995659  1
  Dy  Dy12  1  0.492493  0.512777  0.995612  1
  Dy  Dy13  1  0.017292  0.508639  0.996937  1
  Dy  Dy14  1  0.996782  0.998381  0.496900  1
  Dy  Dy15  1  0.997006  0.998527  0.004107  1
  Sn  Sn16  1  0.667103  0.333501  0.761830  1
  Bi  Bi17  1  0.166370  0.333561  0.733810  1
  Bi  Bi18  1  0.166371  0.832800  0.733749  1
  Pb  Pb19  1  0.666734  0.833503  0.731858  1
  Pb  Pb20  1  0.833879  0.666872  0.232728  1
  Pb  Pb21  1  0.833638  0.166693  0.232732  1
  Pb  Pb22  1  0.333595  0.166788  0.231933  1
  Pb  Pb23  1  0.331941  0.666010  0.259007  1
