# generated using pymatgen
data_Lu3In4CuIr
_symmetry_space_group_name_H-M   'P 1'
_cell_length_a   7.93106500
_cell_length_b   7.93106358
_cell_length_c   3.63655800
_cell_angle_alpha   90.00000000
_cell_angle_beta   90.00000000
_cell_angle_gamma   119.99999339
_symmetry_Int_Tables_number   1
_chemical_formula_structural   Lu3In4CuIr
_chemical_formula_sum   'Lu3 In4 Cu1 Ir1'
_cell_volume   198.09983785
_cell_formula_units_Z   1
loop_
 _symmetry_equiv_pos_site_id
 _symmetry_equiv_pos_as_xyz
  1  'x, y, z'
loop_
 _atom_site_type_symbol
 _atom_site_label
 _atom_site_symmetry_multiplicity
 _atom_site_fract_x
 _atom_site_fract_y
 _atom_site_fract_z
 _atom_site_occupancy
  Lu  Lu0  1  0.374930  0.415643  0.000000  1
  Lu  Lu1  1  0.040714  0.625069  0.000000  1
  Lu  Lu2  1  0.584357  0.959287  0.000000  1
  In  In3  1  0.996475  0.258415  0.500000  1
  In  In4  1  0.666666  0.333334  0.500000  1
  In  In5  1  0.741586  0.738060  0.500000  1
  In  In6  1  0.261940  0.003526  0.500000  1
  Cu  Cu7  1  0.000000  0.000000  0.000000  1
  Ir  Ir8  1  0.333333  0.666666  0.500000  1
