# generated using pymatgen
data_Pr2AsPt8
_symmetry_space_group_name_H-M   'P 1'
_cell_length_a   9.30425501
_cell_length_b   9.30425380
_cell_length_c   4.33041700
_cell_angle_alpha   90.00000000
_cell_angle_beta   90.00000000
_cell_angle_gamma   145.47200595
_symmetry_Int_Tables_number   1
_chemical_formula_structural   Pr2AsPt8
_chemical_formula_sum   'Pr2 As1 Pt8'
_cell_volume   212.48558744
_cell_formula_units_Z   1
loop_
 _symmetry_equiv_pos_site_id
 _symmetry_equiv_pos_as_xyz
  1  'x, y, z'
loop_
 _atom_site_type_symbol
 _atom_site_label
 _atom_site_symmetry_multiplicity
 _atom_site_fract_x
 _atom_site_fract_y
 _atom_site_fract_z
 _atom_site_occupancy
  Pr  Pr0  1  0.624939  0.375357  0.500000  1
  Pr  Pr1  1  0.375357  0.624939  0.500000  1
  As  As2  1  0.230869  0.230869  0.000000  1
  Pt  Pt3  1  0.105416  0.878438  0.000000  1
  Pt  Pt4  1  0.878438  0.105416  0.000000  1
  Pt  Pt5  1  0.487937  0.983762  0.000000  1
  Pt  Pt6  1  0.983762  0.487937  0.000000  1
  Pt  Pt7  1  0.196194  0.791249  0.500000  1
  Pt  Pt8  1  0.791249  0.196194  0.500000  1
  Pt  Pt9  1  0.986886  0.986886  0.500000  1
  Pt  Pt10  1  0.652552  0.652552  0.000000  1
