# generated using pymatgen
data_LaPr2Mg3CuSn2
_symmetry_space_group_name_H-M   'P 1'
_cell_length_a   7.72020705
_cell_length_b   7.72020816
_cell_length_c   4.61720300
_cell_angle_alpha   90.00000000
_cell_angle_beta   90.00000000
_cell_angle_gamma   120.19390725
_symmetry_Int_Tables_number   1
_chemical_formula_structural   LaPr2Mg3CuSn2
_chemical_formula_sum   'La1 Pr2 Mg3 Cu1 Sn2'
_cell_volume   237.85684531
_cell_formula_units_Z   1
loop_
 _symmetry_equiv_pos_site_id
 _symmetry_equiv_pos_as_xyz
  1  'x, y, z'
loop_
 _atom_site_type_symbol
 _atom_site_label
 _atom_site_symmetry_multiplicity
 _atom_site_fract_x
 _atom_site_fract_y
 _atom_site_fract_z
 _atom_site_occupancy
  La  La0  1  0.403458  0.403458  0.000000  1
  Pr  Pr1  1  0.598672  0.000259  0.000000  1
  Pr  Pr2  1  0.000259  0.598672  0.000000  1
  Mg  Mg3  1  0.232881  0.998883  0.500000  1
  Mg  Mg4  1  0.998883  0.232881  0.500000  1
  Mg  Mg5  1  0.767183  0.767183  0.500000  1
  Cu  Cu6  1  0.998918  0.998918  0.000000  1
  Sn  Sn7  1  0.332361  0.667387  0.500000  1
  Sn  Sn8  1  0.667387  0.332361  0.500000  1
