# generated using pymatgen
data_Lu3Sc3Sn6(RuPt2)2
_symmetry_space_group_name_H-M   'P 1'
_cell_length_a   7.65827300
_cell_length_b   7.65827328
_cell_length_c   7.10306700
_cell_angle_alpha   90.00000000
_cell_angle_beta   90.00000000
_cell_angle_gamma   120.00000312
_symmetry_Int_Tables_number   1
_chemical_formula_structural   Lu3Sc3Sn6(RuPt2)2
_chemical_formula_sum   'Lu3 Sc3 Sn6 Ru2 Pt4'
_cell_volume   360.77649319
_cell_formula_units_Z   1
loop_
 _symmetry_equiv_pos_site_id
 _symmetry_equiv_pos_as_xyz
  1  'x, y, z'
loop_
 _atom_site_type_symbol
 _atom_site_label
 _atom_site_symmetry_multiplicity
 _atom_site_fract_x
 _atom_site_fract_y
 _atom_site_fract_z
 _atom_site_occupancy
  Lu  Lu0  1  0.394292  0.997502  0.750000  1
  Lu  Lu1  1  0.603210  0.605708  0.750000  1
  Lu  Lu2  1  0.002498  0.396790  0.750000  1
  Sc  Sc3  1  0.392676  0.002711  0.250000  1
  Sc  Sc4  1  0.610034  0.607324  0.250000  1
  Sc  Sc5  1  0.997289  0.389966  0.250000  1
  Sn  Sn6  1  0.271853  0.271932  0.006064  1
  Sn  Sn7  1  0.000079  0.728147  0.006064  1
  Sn  Sn8  1  0.000079  0.728147  0.493936  1
  Sn  Sn9  1  0.728068  0.999921  0.493936  1
  Sn  Sn10  1  0.271853  0.271932  0.493936  1
  Sn  Sn11  1  0.728068  0.999921  0.006064  1
  Ru  Ru12  1  0.000000  0.000000  0.750000  1
  Ru  Ru13  1  0.000000  0.000000  0.250000  1
  Pt  Pt14  1  0.666667  0.333333  0.010321  1
  Pt  Pt15  1  0.333333  0.666667  0.480763  1
  Pt  Pt16  1  0.333333  0.666667  0.019237  1
  Pt  Pt17  1  0.666667  0.333333  0.489679  1
