# generated using pymatgen
data_Eu2MgGe2O7
_symmetry_space_group_name_H-M   'P 1'
_cell_length_a   8.23862100
_cell_length_b   8.23862100
_cell_length_c   5.35949300
_cell_angle_alpha   90.00000000
_cell_angle_beta   90.00000000
_cell_angle_gamma   90.00000000
_symmetry_Int_Tables_number   1
_chemical_formula_structural   Eu2MgGe2O7
_chemical_formula_sum   'Eu4 Mg2 Ge4 O14'
_cell_volume   363.77492270
_cell_formula_units_Z   2
loop_
 _symmetry_equiv_pos_site_id
 _symmetry_equiv_pos_as_xyz
  1  'x, y, z'
loop_
 _atom_site_type_symbol
 _atom_site_label
 _atom_site_symmetry_multiplicity
 _atom_site_fract_x
 _atom_site_fract_y
 _atom_site_fract_z
 _atom_site_occupancy
  Eu  Eu0  1  0.334110  0.834110  0.490414  1
  Eu  Eu1  1  0.665890  0.165890  0.490414  1
  Eu  Eu2  1  0.165890  0.334110  0.509586  1
  Eu  Eu3  1  0.834110  0.665890  0.509586  1
  Mg  Mg4  1  0.000000  0.000000  0.000000  1
  Mg  Mg5  1  0.500000  0.500000  0.000000  1
  Ge  Ge6  1  0.143478  0.643478  0.050272  1
  Ge  Ge7  1  0.856522  0.356522  0.050272  1
  Ge  Ge8  1  0.356522  0.143478  0.949728  1
  Ge  Ge9  1  0.643478  0.856522  0.949728  1
  O  O10  1  0.000000  0.500000  0.188653  1
  O  O11  1  0.082982  0.823189  0.210061  1
  O  O12  1  0.323189  0.582982  0.210061  1
  O  O13  1  0.676811  0.417018  0.210061  1
  O  O14  1  0.917018  0.176811  0.210061  1
  O  O15  1  0.361338  0.138662  0.277333  1
  O  O16  1  0.638662  0.861338  0.277333  1
  O  O17  1  0.138662  0.638662  0.722667  1
  O  O18  1  0.861338  0.361338  0.722667  1
  O  O19  1  0.176811  0.082982  0.789939  1
  O  O20  1  0.417018  0.323189  0.789939  1
  O  O21  1  0.582982  0.676811  0.789939  1
  O  O22  1  0.823189  0.917018  0.789939  1
  O  O23  1  0.500000  0.000000  0.811347  1
