# generated using pymatgen
data_Be6FeSi5Rh12
_symmetry_space_group_name_H-M   'P 1'
_cell_length_a   4.06461000
_cell_length_b   5.75886200
_cell_length_c   12.20245701
_cell_angle_alpha   90.00005802
_cell_angle_beta   90.00440117
_cell_angle_gamma   89.99988392
_symmetry_Int_Tables_number   1
_chemical_formula_structural   Be6FeSi5Rh12
_chemical_formula_sum   'Be6 Fe1 Si5 Rh12'
_cell_volume   285.62935438
_cell_formula_units_Z   1
loop_
 _symmetry_equiv_pos_site_id
 _symmetry_equiv_pos_as_xyz
  1  'x, y, z'
loop_
 _atom_site_type_symbol
 _atom_site_label
 _atom_site_symmetry_multiplicity
 _atom_site_fract_x
 _atom_site_fract_y
 _atom_site_fract_z
 _atom_site_occupancy
  Be  Be0  1  0.000006  0.500001  0.000000  1
  Be  Be1  1  0.499634  0.000001  0.160882  1
  Be  Be2  1  0.999721  0.500002  0.333165  1
  Be  Be3  1  0.500005  0.000001  0.500000  1
  Be  Be4  1  0.000289  0.500001  0.666836  1
  Be  Be5  1  0.500375  0.000001  0.839119  1
  Fe  Fe6  1  0.999817  0.999964  0.999992  1
  Si  Si7  1  0.499746  0.500002  0.166772  1
  Si  Si8  1  0.999796  0.000001  0.333354  1
  Si  Si9  1  0.500004  0.500002  0.500000  1
  Si  Si10  1  0.000212  0.000001  0.666647  1
  Si  Si11  1  0.500264  0.500002  0.833228  1
  Rh  Rh12  1  0.500017  0.257822  0.000001  1
  Rh  Rh13  1  0.500026  0.742183  0.999999  1
  Rh  Rh14  1  0.999796  0.253290  0.172186  1
  Rh  Rh15  1  0.999802  0.746714  0.172186  1
  Rh  Rh16  1  0.499850  0.249771  0.335854  1
  Rh  Rh17  1  0.499849  0.750233  0.335855  1
  Rh  Rh18  1  0.000005  0.249988  0.500000  1
  Rh  Rh19  1  0.000012  0.750017  0.500001  1
  Rh  Rh20  1  0.500168  0.249771  0.664146  1
  Rh  Rh21  1  0.500166  0.750233  0.664147  1
  Rh  Rh22  1  0.000216  0.253292  0.827815  1
  Rh  Rh23  1  0.000222  0.746714  0.827815  1
