# generated using pymatgen
data_CaMn2(Sb6Os)2
_symmetry_space_group_name_H-M   'P 1'
_cell_length_a   8.15700107
_cell_length_b   8.15700129
_cell_length_c   8.17453869
_cell_angle_alpha   109.33589075
_cell_angle_beta   109.42873043
_cell_angle_gamma   109.56240388
_symmetry_Int_Tables_number   1
_chemical_formula_structural   CaMn2(Sb6Os)2
_chemical_formula_sum   'Ca1 Mn2 Sb12 Os2'
_cell_volume   419.14531131
_cell_formula_units_Z   1
loop_
 _symmetry_equiv_pos_site_id
 _symmetry_equiv_pos_as_xyz
  1  'x, y, z'
loop_
 _atom_site_type_symbol
 _atom_site_label
 _atom_site_symmetry_multiplicity
 _atom_site_fract_x
 _atom_site_fract_y
 _atom_site_fract_z
 _atom_site_occupancy
  Ca  Ca0  1  0.000000  0.000000  0.000000  1
  Mn  Mn1  1  0.500000  0.000000  0.000000  1
  Mn  Mn2  1  0.000000  0.500000  0.000000  1
  Sb  Sb3  1  0.842896  0.662136  0.505032  1
  Sb  Sb4  1  0.157104  0.337864  0.494968  1
  Sb  Sb5  1  0.156377  0.661088  0.817465  1
  Sb  Sb6  1  0.843623  0.338912  0.182535  1
  Sb  Sb7  1  0.662811  0.505075  0.843599  1
  Sb  Sb8  1  0.337189  0.494925  0.156401  1
  Sb  Sb9  1  0.661476  0.819212  0.156401  1
  Sb  Sb10  1  0.338524  0.180788  0.843599  1
  Sb  Sb11  1  0.504917  0.843133  0.661419  1
  Sb  Sb12  1  0.495083  0.156867  0.338581  1
  Sb  Sb13  1  0.181714  0.843498  0.338581  1
  Sb  Sb14  1  0.818286  0.156502  0.661419  1
  Os  Os15  1  0.500000  0.500000  0.500000  1
  Os  Os16  1  0.000000  0.000000  0.500000  1
