# generated using pymatgen
data_HoTa3(NbSn2)3
_symmetry_space_group_name_H-M   'P 1'
_cell_length_a   5.79730402
_cell_length_b   5.79816359
_cell_length_c   9.59451200
_cell_angle_alpha   90.00000000
_cell_angle_beta   90.00000000
_cell_angle_gamma   119.98518440
_symmetry_Int_Tables_number   1
_chemical_formula_structural   HoTa3(NbSn2)3
_chemical_formula_sum   'Ho1 Ta3 Nb3 Sn6'
_cell_volume   279.34112633
_cell_formula_units_Z   1
loop_
 _symmetry_equiv_pos_site_id
 _symmetry_equiv_pos_as_xyz
  1  'x, y, z'
loop_
 _atom_site_type_symbol
 _atom_site_label
 _atom_site_symmetry_multiplicity
 _atom_site_fract_x
 _atom_site_fract_y
 _atom_site_fract_z
 _atom_site_occupancy
  Ho  Ho0  1  0.000000  0.000000  0.000334  1
  Ta  Ta1  1  0.000000  0.500000  0.248409  1
  Ta  Ta2  1  0.500000  0.500000  0.248699  1
  Ta  Ta3  1  0.500000  0.500000  0.751328  1
  Nb  Nb4  1  0.000000  0.500000  0.750610  1
  Nb  Nb5  1  0.500000  0.000000  0.249154  1
  Nb  Nb6  1  0.500000  0.000000  0.750875  1
  Sn  Sn7  1  0.000000  0.000000  0.671450  1
  Sn  Sn8  1  0.333377  0.665782  0.499917  1
  Sn  Sn9  1  0.666531  0.333132  0.999873  1
  Sn  Sn10  1  0.333469  0.666868  0.999873  1
  Sn  Sn11  1  0.000000  0.000000  0.329559  1
  Sn  Sn12  1  0.666623  0.334218  0.499917  1
