# generated using pymatgen
data_AsPb2Cl
_symmetry_space_group_name_H-M   'P 1'
_cell_length_a   7.57771434
_cell_length_b   7.57771442
_cell_length_c   7.57771453
_cell_angle_alpha   33.79915588
_cell_angle_beta   33.79915312
_cell_angle_gamma   33.79915799
_symmetry_Int_Tables_number   1
_chemical_formula_structural   AsPb2Cl
_chemical_formula_sum   'As1 Pb2 Cl1'
_cell_volume   119.98392951
_cell_formula_units_Z   1
loop_
 _symmetry_equiv_pos_site_id
 _symmetry_equiv_pos_as_xyz
  1  'x, y, z'
loop_
 _atom_site_type_symbol
 _atom_site_label
 _atom_site_symmetry_multiplicity
 _atom_site_fract_x
 _atom_site_fract_y
 _atom_site_fract_z
 _atom_site_occupancy
  As  As0  1  0.500000  0.500000  0.500000  1
  Pb  Pb1  1  0.240521  0.240521  0.240521  1
  Pb  Pb2  1  0.759479  0.759479  0.759479  1
  Cl  Cl3  1  0.000000  0.000000  0.000000  1
