# generated using pymatgen
data_Ca4Y3HoHg8
_symmetry_space_group_name_H-M   'P 1'
_cell_length_a   7.52652100
_cell_length_b   7.51541400
_cell_length_c   7.44915600
_cell_angle_alpha   90.00000000
_cell_angle_beta   90.00172183
_cell_angle_gamma   90.00000000
_symmetry_Int_Tables_number   1
_chemical_formula_structural   Ca4Y3HoHg8
_chemical_formula_sum   'Ca4 Y3 Ho1 Hg8'
_cell_volume   421.36092276
_cell_formula_units_Z   1
loop_
 _symmetry_equiv_pos_site_id
 _symmetry_equiv_pos_as_xyz
  1  'x, y, z'
loop_
 _atom_site_type_symbol
 _atom_site_label
 _atom_site_symmetry_multiplicity
 _atom_site_fract_x
 _atom_site_fract_y
 _atom_site_fract_z
 _atom_site_occupancy
  Ca  Ca0  1  0.749509  0.250000  0.000116  1
  Ca  Ca1  1  0.249531  0.750000  0.499891  1
  Ca  Ca2  1  0.750482  0.250000  0.500114  1
  Ca  Ca3  1  0.250488  0.750000  0.999886  1
  Y  Y4  1  0.749304  0.750000  0.000003  1
  Y  Y5  1  0.750708  0.750000  0.499989  1
  Y  Y6  1  0.249302  0.250000  0.500013  1
  Ho  Ho7  1  0.250591  0.250000  0.999986  1
  Hg  Hg8  1  0.000599  0.499688  0.248166  1
  Hg  Hg9  1  0.000599  0.000314  0.248166  1
  Hg  Hg10  1  0.499801  0.000537  0.250862  1
  Hg  Hg11  1  0.499801  0.499463  0.250862  1
  Hg  Hg12  1  0.499431  0.499694  0.749143  1
  Hg  Hg13  1  0.499431  0.000308  0.749143  1
  Hg  Hg14  1  0.000211  0.000543  0.751831  1
  Hg  Hg15  1  0.000211  0.499457  0.751831  1
