# generated using pymatgen
data_Sc8Cd4Pt3Au5
_symmetry_space_group_name_H-M   'P 1'
_cell_length_a   7.69198745
_cell_length_b   7.69198804
_cell_length_c   6.85388107
_cell_angle_alpha   90.06898566
_cell_angle_beta   90.06898505
_cell_angle_gamma   90.88690311
_symmetry_Int_Tables_number   1
_chemical_formula_structural   Sc8Cd4Pt3Au5
_chemical_formula_sum   'Sc8 Cd4 Pt3 Au5'
_cell_volume   405.47217710
_cell_formula_units_Z   1
loop_
 _symmetry_equiv_pos_site_id
 _symmetry_equiv_pos_as_xyz
  1  'x, y, z'
loop_
 _atom_site_type_symbol
 _atom_site_label
 _atom_site_symmetry_multiplicity
 _atom_site_fract_x
 _atom_site_fract_y
 _atom_site_fract_z
 _atom_site_occupancy
  Sc  Sc0  1  0.158364  0.158364  0.006454  1
  Sc  Sc1  1  0.834067  0.834067  0.998650  1
  Sc  Sc2  1  0.654185  0.356199  0.494843  1
  Sc  Sc3  1  0.356199  0.654185  0.494843  1
  Sc  Sc4  1  0.674043  0.335267  0.003989  1
  Sc  Sc5  1  0.335267  0.674043  0.003989  1
  Sc  Sc6  1  0.811745  0.811745  0.500713  1
  Sc  Sc7  1  0.182457  0.182457  0.493816  1
  Cd  Cd8  1  0.500005  0.002874  0.249519  1
  Cd  Cd9  1  0.501098  0.997563  0.749581  1
  Cd  Cd10  1  0.002874  0.500005  0.249519  1
  Cd  Cd11  1  0.997563  0.501098  0.749581  1
  Pt  Pt12  1  0.367835  0.367835  0.231748  1
  Pt  Pt13  1  0.629490  0.629490  0.769032  1
  Pt  Pt14  1  0.631675  0.631675  0.229676  1
  Au  Au15  1  0.868115  0.130964  0.728602  1
  Au  Au16  1  0.867773  0.129513  0.272154  1
  Au  Au17  1  0.366768  0.366768  0.772531  1
  Au  Au18  1  0.129513  0.867773  0.272154  1
  Au  Au19  1  0.130964  0.868115  0.728602  1
