# generated using pymatgen
data_Y8Si12IrRh3
_symmetry_space_group_name_H-M   'P 1'
_cell_length_a   8.17178800
_cell_length_b   8.17179483
_cell_length_c   7.95611600
_cell_angle_alpha   90.00006888
_cell_angle_beta   90.00001421
_cell_angle_gamma   120.00005491
_symmetry_Int_Tables_number   1
_chemical_formula_structural   Y8Si12IrRh3
_chemical_formula_sum   'Y8 Si12 Ir1 Rh3'
_cell_volume   460.11463082
_cell_formula_units_Z   1
loop_
 _symmetry_equiv_pos_site_id
 _symmetry_equiv_pos_as_xyz
  1  'x, y, z'
loop_
 _atom_site_type_symbol
 _atom_site_label
 _atom_site_symmetry_multiplicity
 _atom_site_fract_x
 _atom_site_fract_y
 _atom_site_fract_z
 _atom_site_occupancy
  Y  Y0  1  0.000000  0.999999  0.248836  1
  Y  Y1  1  0.000000  0.000001  0.750516  1
  Y  Y2  1  0.508531  0.491471  0.250155  1
  Y  Y3  1  0.508530  0.017061  0.250156  1
  Y  Y4  1  0.982940  0.491469  0.250155  1
  Y  Y5  1  0.490732  0.509266  0.749872  1
  Y  Y6  1  0.490733  0.981466  0.749872  1
  Y  Y7  1  0.018534  0.509268  0.749871  1
  Si  Si8  1  0.166633  0.833366  0.499285  1
  Si  Si9  1  0.166633  0.333267  0.499284  1
  Si  Si10  1  0.666733  0.833366  0.499285  1
  Si  Si11  1  0.832560  0.167441  0.500080  1
  Si  Si12  1  0.832560  0.665119  0.500080  1
  Si  Si13  1  0.334881  0.167441  0.500080  1
  Si  Si14  1  0.832826  0.167174  0.999835  1
  Si  Si15  1  0.832826  0.665652  0.999835  1
  Si  Si16  1  0.334348  0.167174  0.999835  1
  Si  Si17  1  0.167077  0.832923  0.999567  1
  Si  Si18  1  0.167077  0.334155  0.999567  1
  Si  Si19  1  0.665845  0.832923  0.999567  1
  Ir  Ir20  1  0.333333  0.666667  0.469797  1
  Rh  Rh21  1  0.666667  0.333333  0.532302  1
  Rh  Rh22  1  0.666667  0.333333  0.966967  1
  Rh  Rh23  1  0.333334  0.666666  0.035203  1
