# generated using pymatgen
data_Zr3AlZn2CoNi2
_symmetry_space_group_name_H-M   'P 1'
_cell_length_a   6.85732405
_cell_length_b   6.92845443
_cell_length_c   3.44207600
_cell_angle_alpha   90.00000000
_cell_angle_beta   90.00000000
_cell_angle_gamma   119.64692999
_symmetry_Int_Tables_number   1
_chemical_formula_structural   Zr3AlZn2CoNi2
_chemical_formula_sum   'Zr3 Al1 Zn2 Co1 Ni2'
_cell_volume   142.12689724
_cell_formula_units_Z   1
loop_
 _symmetry_equiv_pos_site_id
 _symmetry_equiv_pos_as_xyz
  1  'x, y, z'
loop_
 _atom_site_type_symbol
 _atom_site_label
 _atom_site_symmetry_multiplicity
 _atom_site_fract_x
 _atom_site_fract_y
 _atom_site_fract_z
 _atom_site_occupancy
  Zr  Zr0  1  0.009994  0.416441  0.500000  1
  Zr  Zr1  1  0.585669  0.592004  0.500000  1
  Zr  Zr2  1  0.400647  0.991919  0.500000  1
  Al  Al3  1  0.749468  0.000310  0.000000  1
  Zn  Zn4  1  0.995749  0.740404  0.000000  1
  Zn  Zn5  1  0.256162  0.259129  0.000000  1
  Co  Co6  1  0.339584  0.673000  0.000000  1
  Ni  Ni7  1  0.995772  0.000179  0.500000  1
  Ni  Ni8  1  0.666956  0.326615  0.000000  1
