# generated using pymatgen
data_Th2AlSi3(PtRh)2
_symmetry_space_group_name_H-M   'P 1'
_cell_length_a   4.18054500
_cell_length_b   4.18054500
_cell_length_c   10.30638800
_cell_angle_alpha   90.00000000
_cell_angle_beta   90.00000000
_cell_angle_gamma   90.00000000
_symmetry_Int_Tables_number   1
_chemical_formula_structural   Th2AlSi3(PtRh)2
_chemical_formula_sum   'Th2 Al1 Si3 Pt2 Rh2'
_cell_volume   180.12429472
_cell_formula_units_Z   1
loop_
 _symmetry_equiv_pos_site_id
 _symmetry_equiv_pos_as_xyz
  1  'x, y, z'
loop_
 _atom_site_type_symbol
 _atom_site_label
 _atom_site_symmetry_multiplicity
 _atom_site_fract_x
 _atom_site_fract_y
 _atom_site_fract_z
 _atom_site_occupancy
  Th  Th0  1  0.000000  0.500000  0.243473  1
  Th  Th1  1  0.500000  0.000000  0.756527  1
  Al  Al2  1  0.000000  0.000000  0.500000  1
  Si  Si3  1  0.500000  0.500000  0.500000  1
  Si  Si4  1  0.000000  0.500000  0.873580  1
  Si  Si5  1  0.500000  0.000000  0.126420  1
  Pt  Pt6  1  0.000000  0.500000  0.634649  1
  Pt  Pt7  1  0.500000  0.000000  0.365351  1
  Rh  Rh8  1  0.000000  0.000000  0.000000  1
  Rh  Rh9  1  0.500000  0.500000  0.000000  1
