# generated using pymatgen
data_TbDy5Al24(RuRh)4
_symmetry_space_group_name_H-M   'P 1'
_cell_length_a   8.84323783
_cell_length_b   8.78637989
_cell_length_c   9.56374100
_cell_angle_alpha   90.00000000
_cell_angle_beta   90.00000000
_cell_angle_gamma   119.95362826
_symmetry_Int_Tables_number   1
_chemical_formula_structural   TbDy5Al24(RuRh)4
_chemical_formula_sum   'Tb1 Dy5 Al24 Ru4 Rh4'
_cell_volume   643.84668539
_cell_formula_units_Z   1
loop_
 _symmetry_equiv_pos_site_id
 _symmetry_equiv_pos_as_xyz
  1  'x, y, z'
loop_
 _atom_site_type_symbol
 _atom_site_label
 _atom_site_symmetry_multiplicity
 _atom_site_fract_x
 _atom_site_fract_y
 _atom_site_fract_z
 _atom_site_occupancy
  Tb  Tb0  1  0.190047  0.804079  0.250000  1
  Dy  Dy1  1  0.190538  0.386695  0.250000  1
  Dy  Dy2  1  0.614969  0.807604  0.250000  1
  Dy  Dy3  1  0.809719  0.196278  0.750000  1
  Dy  Dy4  1  0.809406  0.613192  0.750000  1
  Dy  Dy5  1  0.385100  0.192393  0.750000  1
  Al  Al6  1  0.560767  0.437555  0.250000  1
  Al  Al7  1  0.561102  0.123495  0.250000  1
  Al  Al8  1  0.875417  0.437549  0.250000  1
  Al  Al9  1  0.439170  0.562435  0.750000  1
  Al  Al10  1  0.439220  0.876778  0.750000  1
  Al  Al11  1  0.124299  0.562109  0.750000  1
  Al  Al12  1  0.324144  0.162007  0.422318  1
  Al  Al13  1  0.837992  0.163846  0.422992  1
  Al  Al14  1  0.837915  0.673925  0.423034  1
  Al  Al15  1  0.675939  0.838186  0.577881  1
  Al  Al16  1  0.162002  0.836163  0.577313  1
  Al  Al17  1  0.161882  0.325958  0.577145  1
  Al  Al18  1  0.675939  0.838186  0.922119  1
  Al  Al19  1  0.162002  0.836163  0.922687  1
  Al  Al20  1  0.161882  0.325958  0.922855  1
  Al  Al21  1  0.324144  0.162007  0.077682  1
  Al  Al22  1  0.837992  0.163846  0.077008  1
  Al  Al23  1  0.837915  0.673925  0.076966  1
  Al  Al24  1  0.668763  0.334479  0.523255  1
  Al  Al25  1  0.331318  0.665377  0.476997  1
  Al  Al26  1  0.331318  0.665377  0.023003  1
  Al  Al27  1  0.668763  0.334479  0.976745  1
  Al  Al28  1  0.997981  0.999362  0.250000  1
  Al  Al29  1  0.001789  0.000828  0.750000  1
  Ru  Ru30  1  0.000011  0.000005  0.500020  1
  Ru  Ru31  1  0.000011  0.000005  0.999980  1
  Ru  Ru32  1  0.999930  0.499829  0.500125  1
  Ru  Ru33  1  0.999930  0.499829  0.999875  1
  Rh  Rh34  1  0.500115  0.499936  0.500063  1
  Rh  Rh35  1  0.500227  0.000114  0.500172  1
  Rh  Rh36  1  0.500115  0.499936  0.999937  1
  Rh  Rh37  1  0.500227  0.000114  0.999828  1
