# generated using pymatgen
data_Tb6Ho6TcRu3
_symmetry_space_group_name_H-M   'P 1'
_cell_length_a   6.29541485
_cell_length_b   7.34292309
_cell_length_c   9.17530873
_cell_angle_alpha   90.01725392
_cell_angle_beta   90.14834421
_cell_angle_gamma   90.02204707
_symmetry_Int_Tables_number   1
_chemical_formula_structural   Tb6Ho6TcRu3
_chemical_formula_sum   'Tb6 Ho6 Tc1 Ru3'
_cell_volume   424.14320301
_cell_formula_units_Z   1
loop_
 _symmetry_equiv_pos_site_id
 _symmetry_equiv_pos_as_xyz
  1  'x, y, z'
loop_
 _atom_site_type_symbol
 _atom_site_label
 _atom_site_symmetry_multiplicity
 _atom_site_fract_x
 _atom_site_fract_y
 _atom_site_fract_z
 _atom_site_occupancy
  Tb  Tb0  1  0.333379  0.676419  0.064722  1
  Tb  Tb1  1  0.167013  0.176269  0.435475  1
  Tb  Tb2  1  0.867894  0.539732  0.250088  1
  Tb  Tb3  1  0.628068  0.041461  0.249882  1
  Tb  Tb4  1  0.133304  0.457665  0.749913  1
  Tb  Tb5  1  0.367323  0.958110  0.750089  1
  Ho  Ho6  1  0.667567  0.324285  0.565264  1
  Ho  Ho7  1  0.834877  0.825209  0.936156  1
  Ho  Ho8  1  0.668137  0.323561  0.934692  1
  Ho  Ho9  1  0.834400  0.824522  0.563918  1
  Ho  Ho10  1  0.333822  0.675673  0.435524  1
  Ho  Ho11  1  0.166760  0.175855  0.064230  1
  Tc  Tc12  1  0.037509  0.885805  0.250208  1
  Ru  Ru13  1  0.461060  0.384976  0.249937  1
  Ru  Ru14  1  0.958345  0.116087  0.750813  1
  Ru  Ru15  1  0.540546  0.614373  0.749089  1
