# generated using pymatgen
data_Dy20Bi8Ru3Rh
_symmetry_space_group_name_H-M   'P 1'
_cell_length_a   8.00078323
_cell_length_b   9.02159800
_cell_length_c   12.47453036
_cell_angle_alpha   90.00000000
_cell_angle_beta   89.97233795
_cell_angle_gamma   90.00000000
_symmetry_Int_Tables_number   1
_chemical_formula_structural   Dy20Bi8Ru3Rh
_chemical_formula_sum   'Dy20 Bi8 Ru3 Rh1'
_cell_volume   900.40962570
_cell_formula_units_Z   1
loop_
 _symmetry_equiv_pos_site_id
 _symmetry_equiv_pos_as_xyz
  1  'x, y, z'
loop_
 _atom_site_type_symbol
 _atom_site_label
 _atom_site_symmetry_multiplicity
 _atom_site_fract_x
 _atom_site_fract_y
 _atom_site_fract_z
 _atom_site_occupancy
  Dy  Dy0  1  0.843218  0.750000  0.794047  1
  Dy  Dy1  1  0.157471  0.250000  0.206641  1
  Dy  Dy2  1  0.342427  0.250000  0.706519  1
  Dy  Dy3  1  0.658786  0.750000  0.292259  1
  Dy  Dy4  1  0.374011  0.750000  0.693312  1
  Dy  Dy5  1  0.624355  0.250000  0.307862  1
  Dy  Dy6  1  0.876038  0.250000  0.807496  1
  Dy  Dy7  1  0.124364  0.750000  0.192520  1
  Dy  Dy8  1  0.948518  0.750000  0.503875  1
  Dy  Dy9  1  0.052699  0.250000  0.496124  1
  Dy  Dy10  1  0.445938  0.250000  0.995854  1
  Dy  Dy11  1  0.553616  0.750000  0.003931  1
  Dy  Dy12  1  0.676646  0.043918  0.564967  1
  Dy  Dy13  1  0.322908  0.959557  0.434902  1
  Dy  Dy14  1  0.175597  0.958362  0.935638  1
  Dy  Dy15  1  0.322908  0.540443  0.434902  1
  Dy  Dy16  1  0.824438  0.041108  0.064247  1
  Dy  Dy17  1  0.676646  0.456082  0.564967  1
  Dy  Dy18  1  0.824438  0.458892  0.064247  1
  Dy  Dy19  1  0.175597  0.541638  0.935638  1
  Bi  Bi20  1  0.569141  0.492880  0.827160  1
  Bi  Bi21  1  0.430966  0.507115  0.172754  1
  Bi  Bi22  1  0.069031  0.507103  0.672562  1
  Bi  Bi23  1  0.430966  0.992885  0.172754  1
  Bi  Bi24  1  0.930735  0.493020  0.327406  1
  Bi  Bi25  1  0.569141  0.007120  0.827160  1
  Bi  Bi26  1  0.930735  0.006980  0.327406  1
  Bi  Bi27  1  0.069031  0.992897  0.672562  1
  Ru  Ru28  1  0.427015  0.250000  0.489165  1
  Ru  Ru29  1  0.073333  0.250000  0.989235  1
  Ru  Ru30  1  0.926397  0.750000  0.011115  1
  Rh  Rh31  1  0.572886  0.750000  0.510771  1
