# generated using pymatgen
data_Cs4ZnMo3N8
_symmetry_space_group_name_H-M   'P 1'
_cell_length_a   6.15719700
_cell_length_b   8.78118400
_cell_length_c   12.45258500
_cell_angle_alpha   90.00000000
_cell_angle_beta   90.00000000
_cell_angle_gamma   90.00000000
_symmetry_Int_Tables_number   1
_chemical_formula_structural   Cs4ZnMo3N8
_chemical_formula_sum   'Cs8 Zn2 Mo6 N16'
_cell_volume   673.27988771
_cell_formula_units_Z   2
loop_
 _symmetry_equiv_pos_site_id
 _symmetry_equiv_pos_as_xyz
  1  'x, y, z'
loop_
 _atom_site_type_symbol
 _atom_site_label
 _atom_site_symmetry_multiplicity
 _atom_site_fract_x
 _atom_site_fract_y
 _atom_site_fract_z
 _atom_site_occupancy
  Cs  Cs0  1  0.750000  0.177363  0.000000  1
  Cs  Cs1  1  0.250000  0.822637  0.500000  1
  Cs  Cs2  1  0.250000  0.898165  0.000000  1
  Cs  Cs3  1  0.750000  0.101835  0.500000  1
  Cs  Cs4  1  0.724188  0.391187  0.278828  1
  Cs  Cs5  1  0.224188  0.608813  0.221172  1
  Cs  Cs6  1  0.275812  0.608813  0.778828  1
  Cs  Cs7  1  0.775812  0.391187  0.721172  1
  Zn  Zn8  1  0.250000  0.367552  0.000000  1
  Zn  Zn9  1  0.750000  0.632448  0.500000  1
  Mo  Mo10  1  0.750000  0.623323  0.000000  1
  Mo  Mo11  1  0.250000  0.376677  0.500000  1
  Mo  Mo12  1  0.224662  0.123147  0.250628  1
  Mo  Mo13  1  0.724662  0.876853  0.249372  1
  Mo  Mo14  1  0.775338  0.876853  0.750628  1
  Mo  Mo15  1  0.275338  0.123147  0.749372  1
  N  N16  1  0.941322  0.031434  0.245900  1
  N  N17  1  0.441322  0.968566  0.254100  1
  N  N18  1  0.058678  0.968566  0.745900  1
  N  N19  1  0.558678  0.031434  0.754100  1
  N  N20  1  0.247249  0.248952  0.372042  1
  N  N21  1  0.747249  0.751048  0.127958  1
  N  N22  1  0.752751  0.751048  0.872042  1
  N  N23  1  0.252751  0.248952  0.627958  1
  N  N24  1  0.745758  0.762553  0.632406  1
  N  N25  1  0.245758  0.237447  0.867594  1
  N  N26  1  0.254242  0.237447  0.132406  1
  N  N27  1  0.754242  0.762553  0.367594  1
  N  N28  1  0.490919  0.493445  0.498815  1
  N  N29  1  0.990919  0.506555  0.001185  1
  N  N30  1  0.509081  0.506555  0.998815  1
  N  N31  1  0.009081  0.493445  0.501185  1
