# generated using pymatgen
data_Pr2Nd10Os3Pt
_symmetry_space_group_name_H-M   'P 1'
_cell_length_a   6.57823515
_cell_length_b   7.49752134
_cell_length_c   9.77083900
_cell_angle_alpha   90.00000000
_cell_angle_beta   90.00000000
_cell_angle_gamma   90.21381168
_symmetry_Int_Tables_number   1
_chemical_formula_structural   Pr2Nd10Os3Pt
_chemical_formula_sum   'Pr2 Nd10 Os3 Pt1'
_cell_volume   481.89890313
_cell_formula_units_Z   1
loop_
 _symmetry_equiv_pos_site_id
 _symmetry_equiv_pos_as_xyz
  1  'x, y, z'
loop_
 _atom_site_type_symbol
 _atom_site_label
 _atom_site_symmetry_multiplicity
 _atom_site_fract_x
 _atom_site_fract_y
 _atom_site_fract_z
 _atom_site_occupancy
  Pr  Pr0  1  0.857774  0.532637  0.250000  1
  Pr  Pr1  1  0.633804  0.042074  0.250000  1
  Nd  Nd2  1  0.335705  0.671770  0.063234  1
  Nd  Nd3  1  0.169845  0.181639  0.437874  1
  Nd  Nd4  1  0.672640  0.322944  0.567626  1
  Nd  Nd5  1  0.825570  0.825131  0.929871  1
  Nd  Nd6  1  0.672640  0.322944  0.932374  1
  Nd  Nd7  1  0.825570  0.825131  0.570129  1
  Nd  Nd8  1  0.335705  0.671770  0.436766  1
  Nd  Nd9  1  0.169845  0.181639  0.062126  1
  Nd  Nd10  1  0.138978  0.463326  0.750000  1
  Nd  Nd11  1  0.356380  0.960562  0.750000  1
  Os  Os12  1  0.441864  0.384405  0.250000  1
  Os  Os13  1  0.949981  0.114366  0.750000  1
  Os  Os14  1  0.551815  0.614687  0.750000  1
  Pt  Pt15  1  0.061885  0.884975  0.250000  1
