# generated using pymatgen
data_Sb2PCl13
_symmetry_space_group_name_H-M   'P 1'
_cell_length_a   9.97672410
_cell_length_b   9.97672441
_cell_length_c   12.19587800
_cell_angle_alpha   90.00000000
_cell_angle_beta   90.00000000
_cell_angle_gamma   114.02964344
_symmetry_Int_Tables_number   1
_chemical_formula_structural   Sb2PCl13
_chemical_formula_sum   'Sb4 P2 Cl26'
_cell_volume   1108.71280130
_cell_formula_units_Z   2
loop_
 _symmetry_equiv_pos_site_id
 _symmetry_equiv_pos_as_xyz
  1  'x, y, z'
loop_
 _atom_site_type_symbol
 _atom_site_label
 _atom_site_symmetry_multiplicity
 _atom_site_fract_x
 _atom_site_fract_y
 _atom_site_fract_z
 _atom_site_occupancy
  Sb  Sb0  1  0.793403  0.206597  0.999190  1
  Sb  Sb1  1  0.206597  0.793403  0.499190  1
  Sb  Sb2  1  0.444844  0.555156  0.354060  1
  Sb  Sb3  1  0.555156  0.444844  0.854060  1
  P  P4  1  0.140995  0.859005  0.035999  1
  P  P5  1  0.859005  0.140995  0.535999  1
  Cl  Cl6  1  0.307188  0.007473  0.613727  1
  Cl  Cl7  1  0.863097  0.136903  0.375429  1
  Cl  Cl8  1  0.627675  0.703714  0.868517  1
  Cl  Cl9  1  0.136903  0.863097  0.875429  1
  Cl  Cl10  1  0.940428  0.765652  0.092607  1
  Cl  Cl11  1  0.703714  0.627675  0.368517  1
  Cl  Cl12  1  0.747168  0.252832  0.582552  1
  Cl  Cl13  1  0.234348  0.059572  0.092607  1
  Cl  Cl14  1  0.692812  0.992527  0.113727  1
  Cl  Cl15  1  0.252832  0.747168  0.082552  1
  Cl  Cl16  1  0.059572  0.234348  0.592607  1
  Cl  Cl17  1  0.106642  0.577569  0.381307  1
  Cl  Cl18  1  0.992527  0.692812  0.613727  1
  Cl  Cl19  1  0.007473  0.307188  0.113727  1
  Cl  Cl20  1  0.089263  0.910737  0.385419  1
  Cl  Cl21  1  0.893358  0.422431  0.881307  1
  Cl  Cl22  1  0.577569  0.106642  0.881307  1
  Cl  Cl23  1  0.422431  0.893358  0.381307  1
  Cl  Cl24  1  0.296286  0.372325  0.868517  1
  Cl  Cl25  1  0.372325  0.296286  0.368517  1
  Cl  Cl26  1  0.910737  0.089263  0.885419  1
  Cl  Cl27  1  0.558641  0.441359  0.656617  1
  Cl  Cl28  1  0.327041  0.672959  0.607715  1
  Cl  Cl29  1  0.672959  0.327041  0.107715  1
  Cl  Cl30  1  0.765652  0.940428  0.592607  1
  Cl  Cl31  1  0.441359  0.558641  0.156617  1
