# generated using pymatgen
data_Ba6Li2Tl2InAg19
_symmetry_space_group_name_H-M   'P 1'
_cell_length_a   10.08108200
_cell_length_b   10.08108054
_cell_length_c   8.48312600
_cell_angle_alpha   90.00000000
_cell_angle_beta   90.00000000
_cell_angle_gamma   119.99999823
_symmetry_Int_Tables_number   1
_chemical_formula_structural   Ba6Li2Tl2InAg19
_chemical_formula_sum   'Ba6 Li2 Tl2 In1 Ag19'
_cell_volume   746.62201043
_cell_formula_units_Z   1
loop_
 _symmetry_equiv_pos_site_id
 _symmetry_equiv_pos_as_xyz
  1  'x, y, z'
loop_
 _atom_site_type_symbol
 _atom_site_label
 _atom_site_symmetry_multiplicity
 _atom_site_fract_x
 _atom_site_fract_y
 _atom_site_fract_z
 _atom_site_occupancy
  Ba  Ba0  1  0.522003  0.044007  0.245983  1
  Ba  Ba1  1  0.475697  0.951394  0.752648  1
  Ba  Ba2  1  0.955993  0.477997  0.245983  1
  Ba  Ba3  1  0.048606  0.524303  0.752648  1
  Ba  Ba4  1  0.522003  0.477997  0.245983  1
  Ba  Ba5  1  0.475697  0.524303  0.752648  1
  Li  Li6  1  0.000000  0.000000  0.002945  1
  Li  Li7  1  0.000000  0.000000  0.501076  1
  Tl  Tl8  1  0.666667  0.333333  0.936159  1
  Tl  Tl9  1  0.666667  0.333333  0.562438  1
  In  In10  1  0.333333  0.666667  0.423787  1
  Ag  Ag11  1  0.163530  0.327060  0.065273  1
  Ag  Ag12  1  0.838203  0.676404  0.934786  1
  Ag  Ag13  1  0.672940  0.836470  0.065273  1
  Ag  Ag14  1  0.838368  0.676735  0.565804  1
  Ag  Ag15  1  0.323596  0.161797  0.934786  1
  Ag  Ag16  1  0.164909  0.329819  0.433662  1
  Ag  Ag17  1  0.163530  0.836470  0.065273  1
  Ag  Ag18  1  0.323265  0.161632  0.565804  1
  Ag  Ag19  1  0.838203  0.161797  0.934786  1
  Ag  Ag20  1  0.670181  0.835091  0.433662  1
  Ag  Ag21  1  0.838368  0.161632  0.565804  1
  Ag  Ag22  1  0.164909  0.835091  0.433662  1
  Ag  Ag23  1  0.900207  0.800415  0.252054  1
  Ag  Ag24  1  0.099866  0.199734  0.750221  1
  Ag  Ag25  1  0.199585  0.099793  0.252054  1
  Ag  Ag26  1  0.800266  0.900134  0.750221  1
  Ag  Ag27  1  0.900207  0.099793  0.252054  1
  Ag  Ag28  1  0.099866  0.900134  0.750221  1
  Ag  Ag29  1  0.333333  0.666667  0.072306  1
