# generated using pymatgen
data_Ho2CoNiSe
_symmetry_space_group_name_H-M   'P 1'
_cell_length_a   3.89636600
_cell_length_b   3.89636655
_cell_length_c   15.12738300
_cell_angle_alpha   90.00000000
_cell_angle_beta   90.00000000
_cell_angle_gamma   120.00001228
_symmetry_Int_Tables_number   1
_chemical_formula_structural   Ho2CoNiSe
_chemical_formula_sum   'Ho4 Co2 Ni2 Se2'
_cell_volume   198.89045087
_cell_formula_units_Z   2
loop_
 _symmetry_equiv_pos_site_id
 _symmetry_equiv_pos_as_xyz
  1  'x, y, z'
loop_
 _atom_site_type_symbol
 _atom_site_label
 _atom_site_symmetry_multiplicity
 _atom_site_fract_x
 _atom_site_fract_y
 _atom_site_fract_z
 _atom_site_occupancy
  Ho  Ho0  1  0.666667  0.333333  0.373615  1
  Ho  Ho1  1  0.333333  0.666667  0.873615  1
  Ho  Ho2  1  0.333333  0.666667  0.626385  1
  Ho  Ho3  1  0.666667  0.333333  0.126385  1
  Co  Co4  1  0.333333  0.666667  0.250000  1
  Co  Co5  1  0.666667  0.333333  0.750000  1
  Ni  Ni6  1  0.000000  0.000000  0.750000  1
  Ni  Ni7  1  0.000000  0.000000  0.250000  1
  Se  Se8  1  0.000000  0.000000  0.000000  1
  Se  Se9  1  0.000000  0.000000  0.500000  1
