# generated using pymatgen
data_Tm8CoNiB28
_symmetry_space_group_name_H-M   'P 1'
_cell_length_a   7.17327800
_cell_length_b   7.17327800
_cell_length_c   7.42383000
_cell_angle_alpha   90.00000000
_cell_angle_beta   90.00000000
_cell_angle_gamma   90.00000000
_symmetry_Int_Tables_number   1
_chemical_formula_structural   Tm8CoNiB28
_chemical_formula_sum   'Tm8 Co1 Ni1 B28'
_cell_volume   381.99998227
_cell_formula_units_Z   1
loop_
 _symmetry_equiv_pos_site_id
 _symmetry_equiv_pos_as_xyz
  1  'x, y, z'
loop_
 _atom_site_type_symbol
 _atom_site_label
 _atom_site_symmetry_multiplicity
 _atom_site_fract_x
 _atom_site_fract_y
 _atom_site_fract_z
 _atom_site_occupancy
  Tm  Tm0  1  0.193377  0.331158  0.000000  1
  Tm  Tm1  1  0.668842  0.193377  0.000000  1
  Tm  Tm2  1  0.331158  0.806623  0.000000  1
  Tm  Tm3  1  0.693441  0.167580  0.500000  1
  Tm  Tm4  1  0.306559  0.832420  0.500000  1
  Tm  Tm5  1  0.806623  0.668842  0.000000  1
  Tm  Tm6  1  0.832420  0.693441  0.500000  1
  Tm  Tm7  1  0.167580  0.306559  0.500000  1
  Co  Co8  1  0.000000  0.000000  0.000000  1
  Ni  Ni9  1  0.500000  0.500000  0.500000  1
  B  B10  1  0.174657  0.038990  0.230737  1
  B  B11  1  0.961010  0.174657  0.230737  1
  B  B12  1  0.038990  0.825343  0.230737  1
  B  B13  1  0.675497  0.460663  0.267871  1
  B  B14  1  0.324503  0.539337  0.267871  1
  B  B15  1  0.825343  0.961010  0.230737  1
  B  B16  1  0.539337  0.675497  0.267871  1
  B  B17  1  0.460663  0.324503  0.267871  1
  B  B18  1  0.825343  0.961010  0.769263  1
  B  B19  1  0.038990  0.825343  0.769263  1
  B  B20  1  0.961010  0.174657  0.769263  1
  B  B21  1  0.324503  0.539337  0.732129  1
  B  B22  1  0.675497  0.460663  0.732129  1
  B  B23  1  0.174657  0.038990  0.769263  1
  B  B24  1  0.460663  0.324503  0.732129  1
  B  B25  1  0.539337  0.675497  0.732129  1
  B  B26  1  0.088360  0.588247  0.250457  1
  B  B27  1  0.411753  0.088360  0.250457  1
  B  B28  1  0.588247  0.911640  0.250457  1
  B  B29  1  0.911640  0.411753  0.250457  1
  B  B30  1  0.911640  0.411753  0.749543  1
  B  B31  1  0.588247  0.911640  0.749543  1
  B  B32  1  0.411753  0.088360  0.749543  1
  B  B33  1  0.088360  0.588247  0.749543  1
  B  B34  1  0.000000  0.000000  0.388480  1
  B  B35  1  0.500000  0.500000  0.111309  1
  B  B36  1  0.000000  0.000000  0.611520  1
  B  B37  1  0.500000  0.500000  0.888691  1
