# generated using pymatgen
data_Cs6Tm(NpBr6)3
_symmetry_space_group_name_H-M   'P 1'
_cell_length_a   10.61989064
_cell_length_b   10.61989048
_cell_length_c   10.61988962
_cell_angle_alpha   82.96635202
_cell_angle_beta   82.96635387
_cell_angle_gamma   82.96635002
_symmetry_Int_Tables_number   1
_chemical_formula_structural   Cs6Tm(NpBr6)3
_chemical_formula_sum   'Cs6 Tm1 Np3 Br18'
_cell_volume   1172.73224381
_cell_formula_units_Z   1
loop_
 _symmetry_equiv_pos_site_id
 _symmetry_equiv_pos_as_xyz
  1  'x, y, z'
loop_
 _atom_site_type_symbol
 _atom_site_label
 _atom_site_symmetry_multiplicity
 _atom_site_fract_x
 _atom_site_fract_y
 _atom_site_fract_z
 _atom_site_occupancy
  Cs  Cs0  1  0.589485  0.909603  0.252404  1
  Cs  Cs1  1  0.252404  0.589485  0.909603  1
  Cs  Cs2  1  0.909603  0.252404  0.589485  1
  Cs  Cs3  1  0.749547  0.410956  0.087944  1
  Cs  Cs4  1  0.087944  0.749547  0.410956  1
  Cs  Cs5  1  0.410956  0.087944  0.749547  1
  Tm  Tm6  1  0.654798  0.654798  0.654798  1
  Np  Np7  1  0.846478  0.846478  0.846478  1
  Np  Np8  1  0.347306  0.347306  0.347306  1
  Np  Np9  1  0.152897  0.152897  0.152897  1
  Br  Br10  1  0.091647  0.408116  0.250210  1
  Br  Br11  1  0.250210  0.091647  0.408116  1
  Br  Br12  1  0.408116  0.250210  0.091647  1
  Br  Br13  1  0.746432  0.900261  0.592091  1
  Br  Br14  1  0.592091  0.746432  0.900261  1
  Br  Br15  1  0.900261  0.592091  0.746432  1
  Br  Br16  1  0.231794  0.418028  0.585248  1
  Br  Br17  1  0.585248  0.231794  0.418028  1
  Br  Br18  1  0.418028  0.585248  0.231794  1
  Br  Br19  1  0.084655  0.917237  0.731769  1
  Br  Br20  1  0.731769  0.084655  0.917237  1
  Br  Br21  1  0.917237  0.731769  0.084655  1
  Br  Br22  1  0.762812  0.586826  0.426605  1
  Br  Br23  1  0.426605  0.762812  0.586826  1
  Br  Br24  1  0.586826  0.426605  0.762812  1
  Br  Br25  1  0.914869  0.081944  0.268038  1
  Br  Br26  1  0.268038  0.914869  0.081944  1
  Br  Br27  1  0.081944  0.268038  0.914869  1
