# generated using pymatgen
data_DyY2Al7Cu2
_symmetry_space_group_name_H-M   'P 1'
_cell_length_a   9.07362765
_cell_length_b   9.07362835
_cell_length_c   9.07362833
_cell_angle_alpha   35.21228644
_cell_angle_beta   35.21227916
_cell_angle_gamma   35.21227979
_symmetry_Int_Tables_number   1
_chemical_formula_structural   DyY2Al7Cu2
_chemical_formula_sum   'Dy1 Y2 Al7 Cu2'
_cell_volume   221.84764561
_cell_formula_units_Z   1
loop_
 _symmetry_equiv_pos_site_id
 _symmetry_equiv_pos_as_xyz
  1  'x, y, z'
loop_
 _atom_site_type_symbol
 _atom_site_label
 _atom_site_symmetry_multiplicity
 _atom_site_fract_x
 _atom_site_fract_y
 _atom_site_fract_z
 _atom_site_occupancy
  Dy  Dy0  1  0.000000  0.000000  0.000000  1
  Y  Y1  1  0.858036  0.858036  0.858036  1
  Y  Y2  1  0.141964  0.141964  0.141964  1
  Al  Al3  1  0.418458  0.418458  0.927065  1
  Al  Al4  1  0.927065  0.418458  0.418458  1
  Al  Al5  1  0.418458  0.927065  0.418458  1
  Al  Al6  1  0.500000  0.500000  0.500000  1
  Al  Al7  1  0.581542  0.072935  0.581542  1
  Al  Al8  1  0.072935  0.581542  0.581542  1
  Al  Al9  1  0.581542  0.581542  0.072935  1
  Cu  Cu10  1  0.664791  0.664791  0.664791  1
  Cu  Cu11  1  0.335209  0.335209  0.335209  1
