# generated using pymatgen
data_Nb3SnPdN
_symmetry_space_group_name_H-M   'P 1'
_cell_length_a   7.20323800
_cell_length_b   7.20323800
_cell_length_c   7.20323800
_cell_angle_alpha   90.00000000
_cell_angle_beta   90.00000000
_cell_angle_gamma   90.00000000
_symmetry_Int_Tables_number   1
_chemical_formula_structural   Nb3SnPdN
_chemical_formula_sum   'Nb12 Sn4 Pd4 N4'
_cell_volume   373.75180026
_cell_formula_units_Z   4
loop_
 _symmetry_equiv_pos_site_id
 _symmetry_equiv_pos_as_xyz
  1  'x, y, z'
loop_
 _atom_site_type_symbol
 _atom_site_label
 _atom_site_symmetry_multiplicity
 _atom_site_fract_x
 _atom_site_fract_y
 _atom_site_fract_z
 _atom_site_occupancy
  Nb  Nb0  1  0.787720  0.960491  0.375391  1
  Nb  Nb1  1  0.712280  0.039509  0.875391  1
  Nb  Nb2  1  0.212280  0.460491  0.124609  1
  Nb  Nb3  1  0.287720  0.539509  0.624609  1
  Nb  Nb4  1  0.960491  0.375391  0.787720  1
  Nb  Nb5  1  0.039509  0.875391  0.712280  1
  Nb  Nb6  1  0.460491  0.124609  0.212280  1
  Nb  Nb7  1  0.539509  0.624609  0.287720  1
  Nb  Nb8  1  0.375391  0.787720  0.960491  1
  Nb  Nb9  1  0.875391  0.712280  0.039509  1
  Nb  Nb10  1  0.124609  0.212280  0.460491  1
  Nb  Nb11  1  0.624609  0.287720  0.539509  1
  Sn  Sn12  1  0.572315  0.427685  0.927685  1
  Sn  Sn13  1  0.427685  0.927685  0.572315  1
  Sn  Sn14  1  0.927685  0.572315  0.427685  1
  Sn  Sn15  1  0.072315  0.072315  0.072315  1
  Pd  Pd16  1  0.181261  0.818739  0.318739  1
  Pd  Pd17  1  0.318739  0.181261  0.818739  1
  Pd  Pd18  1  0.818739  0.318739  0.181261  1
  Pd  Pd19  1  0.681261  0.681261  0.681261  1
  N  N20  1  0.877533  0.122467  0.622467  1
  N  N21  1  0.622467  0.877533  0.122467  1
  N  N22  1  0.122467  0.622467  0.877533  1
  N  N23  1  0.377533  0.377533  0.377533  1
