# generated using pymatgen
data_Er4Al13Si5Os5Pd
_symmetry_space_group_name_H-M   'P 1'
_cell_length_a   7.51064917
_cell_length_b   7.45874667
_cell_length_c   9.34556105
_cell_angle_alpha   90.03012164
_cell_angle_beta   89.88844875
_cell_angle_gamma   119.69680379
_symmetry_Int_Tables_number   1
_chemical_formula_structural   Er4Al13Si5Os5Pd
_chemical_formula_sum   'Er4 Al13 Si5 Os5 Pd1'
_cell_volume   454.77568135
_cell_formula_units_Z   1
loop_
 _symmetry_equiv_pos_site_id
 _symmetry_equiv_pos_as_xyz
  1  'x, y, z'
loop_
 _atom_site_type_symbol
 _atom_site_label
 _atom_site_symmetry_multiplicity
 _atom_site_fract_x
 _atom_site_fract_y
 _atom_site_fract_z
 _atom_site_occupancy
  Er  Er0  1  0.994511  0.672137  0.247040  1
  Er  Er1  1  0.006072  0.336632  0.754843  1
  Er  Er2  1  0.682564  0.000377  0.245506  1
  Er  Er3  1  0.312327  0.992806  0.751815  1
  Al  Al4  1  0.336700  0.001848  0.421516  1
  Al  Al5  1  0.006363  0.332254  0.424660  1
  Al  Al6  1  0.663215  0.994994  0.576628  1
  Al  Al7  1  0.660092  0.995146  0.921863  1
  Al  Al8  1  0.342774  0.005286  0.076527  1
  Al  Al9  1  0.329031  0.333659  0.559606  1
  Al  Al10  1  0.659181  0.668344  0.441554  1
  Al  Al11  1  0.661331  0.664730  0.053818  1
  Al  Al12  1  0.338077  0.332557  0.945098  1
  Al  Al13  1  0.334925  0.551560  0.249901  1
  Al  Al14  1  0.668735  0.455352  0.752730  1
  Al  Al15  1  0.548884  0.340369  0.246683  1
  Al  Al16  1  0.451919  0.660004  0.750279  1
  Si  Si17  1  0.131383  0.123717  0.250744  1
  Si  Si18  1  0.868274  0.875256  0.750709  1
  Si  Si19  1  0.003983  0.333024  0.074039  1
  Si  Si20  1  0.996582  0.665921  0.933025  1
  Si  Si21  1  0.004230  0.670055  0.569210  1
  Os  Os22  1  0.689477  0.335656  0.000748  1
  Os  Os23  1  0.311829  0.663061  0.997756  1
  Os  Os24  1  0.319532  0.670840  0.502375  1
  Os  Os25  1  0.000544  0.998504  0.000197  1
  Os  Os26  1  0.998947  0.991325  0.501193  1
  Pd  Pd27  1  0.678518  0.334587  0.499937  1
