# generated using pymatgen
data_Li3MgU2O8
_symmetry_space_group_name_H-M   'P 1'
_cell_length_a   5.13239800
_cell_length_b   6.14142671
_cell_length_c   10.66031281
_cell_angle_alpha   88.60499107
_cell_angle_beta   90.00000000
_cell_angle_gamma   90.00000000
_symmetry_Int_Tables_number   1
_chemical_formula_structural   Li3MgU2O8
_chemical_formula_sum   'Li6 Mg2 U4 O16'
_cell_volume   335.91609365
_cell_formula_units_Z   2
loop_
 _symmetry_equiv_pos_site_id
 _symmetry_equiv_pos_as_xyz
  1  'x, y, z'
loop_
 _atom_site_type_symbol
 _atom_site_label
 _atom_site_symmetry_multiplicity
 _atom_site_fract_x
 _atom_site_fract_y
 _atom_site_fract_z
 _atom_site_occupancy
  Li  Li0  1  0.541204  0.743809  0.923014  1
  Li  Li1  1  0.041204  0.256191  0.576986  1
  Li  Li2  1  0.458796  0.256191  0.076986  1
  Li  Li3  1  0.958796  0.743809  0.423014  1
  Li  Li4  1  0.500000  0.500000  0.500000  1
  Li  Li5  1  0.000000  0.500000  0.000000  1
  Mg  Mg6  1  0.500000  0.000000  0.500000  1
  Mg  Mg7  1  0.000000  0.000000  0.000000  1
  U  U8  1  0.986338  0.749011  0.735332  1
  U  U9  1  0.486338  0.250989  0.764668  1
  U  U10  1  0.013662  0.250989  0.264668  1
  U  U11  1  0.513662  0.749011  0.235332  1
  O  O12  1  0.176394  0.751485  0.901329  1
  O  O13  1  0.232662  0.237994  0.419334  1
  O  O14  1  0.267338  0.237994  0.919334  1
  O  O15  1  0.732662  0.762006  0.080666  1
  O  O16  1  0.255048  0.010206  0.160974  1
  O  O17  1  0.755048  0.989794  0.339026  1
  O  O18  1  0.729932  0.514496  0.832820  1
  O  O19  1  0.229932  0.485504  0.667180  1
  O  O20  1  0.744952  0.989794  0.839026  1
  O  O21  1  0.244952  0.010206  0.660974  1
  O  O22  1  0.270068  0.485504  0.167180  1
  O  O23  1  0.770068  0.514496  0.332820  1
  O  O24  1  0.823606  0.248515  0.098671  1
  O  O25  1  0.323606  0.751485  0.401329  1
  O  O26  1  0.767338  0.762006  0.580666  1
  O  O27  1  0.676394  0.248515  0.598671  1
