# generated using pymatgen
data_TlRuBr18
_symmetry_space_group_name_H-M   'P 1'
_cell_length_a   9.26209765
_cell_length_b   9.34293929
_cell_length_c   9.14239107
_cell_angle_alpha   87.22032399
_cell_angle_beta   87.22312977
_cell_angle_gamma   88.40564013
_symmetry_Int_Tables_number   1
_chemical_formula_structural   TlRuBr18
_chemical_formula_sum   'Tl1 Ru1 Br18'
_cell_volume   789.02271585
_cell_formula_units_Z   1
loop_
 _symmetry_equiv_pos_site_id
 _symmetry_equiv_pos_as_xyz
  1  'x, y, z'
loop_
 _atom_site_type_symbol
 _atom_site_label
 _atom_site_symmetry_multiplicity
 _atom_site_fract_x
 _atom_site_fract_y
 _atom_site_fract_z
 _atom_site_occupancy
  Tl  Tl0  1  0.000000  0.000000  0.000000  1
  Ru  Ru1  1  0.500000  0.500000  0.500000  1
  Br  Br2  1  0.770087  0.484452  0.503410  1
  Br  Br3  1  0.500521  0.768177  0.462997  1
  Br  Br4  1  0.479249  0.513555  0.772395  1
  Br  Br5  1  0.229913  0.515548  0.496590  1
  Br  Br6  1  0.499479  0.231823  0.537003  1
  Br  Br7  1  0.520751  0.486445  0.227605  1
  Br  Br8  1  0.884192  0.382128  0.738926  1
  Br  Br9  1  0.741432  0.885078  0.383356  1
  Br  Br10  1  0.382931  0.747758  0.882169  1
  Br  Br11  1  0.115808  0.617872  0.261074  1
  Br  Br12  1  0.258568  0.114922  0.616644  1
  Br  Br13  1  0.617069  0.252242  0.117831  1
  Br  Br14  1  0.032104  0.969638  0.692977  1
  Br  Br15  1  0.696755  0.030130  0.974496  1
  Br  Br16  1  0.970137  0.698725  0.037614  1
  Br  Br17  1  0.967896  0.030362  0.307023  1
  Br  Br18  1  0.303245  0.969870  0.025504  1
  Br  Br19  1  0.029863  0.301275  0.962386  1
