# generated using pymatgen
data_Li3CeHo3Si8Rh
_symmetry_space_group_name_H-M   'P 1'
_cell_length_a   3.83462900
_cell_length_b   7.47699406
_cell_length_c   10.10007165
_cell_angle_alpha   90.02546705
_cell_angle_beta   90.00000000
_cell_angle_gamma   90.00000000
_symmetry_Int_Tables_number   1
_chemical_formula_structural   Li3CeHo3Si8Rh
_chemical_formula_sum   'Li3 Ce1 Ho3 Si8 Rh1'
_cell_volume   289.58415820
_cell_formula_units_Z   1
loop_
 _symmetry_equiv_pos_site_id
 _symmetry_equiv_pos_as_xyz
  1  'x, y, z'
loop_
 _atom_site_type_symbol
 _atom_site_label
 _atom_site_symmetry_multiplicity
 _atom_site_fract_x
 _atom_site_fract_y
 _atom_site_fract_z
 _atom_site_occupancy
  Li  Li0  1  0.250000  0.490064  0.108106  1
  Li  Li1  1  0.750000  0.009405  0.604514  1
  Li  Li2  1  0.750000  0.504003  0.892397  1
  Ce  Ce3  1  0.750000  0.369454  0.365092  1
  Ho  Ho4  1  0.250000  0.135821  0.867366  1
  Ho  Ho5  1  0.250000  0.641128  0.628043  1
  Ho  Ho6  1  0.750000  0.864202  0.135313  1
  Si  Si7  1  0.250000  0.223144  0.564141  1
  Si  Si8  1  0.250000  0.731742  0.929739  1
  Si  Si9  1  0.750000  0.785844  0.431179  1
  Si  Si10  1  0.750000  0.258997  0.072279  1
  Si  Si11  1  0.250000  0.666062  0.321146  1
  Si  Si12  1  0.250000  0.155111  0.190777  1
  Si  Si13  1  0.750000  0.335565  0.678736  1
  Si  Si14  1  0.750000  0.842408  0.816631  1
  Rh  Rh15  1  0.250000  0.987051  0.394544  1
