# generated using pymatgen
data_Yb5P12Ir12Ru7
_symmetry_space_group_name_H-M   'P 1'
_cell_length_a   12.63344500
_cell_length_b   12.61686157
_cell_length_c   3.93501400
_cell_angle_alpha   90.00000000
_cell_angle_beta   90.00000000
_cell_angle_gamma   120.27906762
_symmetry_Int_Tables_number   1
_chemical_formula_structural   Yb5P12Ir12Ru7
_chemical_formula_sum   'Yb5 P12 Ir12 Ru7'
_cell_volume   541.65392859
_cell_formula_units_Z   1
loop_
 _symmetry_equiv_pos_site_id
 _symmetry_equiv_pos_as_xyz
  1  'x, y, z'
loop_
 _atom_site_type_symbol
 _atom_site_label
 _atom_site_symmetry_multiplicity
 _atom_site_fract_x
 _atom_site_fract_y
 _atom_site_fract_z
 _atom_site_occupancy
  Yb  Yb0  1  0.333199  0.666524  0.000000  1
  Yb  Yb1  1  0.667994  0.335424  0.000000  1
  Yb  Yb2  1  0.815616  0.997700  0.500000  1
  Yb  Yb3  1  0.999493  0.815170  0.500000  1
  Yb  Yb4  1  0.182799  0.183141  0.500000  1
  P  P5  1  0.179010  0.995584  0.000000  1
  P  P6  1  0.001168  0.179974  0.000000  1
  P  P7  1  0.816297  0.816182  0.000000  1
  P  P8  1  0.172983  0.480382  0.500000  1
  P  P9  1  0.518161  0.692383  0.500000  1
  P  P10  1  0.308286  0.827402  0.500000  1
  P  P11  1  0.692500  0.519929  0.500000  1
  P  P12  1  0.831022  0.314452  0.500000  1
  P  P13  1  0.484273  0.172717  0.500000  1
  P  P14  1  0.632728  0.996117  0.000000  1
  P  P15  1  0.000996  0.635287  0.000000  1
  P  P16  1  0.362587  0.367179  0.000000  1
  Ir  Ir17  1  0.363430  0.490790  0.500000  1
  Ir  Ir18  1  0.509086  0.874358  0.500000  1
  Ir  Ir19  1  0.128872  0.635578  0.500000  1
  Ir  Ir20  1  0.872754  0.511598  0.500000  1
  Ir  Ir21  1  0.641010  0.133837  0.500000  1
  Ir  Ir22  1  0.493893  0.362273  0.500000  1
  Ir  Ir23  1  0.815716  0.191366  0.000000  1
  Ir  Ir24  1  0.376189  0.184717  0.000000  1
  Ir  Ir25  1  0.287745  0.002153  0.500000  1
  Ir  Ir26  1  0.997510  0.284423  0.500000  1
  Ir  Ir27  1  0.712346  0.712995  0.500000  1
  Ir  Ir28  1  0.999790  0.998336  0.000000  1
  Ru  Ru29  1  0.455924  0.006310  0.000000  1
  Ru  Ru30  1  0.996297  0.449613  0.000000  1
  Ru  Ru31  1  0.547885  0.545891  0.000000  1
  Ru  Ru32  1  0.180488  0.377927  0.000000  1
  Ru  Ru33  1  0.619267  0.802376  0.000000  1
  Ru  Ru34  1  0.198298  0.818147  0.000000  1
  Ru  Ru35  1  0.804387  0.621767  0.000000  1
