# generated using pymatgen
data_Pr9(BiO)5
_symmetry_space_group_name_H-M   'P 1'
_cell_length_a   10.45645600
_cell_length_b   10.45645600
_cell_length_c   9.41007100
_cell_angle_alpha   90.00000000
_cell_angle_beta   90.00000000
_cell_angle_gamma   90.00000000
_symmetry_Int_Tables_number   1
_chemical_formula_structural   Pr9(BiO)5
_chemical_formula_sum   'Pr18 Bi10 O10'
_cell_volume   1028.87337523
_cell_formula_units_Z   2
loop_
 _symmetry_equiv_pos_site_id
 _symmetry_equiv_pos_as_xyz
  1  'x, y, z'
loop_
 _atom_site_type_symbol
 _atom_site_label
 _atom_site_symmetry_multiplicity
 _atom_site_fract_x
 _atom_site_fract_y
 _atom_site_fract_z
 _atom_site_occupancy
  Pr  Pr0  1  0.726029  0.917698  0.001963  1
  Pr  Pr1  1  0.582302  0.226029  0.001963  1
  Pr  Pr2  1  0.000000  0.500000  0.327728  1
  Pr  Pr3  1  0.773971  0.582302  0.998037  1
  Pr  Pr4  1  0.226029  0.417698  0.998037  1
  Pr  Pr5  1  0.204969  0.896209  0.341295  1
  Pr  Pr6  1  0.273971  0.082302  0.001963  1
  Pr  Pr7  1  0.896209  0.795031  0.658705  1
  Pr  Pr8  1  0.917698  0.273971  0.998037  1
  Pr  Pr9  1  0.295031  0.603791  0.658705  1
  Pr  Pr10  1  0.417698  0.773971  0.001963  1
  Pr  Pr11  1  0.103791  0.204969  0.658705  1
  Pr  Pr12  1  0.795031  0.103791  0.341295  1
  Pr  Pr13  1  0.500000  0.000000  0.672272  1
  Pr  Pr14  1  0.082302  0.726029  0.998037  1
  Pr  Pr15  1  0.396209  0.295031  0.341295  1
  Pr  Pr16  1  0.704969  0.396209  0.658705  1
  Pr  Pr17  1  0.603791  0.704969  0.341295  1
  Bi  Bi18  1  0.500000  0.000000  0.312885  1
  Bi  Bi19  1  0.195867  0.903259  0.700562  1
  Bi  Bi20  1  0.403259  0.304133  0.700562  1
  Bi  Bi21  1  0.000000  0.500000  0.687115  1
  Bi  Bi22  1  0.695867  0.403259  0.299438  1
  Bi  Bi23  1  0.096741  0.195867  0.299438  1
  Bi  Bi24  1  0.596741  0.695867  0.700562  1
  Bi  Bi25  1  0.304133  0.596741  0.299438  1
  Bi  Bi26  1  0.804133  0.096741  0.700562  1
  Bi  Bi27  1  0.903259  0.804133  0.299438  1
  O  O28  1  0.500000  0.000000  0.933065  1
  O  O29  1  0.725076  0.378951  0.911444  1
  O  O30  1  0.621049  0.725076  0.088556  1
  O  O31  1  0.378951  0.274924  0.088556  1
  O  O32  1  0.121049  0.225076  0.911444  1
  O  O33  1  0.274924  0.621049  0.911444  1
  O  O34  1  0.000000  0.500000  0.066935  1
  O  O35  1  0.225076  0.878951  0.088556  1
  O  O36  1  0.878951  0.774924  0.911444  1
  O  O37  1  0.774924  0.121049  0.088556  1
