# generated using pymatgen
data_Rb4GaP3Pt4
_symmetry_space_group_name_H-M   'P 1'
_cell_length_a   6.83433195
_cell_length_b   6.91046320
_cell_length_c   7.88700257
_cell_angle_alpha   90.24206420
_cell_angle_beta   89.71531792
_cell_angle_gamma   109.87810609
_symmetry_Int_Tables_number   1
_chemical_formula_structural   Rb4GaP3Pt4
_chemical_formula_sum   'Rb4 Ga1 P3 Pt4'
_cell_volume   350.29122745
_cell_formula_units_Z   1
loop_
 _symmetry_equiv_pos_site_id
 _symmetry_equiv_pos_as_xyz
  1  'x, y, z'
loop_
 _atom_site_type_symbol
 _atom_site_label
 _atom_site_symmetry_multiplicity
 _atom_site_fract_x
 _atom_site_fract_y
 _atom_site_fract_z
 _atom_site_occupancy
  Rb  Rb0  1  0.189161  0.807506  0.506749  1
  Rb  Rb1  1  0.688372  0.309495  0.994326  1
  Rb  Rb2  1  0.807008  0.189306  0.487081  1
  Rb  Rb3  1  0.313824  0.694166  0.011604  1
  Ga  Ga4  1  0.160792  0.176575  0.831200  1
  P  P5  1  0.666797  0.683432  0.664643  1
  P  P6  1  0.845631  0.816116  0.169109  1
  P  P7  1  0.334886  0.335739  0.325078  1
  Pt  Pt8  1  0.375865  0.393944  0.614990  1
  Pt  Pt9  1  0.639240  0.622545  0.369889  1
  Pt  Pt10  1  0.123782  0.114451  0.144236  1
  Pt  Pt11  1  0.854641  0.856726  0.881096  1
