# generated using pymatgen
data_Tb3Y3ReB14Ru
_symmetry_space_group_name_H-M   'P 1'
_cell_length_a   8.09346743
_cell_length_b   8.09346643
_cell_length_c   9.35163453
_cell_angle_alpha   89.96243491
_cell_angle_beta   90.03756419
_cell_angle_gamma   154.73279123
_symmetry_Int_Tables_number   1
_chemical_formula_structural   Tb3Y3ReB14Ru
_chemical_formula_sum   'Tb3 Y3 Re1 B14 Ru1'
_cell_volume   261.47014783
_cell_formula_units_Z   1
loop_
 _symmetry_equiv_pos_site_id
 _symmetry_equiv_pos_as_xyz
  1  'x, y, z'
loop_
 _atom_site_type_symbol
 _atom_site_label
 _atom_site_symmetry_multiplicity
 _atom_site_fract_x
 _atom_site_fract_y
 _atom_site_fract_z
 _atom_site_occupancy
  Tb  Tb0  1  0.894573  0.105427  0.939608  1
  Tb  Tb1  1  0.105596  0.894404  0.060994  1
  Tb  Tb2  1  0.894529  0.105471  0.560368  1
  Y  Y3  1  0.756974  0.243026  0.249945  1
  Y  Y4  1  0.243029  0.756971  0.749951  1
  Y  Y5  1  0.105531  0.894469  0.439023  1
  Re  Re6  1  0.947052  0.052948  0.250125  1
  B  B7  1  0.542895  0.457105  0.250159  1
  B  B8  1  0.458186  0.541814  0.749966  1
  B  B9  1  0.520913  0.479087  0.903202  1
  B  B10  1  0.479289  0.520711  0.096001  1
  B  B11  1  0.479295  0.520705  0.404264  1
  B  B12  1  0.520865  0.479135  0.596675  1
  B  B13  1  0.631227  0.368773  0.848252  1
  B  B14  1  0.368034  0.631966  0.151085  1
  B  B15  1  0.726767  0.273233  0.965225  1
  B  B16  1  0.272695  0.727305  0.033545  1
  B  B17  1  0.272546  0.727454  0.466401  1
  B  B18  1  0.726686  0.273314  0.534753  1
  B  B19  1  0.631225  0.368775  0.651618  1
  B  B20  1  0.368041  0.631959  0.348889  1
  Ru  Ru21  1  0.054051  0.945949  0.749949  1
