# generated using pymatgen
data_LaNd3(GaPt)4
_symmetry_space_group_name_H-M   'P 1'
_cell_length_a   4.51359400
_cell_length_b   7.18415663
_cell_length_c   7.89459046
_cell_angle_alpha   90.96783881
_cell_angle_beta   90.00000000
_cell_angle_gamma   90.00000000
_symmetry_Int_Tables_number   1
_chemical_formula_structural   LaNd3(GaPt)4
_chemical_formula_sum   'La1 Nd3 Ga4 Pt4'
_cell_volume   255.95636020
_cell_formula_units_Z   1
loop_
 _symmetry_equiv_pos_site_id
 _symmetry_equiv_pos_as_xyz
  1  'x, y, z'
loop_
 _atom_site_type_symbol
 _atom_site_label
 _atom_site_symmetry_multiplicity
 _atom_site_fract_x
 _atom_site_fract_y
 _atom_site_fract_z
 _atom_site_occupancy
  La  La0  1  0.750000  0.475491  0.193111  1
  Nd  Nd1  1  0.250000  0.022327  0.694769  1
  Nd  Nd2  1  0.250000  0.525206  0.801797  1
  Nd  Nd3  1  0.750000  0.977845  0.306720  1
  Ga  Ga4  1  0.250000  0.160192  0.071406  1
  Ga  Ga5  1  0.250000  0.668518  0.427891  1
  Ga  Ga6  1  0.750000  0.837605  0.927464  1
  Ga  Ga7  1  0.750000  0.335068  0.574738  1
  Pt  Pt8  1  0.250000  0.278583  0.400905  1
  Pt  Pt9  1  0.250000  0.780882  0.102638  1
  Pt  Pt10  1  0.750000  0.721024  0.602002  1
  Pt  Pt11  1  0.750000  0.217261  0.896559  1
