# generated using pymatgen
data_Ho4TiOs6W
_symmetry_space_group_name_H-M   'P 1'
_cell_length_a   5.24788423
_cell_length_b   5.24788440
_cell_length_c   8.98498100
_cell_angle_alpha   90.00000000
_cell_angle_beta   90.00000000
_cell_angle_gamma   116.45099444
_symmetry_Int_Tables_number   1
_chemical_formula_structural   Ho4TiOs6W
_chemical_formula_sum   'Ho4 Ti1 Os6 W1'
_cell_volume   221.54494985
_cell_formula_units_Z   1
loop_
 _symmetry_equiv_pos_site_id
 _symmetry_equiv_pos_as_xyz
  1  'x, y, z'
loop_
 _atom_site_type_symbol
 _atom_site_label
 _atom_site_symmetry_multiplicity
 _atom_site_fract_x
 _atom_site_fract_y
 _atom_site_fract_z
 _atom_site_occupancy
  Ho  Ho0  1  0.329072  0.670928  0.434672  1
  Ho  Ho1  1  0.668505  0.331495  0.562330  1
  Ho  Ho2  1  0.668505  0.331495  0.937670  1
  Ho  Ho3  1  0.329072  0.670928  0.065328  1
  Ti  Ti4  1  0.164902  0.835098  0.750000  1
  Os  Os5  1  0.995316  0.004684  0.500972  1
  Os  Os6  1  0.995316  0.004684  0.999028  1
  Os  Os7  1  0.824293  0.648072  0.250000  1
  Os  Os8  1  0.351928  0.175707  0.250000  1
  Os  Os9  1  0.176979  0.345884  0.750000  1
  Os  Os10  1  0.654116  0.823021  0.750000  1
  W  W11  1  0.841995  0.158005  0.250000  1
