# generated using pymatgen
data_Tb9Pr7(ErSn4)4
_symmetry_space_group_name_H-M   'P 1'
_cell_length_a   8.13590485
_cell_length_b   8.31472826
_cell_length_c   15.69189500
_cell_angle_alpha   90.04244781
_cell_angle_beta   90.22160175
_cell_angle_gamma   89.73626078
_symmetry_Int_Tables_number   1
_chemical_formula_structural   Tb9Pr7(ErSn4)4
_chemical_formula_sum   'Tb9 Pr7 Er4 Sn16'
_cell_volume   1061.50330797
_cell_formula_units_Z   1
loop_
 _symmetry_equiv_pos_site_id
 _symmetry_equiv_pos_as_xyz
  1  'x, y, z'
loop_
 _atom_site_type_symbol
 _atom_site_label
 _atom_site_symmetry_multiplicity
 _atom_site_fract_x
 _atom_site_fract_y
 _atom_site_fract_z
 _atom_site_occupancy
  Tb  Tb0  1  0.360242  0.835561  0.877164  1
  Tb  Tb1  1  0.858224  0.664275  0.623296  1
  Tb  Tb2  1  0.641367  0.164558  0.376663  1
  Tb  Tb3  1  0.138466  0.336857  0.121747  1
  Tb  Tb4  1  0.638611  0.164092  0.122632  1
  Tb  Tb5  1  0.141102  0.335499  0.377089  1
  Tb  Tb6  1  0.359028  0.835973  0.624223  1
  Tb  Tb7  1  0.861150  0.663189  0.878154  1
  Tb  Tb8  1  0.517303  0.321532  0.901875  1
  Pr  Pr9  1  0.013361  0.179488  0.597799  1
  Pr  Pr10  1  0.487433  0.678458  0.403412  1
  Pr  Pr11  1  0.986179  0.820866  0.096145  1
  Pr  Pr12  1  0.485284  0.677596  0.096495  1
  Pr  Pr13  1  0.986985  0.821401  0.403555  1
  Pr  Pr14  1  0.511806  0.321996  0.596212  1
  Pr  Pr15  1  0.014022  0.179810  0.903063  1
  Er  Er16  1  0.193836  0.501466  0.751007  1
  Er  Er17  1  0.692648  0.997934  0.750795  1
  Er  Er18  1  0.806171  0.497639  0.249437  1
  Er  Er19  1  0.307077  0.002563  0.249599  1
  Sn  Sn20  1  0.303715  0.040658  0.042050  1
  Sn  Sn21  1  0.805074  0.459504  0.457559  1
  Sn  Sn22  1  0.694423  0.960687  0.542726  1
  Sn  Sn23  1  0.203371  0.535659  0.956098  1
  Sn  Sn24  1  0.695122  0.962482  0.956968  1
  Sn  Sn25  1  0.194267  0.541822  0.542394  1
  Sn  Sn26  1  0.305695  0.039924  0.457805  1
  Sn  Sn27  1  0.798236  0.457166  0.040815  1
  Sn  Sn28  1  0.558230  0.620649  0.750869  1
  Sn  Sn29  1  0.057630  0.877250  0.750499  1
  Sn  Sn30  1  0.441406  0.377614  0.249712  1
  Sn  Sn31  1  0.942165  0.123442  0.249266  1
  Sn  Sn32  1  0.324954  0.145671  0.752195  1
  Sn  Sn33  1  0.819268  0.357001  0.750761  1
  Sn  Sn34  1  0.678134  0.856564  0.249869  1
  Sn  Sn35  1  0.178016  0.643149  0.250054  1
