# generated using pymatgen
data_Cs4Li2LuInP4
_symmetry_space_group_name_H-M   'P 1'
_cell_length_a   9.78522264
_cell_length_b   9.78522113
_cell_length_c   9.78522239
_cell_angle_alpha   140.69906199
_cell_angle_beta   56.67750877
_cell_angle_gamma   140.85229384
_symmetry_Int_Tables_number   1
_chemical_formula_structural   Cs4Li2LuInP4
_chemical_formula_sum   'Cs4 Li2 Lu1 In1 P4'
_cell_volume   371.62715273
_cell_formula_units_Z   1
loop_
 _symmetry_equiv_pos_site_id
 _symmetry_equiv_pos_as_xyz
  1  'x, y, z'
loop_
 _atom_site_type_symbol
 _atom_site_label
 _atom_site_symmetry_multiplicity
 _atom_site_fract_x
 _atom_site_fract_y
 _atom_site_fract_z
 _atom_site_occupancy
  Cs  Cs0  1  0.332009  0.776828  0.100359  1
  Cs  Cs1  1  0.167992  0.268351  0.444819  1
  Cs  Cs2  1  0.823533  0.723173  0.555180  1
  Cs  Cs3  1  0.676468  0.231648  0.899640  1
  Li  Li4  1  0.750000  0.250000  0.500000  1
  Li  Li5  1  0.250000  0.749999  0.500000  1
  Lu  Lu6  1  0.250000  0.250000  0.000000  1
  In  In7  1  0.750000  0.750000  0.000000  1
  P  P8  1  0.916660  0.236677  0.156812  1
  P  P9  1  0.583341  0.740153  0.320017  1
  P  P10  1  0.420136  0.263324  0.679983  1
  P  P11  1  0.079864  0.759847  0.843188  1
