# generated using pymatgen
data_Zn3P7PbN12
_symmetry_space_group_name_H-M   'P 1'
_cell_length_a   7.25194675
_cell_length_b   7.30803719
_cell_length_c   7.25194714
_cell_angle_alpha   109.62797699
_cell_angle_beta   109.31401691
_cell_angle_gamma   109.62797158
_symmetry_Int_Tables_number   1
_chemical_formula_structural   Zn3P7PbN12
_chemical_formula_sum   'Zn3 P7 Pb1 N12'
_cell_volume   295.28694734
_cell_formula_units_Z   1
loop_
 _symmetry_equiv_pos_site_id
 _symmetry_equiv_pos_as_xyz
  1  'x, y, z'
loop_
 _atom_site_type_symbol
 _atom_site_label
 _atom_site_symmetry_multiplicity
 _atom_site_fract_x
 _atom_site_fract_y
 _atom_site_fract_z
 _atom_site_occupancy
  Zn  Zn0  1  0.656652  0.660235  0.656652  1
  Zn  Zn1  1  0.343348  0.003583  0.000000  1
  Zn  Zn2  1  0.000000  0.003583  0.343348  1
  P  P3  1  0.747237  0.255904  0.495311  1
  P  P4  1  0.251926  0.760593  0.504689  1
  P  P5  1  0.504689  0.760593  0.251926  1
  P  P6  1  0.495311  0.255904  0.747237  1
  P  P7  1  0.748074  0.508667  0.252763  1
  P  P8  1  0.252763  0.508667  0.748074  1
  P  P9  1  0.000000  0.914030  0.000000  1
  Pb  Pb10  1  0.000000  0.290163  0.000000  1
  N  N11  1  0.560427  0.282193  0.000000  1
  N  N12  1  0.436084  0.441919  0.707739  1
  N  N13  1  0.000000  0.282193  0.560427  1
  N  N14  1  0.271655  0.005835  0.563916  1
  N  N15  1  0.707739  0.441919  0.436084  1
  N  N16  1  0.000000  0.571064  0.285132  1
  N  N17  1  0.563916  0.005835  0.271655  1
  N  N18  1  0.439573  0.721766  0.439573  1
  N  N19  1  0.285132  0.571064  0.000000  1
  N  N20  1  0.714868  0.285932  0.714868  1
  N  N21  1  0.728345  0.734180  0.292261  1
  N  N22  1  0.292261  0.734180  0.728345  1
