# generated using pymatgen
data_La2Sm7Y(Ga2Ru3)2
_symmetry_space_group_name_H-M   'P 1'
_cell_length_a   8.39601124
_cell_length_b   8.53659725
_cell_length_c   8.47541867
_cell_angle_alpha   109.65119896
_cell_angle_beta   109.29178570
_cell_angle_gamma   109.43225410
_symmetry_Int_Tables_number   1
_chemical_formula_structural   La2Sm7Y(Ga2Ru3)2
_chemical_formula_sum   'La2 Sm7 Y1 Ga4 Ru6'
_cell_volume   467.84240707
_cell_formula_units_Z   1
loop_
 _symmetry_equiv_pos_site_id
 _symmetry_equiv_pos_as_xyz
  1  'x, y, z'
loop_
 _atom_site_type_symbol
 _atom_site_label
 _atom_site_symmetry_multiplicity
 _atom_site_fract_x
 _atom_site_fract_y
 _atom_site_fract_z
 _atom_site_occupancy
  La  La0  1  0.752209  0.811327  0.059882  1
  La  La1  1  0.438929  0.244367  0.687634  1
  Sm  Sm2  1  0.689121  0.435682  0.256151  1
  Sm  Sm3  1  0.066375  0.749497  0.810495  1
  Sm  Sm4  1  0.816913  0.064395  0.748497  1
  Sm  Sm5  1  0.218386  0.219428  0.214322  1
  Sm  Sm6  1  0.494234  0.993852  0.278968  1
  Sm  Sm7  1  0.285345  0.502604  0.003905  1
  Sm  Sm8  1  0.002584  0.285476  0.503750  1
  Y  Y9  1  0.248995  0.680729  0.432852  1
  Ga  Ga10  1  0.583601  0.586927  0.584528  1
  Ga  Ga11  1  0.504168  0.004741  0.916163  1
  Ga  Ga12  1  0.919592  0.498786  0.001007  1
  Ga  Ga13  1  0.996136  0.905599  0.498286  1
  Ru  Ru14  1  0.252116  0.129334  0.868579  1
  Ru  Ru15  1  0.739502  0.373127  0.625883  1
  Ru  Ru16  1  0.878634  0.258153  0.127392  1
  Ru  Ru17  1  0.109788  0.868320  0.240546  1
  Ru  Ru18  1  0.620209  0.748015  0.379252  1
  Ru  Ru19  1  0.383162  0.639640  0.761910  1
