# generated using pymatgen
data_Li8Pr6Nd2Sn7Bi
_symmetry_space_group_name_H-M   'P 1'
_cell_length_a   9.61705300
_cell_length_b   9.61439386
_cell_length_c   7.69616160
_cell_angle_alpha   90.08310443
_cell_angle_beta   90.00000000
_cell_angle_gamma   120.00914614
_symmetry_Int_Tables_number   1
_chemical_formula_structural   Li8Pr6Nd2Sn7Bi
_chemical_formula_sum   'Li8 Pr6 Nd2 Sn7 Bi1'
_cell_volume   616.20907002
_cell_formula_units_Z   1
loop_
 _symmetry_equiv_pos_site_id
 _symmetry_equiv_pos_as_xyz
  1  'x, y, z'
loop_
 _atom_site_type_symbol
 _atom_site_label
 _atom_site_symmetry_multiplicity
 _atom_site_fract_x
 _atom_site_fract_y
 _atom_site_fract_z
 _atom_site_occupancy
  Li  Li0  1  0.166670  0.333339  0.284937  1
  Li  Li1  1  0.167635  0.833610  0.287907  1
  Li  Li2  1  0.665974  0.833610  0.287907  1
  Li  Li3  1  0.833254  0.666507  0.786930  1
  Li  Li4  1  0.829939  0.164977  0.789961  1
  Li  Li5  1  0.335038  0.164977  0.789961  1
  Li  Li6  1  0.334885  0.669770  0.665917  1
  Li  Li7  1  0.666337  0.332672  0.167784  1
  Pr  Pr8  1  0.512217  0.024434  0.494700  1
  Pr  Pr9  1  0.516744  0.490655  0.492237  1
  Pr  Pr10  1  0.973911  0.490655  0.492237  1
  Pr  Pr11  1  0.487772  0.975545  0.995741  1
  Pr  Pr12  1  0.492712  0.514108  0.997051  1
  Pr  Pr13  1  0.021396  0.514108  0.997051  1
  Nd  Nd14  1  0.997577  0.995154  0.497081  1
  Nd  Nd15  1  0.998048  0.996095  0.001423  1
  Sn  Sn16  1  0.166130  0.833233  0.729472  1
  Sn  Sn17  1  0.667102  0.833233  0.729472  1
  Sn  Sn18  1  0.833619  0.667238  0.230150  1
  Sn  Sn19  1  0.834111  0.166854  0.229566  1
  Sn  Sn20  1  0.332745  0.166854  0.229566  1
  Sn  Sn21  1  0.332882  0.665767  0.266700  1
  Sn  Sn22  1  0.666872  0.333742  0.766962  1
  Bi  Bi23  1  0.166429  0.332860  0.731259  1
