# generated using pymatgen
data_Lu5TcOsC7
_symmetry_space_group_name_H-M   'P 1'
_cell_length_a   8.07601930
_cell_length_b   8.07601952
_cell_length_c   3.39545200
_cell_angle_alpha   90.00000000
_cell_angle_beta   90.00000000
_cell_angle_gamma   121.44696840
_symmetry_Int_Tables_number   1
_chemical_formula_structural   Lu5TcOsC7
_chemical_formula_sum   'Lu5 Tc1 Os1 C7'
_cell_volume   188.93140913
_cell_formula_units_Z   1
loop_
 _symmetry_equiv_pos_site_id
 _symmetry_equiv_pos_as_xyz
  1  'x, y, z'
loop_
 _atom_site_type_symbol
 _atom_site_label
 _atom_site_symmetry_multiplicity
 _atom_site_fract_x
 _atom_site_fract_y
 _atom_site_fract_z
 _atom_site_occupancy
  Lu  Lu0  1  0.339675  0.079033  0.500000  1
  Lu  Lu1  1  0.660828  0.920447  0.500000  1
  Lu  Lu2  1  0.079553  0.339172  0.500000  1
  Lu  Lu3  1  0.920967  0.660325  0.500000  1
  Lu  Lu4  1  0.499539  0.500461  0.000000  1
  Tc  Tc5  1  0.715421  0.284579  0.000000  1
  Os  Os6  1  0.286018  0.713982  0.000000  1
  C  C7  1  0.172203  0.171695  0.000000  1
  C  C8  1  0.828305  0.827797  0.000000  1
  C  C9  1  0.000294  0.999706  0.000000  1
  C  C10  1  0.373290  0.626710  0.500000  1
  C  C11  1  0.622106  0.377894  0.500000  1
  C  C12  1  0.500138  0.998337  0.000000  1
  C  C13  1  0.001663  0.499862  0.000000  1
