# generated using pymatgen
data_NaCr3FeSb12
_symmetry_space_group_name_H-M   'P 1'
_cell_length_a   8.15863352
_cell_length_b   8.15863474
_cell_length_c   8.15863447
_cell_angle_alpha   109.09284831
_cell_angle_beta   109.09283999
_cell_angle_gamma   109.09285097
_symmetry_Int_Tables_number   1
_chemical_formula_structural   NaCr3FeSb12
_chemical_formula_sum   'Na1 Cr3 Fe1 Sb12'
_cell_volume   423.80747579
_cell_formula_units_Z   1
loop_
 _symmetry_equiv_pos_site_id
 _symmetry_equiv_pos_as_xyz
  1  'x, y, z'
loop_
 _atom_site_type_symbol
 _atom_site_label
 _atom_site_symmetry_multiplicity
 _atom_site_fract_x
 _atom_site_fract_y
 _atom_site_fract_z
 _atom_site_occupancy
  Na  Na0  1  0.000000  0.000000  0.000000  1
  Cr  Cr1  1  0.000000  0.000000  0.500000  1
  Cr  Cr2  1  0.000000  0.500000  0.000000  1
  Cr  Cr3  1  0.500000  0.000000  0.000000  1
  Fe  Fe4  1  0.500000  0.500000  0.500000  1
  Sb  Sb5  1  0.655357  0.806672  0.153676  1
  Sb  Sb6  1  0.846324  0.344643  0.193328  1
  Sb  Sb7  1  0.505196  0.830920  0.651552  1
  Sb  Sb8  1  0.830920  0.651552  0.505196  1
  Sb  Sb9  1  0.494804  0.169080  0.348448  1
  Sb  Sb10  1  0.153676  0.655357  0.806672  1
  Sb  Sb11  1  0.806672  0.153676  0.655357  1
  Sb  Sb12  1  0.193328  0.846324  0.344643  1
  Sb  Sb13  1  0.169080  0.348448  0.494804  1
  Sb  Sb14  1  0.651552  0.505196  0.830920  1
  Sb  Sb15  1  0.348448  0.494804  0.169080  1
  Sb  Sb16  1  0.344643  0.193328  0.846324  1
