# generated using pymatgen
data_Zr10ZnSn2GeSb4
_symmetry_space_group_name_H-M   'P 1'
_cell_length_a   8.68057028
_cell_length_b   8.68057186
_cell_length_c   5.89322301
_cell_angle_alpha   90.00291335
_cell_angle_beta   90.00236353
_cell_angle_gamma   119.93908762
_symmetry_Int_Tables_number   1
_chemical_formula_structural   Zr10ZnSn2GeSb4
_chemical_formula_sum   'Zr10 Zn1 Sn2 Ge1 Sb4'
_cell_volume   384.80999103
_cell_formula_units_Z   1
loop_
 _symmetry_equiv_pos_site_id
 _symmetry_equiv_pos_as_xyz
  1  'x, y, z'
loop_
 _atom_site_type_symbol
 _atom_site_label
 _atom_site_symmetry_multiplicity
 _atom_site_fract_x
 _atom_site_fract_y
 _atom_site_fract_z
 _atom_site_occupancy
  Zr  Zr0  1  0.666523  0.333709  0.001024  1
  Zr  Zr1  1  0.333712  0.666524  0.001023  1
  Zr  Zr2  1  0.334051  0.666573  0.499308  1
  Zr  Zr3  1  0.666575  0.334053  0.499308  1
  Zr  Zr4  1  0.734910  0.734910  0.752160  1
  Zr  Zr5  1  0.264469  0.999702  0.751992  1
  Zr  Zr6  1  0.999699  0.264467  0.751992  1
  Zr  Zr7  1  0.268162  0.268161  0.248116  1
  Zr  Zr8  1  0.733098  0.999485  0.247930  1
  Zr  Zr9  1  0.999484  0.733097  0.247930  1
  Zn  Zn10  1  0.000979  0.000979  0.497179  1
  Sn  Sn11  1  0.387593  0.000065  0.251987  1
  Sn  Sn12  1  0.000066  0.387593  0.251987  1
  Ge  Ge13  1  0.000707  0.000707  0.002629  1
  Sb  Sb14  1  0.389329  0.389330  0.747676  1
  Sb  Sb15  1  0.608975  0.000619  0.747799  1
  Sb  Sb16  1  0.000619  0.608974  0.747798  1
  Sb  Sb17  1  0.611050  0.611050  0.252163  1
