# generated using pymatgen
data_HoEr6Co3Sn23Ir3
_symmetry_space_group_name_H-M   'P 1'
_cell_length_a   9.75250601
_cell_length_b   9.75250469
_cell_length_c   10.03682501
_cell_angle_alpha   90.00375834
_cell_angle_beta   89.99624191
_cell_angle_gamma   119.99771828
_symmetry_Int_Tables_number   1
_chemical_formula_structural   HoEr6Co3Sn23Ir3
_chemical_formula_sum   'Ho1 Er6 Co3 Sn23 Ir3'
_cell_volume   826.74078333
_cell_formula_units_Z   1
loop_
 _symmetry_equiv_pos_site_id
 _symmetry_equiv_pos_as_xyz
  1  'x, y, z'
loop_
 _atom_site_type_symbol
 _atom_site_label
 _atom_site_symmetry_multiplicity
 _atom_site_fract_x
 _atom_site_fract_y
 _atom_site_fract_z
 _atom_site_occupancy
  Ho  Ho0  1  0.479009  0.520991  0.307751  1
  Er  Er1  1  0.000005  0.999995  0.979866  1
  Er  Er2  1  0.520034  0.479966  0.695068  1
  Er  Er3  1  0.520030  0.040062  0.695034  1
  Er  Er4  1  0.959938  0.479970  0.695034  1
  Er  Er5  1  0.041886  0.520950  0.307744  1
  Er  Er6  1  0.479050  0.958114  0.307744  1
  Co  Co7  1  0.336651  0.168246  0.200483  1
  Co  Co8  1  0.831754  0.663349  0.200483  1
  Co  Co9  1  0.831653  0.168347  0.200510  1
  Sn  Sn10  1  0.666669  0.333331  0.183035  1
  Sn  Sn11  1  0.666668  0.333332  0.880461  1
  Sn  Sn12  1  0.333248  0.666752  0.123791  1
  Sn  Sn13  1  0.352169  0.345482  0.006965  1
  Sn  Sn14  1  0.993324  0.647817  0.007000  1
  Sn  Sn15  1  0.654471  0.006665  0.006966  1
  Sn  Sn16  1  0.654518  0.647831  0.006965  1
  Sn  Sn17  1  0.333328  0.666672  0.829046  1
  Sn  Sn18  1  0.440455  0.220108  0.450451  1
  Sn  Sn19  1  0.221845  0.778155  0.543663  1
  Sn  Sn20  1  0.221793  0.443688  0.543730  1
  Sn  Sn21  1  0.556312  0.778207  0.543730  1
  Sn  Sn22  1  0.117378  0.882622  0.272693  1
  Sn  Sn23  1  0.779892  0.559545  0.450451  1
  Sn  Sn24  1  0.779765  0.220235  0.450422  1
  Sn  Sn25  1  0.352183  0.006676  0.007000  1
  Sn  Sn26  1  0.117312  0.234679  0.272695  1
  Sn  Sn27  1  0.765321  0.882688  0.272695  1
  Sn  Sn28  1  0.241261  0.120620  0.712574  1
  Sn  Sn29  1  0.879380  0.758739  0.712574  1
  Sn  Sn30  1  0.879362  0.120638  0.712575  1
  Sn  Sn31  1  0.000004  0.999996  0.496907  1
  Sn  Sn32  1  0.993335  0.345529  0.006966  1
  Ir  Ir33  1  0.167475  0.832525  0.805639  1
  Ir  Ir34  1  0.167485  0.334960  0.805643  1
  Ir  Ir35  1  0.665040  0.832515  0.805643  1
