# generated using pymatgen
data_Li2Ca20Zn9Pb
_symmetry_space_group_name_H-M   'P 1'
_cell_length_a   8.03448500
_cell_length_b   8.03448500
_cell_length_c   15.25618700
_cell_angle_alpha   90.00000000
_cell_angle_beta   90.00000000
_cell_angle_gamma   90.00000000
_symmetry_Int_Tables_number   1
_chemical_formula_structural   Li2Ca20Zn9Pb
_chemical_formula_sum   'Li2 Ca20 Zn9 Pb1'
_cell_volume   984.83186463
_cell_formula_units_Z   1
loop_
 _symmetry_equiv_pos_site_id
 _symmetry_equiv_pos_as_xyz
  1  'x, y, z'
loop_
 _atom_site_type_symbol
 _atom_site_label
 _atom_site_symmetry_multiplicity
 _atom_site_fract_x
 _atom_site_fract_y
 _atom_site_fract_z
 _atom_site_occupancy
  Li  Li0  1  0.500000  0.500000  0.500000  1
  Li  Li1  1  0.500000  0.500000  0.000000  1
  Ca  Ca2  1  0.676952  0.160964  0.104862  1
  Ca  Ca3  1  0.166489  0.672457  0.606558  1
  Ca  Ca4  1  0.323048  0.839036  0.104862  1
  Ca  Ca5  1  0.833511  0.327543  0.606558  1
  Ca  Ca6  1  0.839036  0.676952  0.104862  1
  Ca  Ca7  1  0.327543  0.166489  0.606558  1
  Ca  Ca8  1  0.160964  0.323048  0.104862  1
  Ca  Ca9  1  0.672457  0.833511  0.606558  1
  Ca  Ca10  1  0.839036  0.323048  0.895138  1
  Ca  Ca11  1  0.327543  0.833511  0.393442  1
  Ca  Ca12  1  0.160964  0.676952  0.895138  1
  Ca  Ca13  1  0.672457  0.166489  0.393442  1
  Ca  Ca14  1  0.676952  0.839036  0.895138  1
  Ca  Ca15  1  0.166489  0.327543  0.393442  1
  Ca  Ca16  1  0.323048  0.160964  0.895138  1
  Ca  Ca17  1  0.833511  0.672457  0.393442  1
  Ca  Ca18  1  0.500000  0.500000  0.753387  1
  Ca  Ca19  1  0.000000  0.000000  0.250940  1
  Ca  Ca20  1  0.000000  0.000000  0.749060  1
  Ca  Ca21  1  0.500000  0.500000  0.246613  1
  Zn  Zn22  1  0.617777  0.119329  0.751831  1
  Zn  Zn23  1  0.119329  0.617777  0.248169  1
  Zn  Zn24  1  0.880671  0.382223  0.248169  1
  Zn  Zn25  1  0.382223  0.880671  0.751831  1
  Zn  Zn26  1  0.880671  0.617777  0.751831  1
  Zn  Zn27  1  0.382223  0.119329  0.248169  1
  Zn  Zn28  1  0.119329  0.382223  0.751831  1
  Zn  Zn29  1  0.617777  0.880671  0.248169  1
  Zn  Zn30  1  0.000000  0.000000  0.000000  1
  Pb  Pb31  1  0.000000  0.000000  0.500000  1
