# generated using pymatgen
data_Ho4AlOsRu6
_symmetry_space_group_name_H-M   'P 1'
_cell_length_a   5.43566868
_cell_length_b   5.21888750
_cell_length_c   8.86347500
_cell_angle_alpha   90.00000000
_cell_angle_beta   90.00000000
_cell_angle_gamma   121.35354133
_symmetry_Int_Tables_number   1
_chemical_formula_structural   Ho4AlOsRu6
_chemical_formula_sum   'Ho4 Al1 Os1 Ru6'
_cell_volume   214.72324753
_cell_formula_units_Z   1
loop_
 _symmetry_equiv_pos_site_id
 _symmetry_equiv_pos_as_xyz
  1  'x, y, z'
loop_
 _atom_site_type_symbol
 _atom_site_label
 _atom_site_symmetry_multiplicity
 _atom_site_fract_x
 _atom_site_fract_y
 _atom_site_fract_z
 _atom_site_occupancy
  Ho  Ho0  1  0.669121  0.337935  0.567422  1
  Ho  Ho1  1  0.331962  0.663776  0.436420  1
  Ho  Ho2  1  0.331962  0.663776  0.063580  1
  Ho  Ho3  1  0.669121  0.337935  0.932578  1
  Al  Al4  1  0.834899  0.669804  0.250000  1
  Os  Os5  1  0.160470  0.320543  0.750000  1
  Ru  Ru6  1  0.007601  0.014813  0.500370  1
  Ru  Ru7  1  0.007601  0.014813  0.999630  1
  Ru  Ru8  1  0.170395  0.818402  0.750000  1
  Ru  Ru9  1  0.646796  0.818580  0.750000  1
  Ru  Ru10  1  0.823784  0.170034  0.250000  1
  Ru  Ru11  1  0.346286  0.169588  0.250000  1
