# generated using pymatgen
data_Rb2TlAuSe13
_symmetry_space_group_name_H-M   'P 1'
_cell_length_a   5.27849600
_cell_length_b   13.95222953
_cell_length_c   15.81601300
_cell_angle_alpha   85.37509432
_cell_angle_beta   90.00000000
_cell_angle_gamma   90.00000000
_symmetry_Int_Tables_number   1
_chemical_formula_structural   Rb2TlAuSe13
_chemical_formula_sum   'Rb4 Tl2 Au2 Se26'
_cell_volume   1161.00587923
_cell_formula_units_Z   2
loop_
 _symmetry_equiv_pos_site_id
 _symmetry_equiv_pos_as_xyz
  1  'x, y, z'
loop_
 _atom_site_type_symbol
 _atom_site_label
 _atom_site_symmetry_multiplicity
 _atom_site_fract_x
 _atom_site_fract_y
 _atom_site_fract_z
 _atom_site_occupancy
  Rb  Rb0  1  0.225487  0.163247  0.721440  1
  Rb  Rb1  1  0.225487  0.336753  0.278560  1
  Rb  Rb2  1  0.774513  0.836753  0.278560  1
  Rb  Rb3  1  0.774513  0.663247  0.721440  1
  Tl  Tl4  1  0.114805  0.250000  0.000000  1
  Tl  Tl5  1  0.885195  0.750000  0.000000  1
  Au  Au6  1  0.000000  0.500000  0.500000  1
  Au  Au7  1  0.000000  0.000000  0.500000  1
  Se  Se8  1  0.287788  0.549918  0.616339  1
  Se  Se9  1  0.653264  0.575045  0.273458  1
  Se  Se10  1  0.346736  0.075045  0.273458  1
  Se  Se11  1  0.346736  0.424955  0.726542  1
  Se  Se12  1  0.917303  0.534752  0.156976  1
  Se  Se13  1  0.917303  0.965248  0.843024  1
  Se  Se14  1  0.082697  0.465248  0.843024  1
  Se  Se15  1  0.082697  0.034752  0.156976  1
  Se  Se16  1  0.672953  0.423961  0.083459  1
  Se  Se17  1  0.653264  0.924955  0.726542  1
  Se  Se18  1  0.327047  0.576039  0.916541  1
  Se  Se19  1  0.327047  0.923961  0.083459  1
  Se  Se20  1  0.719032  0.265346  0.146386  1
  Se  Se21  1  0.719032  0.234654  0.853614  1
  Se  Se22  1  0.280968  0.734654  0.853614  1
  Se  Se23  1  0.280968  0.765346  0.146386  1
  Se  Se24  1  0.090476  0.657922  0.415821  1
  Se  Se25  1  0.090476  0.842078  0.584179  1
  Se  Se26  1  0.909524  0.342078  0.584179  1
  Se  Se27  1  0.909524  0.157922  0.415821  1
  Se  Se28  1  0.643761  0.250000  0.500000  1
  Se  Se29  1  0.356239  0.750000  0.500000  1
  Se  Se30  1  0.712212  0.450082  0.383661  1
  Se  Se31  1  0.712212  0.049918  0.616339  1
  Se  Se32  1  0.672953  0.076039  0.916541  1
  Se  Se33  1  0.287788  0.950082  0.383661  1
