# generated using pymatgen
data_YbSmRe7Si4Mo
_symmetry_space_group_name_H-M   'P 1'
_cell_length_a   7.73682514
_cell_length_b   7.07178315
_cell_length_c   4.20760100
_cell_angle_alpha   90.00000000
_cell_angle_beta   90.00000000
_cell_angle_gamma   90.56298869
_symmetry_Int_Tables_number   1
_chemical_formula_structural   YbSmRe7Si4Mo
_chemical_formula_sum   'Yb1 Sm1 Re7 Si4 Mo1'
_cell_volume   230.19998989
_cell_formula_units_Z   1
loop_
 _symmetry_equiv_pos_site_id
 _symmetry_equiv_pos_as_xyz
  1  'x, y, z'
loop_
 _atom_site_type_symbol
 _atom_site_label
 _atom_site_symmetry_multiplicity
 _atom_site_fract_x
 _atom_site_fract_y
 _atom_site_fract_z
 _atom_site_occupancy
  Yb  Yb0  1  0.500820  0.499876  0.000000  1
  Sm  Sm1  1  0.000073  0.001744  0.500000  1
  Re  Re2  1  0.609111  0.155339  0.500000  1
  Re  Re3  1  0.391805  0.842685  0.500000  1
  Re  Re4  1  0.889129  0.655948  0.000000  1
  Re  Re5  1  0.159842  0.583264  0.500000  1
  Re  Re6  1  0.836235  0.418271  0.500000  1
  Re  Re7  1  0.344330  0.080177  0.000000  1
  Re  Re8  1  0.658331  0.916377  0.000000  1
  Si  Si9  1  0.688585  0.722514  0.500000  1
  Si  Si10  1  0.312871  0.277093  0.500000  1
  Si  Si11  1  0.192780  0.771597  0.000000  1
  Si  Si12  1  0.804711  0.227468  0.000000  1
  Mo  Mo13  1  0.111377  0.347647  0.000000  1
