# generated using pymatgen
data_CaReB3
_symmetry_space_group_name_H-M   'P 1'
_cell_length_a   3.11278100
_cell_length_b   5.44358536
_cell_length_c   6.79756109
_cell_angle_alpha   76.18082345
_cell_angle_beta   90.00000000
_cell_angle_gamma   90.00000000
_symmetry_Int_Tables_number   1
_chemical_formula_structural   CaReB3
_chemical_formula_sum   'Ca2 Re2 B6'
_cell_volume   111.84852978
_cell_formula_units_Z   2
loop_
 _symmetry_equiv_pos_site_id
 _symmetry_equiv_pos_as_xyz
  1  'x, y, z'
loop_
 _atom_site_type_symbol
 _atom_site_label
 _atom_site_symmetry_multiplicity
 _atom_site_fract_x
 _atom_site_fract_y
 _atom_site_fract_z
 _atom_site_occupancy
  Ca  Ca0  1  0.750000  0.836354  0.704246  1
  Ca  Ca1  1  0.250000  0.163646  0.295754  1
  Re  Re2  1  0.750000  0.680634  0.218201  1
  Re  Re3  1  0.250000  0.319366  0.781799  1
  B  B4  1  0.250000  0.574711  0.470184  1
  B  B5  1  0.750000  0.425289  0.529816  1
  B  B6  1  0.250000  0.591446  0.992468  1
  B  B7  1  0.750000  0.408554  0.007532  1
  B  B8  1  0.250000  0.914226  0.989977  1
  B  B9  1  0.750000  0.085774  0.010023  1
