# generated using pymatgen
data_PrU8O18
_symmetry_space_group_name_H-M   'P 1'
_cell_length_a   6.65470951
_cell_length_b   6.66102765
_cell_length_c   8.60185084
_cell_angle_alpha   82.60307531
_cell_angle_beta   75.06790102
_cell_angle_gamma   80.45159153
_symmetry_Int_Tables_number   1
_chemical_formula_structural   PrU8O18
_chemical_formula_sum   'Pr1 U8 O18'
_cell_volume   361.83336831
_cell_formula_units_Z   1
loop_
 _symmetry_equiv_pos_site_id
 _symmetry_equiv_pos_as_xyz
  1  'x, y, z'
loop_
 _atom_site_type_symbol
 _atom_site_label
 _atom_site_symmetry_multiplicity
 _atom_site_fract_x
 _atom_site_fract_y
 _atom_site_fract_z
 _atom_site_occupancy
  Pr  Pr0  1  0.000000  0.000000  0.500000  1
  U  U1  1  0.333853  0.666825  0.166391  1
  U  U2  1  0.777079  0.555966  0.389130  1
  U  U3  1  0.111839  0.223417  0.053998  1
  U  U4  1  0.666147  0.333175  0.833609  1
  U  U5  1  0.222921  0.444034  0.610870  1
  U  U6  1  0.556151  0.111993  0.276606  1
  U  U7  1  0.888161  0.776583  0.946002  1
  U  U8  1  0.443849  0.888007  0.723394  1
  O  O9  1  0.581988  0.664434  0.916453  1
  O  O10  1  0.030128  0.557077  0.135576  1
  O  O11  1  0.418012  0.335566  0.083547  1
  O  O12  1  0.088346  0.654652  0.410626  1
  O  O13  1  0.806190  0.109500  0.027926  1
  O  O14  1  0.473230  0.448147  0.360508  1
  O  O15  1  0.855810  0.231461  0.298017  1
  O  O16  1  0.526770  0.551853  0.639492  1
  O  O17  1  0.261503  0.000757  0.240290  1
  O  O18  1  0.911654  0.345348  0.589374  1
  O  O19  1  0.193810  0.890500  0.972074  1
  O  O20  1  0.738497  0.999243  0.759710  1
  O  O21  1  0.683309  0.880658  0.470333  1
  O  O22  1  0.357488  0.224625  0.808843  1
  O  O23  1  0.642512  0.775375  0.191157  1
  O  O24  1  0.316691  0.119342  0.529667  1
  O  O25  1  0.969872  0.442923  0.864424  1
  O  O26  1  0.144190  0.768539  0.701983  1
