# generated using pymatgen
data_SmDyAl5(Fe6C)2
_symmetry_space_group_name_H-M   'P 1'
_cell_length_a   6.59523311
_cell_length_b   6.59523335
_cell_length_c   6.53326815
_cell_angle_alpha   83.66172918
_cell_angle_beta   83.66173281
_cell_angle_gamma   84.02539428
_symmetry_Int_Tables_number   1
_chemical_formula_structural   SmDyAl5(Fe6C)2
_chemical_formula_sum   'Sm1 Dy1 Al5 Fe12 C2'
_cell_volume   279.49725903
_cell_formula_units_Z   1
loop_
 _symmetry_equiv_pos_site_id
 _symmetry_equiv_pos_as_xyz
  1  'x, y, z'
loop_
 _atom_site_type_symbol
 _atom_site_label
 _atom_site_symmetry_multiplicity
 _atom_site_fract_x
 _atom_site_fract_y
 _atom_site_fract_z
 _atom_site_occupancy
  Sm  Sm0  1  0.655913  0.655913  0.655780  1
  Dy  Dy1  1  0.341939  0.341939  0.344351  1
  Al  Al2  1  0.663764  0.663764  0.155192  1
  Al  Al3  1  0.335272  0.335272  0.846986  1
  Al  Al4  1  0.999662  0.999662  0.499607  1
  Al  Al5  1  0.728494  0.271555  0.000208  1
  Al  Al6  1  0.271555  0.728494  0.000208  1
  Fe  Fe7  1  0.656074  0.144833  0.657847  1
  Fe  Fe8  1  0.144833  0.656074  0.657847  1
  Fe  Fe9  1  0.343218  0.856857  0.341735  1
  Fe  Fe10  1  0.856857  0.343218  0.341735  1
  Fe  Fe11  1  0.097121  0.097121  0.093589  1
  Fe  Fe12  1  0.903697  0.903697  0.907334  1
  Fe  Fe13  1  0.000061  0.499491  0.000365  1
  Fe  Fe14  1  0.499491  0.000061  0.000365  1
  Fe  Fe15  1  0.286987  0.000432  0.710340  1
  Fe  Fe16  1  0.000963  0.711719  0.289635  1
  Fe  Fe17  1  0.711719  0.000963  0.289635  1
  Fe  Fe18  1  0.000432  0.286987  0.710340  1
  C  C19  1  0.497814  0.004134  0.498451  1
  C  C20  1  0.004134  0.497814  0.498451  1
