# generated using pymatgen
data_Rb3Lu(AsSe2)6
_symmetry_space_group_name_H-M   'P 1'
_cell_length_a   9.87628400
_cell_length_b   9.87628414
_cell_length_c   8.41191000
_cell_angle_alpha   90.00000000
_cell_angle_beta   90.00000000
_cell_angle_gamma   119.99999953
_symmetry_Int_Tables_number   1
_chemical_formula_structural   Rb3Lu(AsSe2)6
_chemical_formula_sum   'Rb3 Lu1 As6 Se12'
_cell_volume   710.57904691
_cell_formula_units_Z   1
loop_
 _symmetry_equiv_pos_site_id
 _symmetry_equiv_pos_as_xyz
  1  'x, y, z'
loop_
 _atom_site_type_symbol
 _atom_site_label
 _atom_site_symmetry_multiplicity
 _atom_site_fract_x
 _atom_site_fract_y
 _atom_site_fract_z
 _atom_site_occupancy
  Rb  Rb0  1  0.000000  0.000000  0.000000  1
  Rb  Rb1  1  0.333333  0.666667  0.841615  1
  Rb  Rb2  1  0.666667  0.333333  0.158385  1
  Lu  Lu3  1  0.000000  0.000000  0.500000  1
  As  As4  1  0.290641  0.838060  0.373565  1
  As  As5  1  0.161940  0.452581  0.373565  1
  As  As6  1  0.547419  0.709359  0.373565  1
  As  As7  1  0.709359  0.161940  0.626435  1
  As  As8  1  0.838060  0.547419  0.626435  1
  As  As9  1  0.452581  0.290641  0.626435  1
  Se  Se10  1  0.260553  0.056253  0.305442  1
  Se  Se11  1  0.943747  0.204301  0.305442  1
  Se  Se12  1  0.795699  0.739447  0.305442  1
  Se  Se13  1  0.739447  0.943747  0.694558  1
  Se  Se14  1  0.056253  0.795699  0.694558  1
  Se  Se15  1  0.204301  0.260553  0.694558  1
  Se  Se16  1  0.528296  0.907438  0.211968  1
  Se  Se17  1  0.092562  0.620857  0.211968  1
  Se  Se18  1  0.379143  0.471704  0.211968  1
  Se  Se19  1  0.471704  0.092562  0.788032  1
  Se  Se20  1  0.907438  0.379143  0.788032  1
  Se  Se21  1  0.620857  0.528296  0.788032  1
