# generated using pymatgen
data_Rb2Hf(OF3)2
_symmetry_space_group_name_H-M   'P 1'
_cell_length_a   6.61123226
_cell_length_b   6.60998705
_cell_length_c   5.81557900
_cell_angle_alpha   82.34145800
_cell_angle_beta   82.21021829
_cell_angle_gamma   86.87966276
_symmetry_Int_Tables_number   1
_chemical_formula_structural   Rb2Hf(OF3)2
_chemical_formula_sum   'Rb2 Hf1 O2 F6'
_cell_volume   249.37922676
_cell_formula_units_Z   1
loop_
 _symmetry_equiv_pos_site_id
 _symmetry_equiv_pos_as_xyz
  1  'x, y, z'
loop_
 _atom_site_type_symbol
 _atom_site_label
 _atom_site_symmetry_multiplicity
 _atom_site_fract_x
 _atom_site_fract_y
 _atom_site_fract_z
 _atom_site_occupancy
  Rb  Rb0  1  0.500000  0.000000  0.500000  1
  Rb  Rb1  1  0.000000  0.500000  0.500000  1
  Hf  Hf2  1  0.000000  0.000000  0.000000  1
  O  O3  1  0.459218  0.459395  0.094822  1
  O  O4  1  0.540782  0.540605  0.905178  1
  F  F5  1  0.207847  0.893613  0.214133  1
  F  F6  1  0.892724  0.207840  0.214699  1
  F  F7  1  0.792153  0.106387  0.785867  1
  F  F8  1  0.107276  0.792160  0.785301  1
  F  F9  1  0.801443  0.800914  0.191717  1
  F  F10  1  0.198557  0.199086  0.808283  1
