# generated using pymatgen
data_NaCaPa2Cl12
_symmetry_space_group_name_H-M   'P 1'
_cell_length_a   6.79619900
_cell_length_b   6.79619900
_cell_length_c   11.16722000
_cell_angle_alpha   90.00000000
_cell_angle_beta   90.00000000
_cell_angle_gamma   90.00000000
_symmetry_Int_Tables_number   1
_chemical_formula_structural   NaCaPa2Cl12
_chemical_formula_sum   'Na1 Ca1 Pa2 Cl12'
_cell_volume   515.79514034
_cell_formula_units_Z   1
loop_
 _symmetry_equiv_pos_site_id
 _symmetry_equiv_pos_as_xyz
  1  'x, y, z'
loop_
 _atom_site_type_symbol
 _atom_site_label
 _atom_site_symmetry_multiplicity
 _atom_site_fract_x
 _atom_site_fract_y
 _atom_site_fract_z
 _atom_site_occupancy
  Na  Na0  1  0.000000  0.000000  0.250000  1
  Ca  Ca1  1  0.000000  0.000000  0.750000  1
  Pa  Pa2  1  0.500000  0.000000  0.501555  1
  Pa  Pa3  1  0.000000  0.500000  0.998445  1
  Cl  Cl4  1  0.785544  0.183768  0.981647  1
  Cl  Cl5  1  0.816232  0.785544  0.518353  1
  Cl  Cl6  1  0.183768  0.214456  0.518353  1
  Cl  Cl7  1  0.214456  0.816232  0.981647  1
  Cl  Cl8  1  0.207539  0.330197  0.161709  1
  Cl  Cl9  1  0.677092  0.209949  0.669771  1
  Cl  Cl10  1  0.322908  0.790051  0.669771  1
  Cl  Cl11  1  0.792461  0.669803  0.161709  1
  Cl  Cl12  1  0.790051  0.677092  0.830229  1
  Cl  Cl13  1  0.330197  0.792461  0.338291  1
  Cl  Cl14  1  0.669803  0.207539  0.338291  1
  Cl  Cl15  1  0.209949  0.322908  0.830229  1
