# generated using pymatgen
data_Mn28V
_symmetry_space_group_name_H-M   'P 1'
_cell_length_a   7.48303811
_cell_length_b   7.48303807
_cell_length_c   7.48303800
_cell_angle_alpha   109.47122043
_cell_angle_beta   109.47122034
_cell_angle_gamma   109.47122102
_symmetry_Int_Tables_number   1
_chemical_formula_structural   Mn28V
_chemical_formula_sum   'Mn28 V1'
_cell_volume   322.56108583
_cell_formula_units_Z   1
loop_
 _symmetry_equiv_pos_site_id
 _symmetry_equiv_pos_as_xyz
  1  'x, y, z'
loop_
 _atom_site_type_symbol
 _atom_site_label
 _atom_site_symmetry_multiplicity
 _atom_site_fract_x
 _atom_site_fract_y
 _atom_site_fract_z
 _atom_site_occupancy
  Mn  Mn0  1  0.632197  0.000000  0.000000  1
  Mn  Mn1  1  0.000000  0.632197  0.000000  1
  Mn  Mn2  1  0.000000  0.000000  0.632197  1
  Mn  Mn3  1  0.367803  0.367803  0.367803  1
  Mn  Mn4  1  0.391536  0.679121  0.000000  1
  Mn  Mn5  1  0.712416  0.320879  0.320879  1
  Mn  Mn6  1  0.391536  0.000000  0.679121  1
  Mn  Mn7  1  0.679121  0.391536  0.000000  1
  Mn  Mn8  1  0.000000  0.391536  0.679121  1
  Mn  Mn9  1  0.320879  0.712416  0.320879  1
  Mn  Mn10  1  0.320879  0.320879  0.712416  1
  Mn  Mn11  1  0.000000  0.679121  0.391536  1
  Mn  Mn12  1  0.679121  0.000000  0.391536  1
  Mn  Mn13  1  0.608464  0.608464  0.287584  1
  Mn  Mn14  1  0.287584  0.608464  0.608464  1
  Mn  Mn15  1  0.608464  0.287584  0.608464  1
  Mn  Mn16  1  0.371932  0.194097  0.000000  1
  Mn  Mn17  1  0.177835  0.805903  0.805903  1
  Mn  Mn18  1  0.371932  0.000000  0.194097  1
  Mn  Mn19  1  0.194097  0.371932  0.000000  1
  Mn  Mn20  1  0.000000  0.371932  0.194097  1
  Mn  Mn21  1  0.805903  0.177835  0.805903  1
  Mn  Mn22  1  0.805903  0.805903  0.177835  1
  Mn  Mn23  1  0.000000  0.194097  0.371932  1
  Mn  Mn24  1  0.194097  0.000000  0.371932  1
  Mn  Mn25  1  0.628068  0.628068  0.822165  1
  Mn  Mn26  1  0.822165  0.628068  0.628068  1
  Mn  Mn27  1  0.628068  0.822165  0.628068  1
  V  V28  1  0.000000  0.000000  0.000000  1
