# generated using pymatgen
data_SmGd3(WN3)4
_symmetry_space_group_name_H-M   'P 1'
_cell_length_a   7.39742914
_cell_length_b   7.39742976
_cell_length_c   6.35145323
_cell_angle_alpha   74.02751787
_cell_angle_beta   74.02751459
_cell_angle_gamma   82.39592822
_symmetry_Int_Tables_number   1
_chemical_formula_structural   SmGd3(WN3)4
_chemical_formula_sum   'Sm1 Gd3 W4 N12'
_cell_volume   320.64285837
_cell_formula_units_Z   1
loop_
 _symmetry_equiv_pos_site_id
 _symmetry_equiv_pos_as_xyz
  1  'x, y, z'
loop_
 _atom_site_type_symbol
 _atom_site_label
 _atom_site_symmetry_multiplicity
 _atom_site_fract_x
 _atom_site_fract_y
 _atom_site_fract_z
 _atom_site_occupancy
  Sm  Sm0  1  0.706184  0.293816  0.750000  1
  Gd  Gd1  1  0.091579  0.908421  0.750000  1
  Gd  Gd2  1  0.291927  0.708073  0.250000  1
  Gd  Gd3  1  0.909386  0.090614  0.250000  1
  W  W4  1  0.379162  0.201535  0.231739  1
  W  W5  1  0.620192  0.798226  0.769290  1
  W  W6  1  0.798465  0.620838  0.268261  1
  W  W7  1  0.201774  0.379808  0.730710  1
  N  N8  1  0.621762  0.114439  0.159878  1
  N  N9  1  0.349266  0.358854  0.441187  1
  N  N10  1  0.003483  0.219221  0.846580  1
  N  N11  1  0.377569  0.885628  0.843624  1
  N  N12  1  0.780779  0.996517  0.653420  1
  N  N13  1  0.114372  0.622431  0.656376  1
  N  N14  1  0.885561  0.378238  0.340122  1
  N  N15  1  0.651000  0.642316  0.557912  1
  N  N16  1  0.641146  0.650734  0.058813  1
  N  N17  1  0.357684  0.349000  0.942088  1
  N  N18  1  0.998510  0.779804  0.153672  1
  N  N19  1  0.220196  0.001490  0.346328  1
