# generated using pymatgen
data_Ho15Er5(Bi2Pt)4
_symmetry_space_group_name_H-M   'P 1'
_cell_length_a   8.04887409
_cell_length_b   9.01374902
_cell_length_c   12.38063114
_cell_angle_alpha   89.99375668
_cell_angle_beta   89.98398529
_cell_angle_gamma   90.00492811
_symmetry_Int_Tables_number   1
_chemical_formula_structural   Ho15Er5(Bi2Pt)4
_chemical_formula_sum   'Ho15 Er5 Bi8 Pt4'
_cell_volume   898.22131852
_cell_formula_units_Z   1
loop_
 _symmetry_equiv_pos_site_id
 _symmetry_equiv_pos_as_xyz
  1  'x, y, z'
loop_
 _atom_site_type_symbol
 _atom_site_label
 _atom_site_symmetry_multiplicity
 _atom_site_fract_x
 _atom_site_fract_y
 _atom_site_fract_z
 _atom_site_occupancy
  Ho  Ho0  1  0.164400  0.749884  0.209824  1
  Ho  Ho1  1  0.335428  0.750115  0.710044  1
  Ho  Ho2  1  0.835615  0.250067  0.790075  1
  Ho  Ho3  1  0.664455  0.250188  0.290147  1
  Ho  Ho4  1  0.449109  0.749813  0.000176  1
  Ho  Ho5  1  0.050480  0.749904  0.500288  1
  Ho  Ho6  1  0.550212  0.250361  0.999690  1
  Ho  Ho7  1  0.949626  0.249938  0.499759  1
  Ho  Ho8  1  0.626989  0.750050  0.303341  1
  Ho  Ho9  1  0.873231  0.749839  0.803407  1
  Ho  Ho10  1  0.373073  0.250082  0.696828  1
  Ho  Ho11  1  0.127185  0.250201  0.196553  1
  Ho  Ho12  1  0.321880  0.046800  0.433307  1
  Ho  Ho13  1  0.821898  0.953350  0.066569  1
  Ho  Ho14  1  0.678110  0.546828  0.566794  1
  Er  Er15  1  0.823065  0.547367  0.066492  1
  Er  Er16  1  0.677072  0.952699  0.566527  1
  Er  Er17  1  0.177072  0.047197  0.933331  1
  Er  Er18  1  0.322938  0.452708  0.433527  1
  Er  Er19  1  0.177016  0.452751  0.933335  1
  Bi  Bi20  1  0.932902  0.510126  0.327268  1
  Bi  Bi21  1  0.567221  0.989935  0.827311  1
  Bi  Bi22  1  0.067192  0.010142  0.672728  1
  Bi  Bi23  1  0.433062  0.489941  0.172836  1
  Bi  Bi24  1  0.067610  0.489794  0.672799  1
  Bi  Bi25  1  0.432597  0.010212  0.172620  1
  Bi  Bi26  1  0.932573  0.989904  0.327226  1
  Bi  Bi27  1  0.567024  0.510147  0.827422  1
  Pt  Pt28  1  0.423154  0.749584  0.488790  1
  Pt  Pt29  1  0.077189  0.749811  0.988606  1
  Pt  Pt30  1  0.576837  0.249596  0.511337  1
  Pt  Pt31  1  0.923783  0.250668  0.011043  1
