# generated using pymatgen
data_Hf3Sc3(Be2Ir5)2
_symmetry_space_group_name_H-M   'P 1'
_cell_length_a   9.61721570
_cell_length_b   9.61721570
_cell_length_c   3.20891500
_cell_angle_alpha   90.00000000
_cell_angle_beta   90.00000000
_cell_angle_gamma   90.08587324
_symmetry_Int_Tables_number   1
_chemical_formula_structural   Hf3Sc3(Be2Ir5)2
_chemical_formula_sum   'Hf3 Sc3 Be4 Ir10'
_cell_volume   296.79490352
_cell_formula_units_Z   1
loop_
 _symmetry_equiv_pos_site_id
 _symmetry_equiv_pos_as_xyz
  1  'x, y, z'
loop_
 _atom_site_type_symbol
 _atom_site_label
 _atom_site_symmetry_multiplicity
 _atom_site_fract_x
 _atom_site_fract_y
 _atom_site_fract_z
 _atom_site_occupancy
  Hf  Hf0  1  0.499117  0.498027  0.000000  1
  Hf  Hf1  1  0.675233  0.824767  0.000000  1
  Hf  Hf2  1  0.001973  0.000883  0.000000  1
  Sc  Sc3  1  0.175613  0.674549  0.000000  1
  Sc  Sc4  1  0.323737  0.176263  0.000000  1
  Sc  Sc5  1  0.825451  0.324387  0.000000  1
  Be  Be6  1  0.377772  0.878933  0.000000  1
  Be  Be7  1  0.120757  0.379243  0.000000  1
  Be  Be8  1  0.880423  0.619577  0.000000  1
  Be  Be9  1  0.621067  0.122228  0.000000  1
  Ir  Ir10  1  0.217191  0.928451  0.500000  1
  Ir  Ir11  1  0.925301  0.785035  0.500000  1
  Ir  Ir12  1  0.432820  0.716779  0.500000  1
  Ir  Ir13  1  0.571549  0.282809  0.500000  1
  Ir  Ir14  1  0.714965  0.574699  0.500000  1
  Ir  Ir15  1  0.282923  0.430046  0.500000  1
  Ir  Ir16  1  0.069954  0.217077  0.500000  1
  Ir  Ir17  1  0.999263  0.500737  0.500000  1
  Ir  Ir18  1  0.501671  0.998329  0.500000  1
  Ir  Ir19  1  0.783221  0.067180  0.500000  1
