# generated using pymatgen
data_Tb2YIn3Pd2Au
_symmetry_space_group_name_H-M   'P 1'
_cell_length_a   7.87877702
_cell_length_b   7.87874604
_cell_length_c   3.78742600
_cell_angle_alpha   90.00000000
_cell_angle_beta   90.00000000
_cell_angle_gamma   119.99155271
_symmetry_Int_Tables_number   1
_chemical_formula_structural   Tb2YIn3Pd2Au
_chemical_formula_sum   'Tb2 Y1 In3 Pd2 Au1'
_cell_volume   203.62338867
_cell_formula_units_Z   1
loop_
 _symmetry_equiv_pos_site_id
 _symmetry_equiv_pos_as_xyz
  1  'x, y, z'
loop_
 _atom_site_type_symbol
 _atom_site_label
 _atom_site_symmetry_multiplicity
 _atom_site_fract_x
 _atom_site_fract_y
 _atom_site_fract_z
 _atom_site_occupancy
  Tb  Tb0  1  0.401844  0.410822  0.500000  1
  Tb  Tb1  1  0.008962  0.598179  0.500000  1
  Y  Y2  1  0.589324  0.991093  0.500000  1
  In  In3  1  0.737818  0.741135  0.000000  1
  In  In4  1  0.259071  0.996787  0.000000  1
  In  In5  1  0.003151  0.262106  0.000000  1
  Pd  Pd6  1  0.000001  0.999993  0.500000  1
  Pd  Pd7  1  0.333196  0.666546  0.000000  1
  Au  Au8  1  0.666631  0.333342  0.000000  1
