# generated using pymatgen
data_K3B2Pt6Pb
_symmetry_space_group_name_H-M   'P 1'
_cell_length_a   8.41187018
_cell_length_b   8.41187010
_cell_length_c   8.41186815
_cell_angle_alpha   40.51060802
_cell_angle_beta   40.51060602
_cell_angle_gamma   40.51060878
_symmetry_Int_Tables_number   1
_chemical_formula_structural   K3B2Pt6Pb
_chemical_formula_sum   'K3 B2 Pt6 Pb1'
_cell_volume   226.52753284
_cell_formula_units_Z   1
loop_
 _symmetry_equiv_pos_site_id
 _symmetry_equiv_pos_as_xyz
  1  'x, y, z'
loop_
 _atom_site_type_symbol
 _atom_site_label
 _atom_site_symmetry_multiplicity
 _atom_site_fract_x
 _atom_site_fract_y
 _atom_site_fract_z
 _atom_site_occupancy
  K  K0  1  0.861972  0.861972  0.861972  1
  K  K1  1  0.138028  0.138028  0.138028  1
  K  K2  1  0.000000  0.000000  0.000000  1
  B  B3  1  0.668361  0.668361  0.668361  1
  B  B4  1  0.331639  0.331639  0.331639  1
  Pt  Pt5  1  0.438353  0.938146  0.438353  1
  Pt  Pt6  1  0.438353  0.438353  0.938146  1
  Pt  Pt7  1  0.938146  0.438353  0.438353  1
  Pt  Pt8  1  0.561647  0.061854  0.561647  1
  Pt  Pt9  1  0.561647  0.561647  0.061854  1
  Pt  Pt10  1  0.061854  0.561647  0.561647  1
  Pb  Pb11  1  0.500000  0.500000  0.500000  1
