# generated using pymatgen
data_Nd4ErTm3(ReB6)4
_symmetry_space_group_name_H-M   'P 1'
_cell_length_a   3.71108700
_cell_length_b   9.21632401
_cell_length_c   11.67962300
_cell_angle_alpha   90.00291592
_cell_angle_beta   90.00000000
_cell_angle_gamma   90.00000000
_symmetry_Int_Tables_number   1
_chemical_formula_structural   Nd4ErTm3(ReB6)4
_chemical_formula_sum   'Nd4 Er1 Tm3 Re4 B24'
_cell_volume   399.47324212
_cell_formula_units_Z   1
loop_
 _symmetry_equiv_pos_site_id
 _symmetry_equiv_pos_as_xyz
  1  'x, y, z'
loop_
 _atom_site_type_symbol
 _atom_site_label
 _atom_site_symmetry_multiplicity
 _atom_site_fract_x
 _atom_site_fract_y
 _atom_site_fract_z
 _atom_site_occupancy
  Nd  Nd0  1  0.000000  0.322545  0.414311  1
  Nd  Nd1  1  0.000000  0.677372  0.585760  1
  Nd  Nd2  1  0.000000  0.822496  0.085626  1
  Nd  Nd3  1  0.000000  0.177506  0.914261  1
  Er  Er4  1  0.000000  0.943201  0.369806  1
  Tm  Tm5  1  0.000000  0.056955  0.630657  1
  Tm  Tm6  1  0.000000  0.443144  0.130240  1
  Tm  Tm7  1  0.000000  0.556895  0.869628  1
  Re  Re8  1  0.000000  0.639365  0.318873  1
  Re  Re9  1  0.000000  0.360298  0.681136  1
  Re  Re10  1  0.000000  0.140018  0.180786  1
  Re  Re11  1  0.000000  0.860196  0.818993  1
  B  B12  1  0.500000  0.554904  0.430250  1
  B  B13  1  0.500000  0.444783  0.569811  1
  B  B14  1  0.500000  0.055216  0.069597  1
  B  B15  1  0.500000  0.944858  0.930239  1
  B  B16  1  0.500000  0.750111  0.415780  1
  B  B17  1  0.500000  0.249376  0.584259  1
  B  B18  1  0.500000  0.250753  0.084040  1
  B  B19  1  0.500000  0.749366  0.915832  1
  B  B20  1  0.500000  0.791655  0.265945  1
  B  B21  1  0.500000  0.208038  0.734022  1
  B  B22  1  0.500000  0.292223  0.233854  1
  B  B23  1  0.500000  0.707956  0.766058  1
  B  B24  1  0.500000  0.629061  0.185822  1
  B  B25  1  0.500000  0.370852  0.814096  1
  B  B26  1  0.500000  0.129540  0.313812  1
  B  B27  1  0.500000  0.870798  0.686004  1
  B  B28  1  0.500000  0.983660  0.213329  1
  B  B29  1  0.500000  0.016538  0.786480  1
  B  B30  1  0.500000  0.483267  0.286326  1
  B  B31  1  0.500000  0.516604  0.713605  1
  B  B32  1  0.500000  0.595447  0.026294  1
  B  B33  1  0.500000  0.404602  0.973602  1
  B  B34  1  0.500000  0.095865  0.474055  1
  B  B35  1  0.500000  0.904534  0.526809  1
