# generated using pymatgen
data_TiBi6(IrO9)2
_symmetry_space_group_name_H-M   'P 1'
_cell_length_a   9.25741400
_cell_length_b   9.25741216
_cell_length_c   5.23338300
_cell_angle_alpha   90.00000000
_cell_angle_beta   90.00000000
_cell_angle_gamma   119.99999514
_symmetry_Int_Tables_number   1
_chemical_formula_structural   TiBi6(IrO9)2
_chemical_formula_sum   'Ti1 Bi6 Ir2 O18'
_cell_volume   388.41183865
_cell_formula_units_Z   1
loop_
 _symmetry_equiv_pos_site_id
 _symmetry_equiv_pos_as_xyz
  1  'x, y, z'
loop_
 _atom_site_type_symbol
 _atom_site_label
 _atom_site_symmetry_multiplicity
 _atom_site_fract_x
 _atom_site_fract_y
 _atom_site_fract_z
 _atom_site_occupancy
  Ti  Ti0  1  0.666667  0.333333  0.011006  1
  Bi  Bi1  1  0.984628  0.370630  0.506874  1
  Bi  Bi2  1  0.290928  0.290267  0.000709  1
  Bi  Bi3  1  0.999337  0.709072  0.000709  1
  Bi  Bi4  1  0.629370  0.613998  0.506874  1
  Bi  Bi5  1  0.386002  0.015372  0.506874  1
  Bi  Bi6  1  0.709733  0.000663  0.000709  1
  Ir  Ir7  1  0.000000  0.000000  0.497657  1
  Ir  Ir8  1  0.333333  0.666667  0.004265  1
  O  O9  1  0.079793  0.197446  0.709623  1
  O  O10  1  0.222977  0.466271  0.212463  1
  O  O11  1  0.134217  0.595253  0.790565  1
  O  O12  1  0.404747  0.538964  0.790565  1
  O  O13  1  0.243295  0.777023  0.212463  1
  O  O14  1  0.117652  0.920207  0.709623  1
  O  O15  1  0.533729  0.756705  0.212463  1
  O  O16  1  0.198553  0.076886  0.280580  1
  O  O17  1  0.461036  0.865783  0.790565  1
  O  O18  1  0.802554  0.882348  0.709623  1
  O  O19  1  0.462424  0.235853  0.778664  1
  O  O20  1  0.599217  0.134570  0.216211  1
  O  O21  1  0.535353  0.400783  0.216211  1
  O  O22  1  0.764147  0.226571  0.778664  1
  O  O23  1  0.923114  0.121667  0.280580  1
  O  O24  1  0.773429  0.537576  0.778664  1
  O  O25  1  0.865430  0.464647  0.216211  1
  O  O26  1  0.878333  0.801447  0.280580  1
