# generated using pymatgen
data_Nd2Lu(TaSn)18
_symmetry_space_group_name_H-M   'P 1'
_cell_length_a   5.79130153
_cell_length_b   9.64995150
_cell_length_c   16.01036900
_cell_angle_alpha   107.53797747
_cell_angle_beta   100.27734041
_cell_angle_gamma   90.05213339
_symmetry_Int_Tables_number   1
_chemical_formula_structural   Nd2Lu(TaSn)18
_chemical_formula_sum   'Nd2 Lu1 Ta18 Sn18'
_cell_volume   838.04665103
_cell_formula_units_Z   1
loop_
 _symmetry_equiv_pos_site_id
 _symmetry_equiv_pos_as_xyz
  1  'x, y, z'
loop_
 _atom_site_type_symbol
 _atom_site_label
 _atom_site_symmetry_multiplicity
 _atom_site_fract_x
 _atom_site_fract_y
 _atom_site_fract_z
 _atom_site_occupancy
  Nd  Nd0  1  0.332263  0.831454  0.665801  1
  Nd  Nd1  1  0.666921  0.166691  0.334884  1
  Lu  Lu2  1  0.999624  0.999070  0.000337  1
  Ta  Ta3  1  0.165825  0.415314  0.333259  1
  Ta  Ta4  1  0.332447  0.832851  0.166480  1
  Ta  Ta5  1  0.666976  0.667658  0.834904  1
  Ta  Ta6  1  0.500070  0.750142  0.000228  1
  Ta  Ta7  1  0.166365  0.165803  0.834497  1
  Ta  Ta8  1  0.833758  0.331001  0.166198  1
  Ta  Ta9  1  0.832869  0.083088  0.667471  1
  Ta  Ta10  1  0.165440  0.667338  0.834415  1
  Ta  Ta11  1  0.499605  0.999124  0.500324  1
  Ta  Ta12  1  0.499210  0.248176  0.000386  1
  Ta  Ta13  1  0.999620  0.999112  0.500326  1
  Ta  Ta14  1  0.999641  0.499119  0.500324  1
  Ta  Ta15  1  0.832880  0.832488  0.166141  1
  Ta  Ta16  1  0.833471  0.582912  0.667368  1
  Ta  Ta17  1  0.332334  0.330658  0.165724  1
  Ta  Ta18  1  0.166349  0.915187  0.333177  1
  Ta  Ta19  1  0.666787  0.165471  0.834153  1
  Ta  Ta20  1  0.499647  0.499102  0.500315  1
  Sn  Sn21  1  0.999047  0.321953  0.000019  1
  Sn  Sn22  1  0.888965  0.888599  0.778797  1
  Sn  Sn23  1  0.110405  0.109721  0.221828  1
  Sn  Sn24  1  0.222125  0.221624  0.445167  1
  Sn  Sn25  1  0.443152  0.443965  0.889398  1
  Sn  Sn26  1  0.109200  0.608670  0.220240  1
  Sn  Sn27  1  0.778478  0.278498  0.558319  1
  Sn  Sn28  1  0.890218  0.389658  0.780421  1
  Sn  Sn29  1  0.220774  0.719684  0.442300  1
  Sn  Sn30  1  0.334241  0.494459  0.667742  1
  Sn  Sn31  1  0.555879  0.054186  0.110826  1
  Sn  Sn32  1  0.665056  0.503572  0.332887  1
  Sn  Sn33  1  0.443347  0.944063  0.889811  1
  Sn  Sn34  1  0.332101  0.171271  0.667508  1
  Sn  Sn35  1  0.776971  0.776651  0.555413  1
  Sn  Sn36  1  0.667206  0.827059  0.333188  1
  Sn  Sn37  1  0.555694  0.554461  0.111143  1
  Sn  Sn38  1  0.000295  0.676199  0.000643  1
