# generated using pymatgen
data_YbHo6Co6Sn23
_symmetry_space_group_name_H-M   'P 1'
_cell_length_a   9.70459700
_cell_length_b   9.70459579
_cell_length_c   9.94057500
_cell_angle_alpha   90.00000000
_cell_angle_beta   90.00000000
_cell_angle_gamma   119.99999391
_symmetry_Int_Tables_number   1
_chemical_formula_structural   YbHo6Co6Sn23
_chemical_formula_sum   'Yb1 Ho6 Co6 Sn23'
_cell_volume   810.76897379
_cell_formula_units_Z   1
loop_
 _symmetry_equiv_pos_site_id
 _symmetry_equiv_pos_as_xyz
  1  'x, y, z'
loop_
 _atom_site_type_symbol
 _atom_site_label
 _atom_site_symmetry_multiplicity
 _atom_site_fract_x
 _atom_site_fract_y
 _atom_site_fract_z
 _atom_site_occupancy
  Yb  Yb0  1  0.000000  0.000000  0.000000  1
  Ho  Ho1  1  0.521043  0.478957  0.693466  1
  Ho  Ho2  1  0.521043  0.042085  0.693466  1
  Ho  Ho3  1  0.957915  0.478957  0.693466  1
  Ho  Ho4  1  0.042085  0.521043  0.306534  1
  Ho  Ho5  1  0.478957  0.957915  0.306534  1
  Ho  Ho6  1  0.478957  0.521043  0.306534  1
  Co  Co7  1  0.168382  0.831618  0.801673  1
  Co  Co8  1  0.168382  0.336764  0.801673  1
  Co  Co9  1  0.663236  0.831618  0.801673  1
  Co  Co10  1  0.336764  0.168382  0.198327  1
  Co  Co11  1  0.831618  0.663236  0.198327  1
  Co  Co12  1  0.831618  0.168382  0.198327  1
  Sn  Sn13  1  0.666667  0.333333  0.182877  1
  Sn  Sn14  1  0.666667  0.333333  0.881385  1
  Sn  Sn15  1  0.333333  0.666667  0.118615  1
  Sn  Sn16  1  0.345797  0.345797  0.000000  1
  Sn  Sn17  1  0.000000  0.654203  0.000000  1
  Sn  Sn18  1  0.654203  0.000000  0.000000  1
  Sn  Sn19  1  0.654203  0.654203  0.000000  1
  Sn  Sn20  1  0.333333  0.666667  0.817123  1
  Sn  Sn21  1  0.437038  0.218519  0.451935  1
  Sn  Sn22  1  0.218519  0.781481  0.548065  1
  Sn  Sn23  1  0.218519  0.437038  0.548065  1
  Sn  Sn24  1  0.562962  0.781481  0.548065  1
  Sn  Sn25  1  0.117376  0.882624  0.273626  1
  Sn  Sn26  1  0.781481  0.562962  0.451935  1
  Sn  Sn27  1  0.781481  0.218519  0.451935  1
  Sn  Sn28  1  0.345797  0.000000  0.000000  1
  Sn  Sn29  1  0.117376  0.234751  0.273626  1
  Sn  Sn30  1  0.765249  0.882624  0.273626  1
  Sn  Sn31  1  0.234751  0.117376  0.726374  1
  Sn  Sn32  1  0.882624  0.765249  0.726374  1
  Sn  Sn33  1  0.882624  0.117376  0.726374  1
  Sn  Sn34  1  0.000000  0.000000  0.500000  1
  Sn  Sn35  1  0.000000  0.345797  0.000000  1
