# generated using pymatgen
data_TlRhCl6
_symmetry_space_group_name_H-M   'P 1'
_cell_length_a   6.51548086
_cell_length_b   6.51547959
_cell_length_c   6.75298063
_cell_angle_alpha   80.98371761
_cell_angle_beta   80.98371772
_cell_angle_gamma   119.91381864
_symmetry_Int_Tables_number   1
_chemical_formula_structural   TlRhCl6
_chemical_formula_sum   'Tl1 Rh1 Cl6'
_cell_volume   235.99500823
_cell_formula_units_Z   1
loop_
 _symmetry_equiv_pos_site_id
 _symmetry_equiv_pos_as_xyz
  1  'x, y, z'
loop_
 _atom_site_type_symbol
 _atom_site_label
 _atom_site_symmetry_multiplicity
 _atom_site_fract_x
 _atom_site_fract_y
 _atom_site_fract_z
 _atom_site_occupancy
  Tl  Tl0  1  0.166906  0.833094  0.000000  1
  Rh  Rh1  1  0.833319  0.166681  0.000000  1
  Cl  Cl2  1  0.194302  0.232350  0.785340  1
  Cl  Cl3  1  0.767650  0.805698  0.214660  1
  Cl  Cl4  1  0.055904  0.392496  0.213839  1
  Cl  Cl5  1  0.607504  0.944096  0.786161  1
  Cl  Cl6  1  0.905506  0.531092  0.785666  1
  Cl  Cl7  1  0.468908  0.094494  0.214334  1
