# generated using pymatgen
data_Dy16Ho4Ir11Au
_symmetry_space_group_name_H-M   'P 1'
_cell_length_a   10.94763466
_cell_length_b   10.94763526
_cell_length_c   6.34670108
_cell_angle_alpha   89.96398474
_cell_angle_beta   89.96398366
_cell_angle_gamma   89.63383792
_symmetry_Int_Tables_number   1
_chemical_formula_structural   Dy16Ho4Ir11Au
_chemical_formula_sum   'Dy16 Ho4 Ir11 Au1'
_cell_volume   760.64080682
_cell_formula_units_Z   1
loop_
 _symmetry_equiv_pos_site_id
 _symmetry_equiv_pos_as_xyz
  1  'x, y, z'
loop_
 _atom_site_type_symbol
 _atom_site_label
 _atom_site_symmetry_multiplicity
 _atom_site_fract_x
 _atom_site_fract_y
 _atom_site_fract_z
 _atom_site_occupancy
  Dy  Dy0  1  0.290249  0.088168  0.376865  1
  Dy  Dy1  1  0.292387  0.911196  0.876187  1
  Dy  Dy2  1  0.704371  0.084807  0.866548  1
  Dy  Dy3  1  0.705870  0.905160  0.380178  1
  Dy  Dy4  1  0.587902  0.790871  0.878805  1
  Dy  Dy5  1  0.580014  0.210130  0.378808  1
  Dy  Dy6  1  0.411089  0.791063  0.377675  1
  Dy  Dy7  1  0.410459  0.208664  0.877734  1
  Dy  Dy8  1  0.209129  0.412098  0.621195  1
  Dy  Dy9  1  0.208937  0.588911  0.122325  1
  Dy  Dy10  1  0.789870  0.419986  0.121192  1
  Dy  Dy11  1  0.791336  0.589541  0.622266  1
  Dy  Dy12  1  0.911832  0.709751  0.123135  1
  Dy  Dy13  1  0.915193  0.295629  0.633452  1
  Dy  Dy14  1  0.088804  0.707613  0.623813  1
  Dy  Dy15  1  0.094840  0.294130  0.119822  1
  Ho  Ho16  1  0.003716  0.995977  0.501709  1
  Ho  Ho17  1  0.004023  0.996284  0.998291  1
  Ho  Ho18  1  0.499265  0.499670  0.999038  1
  Ho  Ho19  1  0.500330  0.500735  0.500962  1
  Ir  Ir20  1  0.846800  0.848218  0.749482  1
  Ir  Ir21  1  0.151782  0.153200  0.750518  1
  Ir  Ir22  1  0.154633  0.845367  0.250000  1
  Ir  Ir23  1  0.654861  0.345139  0.750000  1
  Ir  Ir24  1  0.653506  0.652343  0.248839  1
  Ir  Ir25  1  0.347657  0.346494  0.251161  1
  Ir  Ir26  1  0.346610  0.653390  0.750000  1
  Ir  Ir27  1  0.500701  0.000216  0.124546  1
  Ir  Ir28  1  0.499951  0.000565  0.621274  1
  Ir  Ir29  1  0.999435  0.500049  0.878726  1
  Ir  Ir30  1  0.999784  0.499299  0.375454  1
  Au  Au31  1  0.844663  0.155337  0.250000  1
