# generated using pymatgen
data_Dy3Ho2Mg(Co3P2)6
_symmetry_space_group_name_H-M   'P 1'
_cell_length_a   12.02749714
_cell_length_b   12.02023674
_cell_length_c   3.68872700
_cell_angle_alpha   90.00000000
_cell_angle_beta   90.00000000
_cell_angle_gamma   119.96871802
_symmetry_Int_Tables_number   1
_chemical_formula_structural   Dy3Ho2Mg(Co3P2)6
_chemical_formula_sum   'Dy3 Ho2 Mg1 Co18 P12'
_cell_volume   461.98964468
_cell_formula_units_Z   1
loop_
 _symmetry_equiv_pos_site_id
 _symmetry_equiv_pos_as_xyz
  1  'x, y, z'
loop_
 _atom_site_type_symbol
 _atom_site_label
 _atom_site_symmetry_multiplicity
 _atom_site_fract_x
 _atom_site_fract_y
 _atom_site_fract_z
 _atom_site_occupancy
  Dy  Dy0  1  0.666525  0.331367  0.000000  1
  Dy  Dy1  1  0.331509  0.666457  0.000000  1
  Dy  Dy2  1  0.000735  0.811555  0.500000  1
  Ho  Ho3  1  0.183430  0.183470  0.500000  1
  Ho  Ho4  1  0.811201  0.000854  0.500000  1
  Mg  Mg5  1  0.559641  0.559657  0.000000  1
  Co  Co6  1  0.448607  0.003088  0.000000  1
  Co  Co7  1  0.002757  0.448019  0.000000  1
  Co  Co8  1  0.822409  0.200926  0.000000  1
  Co  Co9  1  0.805121  0.623061  0.000000  1
  Co  Co10  1  0.374684  0.174488  0.000000  1
  Co  Co11  1  0.201429  0.822369  0.000000  1
  Co  Co12  1  0.623177  0.805623  0.000000  1
  Co  Co13  1  0.174140  0.374305  0.000000  1
  Co  Co14  1  0.641463  0.126623  0.500000  1
  Co  Co15  1  0.878729  0.516192  0.500000  1
  Co  Co16  1  0.481340  0.354228  0.500000  1
  Co  Co17  1  0.126570  0.641121  0.500000  1
  Co  Co18  1  0.516158  0.878874  0.500000  1
  Co  Co19  1  0.353961  0.481116  0.500000  1
  Co  Co20  1  0.718771  0.719235  0.500000  1
  Co  Co21  1  0.283778  0.998512  0.500000  1
  Co  Co22  1  0.998154  0.283329  0.500000  1
  Co  Co23  1  0.999914  0.999843  0.000000  1
  P  P24  1  0.358489  0.358533  0.000000  1
  P  P25  1  0.632698  0.003633  0.000000  1
  P  P26  1  0.003537  0.632312  0.000000  1
  P  P27  1  0.834022  0.313794  0.500000  1
  P  P28  1  0.693092  0.519142  0.500000  1
  P  P29  1  0.478001  0.165103  0.500000  1
  P  P30  1  0.313917  0.833954  0.500000  1
  P  P31  1  0.518923  0.693128  0.500000  1
  P  P32  1  0.165061  0.477670  0.500000  1
  P  P33  1  0.820251  0.820760  0.000000  1
  P  P34  1  0.179774  0.998469  0.000000  1
  P  P35  1  0.998031  0.179191  0.000000  1
