# generated using pymatgen
data_YZn4Ir
_symmetry_space_group_name_H-M   'P 1'
_cell_length_a   5.12078397
_cell_length_b   5.12078430
_cell_length_c   5.12078300
_cell_angle_alpha   60.00000194
_cell_angle_beta   59.99999982
_cell_angle_gamma   60.00000200
_symmetry_Int_Tables_number   1
_chemical_formula_structural   YZn4Ir
_chemical_formula_sum   'Y1 Zn4 Ir1'
_cell_volume   94.94985911
_cell_formula_units_Z   1
loop_
 _symmetry_equiv_pos_site_id
 _symmetry_equiv_pos_as_xyz
  1  'x, y, z'
loop_
 _atom_site_type_symbol
 _atom_site_label
 _atom_site_symmetry_multiplicity
 _atom_site_fract_x
 _atom_site_fract_y
 _atom_site_fract_z
 _atom_site_occupancy
  Y  Y0  1  0.750000  0.750000  0.750000  1
  Zn  Zn1  1  0.621687  0.126104  0.126104  1
  Zn  Zn2  1  0.126104  0.621687  0.126104  1
  Zn  Zn3  1  0.126104  0.126104  0.621687  1
  Zn  Zn4  1  0.126104  0.126104  0.126104  1
  Ir  Ir5  1  0.500000  0.500000  0.500000  1
