# generated using pymatgen
data_Tm4Re2Tc5W
_symmetry_space_group_name_H-M   'P 1'
_cell_length_a   5.41514211
_cell_length_b   5.41514287
_cell_length_c   8.74110918
_cell_angle_alpha   89.88200750
_cell_angle_beta   90.11799272
_cell_angle_gamma   120.28925489
_symmetry_Int_Tables_number   1
_chemical_formula_structural   Tm4Re2Tc5W
_chemical_formula_sum   'Tm4 Re2 Tc5 W1'
_cell_volume   221.33112294
_cell_formula_units_Z   1
loop_
 _symmetry_equiv_pos_site_id
 _symmetry_equiv_pos_as_xyz
  1  'x, y, z'
loop_
 _atom_site_type_symbol
 _atom_site_label
 _atom_site_symmetry_multiplicity
 _atom_site_fract_x
 _atom_site_fract_y
 _atom_site_fract_z
 _atom_site_occupancy
  Tm  Tm0  1  0.333603  0.666397  0.435941  1
  Tm  Tm1  1  0.666615  0.333385  0.563946  1
  Tm  Tm2  1  0.666363  0.333637  0.938350  1
  Tm  Tm3  1  0.333621  0.666379  0.061692  1
  Re  Re4  1  0.171288  0.341952  0.749579  1
  Re  Re5  1  0.658048  0.828712  0.749579  1
  Tc  Tc6  1  0.999303  0.000697  0.999965  1
  Tc  Tc7  1  0.828348  0.171652  0.251143  1
  Tc  Tc8  1  0.827925  0.656607  0.250592  1
  Tc  Tc9  1  0.343393  0.172075  0.250592  1
  Tc  Tc10  1  0.171648  0.828352  0.749237  1
  W  W11  1  0.999845  0.000155  0.499382  1
