# generated using pymatgen
data_Y4HoTi3(Co4As3)4
_symmetry_space_group_name_H-M   'P 1'
_cell_length_a   12.59762901
_cell_length_b   12.59762909
_cell_length_c   3.80881000
_cell_angle_alpha   90.00000000
_cell_angle_beta   90.00000000
_cell_angle_gamma   120.00476014
_symmetry_Int_Tables_number   1
_chemical_formula_structural   Y4HoTi3(Co4As3)4
_chemical_formula_sum   'Y4 Ho1 Ti3 Co16 As12'
_cell_volume   523.45184958
_cell_formula_units_Z   1
loop_
 _symmetry_equiv_pos_site_id
 _symmetry_equiv_pos_as_xyz
  1  'x, y, z'
loop_
 _atom_site_type_symbol
 _atom_site_label
 _atom_site_symmetry_multiplicity
 _atom_site_fract_x
 _atom_site_fract_y
 _atom_site_fract_z
 _atom_site_occupancy
  Y  Y0  1  0.813942  0.999999  0.500000  1
  Y  Y1  1  0.999999  0.813942  0.500000  1
  Y  Y2  1  0.333332  0.666678  0.000000  1
  Y  Y3  1  0.666678  0.333332  0.000000  1
  Ho  Ho4  1  0.186098  0.186098  0.500000  1
  Ti  Ti5  1  0.564114  0.564114  0.000000  1
  Ti  Ti6  1  0.435853  0.000006  0.000000  1
  Ti  Ti7  1  0.000006  0.435853  0.000000  1
  Co  Co8  1  0.716499  0.716499  0.500000  1
  Co  Co9  1  0.283454  0.000099  0.500000  1
  Co  Co10  1  0.000099  0.283454  0.500000  1
  Co  Co11  1  0.177112  0.375861  0.000000  1
  Co  Co12  1  0.623921  0.801016  0.000000  1
  Co  Co13  1  0.198984  0.822900  0.000000  1
  Co  Co14  1  0.801016  0.623921  0.000000  1
  Co  Co15  1  0.822900  0.198984  0.000000  1
  Co  Co16  1  0.375861  0.177112  0.000000  1
  Co  Co17  1  0.356141  0.479725  0.500000  1
  Co  Co18  1  0.520153  0.876385  0.500000  1
  Co  Co19  1  0.123624  0.643791  0.500000  1
  Co  Co20  1  0.876385  0.520153  0.500000  1
  Co  Co21  1  0.643791  0.123624  0.500000  1
  Co  Co22  1  0.479725  0.356141  0.500000  1
  Co  Co23  1  0.000319  0.000319  0.000000  1
  As  As24  1  0.821678  0.821678  0.000000  1
  As  As25  1  0.178360  0.000331  0.000000  1
  As  As26  1  0.000331  0.178360  0.000000  1
  As  As27  1  0.168754  0.482774  0.500000  1
  As  As28  1  0.517243  0.685995  0.500000  1
  As  As29  1  0.314004  0.831247  0.500000  1
  As  As30  1  0.685995  0.517243  0.500000  1
  As  As31  1  0.831247  0.314004  0.500000  1
  As  As32  1  0.482774  0.168754  0.500000  1
  As  As33  1  0.359570  0.359570  0.000000  1
  As  As34  1  0.640038  0.000000  0.000000  1
  As  As35  1  0.000000  0.640038  0.000000  1
