# generated using pymatgen
data_Ti4MnCoOs2
_symmetry_space_group_name_H-M   'P 1'
_cell_length_a   6.10365100
_cell_length_b   4.29996300
_cell_length_c   8.59076100
_cell_angle_alpha   90.00000000
_cell_angle_beta   90.00020997
_cell_angle_gamma   90.00000000
_symmetry_Int_Tables_number   1
_chemical_formula_structural   Ti4MnCoOs2
_chemical_formula_sum   'Ti8 Mn2 Co2 Os4'
_cell_volume   225.46858987
_cell_formula_units_Z   2
loop_
 _symmetry_equiv_pos_site_id
 _symmetry_equiv_pos_as_xyz
  1  'x, y, z'
loop_
 _atom_site_type_symbol
 _atom_site_label
 _atom_site_symmetry_multiplicity
 _atom_site_fract_x
 _atom_site_fract_y
 _atom_site_fract_z
 _atom_site_occupancy
  Ti  Ti0  1  0.002794  0.749999  0.122338  1
  Ti  Ti1  1  0.497230  0.749999  0.122349  1
  Ti  Ti2  1  0.997265  0.250000  0.377682  1
  Ti  Ti3  1  0.502756  0.250000  0.377684  1
  Ti  Ti4  1  0.502396  0.749999  0.627409  1
  Ti  Ti5  1  0.997579  0.749999  0.627415  1
  Ti  Ti6  1  0.497603  0.250000  0.872563  1
  Ti  Ti7  1  0.002385  0.250000  0.872562  1
  Mn  Mn8  1  0.749995  0.250000  0.623532  1
  Mn  Mn9  1  0.249976  0.749999  0.876470  1
  Co  Co10  1  0.750020  0.250000  0.126038  1
  Co  Co11  1  0.250003  0.749999  0.373964  1
  Os  Os12  1  0.249997  0.250000  0.127346  1
  Os  Os13  1  0.750021  0.749999  0.372667  1
  Os  Os14  1  0.249978  0.250000  0.622815  1
  Os  Os15  1  0.750005  0.749999  0.877168  1
