# generated using pymatgen
data_Y5Ho4Er11(CoSb2)4
_symmetry_space_group_name_H-M   'P 1'
_cell_length_a   7.84207411
_cell_length_b   8.73621000
_cell_length_c   12.13932217
_cell_angle_alpha   90.00000000
_cell_angle_beta   90.01928167
_cell_angle_gamma   90.00000000
_symmetry_Int_Tables_number   1
_chemical_formula_structural   Y5Ho4Er11(CoSb2)4
_chemical_formula_sum   'Y5 Ho4 Er11 Co4 Sb8'
_cell_volume   831.66499101
_cell_formula_units_Z   1
loop_
 _symmetry_equiv_pos_site_id
 _symmetry_equiv_pos_as_xyz
  1  'x, y, z'
loop_
 _atom_site_type_symbol
 _atom_site_label
 _atom_site_symmetry_multiplicity
 _atom_site_fract_x
 _atom_site_fract_y
 _atom_site_fract_z
 _atom_site_occupancy
  Y  Y0  1  0.156194  0.750000  0.204904  1
  Y  Y1  1  0.656115  0.250000  0.295730  1
  Y  Y2  1  0.844049  0.250000  0.795088  1
  Y  Y3  1  0.344153  0.750000  0.704019  1
  Y  Y4  1  0.455783  0.750000  0.998114  1
  Ho  Ho5  1  0.623496  0.750000  0.307374  1
  Ho  Ho6  1  0.123802  0.250000  0.192581  1
  Ho  Ho7  1  0.376075  0.250000  0.692286  1
  Ho  Ho8  1  0.876124  0.750000  0.807395  1
  Er  Er9  1  0.953313  0.250000  0.502130  1
  Er  Er10  1  0.546277  0.250000  0.001604  1
  Er  Er11  1  0.046699  0.750000  0.498268  1
  Er  Er12  1  0.823416  0.965217  0.065233  1
  Er  Er13  1  0.322964  0.035852  0.435112  1
  Er  Er14  1  0.176490  0.464264  0.934890  1
  Er  Er15  1  0.677136  0.535844  0.564894  1
  Er  Er16  1  0.176490  0.035736  0.934890  1
  Er  Er17  1  0.677136  0.964156  0.564894  1
  Er  Er18  1  0.823416  0.534783  0.065233  1
  Er  Er19  1  0.322964  0.464148  0.435112  1
  Co  Co20  1  0.434563  0.750000  0.489449  1
  Co  Co21  1  0.935035  0.250000  0.010112  1
  Co  Co22  1  0.565490  0.250000  0.510541  1
  Co  Co23  1  0.062298  0.750000  0.990292  1
  Sb  Sb24  1  0.930545  0.992198  0.328269  1
  Sb  Sb25  1  0.430338  0.008560  0.172629  1
  Sb  Sb26  1  0.069535  0.492216  0.671859  1
  Sb  Sb27  1  0.569842  0.507209  0.827171  1
  Sb  Sb28  1  0.069535  0.007784  0.671859  1
  Sb  Sb29  1  0.569842  0.992791  0.827171  1
  Sb  Sb30  1  0.930545  0.507802  0.328269  1
  Sb  Sb31  1  0.430338  0.491440  0.172629  1
