# generated using pymatgen
data_Tb4Ga4IrPt2Rh
_symmetry_space_group_name_H-M   'P 1'
_cell_length_a   4.42782200
_cell_length_b   6.89439774
_cell_length_c   7.71830839
_cell_angle_alpha   89.86511044
_cell_angle_beta   90.00000000
_cell_angle_gamma   90.00000000
_symmetry_Int_Tables_number   1
_chemical_formula_structural   Tb4Ga4IrPt2Rh
_chemical_formula_sum   'Tb4 Ga4 Ir1 Pt2 Rh1'
_cell_volume   235.61742837
_cell_formula_units_Z   1
loop_
 _symmetry_equiv_pos_site_id
 _symmetry_equiv_pos_as_xyz
  1  'x, y, z'
loop_
 _atom_site_type_symbol
 _atom_site_label
 _atom_site_symmetry_multiplicity
 _atom_site_fract_x
 _atom_site_fract_y
 _atom_site_fract_z
 _atom_site_occupancy
  Tb  Tb0  1  0.750000  0.514126  0.803165  1
  Tb  Tb1  1  0.250000  0.977964  0.309736  1
  Tb  Tb2  1  0.250000  0.477915  0.190169  1
  Tb  Tb3  1  0.750000  0.017139  0.698055  1
  Ga  Ga4  1  0.750000  0.669162  0.429388  1
  Ga  Ga5  1  0.250000  0.336363  0.575679  1
  Ga  Ga6  1  0.750000  0.168765  0.071710  1
  Ga  Ga7  1  0.250000  0.836436  0.924168  1
  Ir  Ir8  1  0.250000  0.225507  0.897616  1
  Pt  Pt9  1  0.750000  0.775227  0.101797  1
  Pt  Pt10  1  0.750000  0.275932  0.398123  1
  Rh  Rh11  1  0.250000  0.725467  0.600393  1
