# generated using pymatgen
data_Th4Zr2CuRh9
_symmetry_space_group_name_H-M   'P 1'
_cell_length_a   5.95447248
_cell_length_b   5.95447322
_cell_length_c   8.95991599
_cell_angle_alpha   90.93619995
_cell_angle_beta   90.93619670
_cell_angle_gamma   102.93137365
_symmetry_Int_Tables_number   1
_chemical_formula_structural   Th4Zr2CuRh9
_chemical_formula_sum   'Th4 Zr2 Cu1 Rh9'
_cell_volume   309.51724836
_cell_formula_units_Z   1
loop_
 _symmetry_equiv_pos_site_id
 _symmetry_equiv_pos_as_xyz
  1  'x, y, z'
loop_
 _atom_site_type_symbol
 _atom_site_label
 _atom_site_symmetry_multiplicity
 _atom_site_fract_x
 _atom_site_fract_y
 _atom_site_fract_z
 _atom_site_occupancy
  Th  Th0  1  0.788431  0.204197  0.499202  1
  Th  Th1  1  0.210619  0.797036  0.996582  1
  Th  Th2  1  0.204197  0.788431  0.499202  1
  Th  Th3  1  0.797036  0.210619  0.996582  1
  Zr  Zr4  1  0.617607  0.617607  0.747221  1
  Zr  Zr5  1  0.372558  0.372558  0.251213  1
  Cu  Cu6  1  0.682486  0.682486  0.076544  1
  Rh  Rh7  1  0.678570  0.678570  0.441927  1
  Rh  Rh8  1  0.346140  0.346140  0.947422  1
  Rh  Rh9  1  0.312924  0.312924  0.553640  1
  Rh  Rh10  1  0.497116  0.026460  0.752015  1
  Rh  Rh11  1  0.500381  0.968369  0.244765  1
  Rh  Rh12  1  0.990648  0.990648  0.246540  1
  Rh  Rh13  1  0.006457  0.006457  0.750364  1
  Rh  Rh14  1  0.026460  0.497116  0.752015  1
  Rh  Rh15  1  0.968369  0.500381  0.244765  1
