# generated using pymatgen
data_ZnBi2Ir4PbO14
_symmetry_space_group_name_H-M   'P 1'
_cell_length_a   7.36457475
_cell_length_b   7.23186891
_cell_length_c   7.38807700
_cell_angle_alpha   59.28287383
_cell_angle_beta   59.89438231
_cell_angle_gamma   59.29923039
_symmetry_Int_Tables_number   1
_chemical_formula_structural   ZnBi2Ir4PbO14
_chemical_formula_sum   'Zn1 Bi2 Ir4 Pb1 O14'
_cell_volume   275.00242355
_cell_formula_units_Z   1
loop_
 _symmetry_equiv_pos_site_id
 _symmetry_equiv_pos_as_xyz
  1  'x, y, z'
loop_
 _atom_site_type_symbol
 _atom_site_label
 _atom_site_symmetry_multiplicity
 _atom_site_fract_x
 _atom_site_fract_y
 _atom_site_fract_z
 _atom_site_occupancy
  Zn  Zn0  1  0.125000  0.625000  0.125000  1
  Bi  Bi1  1  0.125000  0.125000  0.625000  1
  Bi  Bi2  1  0.125000  0.125000  0.125000  1
  Ir  Ir3  1  0.125000  0.625000  0.625000  1
  Ir  Ir4  1  0.625000  0.125000  0.625000  1
  Ir  Ir5  1  0.625000  0.625000  0.125000  1
  Ir  Ir6  1  0.625000  0.625000  0.625000  1
  Pb  Pb7  1  0.625000  0.125000  0.125000  1
  O  O8  1  0.696643  0.704699  0.299329  1
  O  O9  1  0.293575  0.290004  0.708210  1
  O  O10  1  0.708834  0.290557  0.705696  1
  O  O11  1  0.298685  0.705732  0.299093  1
  O  O12  1  0.298685  0.705732  0.696489  1
  O  O13  1  0.708834  0.290557  0.294913  1
  O  O14  1  0.553357  0.545301  0.950671  1
  O  O15  1  0.956425  0.959996  0.541790  1
  O  O16  1  0.541166  0.959443  0.544304  1
  O  O17  1  0.951315  0.544268  0.950907  1
  O  O18  1  0.951315  0.544268  0.553511  1
  O  O19  1  0.541166  0.959443  0.955087  1
  O  O20  1  0.226687  0.296264  0.238525  1
  O  O21  1  0.023313  0.953736  0.011475  1
