# generated using pymatgen
data_Ta8Mo2W
_symmetry_space_group_name_H-M   'P 1'
_cell_length_a   5.43521899
_cell_length_b   5.43521903
_cell_length_c   11.85490931
_cell_angle_alpha   104.87016325
_cell_angle_beta   104.87015246
_cell_angle_gamma   34.89486094
_symmetry_Int_Tables_number   1
_chemical_formula_structural   Ta8Mo2W
_chemical_formula_sum   'Ta8 Mo2 W1'
_cell_volume   192.96210967
_cell_formula_units_Z   1
loop_
 _symmetry_equiv_pos_site_id
 _symmetry_equiv_pos_as_xyz
  1  'x, y, z'
loop_
 _atom_site_type_symbol
 _atom_site_label
 _atom_site_symmetry_multiplicity
 _atom_site_fract_x
 _atom_site_fract_y
 _atom_site_fract_z
 _atom_site_occupancy
  Ta  Ta0  1  0.720752  0.720752  0.087435  1
  Ta  Ta1  1  0.456917  0.456917  0.183440  1
  Ta  Ta2  1  0.192130  0.192130  0.276804  1
  Ta  Ta3  1  0.630390  0.630390  0.456412  1
  Ta  Ta4  1  0.369610  0.369610  0.543588  1
  Ta  Ta5  1  0.807870  0.807870  0.723196  1
  Ta  Ta6  1  0.543083  0.543083  0.816560  1
  Ta  Ta7  1  0.279248  0.279248  0.912566  1
  Mo  Mo8  1  0.910269  0.910269  0.362666  1
  Mo  Mo9  1  0.089731  0.089731  0.637335  1
  W  W10  1  0.000000  0.000000  0.000000  1
