# generated using pymatgen
data_Dy3HoAl14(Ga2Ir3)2
_symmetry_space_group_name_H-M   'P 1'
_cell_length_a   7.53536636
_cell_length_b   7.53290564
_cell_length_c   9.53862500
_cell_angle_alpha   90.00000000
_cell_angle_beta   90.00000000
_cell_angle_gamma   119.47464573
_symmetry_Int_Tables_number   1
_chemical_formula_structural   Dy3HoAl14(Ga2Ir3)2
_chemical_formula_sum   'Dy3 Ho1 Al14 Ga4 Ir6'
_cell_volume   471.36586135
_cell_formula_units_Z   1
loop_
 _symmetry_equiv_pos_site_id
 _symmetry_equiv_pos_as_xyz
  1  'x, y, z'
loop_
 _atom_site_type_symbol
 _atom_site_label
 _atom_site_symmetry_multiplicity
 _atom_site_fract_x
 _atom_site_fract_y
 _atom_site_fract_z
 _atom_site_occupancy
  Dy  Dy0  1  0.996600  0.673227  0.250000  1
  Dy  Dy1  1  0.003437  0.326736  0.750000  1
  Dy  Dy2  1  0.670595  0.993194  0.250000  1
  Ho  Ho3  1  0.329434  0.006787  0.750000  1
  Al  Al4  1  0.001169  0.335156  0.073279  1
  Al  Al5  1  0.999003  0.664996  0.926461  1
  Al  Al6  1  0.999003  0.664996  0.573539  1
  Al  Al7  1  0.335527  0.001699  0.426892  1
  Al  Al8  1  0.001169  0.335156  0.426721  1
  Al  Al9  1  0.664311  0.998339  0.573628  1
  Al  Al10  1  0.664311  0.998339  0.926372  1
  Al  Al11  1  0.335527  0.001699  0.073108  1
  Al  Al12  1  0.333579  0.333761  0.553039  1
  Al  Al13  1  0.666420  0.666094  0.447390  1
  Al  Al14  1  0.666420  0.666094  0.052610  1
  Al  Al15  1  0.333579  0.333761  0.946961  1
  Al  Al16  1  0.548928  0.339332  0.250000  1
  Al  Al17  1  0.450945  0.660816  0.750000  1
  Ga  Ga18  1  0.130644  0.131146  0.250000  1
  Ga  Ga19  1  0.869667  0.868942  0.750000  1
  Ga  Ga20  1  0.339191  0.546854  0.250000  1
  Ga  Ga21  1  0.660489  0.452811  0.750000  1
  Ir  Ir22  1  0.671197  0.327880  0.002352  1
  Ir  Ir23  1  0.328730  0.672096  0.997443  1
  Ir  Ir24  1  0.328730  0.672096  0.502557  1
  Ir  Ir25  1  0.671197  0.327880  0.497648  1
  Ir  Ir26  1  0.000100  0.000058  0.999868  1
  Ir  Ir27  1  0.000100  0.000058  0.500132  1
