# generated using pymatgen
data_Ta8Tc3MoOs4
_symmetry_space_group_name_H-M   'P 1'
_cell_length_a   6.37213800
_cell_length_b   4.51744500
_cell_length_c   9.03284400
_cell_angle_alpha   90.00000000
_cell_angle_beta   90.00011104
_cell_angle_gamma   90.00000000
_symmetry_Int_Tables_number   1
_chemical_formula_structural   Ta8Tc3MoOs4
_chemical_formula_sum   'Ta8 Tc3 Mo1 Os4'
_cell_volume   260.01748678
_cell_formula_units_Z   1
loop_
 _symmetry_equiv_pos_site_id
 _symmetry_equiv_pos_as_xyz
  1  'x, y, z'
loop_
 _atom_site_type_symbol
 _atom_site_label
 _atom_site_symmetry_multiplicity
 _atom_site_fract_x
 _atom_site_fract_y
 _atom_site_fract_z
 _atom_site_occupancy
  Ta  Ta0  1  0.501264  0.749999  0.125005  1
  Ta  Ta1  1  0.998725  0.749999  0.125006  1
  Ta  Ta2  1  0.500472  0.250000  0.374464  1
  Ta  Ta3  1  0.999541  0.250000  0.374463  1
  Ta  Ta4  1  0.999263  0.749999  0.625004  1
  Ta  Ta5  1  0.500724  0.749999  0.625004  1
  Ta  Ta6  1  0.999535  0.250000  0.875524  1
  Ta  Ta7  1  0.500475  0.250000  0.875524  1
  Tc  Tc8  1  0.249999  0.749999  0.375433  1
  Tc  Tc9  1  0.750001  0.250000  0.625001  1
  Tc  Tc10  1  0.249995  0.749999  0.874563  1
  Mo  Mo11  1  0.750005  0.250000  0.125006  1
  Os  Os12  1  0.250004  0.250000  0.125008  1
  Os  Os13  1  0.750001  0.749999  0.376610  1
  Os  Os14  1  0.250000  0.250000  0.625008  1
  Os  Os15  1  0.749995  0.749999  0.873378  1
