# generated using pymatgen
data_Sm3Mg2Sb3O14
_symmetry_space_group_name_H-M   'P 1'
_cell_length_a   7.27510868
_cell_length_b   7.27507700
_cell_length_c   7.27292912
_cell_angle_alpha   118.22967571
_cell_angle_beta   61.76975117
_cell_angle_gamma   118.20660899
_symmetry_Int_Tables_number   1
_chemical_formula_structural   Sm3Mg2Sb3O14
_chemical_formula_sum   'Sm3 Mg2 Sb3 O14'
_cell_volume   283.03060141
_cell_formula_units_Z   1
loop_
 _symmetry_equiv_pos_site_id
 _symmetry_equiv_pos_as_xyz
  1  'x, y, z'
loop_
 _atom_site_type_symbol
 _atom_site_label
 _atom_site_symmetry_multiplicity
 _atom_site_fract_x
 _atom_site_fract_y
 _atom_site_fract_z
 _atom_site_occupancy
  Sm  Sm0  1  0.000015  0.499994  0.000011  1
  Sm  Sm1  1  0.500001  0.999986  0.000013  1
  Sm  Sm2  1  0.499984  0.500006  0.499995  1
  Mg  Mg3  1  0.500068  0.499936  0.999737  1
  Mg  Mg4  1  0.000065  0.000004  0.499992  1
  Sb  Sb5  1  0.499992  0.999998  0.500013  1
  Sb  Sb6  1  0.000002  0.500001  0.500013  1
  Sb  Sb7  1  0.999995  0.000007  0.000010  1
  O  O8  1  0.614644  0.385373  0.114485  1
  O  O9  1  0.385389  0.614604  0.885508  1
  O  O10  1  0.081099  0.324128  0.175547  1
  O  O11  1  0.675862  0.918841  0.175548  1
  O  O12  1  0.675448  0.324541  0.583110  1
  O  O13  1  0.918839  0.675871  0.824493  1
  O  O14  1  0.324141  0.081232  0.824500  1
  O  O15  1  0.324508  0.675494  0.416991  1
  O  O16  1  0.653715  0.910812  0.588616  1
  O  O17  1  0.089179  0.346245  0.588584  1
  O  O18  1  0.088674  0.911347  0.154279  1
  O  O19  1  0.346262  0.089192  0.411406  1
  O  O20  1  0.910795  0.653747  0.411428  1
  O  O21  1  0.911325  0.088641  0.845722  1
