# generated using pymatgen
data_LaUCu2(PO)2
_symmetry_space_group_name_H-M   'P 1'
_cell_length_a   3.83119600
_cell_length_b   3.83119600
_cell_length_c   8.34563500
_cell_angle_alpha   90.00000000
_cell_angle_beta   90.00000000
_cell_angle_gamma   90.00000000
_symmetry_Int_Tables_number   1
_chemical_formula_structural   LaUCu2(PO)2
_chemical_formula_sum   'La1 U1 Cu2 P2 O2'
_cell_volume   122.49775456
_cell_formula_units_Z   1
loop_
 _symmetry_equiv_pos_site_id
 _symmetry_equiv_pos_as_xyz
  1  'x, y, z'
loop_
 _atom_site_type_symbol
 _atom_site_label
 _atom_site_symmetry_multiplicity
 _atom_site_fract_x
 _atom_site_fract_y
 _atom_site_fract_z
 _atom_site_occupancy
  La  La0  1  0.250001  0.250001  0.666428  1
  U  U1  1  0.750002  0.750002  0.339893  1
  Cu  Cu2  1  0.750002  0.250001  0.008146  1
  Cu  Cu3  1  0.250001  0.750002  0.008146  1
  P  P4  1  0.250001  0.250001  0.176998  1
  P  P5  1  0.750002  0.750002  0.841066  1
  O  O6  1  0.750002  0.250001  0.479662  1
  O  O7  1  0.250001  0.750002  0.479662  1
