# generated using pymatgen
data_Ca4Zn3Cu(P2O7)4
_symmetry_space_group_name_H-M   'P 1'
_cell_length_a   8.18571154
_cell_length_b   5.25361757
_cell_length_c   13.62666912
_cell_angle_alpha   68.80729614
_cell_angle_beta   90.08012932
_cell_angle_gamma   90.15675534
_symmetry_Int_Tables_number   1
_chemical_formula_structural   Ca4Zn3Cu(P2O7)4
_chemical_formula_sum   'Ca4 Zn3 Cu1 P8 O28'
_cell_volume   546.37541984
_cell_formula_units_Z   1
loop_
 _symmetry_equiv_pos_site_id
 _symmetry_equiv_pos_as_xyz
  1  'x, y, z'
loop_
 _atom_site_type_symbol
 _atom_site_label
 _atom_site_symmetry_multiplicity
 _atom_site_fract_x
 _atom_site_fract_y
 _atom_site_fract_z
 _atom_site_occupancy
  Ca  Ca0  1  0.183704  0.982857  0.224389  1
  Ca  Ca1  1  0.683853  0.017913  0.272246  1
  Ca  Ca2  1  0.816589  0.014572  0.775501  1
  Ca  Ca3  1  0.313678  0.981054  0.732227  1
  Zn  Zn4  1  0.352579  0.276815  0.397674  1
  Zn  Zn5  1  0.854054  0.721988  0.102544  1
  Zn  Zn6  1  0.645813  0.722324  0.602629  1
  Cu  Cu7  1  0.143064  0.317534  0.890709  1
  P  P8  1  0.293920  0.668209  0.523156  1
  P  P9  1  0.796460  0.328418  0.978913  1
  P  P10  1  0.706750  0.328350  0.478462  1
  P  P11  1  0.205141  0.672699  0.017731  1
  P  P12  1  0.973883  0.423083  0.330468  1
  P  P13  1  0.472088  0.575728  0.167862  1
  P  P14  1  0.025063  0.582120  0.670022  1
  P  P15  1  0.528339  0.417710  0.831975  1
  O  O16  1  0.305746  0.886007  0.412221  1
  O  O17  1  0.809840  0.113897  0.090297  1
  O  O18  1  0.694651  0.111279  0.589646  1
  O  O19  1  0.192890  0.883822  0.907207  1
  O  O20  1  0.166519  0.374640  0.027542  1
  O  O21  1  0.670120  0.623009  0.469586  1
  O  O22  1  0.829405  0.625483  0.968023  1
  O  O23  1  0.331191  0.374064  0.532059  1
  O  O24  1  0.457815  0.806422  0.210932  1
  O  O25  1  0.959170  0.192787  0.287333  1
  O  O26  1  0.541540  0.190376  0.787454  1
  O  O27  1  0.039010  0.819108  0.709374  1
  O  O28  1  0.395291  0.684123  0.050567  1
  O  O29  1  0.896540  0.312044  0.447726  1
  O  O30  1  0.607145  0.302326  0.948644  1
  O  O31  1  0.103112  0.680131  0.553708  1
  O  O32  1  0.352992  0.500637  0.845431  1
  O  O33  1  0.850166  0.494198  0.659021  1
  O  O34  1  0.648512  0.495826  0.155773  1
  O  O35  1  0.149771  0.505418  0.342948  1
  O  O36  1  0.393956  0.749898  0.603662  1
  O  O37  1  0.899537  0.246468  0.899643  1
  O  O38  1  0.604855  0.246916  0.398628  1
  O  O39  1  0.104943  0.746245  0.100107  1
  O  O40  1  0.122322  0.327564  0.738988  1
  O  O41  1  0.622337  0.678276  0.767693  1
  O  O42  1  0.878235  0.681318  0.265680  1
  O  O43  1  0.377411  0.316347  0.233596  1
