# generated using pymatgen
data_Tb2YIn3HgPd2
_symmetry_space_group_name_H-M   'P 1'
_cell_length_a   7.93786402
_cell_length_b   7.93760683
_cell_length_c   3.80905800
_cell_angle_alpha   90.00000000
_cell_angle_beta   90.00000000
_cell_angle_gamma   120.00999183
_symmetry_Int_Tables_number   1
_chemical_formula_structural   Tb2YIn3HgPd2
_chemical_formula_sum   'Tb2 Y1 In3 Hg1 Pd2'
_cell_volume   207.82496720
_cell_formula_units_Z   1
loop_
 _symmetry_equiv_pos_site_id
 _symmetry_equiv_pos_as_xyz
  1  'x, y, z'
loop_
 _atom_site_type_symbol
 _atom_site_label
 _atom_site_symmetry_multiplicity
 _atom_site_fract_x
 _atom_site_fract_y
 _atom_site_fract_z
 _atom_site_occupancy
  Tb  Tb0  1  0.395920  0.412075  0.500000  1
  Tb  Tb1  1  0.587935  0.983857  0.500000  1
  Y  Y2  1  0.016036  0.604109  0.500000  1
  In  In3  1  0.739483  0.745154  0.000000  1
  In  In4  1  0.254806  0.994247  0.000000  1
  In  In5  1  0.005717  0.260590  0.000000  1
  Hg  Hg6  1  0.666729  0.333350  0.000000  1
  Pd  Pd7  1  0.333381  0.666653  0.000000  1
  Pd  Pd8  1  0.999995  0.999965  0.500000  1
