# generated using pymatgen
data_Hf4InCu4Hg
_symmetry_space_group_name_H-M   'P 1'
_cell_length_a   7.18418500
_cell_length_b   7.18418500
_cell_length_c   6.80625500
_cell_angle_alpha   90.00000000
_cell_angle_beta   90.00000000
_cell_angle_gamma   90.00000000
_symmetry_Int_Tables_number   1
_chemical_formula_structural   Hf4InCu4Hg
_chemical_formula_sum   'Hf8 In2 Cu8 Hg2'
_cell_volume   351.28793225
_cell_formula_units_Z   2
loop_
 _symmetry_equiv_pos_site_id
 _symmetry_equiv_pos_as_xyz
  1  'x, y, z'
loop_
 _atom_site_type_symbol
 _atom_site_label
 _atom_site_symmetry_multiplicity
 _atom_site_fract_x
 _atom_site_fract_y
 _atom_site_fract_z
 _atom_site_occupancy
  Hf  Hf0  1  0.147886  0.149972  0.000000  1
  Hf  Hf1  1  0.852114  0.850028  0.000000  1
  Hf  Hf2  1  0.649972  0.352114  0.500000  1
  Hf  Hf3  1  0.350028  0.647886  0.500000  1
  Hf  Hf4  1  0.688748  0.302744  0.000000  1
  Hf  Hf5  1  0.311252  0.697256  0.000000  1
  Hf  Hf6  1  0.802744  0.811252  0.500000  1
  Hf  Hf7  1  0.197256  0.188748  0.500000  1
  In  In8  1  0.000000  0.500000  0.250000  1
  In  In9  1  0.000000  0.500000  0.750000  1
  Cu  Cu10  1  0.374023  0.378346  0.203398  1
  Cu  Cu11  1  0.625977  0.621654  0.796602  1
  Cu  Cu12  1  0.625977  0.621654  0.203398  1
  Cu  Cu13  1  0.878346  0.125977  0.703398  1
  Cu  Cu14  1  0.878346  0.125977  0.296602  1
  Cu  Cu15  1  0.374023  0.378346  0.796602  1
  Cu  Cu16  1  0.121654  0.874023  0.296602  1
  Cu  Cu17  1  0.121654  0.874023  0.703398  1
  Hg  Hg18  1  0.500000  0.000000  0.250000  1
  Hg  Hg19  1  0.500000  0.000000  0.750000  1
