# generated using pymatgen
data_DyEr11Tc3Rh
_symmetry_space_group_name_H-M   'P 1'
_cell_length_a   6.24386005
_cell_length_b   7.34794362
_cell_length_c   9.06247000
_cell_angle_alpha   90.00000000
_cell_angle_beta   90.00000000
_cell_angle_gamma   89.90082120
_symmetry_Int_Tables_number   1
_chemical_formula_structural   DyEr11Tc3Rh
_chemical_formula_sum   'Dy1 Er11 Tc3 Rh1'
_cell_volume   415.78125550
_cell_formula_units_Z   1
loop_
 _symmetry_equiv_pos_site_id
 _symmetry_equiv_pos_as_xyz
  1  'x, y, z'
loop_
 _atom_site_type_symbol
 _atom_site_label
 _atom_site_symmetry_multiplicity
 _atom_site_fract_x
 _atom_site_fract_y
 _atom_site_fract_z
 _atom_site_occupancy
  Dy  Dy0  1  0.368972  0.542822  0.250000  1
  Er  Er1  1  0.663304  0.173866  0.060745  1
  Er  Er2  1  0.168409  0.323116  0.934983  1
  Er  Er3  1  0.836413  0.678571  0.439078  1
  Er  Er4  1  0.336692  0.824440  0.562688  1
  Er  Er5  1  0.336692  0.824440  0.937312  1
  Er  Er6  1  0.836413  0.678571  0.060922  1
  Er  Er7  1  0.168409  0.323116  0.565017  1
  Er  Er8  1  0.663304  0.173866  0.439255  1
  Er  Er9  1  0.875260  0.960775  0.750000  1
  Er  Er10  1  0.626539  0.459131  0.750000  1
  Er  Er11  1  0.127644  0.041250  0.250000  1
  Tc  Tc12  1  0.038328  0.612824  0.750000  1
  Tc  Tc13  1  0.539764  0.883951  0.250000  1
  Tc  Tc14  1  0.459324  0.115311  0.750000  1
  Rh  Rh15  1  0.954531  0.383950  0.250000  1
