# generated using pymatgen
data_NdZr4BiF22
_symmetry_space_group_name_H-M   'P 1'
_cell_length_a   8.47939970
_cell_length_b   8.47940008
_cell_length_c   8.47939976
_cell_angle_alpha   124.57859666
_cell_angle_beta   106.43895221
_cell_angle_gamma   98.59622352
_symmetry_Int_Tables_number   1
_chemical_formula_structural   NdZr4BiF22
_chemical_formula_sum   'Nd1 Zr4 Bi1 F22'
_cell_volume   442.78358563
_cell_formula_units_Z   1
loop_
 _symmetry_equiv_pos_site_id
 _symmetry_equiv_pos_as_xyz
  1  'x, y, z'
loop_
 _atom_site_type_symbol
 _atom_site_label
 _atom_site_symmetry_multiplicity
 _atom_site_fract_x
 _atom_site_fract_y
 _atom_site_fract_z
 _atom_site_occupancy
  Nd  Nd0  1  0.750000  0.250000  0.500000  1
  Zr  Zr1  1  0.181149  0.134737  0.315826  1
  Zr  Zr2  1  0.818912  0.865323  0.684174  1
  Zr  Zr3  1  0.681088  0.365263  0.046411  1
  Zr  Zr4  1  0.318851  0.634677  0.953589  1
  Bi  Bi5  1  0.250000  0.750000  0.500000  1
  F  F6  1  0.206645  0.396828  0.341847  1
  F  F7  1  0.793366  0.603932  0.658057  1
  F  F8  1  0.054981  0.864798  0.658153  1
  F  F9  1  0.445019  0.103172  0.809817  1
  F  F10  1  0.945874  0.135308  0.341943  1
  F  F11  1  0.554126  0.896068  0.189434  1
  F  F12  1  0.293355  0.635202  0.190183  1
  F  F13  1  0.706634  0.364692  0.810566  1
  F  F14  1  0.000046  0.000046  0.000000  1
  F  F15  1  0.499954  0.499954  0.000000  1
  F  F16  1  0.280879  0.370642  0.651577  1
  F  F17  1  0.719064  0.629302  0.348423  1
  F  F18  1  0.780936  0.129358  0.910239  1
  F  F19  1  0.219121  0.870698  0.089761  1
  F  F20  1  0.453415  0.238458  0.417894  1
  F  F21  1  0.545781  0.761096  0.581754  1
  F  F22  1  0.820564  0.035521  0.582106  1
  F  F23  1  0.679436  0.261542  0.214957  1
  F  F24  1  0.179342  0.964027  0.418246  1
  F  F25  1  0.320658  0.738904  0.784685  1
  F  F26  1  0.046585  0.464479  0.785043  1
  F  F27  1  0.954219  0.535973  0.215315  1
