# generated using pymatgen
data_Ho3Er7(InSb2)2
_symmetry_space_group_name_H-M   'P 1'
_cell_length_a   8.90587003
_cell_length_b   8.88126424
_cell_length_c   6.42006300
_cell_angle_alpha   90.00000000
_cell_angle_beta   90.00000000
_cell_angle_gamma   119.80827272
_symmetry_Int_Tables_number   1
_chemical_formula_structural   Ho3Er7(InSb2)2
_chemical_formula_sum   'Ho3 Er7 In2 Sb4'
_cell_volume   440.61255977
_cell_formula_units_Z   1
loop_
 _symmetry_equiv_pos_site_id
 _symmetry_equiv_pos_as_xyz
  1  'x, y, z'
loop_
 _atom_site_type_symbol
 _atom_site_label
 _atom_site_symmetry_multiplicity
 _atom_site_fract_x
 _atom_site_fract_y
 _atom_site_fract_z
 _atom_site_occupancy
  Ho  Ho0  1  0.002263  0.760573  0.750000  1
  Ho  Ho1  1  0.002838  0.241639  0.250000  1
  Ho  Ho2  1  0.758349  0.998242  0.750000  1
  Er  Er3  1  0.758310  0.759635  0.250000  1
  Er  Er4  1  0.241379  0.237722  0.750000  1
  Er  Er5  1  0.240764  0.003635  0.250000  1
  Er  Er6  1  0.333946  0.667268  0.499580  1
  Er  Er7  1  0.663130  0.331400  0.000496  1
  Er  Er8  1  0.663130  0.331400  0.499504  1
  Er  Er9  1  0.333946  0.667268  0.000420  1
  In  In10  1  0.394387  0.998396  0.750000  1
  In  In11  1  0.394172  0.395438  0.250000  1
  Sb  Sb12  1  0.999077  0.608272  0.250000  1
  Sb  Sb13  1  0.998963  0.391142  0.750000  1
  Sb  Sb14  1  0.607947  0.607585  0.750000  1
  Sb  Sb15  1  0.607398  0.000387  0.250000  1
