# generated using pymatgen
data_Dy3Y3Th2(MgCo)2
_symmetry_space_group_name_H-M   'P 1'
_cell_length_a   9.64838517
_cell_length_b   9.64838421
_cell_length_c   9.64838600
_cell_angle_alpha   60.00000072
_cell_angle_beta   60.00000401
_cell_angle_gamma   60.00000532
_symmetry_Int_Tables_number   1
_chemical_formula_structural   Dy3Y3Th2(MgCo)2
_chemical_formula_sum   'Dy6 Y6 Th4 Mg4 Co4'
_cell_volume   635.10996469
_cell_formula_units_Z   2
loop_
 _symmetry_equiv_pos_site_id
 _symmetry_equiv_pos_as_xyz
  1  'x, y, z'
loop_
 _atom_site_type_symbol
 _atom_site_label
 _atom_site_symmetry_multiplicity
 _atom_site_fract_x
 _atom_site_fract_y
 _atom_site_fract_z
 _atom_site_occupancy
  Dy  Dy0  1  0.813377  0.186623  0.186623  1
  Dy  Dy1  1  0.186623  0.813377  0.813377  1
  Dy  Dy2  1  0.186623  0.813377  0.186623  1
  Dy  Dy3  1  0.813377  0.186623  0.813377  1
  Dy  Dy4  1  0.186623  0.186623  0.813377  1
  Dy  Dy5  1  0.813377  0.813377  0.186623  1
  Y  Y6  1  0.935749  0.564251  0.564251  1
  Y  Y7  1  0.564251  0.935749  0.935749  1
  Y  Y8  1  0.564251  0.935749  0.564251  1
  Y  Y9  1  0.935749  0.564251  0.935749  1
  Y  Y10  1  0.564251  0.564251  0.935749  1
  Y  Y11  1  0.935749  0.935749  0.564251  1
  Th  Th12  1  0.344057  0.344057  0.344057  1
  Th  Th13  1  0.344057  0.344057  0.967829  1
  Th  Th14  1  0.344057  0.967829  0.344057  1
  Th  Th15  1  0.967829  0.344057  0.344057  1
  Mg  Mg16  1  0.580031  0.580031  0.580031  1
  Mg  Mg17  1  0.580031  0.580031  0.259907  1
  Mg  Mg18  1  0.580031  0.259907  0.580031  1
  Mg  Mg19  1  0.259907  0.580031  0.580031  1
  Co  Co20  1  0.144966  0.144966  0.144966  1
  Co  Co21  1  0.144966  0.144966  0.565101  1
  Co  Co22  1  0.144966  0.565101  0.144966  1
  Co  Co23  1  0.565101  0.144966  0.144966  1
