# generated using pymatgen
data_Na2La8SnPb7
_symmetry_space_group_name_H-M   'P 1'
_cell_length_a   8.30005600
_cell_length_b   8.57377300
_cell_length_c   16.42273500
_cell_angle_alpha   90.00000000
_cell_angle_beta   90.00000000
_cell_angle_gamma   90.00000000
_symmetry_Int_Tables_number   1
_chemical_formula_structural   Na2La8SnPb7
_chemical_formula_sum   'Na4 La16 Sn2 Pb14'
_cell_volume   1168.68774108
_cell_formula_units_Z   2
loop_
 _symmetry_equiv_pos_site_id
 _symmetry_equiv_pos_as_xyz
  1  'x, y, z'
loop_
 _atom_site_type_symbol
 _atom_site_label
 _atom_site_symmetry_multiplicity
 _atom_site_fract_x
 _atom_site_fract_y
 _atom_site_fract_z
 _atom_site_occupancy
  Na  Na0  1  0.814599  0.500426  0.750000  1
  Na  Na1  1  0.314599  0.999574  0.750000  1
  Na  Na2  1  0.182769  0.497778  0.250000  1
  Na  Na3  1  0.682769  0.002222  0.250000  1
  La  La4  1  0.645412  0.169513  0.626614  1
  La  La5  1  0.145412  0.330487  0.873386  1
  La  La6  1  0.354261  0.832397  0.124812  1
  La  La7  1  0.854261  0.667603  0.375188  1
  La  La8  1  0.354261  0.832397  0.375188  1
  La  La9  1  0.854261  0.667603  0.124812  1
  La  La10  1  0.645412  0.169513  0.873386  1
  La  La11  1  0.145412  0.330487  0.626614  1
  La  La12  1  0.493737  0.684376  0.597922  1
  La  La13  1  0.993737  0.815624  0.902078  1
  La  La14  1  0.506876  0.314142  0.096398  1
  La  La15  1  0.006876  0.185858  0.403602  1
  La  La16  1  0.506876  0.314142  0.403602  1
  La  La17  1  0.006876  0.185858  0.096398  1
  La  La18  1  0.493737  0.684376  0.902078  1
  La  La19  1  0.993737  0.815624  0.597922  1
  Sn  Sn20  1  0.451173  0.403076  0.750000  1
  Sn  Sn21  1  0.951173  0.096924  0.750000  1
  Pb  Pb22  1  0.692076  0.963232  0.461940  1
  Pb  Pb23  1  0.192076  0.536768  0.038060  1
  Pb  Pb24  1  0.309124  0.036841  0.960973  1
  Pb  Pb25  1  0.809124  0.463159  0.539027  1
  Pb  Pb26  1  0.309124  0.036841  0.539027  1
  Pb  Pb27  1  0.809124  0.463159  0.960973  1
  Pb  Pb28  1  0.692076  0.963232  0.038060  1
  Pb  Pb29  1  0.192076  0.536768  0.461940  1
  Pb  Pb30  1  0.545454  0.598640  0.250000  1
  Pb  Pb31  1  0.045454  0.901360  0.250000  1
  Pb  Pb32  1  0.691552  0.854316  0.750000  1
  Pb  Pb33  1  0.191552  0.645684  0.750000  1
  Pb  Pb34  1  0.311483  0.147287  0.250000  1
  Pb  Pb35  1  0.811483  0.352713  0.250000  1
