# generated using pymatgen
data_Tb5DyY2Ti3Si16W9
_symmetry_space_group_name_H-M   'P 1'
_cell_length_a   6.91412815
_cell_length_b   6.91508914
_cell_length_c   12.84204761
_cell_angle_alpha   90.02590169
_cell_angle_beta   89.95476821
_cell_angle_gamma   89.93184697
_symmetry_Int_Tables_number   1
_chemical_formula_structural   Tb5DyY2Ti3Si16W9
_chemical_formula_sum   'Tb5 Dy1 Y2 Ti3 Si16 W9'
_cell_volume   614.00088297
_cell_formula_units_Z   1
loop_
 _symmetry_equiv_pos_site_id
 _symmetry_equiv_pos_as_xyz
  1  'x, y, z'
loop_
 _atom_site_type_symbol
 _atom_site_label
 _atom_site_symmetry_multiplicity
 _atom_site_fract_x
 _atom_site_fract_y
 _atom_site_fract_z
 _atom_site_occupancy
  Tb  Tb0  1  0.661325  0.998091  0.968594  1
  Tb  Tb1  1  0.162729  0.502993  0.780931  1
  Tb  Tb2  1  0.837737  0.500603  0.282617  1
  Tb  Tb3  1  0.502749  0.162494  0.219149  1
  Tb  Tb4  1  0.500385  0.837528  0.717452  1
  Dy  Dy5  1  0.339342  0.000459  0.468670  1
  Y  Y6  1  0.998656  0.661202  0.031593  1
  Y  Y7  1  0.000704  0.339558  0.531190  1
  Ti  Ti8  1  0.829707  0.167867  0.748389  1
  Ti  Ti9  1  0.167970  0.829786  0.251548  1
  Ti  Ti10  1  0.331386  0.331292  0.000071  1
  Si  Si11  1  0.036714  0.711051  0.437851  1
  Si  Si12  1  0.959805  0.290415  0.936347  1
  Si  Si13  1  0.710896  0.036241  0.562037  1
  Si  Si14  1  0.208804  0.460992  0.186313  1
  Si  Si15  1  0.790266  0.540197  0.685701  1
  Si  Si16  1  0.460529  0.208852  0.813692  1
  Si  Si17  1  0.539663  0.790537  0.314252  1
  Si  Si18  1  0.289719  0.959461  0.063966  1
  Si  Si19  1  0.799982  0.872163  0.183565  1
  Si  Si20  1  0.301727  0.625770  0.565998  1
  Si  Si21  1  0.701114  0.372630  0.066043  1
  Si  Si22  1  0.625480  0.301422  0.433920  1
  Si  Si23  1  0.372043  0.701021  0.934004  1
  Si  Si24  1  0.127086  0.202556  0.316022  1
  Si  Si25  1  0.203178  0.126717  0.683994  1
  Si  Si26  1  0.872325  0.799393  0.816502  1
  W  W27  1  0.333946  0.506138  0.374617  1
  W  W28  1  0.841246  0.996703  0.373497  1
  W  W29  1  0.006733  0.160853  0.125708  1
  W  W30  1  0.997026  0.841195  0.626303  1
  W  W31  1  0.506036  0.334333  0.625018  1
  W  W32  1  0.161038  0.006720  0.874437  1
  W  W33  1  0.667532  0.668151  0.499922  1
  W  W34  1  0.493780  0.660533  0.125006  1
  W  W35  1  0.660642  0.494086  0.875083  1
