# generated using pymatgen
data_Er2Pa(InPt)3
_symmetry_space_group_name_H-M   'P 1'
_cell_length_a   7.64061200
_cell_length_b   7.61875091
_cell_length_c   3.90239700
_cell_angle_alpha   90.00000000
_cell_angle_beta   90.00000000
_cell_angle_gamma   120.09496379
_symmetry_Int_Tables_number   1
_chemical_formula_structural   Er2Pa(InPt)3
_chemical_formula_sum   'Er2 Pa1 In3 Pt3'
_cell_volume   196.54301862
_cell_formula_units_Z   1
loop_
 _symmetry_equiv_pos_site_id
 _symmetry_equiv_pos_as_xyz
  1  'x, y, z'
loop_
 _atom_site_type_symbol
 _atom_site_label
 _atom_site_symmetry_multiplicity
 _atom_site_fract_x
 _atom_site_fract_y
 _atom_site_fract_z
 _atom_site_occupancy
  Er  Er0  1  0.404535  0.403025  0.500000  1
  Er  Er1  1  0.001510  0.596975  0.500000  1
  Pa  Pa2  1  0.591261  0.000000  0.500000  1
  In  In3  1  0.740716  0.728732  0.000000  1
  In  In4  1  0.011984  0.271268  0.000000  1
  In  In5  1  0.248804  0.000000  0.000000  1
  Pt  Pt6  1  0.348751  0.684398  0.000000  1
  Pt  Pt7  1  0.664354  0.315602  0.000000  1
  Pt  Pt8  1  0.988085  0.000000  0.500000  1
