# generated using pymatgen
data_TmScP3Rh4
_symmetry_space_group_name_H-M   'P 1'
_cell_length_a   12.77790200
_cell_length_b   12.77790301
_cell_length_c   3.87075100
_cell_angle_alpha   90.00000000
_cell_angle_beta   90.00000000
_cell_angle_gamma   119.96006505
_symmetry_Int_Tables_number   1
_chemical_formula_structural   TmScP3Rh4
_chemical_formula_sum   'Tm4 Sc4 P12 Rh16'
_cell_volume   547.54476475
_cell_formula_units_Z   4
loop_
 _symmetry_equiv_pos_site_id
 _symmetry_equiv_pos_as_xyz
  1  'x, y, z'
loop_
 _atom_site_type_symbol
 _atom_site_label
 _atom_site_symmetry_multiplicity
 _atom_site_fract_x
 _atom_site_fract_y
 _atom_site_fract_z
 _atom_site_occupancy
  Tm  Tm0  1  0.812766  0.999752  0.500000  1
  Tm  Tm1  1  0.999752  0.812766  0.500000  1
  Tm  Tm2  1  0.333022  0.666859  0.000000  1
  Tm  Tm3  1  0.666859  0.333022  0.000000  1
  Sc  Sc4  1  0.191228  0.191228  0.500000  1
  Sc  Sc5  1  0.443885  0.000388  0.000000  1
  Sc  Sc6  1  0.000388  0.443885  0.000000  1
  Sc  Sc7  1  0.554935  0.554935  0.000000  1
  P  P8  1  0.176361  0.002080  0.000000  1
  P  P9  1  0.002080  0.176361  0.000000  1
  P  P10  1  0.824181  0.824181  0.000000  1
  P  P11  1  0.515632  0.686441  0.500000  1
  P  P12  1  0.312636  0.829987  0.500000  1
  P  P13  1  0.170959  0.483696  0.500000  1
  P  P14  1  0.483696  0.170959  0.500000  1
  P  P15  1  0.686441  0.515632  0.500000  1
  P  P16  1  0.829987  0.312636  0.500000  1
  P  P17  1  0.646446  0.999825  0.000000  1
  P  P18  1  0.999825  0.646446  0.000000  1
  P  P19  1  0.351462  0.351462  0.000000  1
  Rh  Rh20  1  0.276884  0.001320  0.500000  1
  Rh  Rh21  1  0.001320  0.276884  0.500000  1
  Rh  Rh22  1  0.721830  0.721830  0.500000  1
  Rh  Rh23  1  0.626871  0.805318  0.000000  1
  Rh  Rh24  1  0.193979  0.822422  0.000000  1
  Rh  Rh25  1  0.178581  0.370816  0.000000  1
  Rh  Rh26  1  0.370816  0.178581  0.000000  1
  Rh  Rh27  1  0.805318  0.626871  0.000000  1
  Rh  Rh28  1  0.822422  0.193979  0.000000  1
  Rh  Rh29  1  0.512499  0.870166  0.500000  1
  Rh  Rh30  1  0.129815  0.643006  0.500000  1
  Rh  Rh31  1  0.356767  0.486330  0.500000  1
  Rh  Rh32  1  0.486330  0.356767  0.500000  1
  Rh  Rh33  1  0.870166  0.512499  0.500000  1
  Rh  Rh34  1  0.643006  0.129815  0.500000  1
  Rh  Rh35  1  0.000860  0.000860  0.000000  1
