# generated using pymatgen
data_Tb2YZr(Ga3Ir)6
_symmetry_space_group_name_H-M   'P 1'
_cell_length_a   7.55050900
_cell_length_b   7.54154665
_cell_length_c   9.43035100
_cell_angle_alpha   90.00000000
_cell_angle_beta   90.00000000
_cell_angle_gamma   119.60280806
_symmetry_Int_Tables_number   1
_chemical_formula_structural   Tb2YZr(Ga3Ir)6
_chemical_formula_sum   'Tb2 Y1 Zr1 Ga18 Ir6'
_cell_volume   466.89526621
_cell_formula_units_Z   1
loop_
 _symmetry_equiv_pos_site_id
 _symmetry_equiv_pos_as_xyz
  1  'x, y, z'
loop_
 _atom_site_type_symbol
 _atom_site_label
 _atom_site_symmetry_multiplicity
 _atom_site_fract_x
 _atom_site_fract_y
 _atom_site_fract_z
 _atom_site_occupancy
  Tb  Tb0  1  0.003173  0.327931  0.750000  1
  Tb  Tb1  1  0.328786  0.003452  0.750000  1
  Y  Y2  1  0.671416  0.997200  0.250000  1
  Zr  Zr3  1  0.997154  0.671499  0.250000  1
  Ga  Ga4  1  0.127147  0.126834  0.250000  1
  Ga  Ga5  1  0.869411  0.868005  0.750000  1
  Ga  Ga6  1  0.999274  0.338793  0.084101  1
  Ga  Ga7  1  0.000594  0.664578  0.922195  1
  Ga  Ga8  1  0.000594  0.664578  0.577805  1
  Ga  Ga9  1  0.332428  0.996980  0.415799  1
  Ga  Ga10  1  0.999274  0.338793  0.415899  1
  Ga  Ga11  1  0.664368  0.999550  0.580823  1
  Ga  Ga12  1  0.664368  0.999550  0.919177  1
  Ga  Ga13  1  0.332428  0.996980  0.084201  1
  Ga  Ga14  1  0.332552  0.332602  0.562518  1
  Ga  Ga15  1  0.670772  0.668556  0.431798  1
  Ga  Ga16  1  0.670772  0.668556  0.068202  1
  Ga  Ga17  1  0.332552  0.332602  0.937482  1
  Ga  Ga18  1  0.339114  0.548398  0.250000  1
  Ga  Ga19  1  0.659546  0.453068  0.750000  1
  Ga  Ga20  1  0.552558  0.342816  0.250000  1
  Ga  Ga21  1  0.451271  0.657890  0.750000  1
  Ir  Ir22  1  0.672319  0.328785  0.001113  1
  Ir  Ir23  1  0.327875  0.672132  0.001820  1
  Ir  Ir24  1  0.327875  0.672132  0.498180  1
  Ir  Ir25  1  0.672319  0.328785  0.498887  1
  Ir  Ir26  1  0.000032  0.999479  0.001376  1
  Ir  Ir27  1  0.000032  0.999479  0.498624  1
