# generated using pymatgen
data_La17Lu(InIr6)2
_symmetry_space_group_name_H-M   'P 1'
_cell_length_a   11.36509800
_cell_length_b   11.36509800
_cell_length_c   6.44332400
_cell_angle_alpha   90.00000000
_cell_angle_beta   90.00000000
_cell_angle_gamma   90.00000000
_symmetry_Int_Tables_number   1
_chemical_formula_structural   La17Lu(InIr6)2
_chemical_formula_sum   'La17 Lu1 In2 Ir12'
_cell_volume   832.25486038
_cell_formula_units_Z   1
loop_
 _symmetry_equiv_pos_site_id
 _symmetry_equiv_pos_as_xyz
  1  'x, y, z'
loop_
 _atom_site_type_symbol
 _atom_site_label
 _atom_site_symmetry_multiplicity
 _atom_site_fract_x
 _atom_site_fract_y
 _atom_site_fract_z
 _atom_site_occupancy
  La  La0  1  0.280191  0.086250  0.389251  1
  La  La1  1  0.285242  0.912928  0.885292  1
  La  La2  1  0.714758  0.087072  0.885292  1
  La  La3  1  0.719809  0.913750  0.389251  1
  La  La4  1  0.587270  0.783171  0.889263  1
  La  La5  1  0.587932  0.208828  0.383704  1
  La  La6  1  0.412068  0.791172  0.383704  1
  La  La7  1  0.412730  0.216829  0.889263  1
  La  La8  1  0.208828  0.412068  0.616296  1
  La  La9  1  0.216829  0.587270  0.110737  1
  La  La10  1  0.783171  0.412730  0.110737  1
  La  La11  1  0.791172  0.587932  0.616296  1
  La  La12  1  0.912928  0.714758  0.114708  1
  La  La13  1  0.913750  0.280191  0.610749  1
  La  La14  1  0.086250  0.719809  0.610749  1
  La  La15  1  0.087072  0.285242  0.114708  1
  La  La16  1  0.500000  0.500000  0.500000  1
  Lu  Lu17  1  0.000000  0.000000  0.000000  1
  In  In18  1  0.000000  0.000000  0.500000  1
  In  In19  1  0.500000  0.500000  0.000000  1
  Ir  Ir20  1  0.852568  0.149504  0.241424  1
  Ir  Ir21  1  0.850496  0.852568  0.758576  1
  Ir  Ir22  1  0.149504  0.147432  0.758576  1
  Ir  Ir23  1  0.147432  0.850496  0.241424  1
  Ir  Ir24  1  0.655335  0.346271  0.745219  1
  Ir  Ir25  1  0.653729  0.655335  0.254781  1
  Ir  Ir26  1  0.346271  0.344665  0.254781  1
  Ir  Ir27  1  0.344665  0.653729  0.745219  1
  Ir  Ir28  1  0.500000  0.000000  0.117241  1
  Ir  Ir29  1  0.500000  0.000000  0.618651  1
  Ir  Ir30  1  0.000000  0.500000  0.882759  1
  Ir  Ir31  1  0.000000  0.500000  0.381349  1
