# generated using pymatgen
data_Dy12InFe4Pt
_symmetry_space_group_name_H-M   'P 1'
_cell_length_a   8.33671458
_cell_length_b   8.33671304
_cell_length_c   8.33671427
_cell_angle_alpha   110.36881939
_cell_angle_beta   110.91411497
_cell_angle_gamma   107.15573435
_symmetry_Int_Tables_number   1
_chemical_formula_structural   Dy12InFe4Pt
_chemical_formula_sum   'Dy12 In1 Fe4 Pt1'
_cell_volume   445.47459561
_cell_formula_units_Z   1
loop_
 _symmetry_equiv_pos_site_id
 _symmetry_equiv_pos_as_xyz
  1  'x, y, z'
loop_
 _atom_site_type_symbol
 _atom_site_label
 _atom_site_symmetry_multiplicity
 _atom_site_fract_x
 _atom_site_fract_y
 _atom_site_fract_z
 _atom_site_occupancy
  Dy  Dy0  1  0.185233  0.288081  0.473315  1
  Dy  Dy1  1  0.814767  0.711919  0.526685  1
  Dy  Dy2  1  0.185233  0.711919  0.897152  1
  Dy  Dy3  1  0.814767  0.288081  0.102848  1
  Dy  Dy4  1  0.314258  0.616153  0.301895  1
  Dy  Dy5  1  0.685742  0.383847  0.698105  1
  Dy  Dy6  1  0.314258  0.012365  0.698105  1
  Dy  Dy7  1  0.685742  0.987635  0.301895  1
  Dy  Dy8  1  0.415600  0.216548  0.199052  1
  Dy  Dy9  1  0.584400  0.783452  0.800948  1
  Dy  Dy10  1  0.017496  0.216548  0.800948  1
  Dy  Dy11  1  0.982504  0.783452  0.199052  1
  In  In12  1  0.500000  0.500000  0.000000  1
  Fe  Fe13  1  0.108325  0.608325  0.500000  1
  Fe  Fe14  1  0.891675  0.391675  0.500000  1
  Fe  Fe15  1  0.384610  0.000000  0.384610  1
  Fe  Fe16  1  0.615390  0.000000  0.615390  1
  Pt  Pt17  1  0.000000  0.000000  0.000000  1
