# generated using pymatgen
data_ThTi2(ZnPd)2
_symmetry_space_group_name_H-M   'P 1'
_cell_length_a   5.60211386
_cell_length_b   5.60211335
_cell_length_c   5.60211500
_cell_angle_alpha   100.86245362
_cell_angle_beta   102.58263247
_cell_angle_gamma   126.42007196
_symmetry_Int_Tables_number   1
_chemical_formula_structural   ThTi2(ZnPd)2
_chemical_formula_sum   'Th1 Ti2 Zn2 Pd2'
_cell_volume   126.26898348
_cell_formula_units_Z   1
loop_
 _symmetry_equiv_pos_site_id
 _symmetry_equiv_pos_as_xyz
  1  'x, y, z'
loop_
 _atom_site_type_symbol
 _atom_site_label
 _atom_site_symmetry_multiplicity
 _atom_site_fract_x
 _atom_site_fract_y
 _atom_site_fract_z
 _atom_site_occupancy
  Th  Th0  1  0.997170  0.000000  0.997170  1
  Ti  Ti1  1  0.248600  0.751151  0.497452  1
  Ti  Ti2  1  0.746301  0.248849  0.497452  1
  Zn  Zn3  1  0.308317  0.306973  0.615287  1
  Zn  Zn4  1  0.308317  0.693027  0.001344  1
  Pd  Pd5  1  0.695649  0.299644  0.995292  1
  Pd  Pd6  1  0.695649  0.700356  0.396005  1
