# generated using pymatgen
data_YHoNb2(SbRh)4
_symmetry_space_group_name_H-M   'P 1'
_cell_length_a   4.50063100
_cell_length_b   6.37567808
_cell_length_c   9.01542311
_cell_angle_alpha   89.98174338
_cell_angle_beta   90.00000000
_cell_angle_gamma   90.00000000
_symmetry_Int_Tables_number   1
_chemical_formula_structural   YHoNb2(SbRh)4
_chemical_formula_sum   'Y1 Ho1 Nb2 Sb4 Rh4'
_cell_volume   258.69371632
_cell_formula_units_Z   1
loop_
 _symmetry_equiv_pos_site_id
 _symmetry_equiv_pos_as_xyz
  1  'x, y, z'
loop_
 _atom_site_type_symbol
 _atom_site_label
 _atom_site_symmetry_multiplicity
 _atom_site_fract_x
 _atom_site_fract_y
 _atom_site_fract_z
 _atom_site_occupancy
  Y  Y0  1  0.500001  0.505755  0.624025  1
  Ho  Ho1  1  0.000000  0.005919  0.375937  1
  Nb  Nb2  1  0.500001  0.494283  0.121409  1
  Nb  Nb3  1  0.000000  0.994313  0.878586  1
  Sb  Sb4  1  0.500001  0.984878  0.124205  1
  Sb  Sb5  1  0.000000  0.510559  0.370651  1
  Sb  Sb6  1  0.500001  0.010542  0.629007  1
  Sb  Sb7  1  0.000000  0.484872  0.876151  1
  Rh  Rh8  1  0.000000  0.734422  0.110566  1
  Rh  Rh9  1  0.500001  0.269356  0.351985  1
  Rh  Rh10  1  0.000000  0.771075  0.647597  1
  Rh  Rh11  1  0.500001  0.234022  0.889885  1
