# generated using pymatgen
data_Y4Ta4Co15P12Ru
_symmetry_space_group_name_H-M   'P 1'
_cell_length_a   3.69244900
_cell_length_b   10.57485595
_cell_length_c   12.03597707
_cell_angle_alpha   89.87241059
_cell_angle_beta   90.00000000
_cell_angle_gamma   90.00000000
_symmetry_Int_Tables_number   1
_chemical_formula_structural   Y4Ta4Co15P12Ru
_chemical_formula_sum   'Y4 Ta4 Co15 P12 Ru1'
_cell_volume   469.96903104
_cell_formula_units_Z   1
loop_
 _symmetry_equiv_pos_site_id
 _symmetry_equiv_pos_as_xyz
  1  'x, y, z'
loop_
 _atom_site_type_symbol
 _atom_site_label
 _atom_site_symmetry_multiplicity
 _atom_site_fract_x
 _atom_site_fract_y
 _atom_site_fract_z
 _atom_site_occupancy
  Y  Y0  1  0.250000  0.915553  0.207115  1
  Y  Y1  1  0.750000  0.082965  0.790896  1
  Y  Y2  1  0.750000  0.418174  0.295595  1
  Y  Y3  1  0.250000  0.582322  0.704522  1
  Ta  Ta4  1  0.250000  0.793265  0.488201  1
  Ta  Ta5  1  0.750000  0.206664  0.511433  1
  Ta  Ta6  1  0.750000  0.297584  0.011255  1
  Ta  Ta7  1  0.250000  0.704936  0.989387  1
  Co  Co8  1  0.750000  0.899472  0.012546  1
  Co  Co9  1  0.750000  0.594049  0.510162  1
  Co  Co10  1  0.250000  0.406358  0.489933  1
  Co  Co11  1  0.250000  0.277796  0.675574  1
  Co  Co12  1  0.750000  0.722566  0.323779  1
  Co  Co13  1  0.750000  0.776564  0.821520  1
  Co  Co14  1  0.250000  0.227780  0.179875  1
  Co  Co15  1  0.250000  0.612880  0.200789  1
  Co  Co16  1  0.750000  0.388837  0.799206  1
  Co  Co17  1  0.750000  0.112205  0.299957  1
  Co  Co18  1  0.250000  0.886662  0.698926  1
  Co  Co19  1  0.250000  0.034855  0.433433  1
  Co  Co20  1  0.750000  0.964717  0.565757  1
  Co  Co21  1  0.750000  0.536156  0.066606  1
  Co  Co22  1  0.250000  0.465479  0.933509  1
  P  P23  1  0.250000  0.077450  0.615445  1
  P  P24  1  0.750000  0.922342  0.384105  1
  P  P25  1  0.750000  0.578139  0.882941  1
  P  P26  1  0.250000  0.424476  0.117326  1
  P  P27  1  0.250000  0.230910  0.362817  1
  P  P28  1  0.750000  0.769078  0.637241  1
  P  P29  1  0.750000  0.730560  0.139211  1
  P  P30  1  0.250000  0.271822  0.859412  1
  P  P31  1  0.250000  0.904517  0.885624  1
  P  P32  1  0.750000  0.089923  0.114811  1
  P  P33  1  0.750000  0.408408  0.609274  1
  P  P34  1  0.250000  0.591779  0.390444  1
  Ru  Ru35  1  0.250000  0.092758  0.991373  1
