# generated using pymatgen
data_Ta4Al4Zn3Cu
_symmetry_space_group_name_H-M   'P 1'
_cell_length_a   4.99696013
_cell_length_b   4.99696279
_cell_length_c   8.30216500
_cell_angle_alpha   90.00000000
_cell_angle_beta   90.00000000
_cell_angle_gamma   61.12325824
_symmetry_Int_Tables_number   1
_chemical_formula_structural   Ta4Al4Zn3Cu
_chemical_formula_sum   'Ta4 Al4 Zn3 Cu1'
_cell_volume   181.52614592
_cell_formula_units_Z   1
loop_
 _symmetry_equiv_pos_site_id
 _symmetry_equiv_pos_as_xyz
  1  'x, y, z'
loop_
 _atom_site_type_symbol
 _atom_site_label
 _atom_site_symmetry_multiplicity
 _atom_site_fract_x
 _atom_site_fract_y
 _atom_site_fract_z
 _atom_site_occupancy
  Ta  Ta0  1  0.336128  0.336127  0.566843  1
  Ta  Ta1  1  0.661667  0.661668  0.438504  1
  Ta  Ta2  1  0.661667  0.661668  0.061496  1
  Ta  Ta3  1  0.336128  0.336127  0.933157  1
  Al  Al4  1  0.994437  0.994437  0.497693  1
  Al  Al5  1  0.994437  0.994437  0.002307  1
  Al  Al6  1  0.834054  0.351028  0.750000  1
  Al  Al7  1  0.351030  0.834052  0.750000  1
  Zn  Zn8  1  0.170616  0.653025  0.250000  1
  Zn  Zn9  1  0.653023  0.170618  0.250000  1
  Zn  Zn10  1  0.170039  0.170040  0.250000  1
  Cu  Cu11  1  0.836774  0.836773  0.750000  1
