# generated using pymatgen
data_Sm2Ho4CoI10
_symmetry_space_group_name_H-M   'P 1'
_cell_length_a   7.74752447
_cell_length_b   9.73726810
_cell_length_c   9.70914088
_cell_angle_alpha   106.88198623
_cell_angle_beta   96.35687682
_cell_angle_gamma   104.96960215
_symmetry_Int_Tables_number   1
_chemical_formula_structural   Sm2Ho4CoI10
_chemical_formula_sum   'Sm2 Ho4 Co1 I10'
_cell_volume   663.29633952
_cell_formula_units_Z   1
loop_
 _symmetry_equiv_pos_site_id
 _symmetry_equiv_pos_as_xyz
  1  'x, y, z'
loop_
 _atom_site_type_symbol
 _atom_site_label
 _atom_site_symmetry_multiplicity
 _atom_site_fract_x
 _atom_site_fract_y
 _atom_site_fract_z
 _atom_site_occupancy
  Sm  Sm0  1  0.888351  0.958818  0.229583  1
  Sm  Sm1  1  0.111649  0.041182  0.770417  1
  Ho  Ho2  1  0.029535  0.720203  0.915986  1
  Ho  Ho3  1  0.970465  0.279797  0.084014  1
  Ho  Ho4  1  0.660321  0.878380  0.838392  1
  Ho  Ho5  1  0.339679  0.121620  0.161608  1
  Co  Co6  1  0.000000  0.000000  0.000000  1
  I  I7  1  0.651154  0.552116  0.729792  1
  I  I8  1  0.348846  0.447884  0.270208  1
  I  I9  1  0.738291  0.912065  0.541660  1
  I  I10  1  0.261709  0.087935  0.458340  1
  I  I11  1  0.084493  0.375420  0.822575  1
  I  I12  1  0.915507  0.624580  0.177425  1
  I  I13  1  0.451652  0.815942  0.091174  1
  I  I14  1  0.548348  0.184058  0.908826  1
  I  I15  1  0.225492  0.741647  0.657744  1
  I  I16  1  0.774508  0.258353  0.342256  1
