# generated using pymatgen
data_YIO4
_symmetry_space_group_name_H-M   'P 1'
_cell_length_a   5.01295967
_cell_length_b   5.01295916
_cell_length_c   7.25006000
_cell_angle_alpha   90.00000000
_cell_angle_beta   90.00000000
_cell_angle_gamma   85.80126646
_symmetry_Int_Tables_number   1
_chemical_formula_structural   YIO4
_chemical_formula_sum   'Y2 I2 O8'
_cell_volume   181.70329656
_cell_formula_units_Z   2
loop_
 _symmetry_equiv_pos_site_id
 _symmetry_equiv_pos_as_xyz
  1  'x, y, z'
loop_
 _atom_site_type_symbol
 _atom_site_label
 _atom_site_symmetry_multiplicity
 _atom_site_fract_x
 _atom_site_fract_y
 _atom_site_fract_z
 _atom_site_occupancy
  Y  Y0  1  0.000000  0.000000  0.000000  1
  Y  Y1  1  0.000000  0.000000  0.500000  1
  I  I2  1  0.528212  0.528212  0.250001  1
  I  I3  1  0.471788  0.471788  0.750001  1
  O  O4  1  0.830088  0.236340  0.250001  1
  O  O5  1  0.236340  0.830088  0.250001  1
  O  O6  1  0.763659  0.169911  0.750001  1
  O  O7  1  0.169911  0.763659  0.750001  1
  O  O8  1  0.689601  0.689601  0.051861  1
  O  O9  1  0.689601  0.689601  0.448139  1
  O  O10  1  0.310399  0.310399  0.551861  1
  O  O11  1  0.310399  0.310399  0.948139  1
