# generated using pymatgen
data_Dy2MnCr3Ni8P7
_symmetry_space_group_name_H-M   'P 1'
_cell_length_a   9.12440616
_cell_length_b   9.11436910
_cell_length_c   3.65924700
_cell_angle_alpha   90.00000000
_cell_angle_beta   90.00000000
_cell_angle_gamma   119.97914994
_symmetry_Int_Tables_number   1
_chemical_formula_structural   Dy2MnCr3Ni8P7
_chemical_formula_sum   'Dy2 Mn1 Cr3 Ni8 P7'
_cell_volume   263.59962287
_cell_formula_units_Z   1
loop_
 _symmetry_equiv_pos_site_id
 _symmetry_equiv_pos_as_xyz
  1  'x, y, z'
loop_
 _atom_site_type_symbol
 _atom_site_label
 _atom_site_symmetry_multiplicity
 _atom_site_fract_x
 _atom_site_fract_y
 _atom_site_fract_z
 _atom_site_occupancy
  Dy  Dy0  1  0.668234  0.333137  0.000000  1
  Dy  Dy1  1  0.331618  0.664575  0.500000  1
  Mn  Mn2  1  0.843951  0.120645  0.000000  1
  Cr  Cr3  1  0.118076  0.901648  0.500000  1
  Cr  Cr4  1  0.096012  0.214176  0.500000  1
  Cr  Cr5  1  0.783232  0.884748  0.500000  1
  Ni  Ni6  1  0.374649  0.939412  0.000000  1
  Ni  Ni7  1  0.062838  0.433741  0.000000  1
  Ni  Ni8  1  0.565903  0.628580  0.000000  1
  Ni  Ni9  1  0.876643  0.722847  0.000000  1
  Ni  Ni10  1  0.278841  0.153825  0.000000  1
  Ni  Ni11  1  0.946881  0.562923  0.500000  1
  Ni  Ni12  1  0.437618  0.385311  0.500000  1
  Ni  Ni13  1  0.614061  0.051076  0.500000  1
  P  P14  1  0.113790  0.707312  0.000000  1
  P  P15  1  0.293414  0.405551  0.000000  1
  P  P16  1  0.594751  0.887747  0.000000  1
  P  P17  1  0.710122  0.598043  0.500000  1
  P  P18  1  0.403108  0.114390  0.500000  1
  P  P19  1  0.885860  0.287977  0.500000  1
  P  P20  1  0.000398  0.002338  0.000000  1
