# generated using pymatgen
data_La2Al5InAu6
_symmetry_space_group_name_H-M   'P 1'
_cell_length_a   4.45653700
_cell_length_b   7.31057500
_cell_length_c   8.76755200
_cell_angle_alpha   90.00000000
_cell_angle_beta   90.00000000
_cell_angle_gamma   90.00000000
_symmetry_Int_Tables_number   1
_chemical_formula_structural   La2Al5InAu6
_chemical_formula_sum   'La2 Al5 In1 Au6'
_cell_volume   285.64551131
_cell_formula_units_Z   1
loop_
 _symmetry_equiv_pos_site_id
 _symmetry_equiv_pos_as_xyz
  1  'x, y, z'
loop_
 _atom_site_type_symbol
 _atom_site_label
 _atom_site_symmetry_multiplicity
 _atom_site_fract_x
 _atom_site_fract_y
 _atom_site_fract_z
 _atom_site_occupancy
  La  La0  1  0.500000  0.000000  0.735263  1
  La  La1  1  0.000000  0.500000  0.254351  1
  Al  Al2  1  0.000000  0.307793  0.896517  1
  Al  Al3  1  0.500000  0.192920  0.104669  1
  Al  Al4  1  0.000000  0.692207  0.896517  1
  Al  Al5  1  0.500000  0.807080  0.104669  1
  Al  Al6  1  0.500000  0.500000  0.638739  1
  In  In7  1  0.000000  0.000000  0.368000  1
  Au  Au8  1  0.000000  0.714954  0.608261  1
  Au  Au9  1  0.500000  0.748073  0.397795  1
  Au  Au10  1  0.500000  0.500000  0.945903  1
  Au  Au11  1  0.000000  0.000000  0.043261  1
  Au  Au12  1  0.500000  0.251927  0.397795  1
  Au  Au13  1  0.000000  0.285046  0.608261  1
