# generated using pymatgen
data_Ho19SnIr12
_symmetry_space_group_name_H-M   'P 1'
_cell_length_a   10.83673100
_cell_length_b   10.83673100
_cell_length_c   6.29939800
_cell_angle_alpha   90.00000000
_cell_angle_beta   90.00000000
_cell_angle_gamma   90.00000000
_symmetry_Int_Tables_number   1
_chemical_formula_structural   Ho19SnIr12
_chemical_formula_sum   'Ho19 Sn1 Ir12'
_cell_volume   739.76815852
_cell_formula_units_Z   1
loop_
 _symmetry_equiv_pos_site_id
 _symmetry_equiv_pos_as_xyz
  1  'x, y, z'
loop_
 _atom_site_type_symbol
 _atom_site_label
 _atom_site_symmetry_multiplicity
 _atom_site_fract_x
 _atom_site_fract_y
 _atom_site_fract_z
 _atom_site_occupancy
  Ho  Ho0  1  0.286503  0.086063  0.378492  1
  Ho  Ho1  1  0.290992  0.911604  0.880484  1
  Ho  Ho2  1  0.709008  0.088396  0.880484  1
  Ho  Ho3  1  0.713497  0.913937  0.378492  1
  Ho  Ho4  1  0.588611  0.790894  0.879934  1
  Ho  Ho5  1  0.588933  0.208423  0.377090  1
  Ho  Ho6  1  0.411067  0.791577  0.377090  1
  Ho  Ho7  1  0.411389  0.209106  0.879934  1
  Ho  Ho8  1  0.208423  0.411067  0.622910  1
  Ho  Ho9  1  0.209106  0.588611  0.120066  1
  Ho  Ho10  1  0.790894  0.411389  0.120066  1
  Ho  Ho11  1  0.791577  0.588933  0.622910  1
  Ho  Ho12  1  0.911604  0.709008  0.119516  1
  Ho  Ho13  1  0.913937  0.286503  0.621508  1
  Ho  Ho14  1  0.086063  0.713497  0.621508  1
  Ho  Ho15  1  0.088396  0.290992  0.119516  1
  Ho  Ho16  1  0.000000  0.000000  0.000000  1
  Ho  Ho17  1  0.500000  0.500000  0.000000  1
  Ho  Ho18  1  0.500000  0.500000  0.500000  1
  Sn  Sn19  1  0.000000  0.000000  0.500000  1
  Ir  Ir20  1  0.846645  0.154493  0.249637  1
  Ir  Ir21  1  0.845507  0.846645  0.750363  1
  Ir  Ir22  1  0.154493  0.153355  0.750363  1
  Ir  Ir23  1  0.153355  0.845507  0.249637  1
  Ir  Ir24  1  0.654002  0.346886  0.747749  1
  Ir  Ir25  1  0.653114  0.654002  0.252251  1
  Ir  Ir26  1  0.346886  0.345998  0.252251  1
  Ir  Ir27  1  0.345998  0.653114  0.747749  1
  Ir  Ir28  1  0.500000  0.000000  0.122353  1
  Ir  Ir29  1  0.500000  0.000000  0.619888  1
  Ir  Ir30  1  0.000000  0.500000  0.877647  1
  Ir  Ir31  1  0.000000  0.500000  0.380112  1
