# generated using pymatgen
data_Tm2Mn6P7(IrRh)3
_symmetry_space_group_name_H-M   'P 1'
_cell_length_a   9.42281400
_cell_length_b   9.42281374
_cell_length_c   3.79355200
_cell_angle_alpha   90.00000000
_cell_angle_beta   90.00000000
_cell_angle_gamma   120.00000091
_symmetry_Int_Tables_number   1
_chemical_formula_structural   Tm2Mn6P7(IrRh)3
_chemical_formula_sum   'Tm2 Mn6 P7 Ir3 Rh3'
_cell_volume   291.70098414
_cell_formula_units_Z   1
loop_
 _symmetry_equiv_pos_site_id
 _symmetry_equiv_pos_as_xyz
  1  'x, y, z'
loop_
 _atom_site_type_symbol
 _atom_site_label
 _atom_site_symmetry_multiplicity
 _atom_site_fract_x
 _atom_site_fract_y
 _atom_site_fract_z
 _atom_site_occupancy
  Tm  Tm0  1  0.000000  0.000000  0.000000  1
  Tm  Tm1  1  0.666667  0.333333  0.500000  1
  Mn  Mn2  1  0.221232  0.395793  0.000000  1
  Mn  Mn3  1  0.604207  0.825439  0.000000  1
  Mn  Mn4  1  0.174561  0.778768  0.000000  1
  Mn  Mn5  1  0.450507  0.568256  0.500000  1
  Mn  Mn6  1  0.431744  0.882253  0.500000  1
  Mn  Mn7  1  0.117747  0.549493  0.500000  1
  P  P8  1  0.444355  0.367600  0.000000  1
  P  P9  1  0.632400  0.076754  0.000000  1
  P  P10  1  0.923246  0.555645  0.000000  1
  P  P11  1  0.054773  0.268066  0.500000  1
  P  P12  1  0.731934  0.786708  0.500000  1
  P  P13  1  0.213292  0.945227  0.500000  1
  P  P14  1  0.333333  0.666667  0.000000  1
  Ir  Ir15  1  0.278099  0.224007  0.500000  1
  Ir  Ir16  1  0.775993  0.054091  0.500000  1
  Ir  Ir17  1  0.945909  0.721901  0.500000  1
  Rh  Rh18  1  0.694846  0.600540  0.000000  1
  Rh  Rh19  1  0.399460  0.094307  0.000000  1
  Rh  Rh20  1  0.905693  0.305154  0.000000  1
