# generated using pymatgen
data_Dy2Ho4ScVO12
_symmetry_space_group_name_H-M   'P 1'
_cell_length_a   6.55517988
_cell_length_b   6.55196813
_cell_length_c   6.55620677
_cell_angle_alpha   92.80632523
_cell_angle_beta   92.79018924
_cell_angle_gamma   92.80371632
_symmetry_Int_Tables_number   1
_chemical_formula_structural   Dy2Ho4ScVO12
_chemical_formula_sum   'Dy2 Ho4 Sc1 V1 O12'
_cell_volume   280.54194808
_cell_formula_units_Z   1
loop_
 _symmetry_equiv_pos_site_id
 _symmetry_equiv_pos_as_xyz
  1  'x, y, z'
loop_
 _atom_site_type_symbol
 _atom_site_label
 _atom_site_symmetry_multiplicity
 _atom_site_fract_x
 _atom_site_fract_y
 _atom_site_fract_z
 _atom_site_occupancy
  Dy  Dy0  1  0.742917  0.926510  0.434889  1
  Dy  Dy1  1  0.926640  0.435301  0.743096  1
  Ho  Ho2  1  0.435380  0.743550  0.926922  1
  Ho  Ho3  1  0.257049  0.073177  0.565260  1
  Ho  Ho4  1  0.073750  0.564875  0.256748  1
  Ho  Ho5  1  0.564839  0.257430  0.073483  1
  Sc  Sc6  1  0.000727  0.000367  0.000763  1
  V  V7  1  0.499126  0.499709  0.499693  1
  O  O8  1  0.588107  0.460683  0.802000  1
  O  O9  1  0.459493  0.801343  0.590081  1
  O  O10  1  0.801097  0.588283  0.459187  1
  O  O11  1  0.410670  0.539838  0.197892  1
  O  O12  1  0.538090  0.198207  0.410103  1
  O  O13  1  0.198046  0.410027  0.537838  1
  O  O14  1  0.069647  0.915308  0.308622  1
  O  O15  1  0.915336  0.308429  0.069695  1
  O  O16  1  0.691994  0.931889  0.083215  1
  O  O17  1  0.085456  0.692142  0.932324  1
  O  O18  1  0.932714  0.083799  0.692356  1
  O  O19  1  0.308922  0.069133  0.915834  1
