# generated using pymatgen
data_Hf8V11Si16Tc
_symmetry_space_group_name_H-M   'P 1'
_cell_length_a   6.60848006
_cell_length_b   6.60847946
_cell_length_c   12.21748261
_cell_angle_alpha   90.04106722
_cell_angle_beta   89.95893439
_cell_angle_gamma   89.69908115
_symmetry_Int_Tables_number   1
_chemical_formula_structural   Hf8V11Si16Tc
_chemical_formula_sum   'Hf8 V11 Si16 Tc1'
_cell_volume   533.55432466
_cell_formula_units_Z   1
loop_
 _symmetry_equiv_pos_site_id
 _symmetry_equiv_pos_as_xyz
  1  'x, y, z'
loop_
 _atom_site_type_symbol
 _atom_site_label
 _atom_site_symmetry_multiplicity
 _atom_site_fract_x
 _atom_site_fract_y
 _atom_site_fract_z
 _atom_site_occupancy
  Hf  Hf0  1  0.001656  0.663188  0.030174  1
  Hf  Hf1  1  0.837359  0.501358  0.279682  1
  Hf  Hf2  1  0.161855  0.498157  0.779268  1
  Hf  Hf3  1  0.501358  0.837359  0.720318  1
  Hf  Hf4  1  0.498157  0.161855  0.220732  1
  Hf  Hf5  1  0.998072  0.338095  0.529775  1
  Hf  Hf6  1  0.663188  0.001656  0.969826  1
  Hf  Hf7  1  0.338095  0.998072  0.470225  1
  V  V8  1  0.167380  0.832611  0.248958  1
  V  V9  1  0.832611  0.167380  0.751042  1
  V  V10  1  0.666174  0.666174  0.500000  1
  V  V11  1  0.997512  0.157108  0.128936  1
  V  V12  1  0.341640  0.502927  0.376057  1
  V  V13  1  0.666916  0.497970  0.874458  1
  V  V14  1  0.502927  0.341640  0.623943  1
  V  V15  1  0.497970  0.666916  0.125542  1
  V  V16  1  0.996952  0.841515  0.626579  1
  V  V17  1  0.157108  0.997512  0.871064  1
  V  V18  1  0.841515  0.996952  0.373421  1
  Si  Si19  1  0.288320  0.962331  0.063168  1
  Si  Si20  1  0.539498  0.791616  0.315750  1
  Si  Si21  1  0.459919  0.208931  0.815609  1
  Si  Si22  1  0.791616  0.539498  0.684250  1
  Si  Si23  1  0.208931  0.459919  0.184391  1
  Si  Si24  1  0.708820  0.039530  0.564977  1
  Si  Si25  1  0.962331  0.288320  0.936832  1
  Si  Si26  1  0.039530  0.708820  0.435023  1
  Si  Si27  1  0.703123  0.375380  0.070729  1
  Si  Si28  1  0.127574  0.205378  0.321101  1
  Si  Si29  1  0.872516  0.794019  0.820514  1
  Si  Si30  1  0.205378  0.127574  0.678899  1
  Si  Si31  1  0.794019  0.872516  0.179486  1
  Si  Si32  1  0.294512  0.627660  0.570739  1
  Si  Si33  1  0.375380  0.703123  0.929271  1
  Si  Si34  1  0.627660  0.294512  0.429261  1
  Tc  Tc35  1  0.332432  0.332432  0.000000  1
