# generated using pymatgen
data_Ho8TiV3O20
_symmetry_space_group_name_H-M   'P 1'
_cell_length_a   3.70744900
_cell_length_b   10.33518625
_cell_length_c   11.25187797
_cell_angle_alpha   89.88326547
_cell_angle_beta   90.00000000
_cell_angle_gamma   90.00000000
_symmetry_Int_Tables_number   1
_chemical_formula_structural   Ho8TiV3O20
_chemical_formula_sum   'Ho8 Ti1 V3 O20'
_cell_volume   431.13929257
_cell_formula_units_Z   1
loop_
 _symmetry_equiv_pos_site_id
 _symmetry_equiv_pos_as_xyz
  1  'x, y, z'
loop_
 _atom_site_type_symbol
 _atom_site_label
 _atom_site_symmetry_multiplicity
 _atom_site_fract_x
 _atom_site_fract_y
 _atom_site_fract_z
 _atom_site_occupancy
  Ho  Ho0  1  0.250000  0.120000  0.274025  1
  Ho  Ho1  1  0.250000  0.137131  0.945282  1
  Ho  Ho2  1  0.750000  0.362622  0.444369  1
  Ho  Ho3  1  0.750000  0.378032  0.773089  1
  Ho  Ho4  1  0.250000  0.620171  0.226115  1
  Ho  Ho5  1  0.250000  0.636099  0.556069  1
  Ho  Ho6  1  0.750000  0.863859  0.054770  1
  Ho  Ho7  1  0.750000  0.878764  0.727712  1
  Ti  Ti8  1  0.750000  0.829202  0.382328  1
  V  V9  1  0.250000  0.168441  0.617114  1
  V  V10  1  0.750000  0.331513  0.117260  1
  V  V11  1  0.250000  0.668149  0.883241  1
  O  O12  1  0.750000  0.005005  0.894445  1
  O  O13  1  0.250000  0.004551  0.652996  1
  O  O14  1  0.250000  0.227059  0.456245  1
  O  O15  1  0.750000  0.233780  0.614708  1
  O  O16  1  0.750000  0.246547  0.268610  1
  O  O17  1  0.250000  0.255263  0.768351  1
  O  O18  1  0.250000  0.266297  0.114580  1
  O  O19  1  0.750000  0.273649  0.955822  1
  O  O20  1  0.750000  0.495828  0.152321  1
  O  O21  1  0.250000  0.495868  0.394592  1
  O  O22  1  0.750000  0.505574  0.605597  1
  O  O23  1  0.250000  0.504492  0.847313  1
  O  O24  1  0.250000  0.726177  0.044259  1
  O  O25  1  0.750000  0.733434  0.885547  1
  O  O26  1  0.750000  0.743973  0.230653  1
  O  O27  1  0.250000  0.754932  0.731647  1
  O  O28  1  0.250000  0.766062  0.384765  1
  O  O29  1  0.750000  0.775655  0.544848  1
  O  O30  1  0.750000  0.997015  0.346364  1
  O  O31  1  0.250000  0.994857  0.104961  1
