# generated using pymatgen
data_Zr8Ti12Si15Se
_symmetry_space_group_name_H-M   'P 1'
_cell_length_a   6.85066458
_cell_length_b   6.83969581
_cell_length_c   12.56936921
_cell_angle_alpha   89.95882519
_cell_angle_beta   89.72574610
_cell_angle_gamma   90.02640841
_symmetry_Int_Tables_number   1
_chemical_formula_structural   Zr8Ti12Si15Se
_chemical_formula_sum   'Zr8 Ti12 Si15 Se1'
_cell_volume   588.94920607
_cell_formula_units_Z   1
loop_
 _symmetry_equiv_pos_site_id
 _symmetry_equiv_pos_as_xyz
  1  'x, y, z'
loop_
 _atom_site_type_symbol
 _atom_site_label
 _atom_site_symmetry_multiplicity
 _atom_site_fract_x
 _atom_site_fract_y
 _atom_site_fract_z
 _atom_site_occupancy
  Zr  Zr0  1  0.343540  0.996824  0.465760  1
  Zr  Zr1  1  0.502439  0.843392  0.719727  1
  Zr  Zr2  1  0.498555  0.155788  0.217706  1
  Zr  Zr3  1  0.843084  0.499840  0.282153  1
  Zr  Zr4  1  0.157392  0.499372  0.781597  1
  Zr  Zr5  1  0.659875  0.997519  0.970006  1
  Zr  Zr6  1  0.992442  0.347719  0.529245  1
  Zr  Zr7  1  0.001945  0.657077  0.032190  1
  Ti  Ti8  1  0.327742  0.328532  0.000082  1
  Ti  Ti9  1  0.171740  0.828472  0.249826  1
  Ti  Ti10  1  0.825969  0.172438  0.749892  1
  Ti  Ti11  1  0.670807  0.670664  0.499905  1
  Ti  Ti12  1  0.156834  0.006689  0.872507  1
  Ti  Ti13  1  0.495768  0.653041  0.123008  1
  Ti  Ti14  1  0.502500  0.344880  0.624805  1
  Ti  Ti15  1  0.656398  0.500436  0.878237  1
  Ti  Ti16  1  0.345502  0.503706  0.376835  1
  Ti  Ti17  1  0.846371  0.996593  0.373221  1
  Ti  Ti18  1  0.004394  0.152397  0.126850  1
  Ti  Ti19  1  0.992369  0.843527  0.624595  1
  Si  Si20  1  0.365044  0.705409  0.927868  1
  Si  Si21  1  0.632293  0.294862  0.428112  1
  Si  Si22  1  0.705906  0.365300  0.072888  1
  Si  Si23  1  0.295657  0.634811  0.571630  1
  Si  Si24  1  0.795040  0.864663  0.178406  1
  Si  Si25  1  0.134369  0.205085  0.321788  1
  Si  Si26  1  0.867841  0.796228  0.821835  1
  Si  Si27  1  0.293963  0.954596  0.063840  1
  Si  Si28  1  0.546163  0.791425  0.313300  1
  Si  Si29  1  0.467494  0.209367  0.821999  1
  Si  Si30  1  0.791146  0.546278  0.686405  1
  Si  Si31  1  0.206478  0.454313  0.186195  1
  Si  Si32  1  0.705031  0.045233  0.563150  1
  Si  Si33  1  0.954804  0.292851  0.936597  1
  Si  Si34  1  0.045137  0.707309  0.434786  1
  Se  Se35  1  0.197971  0.133365  0.673055  1
