# generated using pymatgen
data_Ce4MgNb(B2Ru5)2
_symmetry_space_group_name_H-M   'P 1'
_cell_length_a   9.74358400
_cell_length_b   9.74358400
_cell_length_c   3.15744100
_cell_angle_alpha   90.00000000
_cell_angle_beta   90.00000000
_cell_angle_gamma   90.00000000
_symmetry_Int_Tables_number   1
_chemical_formula_structural   Ce4MgNb(B2Ru5)2
_chemical_formula_sum   'Ce4 Mg1 Nb1 B4 Ru10'
_cell_volume   299.75933128
_cell_formula_units_Z   1
loop_
 _symmetry_equiv_pos_site_id
 _symmetry_equiv_pos_as_xyz
  1  'x, y, z'
loop_
 _atom_site_type_symbol
 _atom_site_label
 _atom_site_symmetry_multiplicity
 _atom_site_fract_x
 _atom_site_fract_y
 _atom_site_fract_z
 _atom_site_occupancy
  Ce  Ce0  1  0.820154  0.671855  0.000000  1
  Ce  Ce1  1  0.179846  0.328145  0.000000  1
  Ce  Ce2  1  0.328145  0.820154  0.000000  1
  Ce  Ce3  1  0.671855  0.179846  0.000000  1
  Mg  Mg4  1  0.500000  0.500000  0.000000  1
  Nb  Nb5  1  0.000000  0.000000  0.000000  1
  B  B6  1  0.621957  0.877186  0.000000  1
  B  B7  1  0.378043  0.122814  0.000000  1
  B  B8  1  0.122814  0.621957  0.000000  1
  B  B9  1  0.877186  0.378043  0.000000  1
  Ru  Ru10  1  0.577536  0.725962  0.500000  1
  Ru  Ru11  1  0.422464  0.274038  0.500000  1
  Ru  Ru12  1  0.067729  0.782184  0.500000  1
  Ru  Ru13  1  0.932271  0.217816  0.500000  1
  Ru  Ru14  1  0.274038  0.577536  0.500000  1
  Ru  Ru15  1  0.725962  0.422464  0.500000  1
  Ru  Ru16  1  0.217816  0.067729  0.500000  1
  Ru  Ru17  1  0.782184  0.932271  0.500000  1
  Ru  Ru18  1  0.500000  0.000000  0.500000  1
  Ru  Ru19  1  0.000000  0.500000  0.500000  1
