# generated using pymatgen
data_Nd2B2Rh5
_symmetry_space_group_name_H-M   'P 1'
_cell_length_a   5.52837506
_cell_length_b   5.52837495
_cell_length_c   21.20806200
_cell_angle_alpha   90.00000000
_cell_angle_beta   90.00000000
_cell_angle_gamma   119.99630286
_symmetry_Int_Tables_number   1
_chemical_formula_structural   Nd2B2Rh5
_chemical_formula_sum   'Nd8 B8 Rh20'
_cell_volume   561.36170730
_cell_formula_units_Z   4
loop_
 _symmetry_equiv_pos_site_id
 _symmetry_equiv_pos_as_xyz
  1  'x, y, z'
loop_
 _atom_site_type_symbol
 _atom_site_label
 _atom_site_symmetry_multiplicity
 _atom_site_fract_x
 _atom_site_fract_y
 _atom_site_fract_z
 _atom_site_occupancy
  Nd  Nd0  1  0.666645  0.333355  0.521454  1
  Nd  Nd1  1  0.333355  0.666645  0.478546  1
  Nd  Nd2  1  0.333355  0.666645  0.021454  1
  Nd  Nd3  1  0.666645  0.333355  0.978546  1
  Nd  Nd4  1  0.666651  0.333349  0.674203  1
  Nd  Nd5  1  0.333349  0.666651  0.325797  1
  Nd  Nd6  1  0.333349  0.666651  0.174203  1
  Nd  Nd7  1  0.666651  0.333349  0.825797  1
  B  B8  1  0.999967  0.000033  0.677523  1
  B  B9  1  0.000033  0.999967  0.322477  1
  B  B10  1  0.000033  0.999967  0.177523  1
  B  B11  1  0.999967  0.000033  0.822477  1
  B  B12  1  0.666693  0.333307  0.325944  1
  B  B13  1  0.333307  0.666693  0.674056  1
  B  B14  1  0.333307  0.666693  0.825944  1
  B  B15  1  0.666693  0.333307  0.174056  1
  Rh  Rh16  1  0.000000  0.000000  0.500000  1
  Rh  Rh17  1  0.000000  0.000000  0.000000  1
  Rh  Rh18  1  0.167553  0.335151  0.750000  1
  Rh  Rh19  1  0.167554  0.832446  0.750000  1
  Rh  Rh20  1  0.664849  0.832447  0.750000  1
  Rh  Rh21  1  0.832447  0.664849  0.250000  1
  Rh  Rh22  1  0.832446  0.167554  0.250000  1
  Rh  Rh23  1  0.335151  0.167553  0.250000  1
  Rh  Rh24  1  0.163234  0.326583  0.609058  1
  Rh  Rh25  1  0.163231  0.836769  0.609067  1
  Rh  Rh26  1  0.673417  0.836766  0.609058  1
  Rh  Rh27  1  0.836766  0.673417  0.390942  1
  Rh  Rh28  1  0.836769  0.163231  0.390933  1
  Rh  Rh29  1  0.326583  0.163234  0.390942  1
  Rh  Rh30  1  0.836766  0.673417  0.109058  1
  Rh  Rh31  1  0.836769  0.163231  0.109067  1
  Rh  Rh32  1  0.326583  0.163234  0.109058  1
  Rh  Rh33  1  0.163234  0.326583  0.890942  1
  Rh  Rh34  1  0.163231  0.836769  0.890933  1
  Rh  Rh35  1  0.673417  0.836766  0.890942  1
