# generated using pymatgen
data_Tm8V2B24IrRh
_symmetry_space_group_name_H-M   'P 1'
_cell_length_a   3.56992400
_cell_length_b   9.11657610
_cell_length_c   11.50399123
_cell_angle_alpha   90.25115612
_cell_angle_beta   90.00000000
_cell_angle_gamma   90.00000000
_symmetry_Int_Tables_number   1
_chemical_formula_structural   Tm8V2B24IrRh
_chemical_formula_sum   'Tm8 V2 B24 Ir1 Rh1'
_cell_volume   374.39936332
_cell_formula_units_Z   1
loop_
 _symmetry_equiv_pos_site_id
 _symmetry_equiv_pos_as_xyz
  1  'x, y, z'
loop_
 _atom_site_type_symbol
 _atom_site_label
 _atom_site_symmetry_multiplicity
 _atom_site_fract_x
 _atom_site_fract_y
 _atom_site_fract_z
 _atom_site_occupancy
  Tm  Tm0  1  0.500000  0.318312  0.411329  1
  Tm  Tm1  1  0.500000  0.681817  0.588458  1
  Tm  Tm2  1  0.500000  0.173648  0.916849  1
  Tm  Tm3  1  0.500000  0.826225  0.083235  1
  Tm  Tm4  1  0.500000  0.442296  0.127098  1
  Tm  Tm5  1  0.500000  0.558165  0.873349  1
  Tm  Tm6  1  0.500000  0.053201  0.628279  1
  Tm  Tm7  1  0.500000  0.946065  0.371548  1
  V  V8  1  0.500000  0.139939  0.181494  1
  V  V9  1  0.500000  0.860136  0.818410  1
  B  B10  1  0.000000  0.106944  0.471532  1
  B  B11  1  0.000000  0.892905  0.528440  1
  B  B12  1  0.000000  0.393789  0.970234  1
  B  B13  1  0.000000  0.606377  0.029820  1
  B  B14  1  0.000000  0.132870  0.316447  1
  B  B15  1  0.000000  0.867194  0.683475  1
  B  B16  1  0.000000  0.367695  0.815825  1
  B  B17  1  0.000000  0.632474  0.183992  1
  B  B18  1  0.000000  0.052206  0.066567  1
  B  B19  1  0.000000  0.947772  0.933498  1
  B  B20  1  0.000000  0.446352  0.565922  1
  B  B21  1  0.000000  0.553731  0.433901  1
  B  B22  1  0.000000  0.481854  0.287760  1
  B  B23  1  0.000000  0.518347  0.712435  1
  B  B24  1  0.000000  0.019423  0.787315  1
  B  B25  1  0.000000  0.980571  0.212621  1
  B  B26  1  0.000000  0.248727  0.079726  1
  B  B27  1  0.000000  0.751202  0.920372  1
  B  B28  1  0.000000  0.249690  0.579214  1
  B  B29  1  0.000000  0.750269  0.420884  1
  B  B30  1  0.000000  0.295297  0.235678  1
  B  B31  1  0.000000  0.704802  0.764305  1
  B  B32  1  0.000000  0.206697  0.735281  1
  B  B33  1  0.000000  0.793116  0.264547  1
  Ir  Ir34  1  0.500000  0.361436  0.678411  1
  Rh  Rh35  1  0.500000  0.638457  0.321749  1
