# generated using pymatgen
data_Li3Nd3IrPd2
_symmetry_space_group_name_H-M   'P 1'
_cell_length_a   7.43653900
_cell_length_b   7.43653988
_cell_length_c   4.04685000
_cell_angle_alpha   90.00000000
_cell_angle_beta   90.00000000
_cell_angle_gamma   119.99999162
_symmetry_Int_Tables_number   1
_chemical_formula_structural   Li3Nd3IrPd2
_chemical_formula_sum   'Li3 Nd3 Ir1 Pd2'
_cell_volume   193.81596460
_cell_formula_units_Z   1
loop_
 _symmetry_equiv_pos_site_id
 _symmetry_equiv_pos_as_xyz
  1  'x, y, z'
loop_
 _atom_site_type_symbol
 _atom_site_label
 _atom_site_symmetry_multiplicity
 _atom_site_fract_x
 _atom_site_fract_y
 _atom_site_fract_z
 _atom_site_occupancy
  Li  Li0  1  0.003173  0.234395  0.000000  1
  Li  Li1  1  0.765605  0.768778  0.000000  1
  Li  Li2  1  0.231222  0.996827  0.000000  1
  Nd  Nd3  1  0.010731  0.590215  0.500000  1
  Nd  Nd4  1  0.409785  0.420515  0.500000  1
  Nd  Nd5  1  0.579485  0.989269  0.500000  1
  Ir  Ir6  1  0.333333  0.666667  0.000000  1
  Pd  Pd7  1  0.000000  0.000000  0.500000  1
  Pd  Pd8  1  0.666667  0.333333  0.000000  1
