# generated using pymatgen
data_Dy2Ho2BI5
_symmetry_space_group_name_H-M   'P 1'
_cell_length_a   9.67862526
_cell_length_b   9.67862608
_cell_length_c   8.59302156
_cell_angle_alpha   102.29114194
_cell_angle_beta   102.29114276
_cell_angle_gamma   24.47163044
_symmetry_Int_Tables_number   1
_chemical_formula_structural   Dy2Ho2BI5
_chemical_formula_sum   'Dy2 Ho2 B1 I5'
_cell_volume   325.44097391
_cell_formula_units_Z   1
loop_
 _symmetry_equiv_pos_site_id
 _symmetry_equiv_pos_as_xyz
  1  'x, y, z'
loop_
 _atom_site_type_symbol
 _atom_site_label
 _atom_site_symmetry_multiplicity
 _atom_site_fract_x
 _atom_site_fract_y
 _atom_site_fract_z
 _atom_site_occupancy
  Dy  Dy0  1  0.000774  0.000774  0.806778  1
  Dy  Dy1  1  0.364552  0.364552  0.931520  1
  Ho  Ho2  1  0.634861  0.634861  0.069202  1
  Ho  Ho3  1  0.999399  0.999399  0.191525  1
  B  B4  1  0.500323  0.500323  0.001098  1
  I  I5  1  0.828524  0.828524  0.175095  1
  I  I6  1  0.165570  0.165570  0.340454  1
  I  I7  1  0.500078  0.500078  0.498577  1
  I  I8  1  0.834099  0.834099  0.657743  1
  I  I9  1  0.171820  0.171820  0.828007  1
