# generated using pymatgen
data_NdTh2Ga3NiRu2
_symmetry_space_group_name_H-M   'P 1'
_cell_length_a   7.25061463
_cell_length_b   7.08755826
_cell_length_c   4.01495600
_cell_angle_alpha   90.00000000
_cell_angle_beta   90.00000000
_cell_angle_gamma   119.25884047
_symmetry_Int_Tables_number   1
_chemical_formula_structural   NdTh2Ga3NiRu2
_chemical_formula_sum   'Nd1 Th2 Ga3 Ni1 Ru2'
_cell_volume   180.00234762
_cell_formula_units_Z   1
loop_
 _symmetry_equiv_pos_site_id
 _symmetry_equiv_pos_as_xyz
  1  'x, y, z'
loop_
 _atom_site_type_symbol
 _atom_site_label
 _atom_site_symmetry_multiplicity
 _atom_site_fract_x
 _atom_site_fract_y
 _atom_site_fract_z
 _atom_site_occupancy
  Nd  Nd0  1  0.000000  0.411600  0.500000  1
  Th  Th1  1  0.582513  0.582289  0.500000  1
  Th  Th2  1  0.417487  0.999776  0.500000  1
  Ga  Ga3  1  0.000000  0.756190  0.000000  1
  Ga  Ga4  1  0.224244  0.231022  0.000000  1
  Ga  Ga5  1  0.775756  0.006778  0.000000  1
  Ni  Ni6  1  0.000000  0.990679  0.500000  1
  Ru  Ru7  1  0.359553  0.690610  0.000000  1
  Ru  Ru8  1  0.640447  0.331056  0.000000  1
