# generated using pymatgen
data_Ce6MgCd22P
_symmetry_space_group_name_H-M   'P 1'
_cell_length_a   10.21018697
_cell_length_b   10.21018769
_cell_length_c   10.21018600
_cell_angle_alpha   59.99999900
_cell_angle_beta   59.99999667
_cell_angle_gamma   59.99999450
_symmetry_Int_Tables_number   1
_chemical_formula_structural   Ce6MgCd22P
_chemical_formula_sum   'Ce6 Mg1 Cd22 P1'
_cell_volume   752.63783153
_cell_formula_units_Z   1
loop_
 _symmetry_equiv_pos_site_id
 _symmetry_equiv_pos_as_xyz
  1  'x, y, z'
loop_
 _atom_site_type_symbol
 _atom_site_label
 _atom_site_symmetry_multiplicity
 _atom_site_fract_x
 _atom_site_fract_y
 _atom_site_fract_z
 _atom_site_occupancy
  Ce  Ce0  1  0.796889  0.796889  0.203111  1
  Ce  Ce1  1  0.203111  0.796889  0.203111  1
  Ce  Ce2  1  0.796889  0.203111  0.203111  1
  Ce  Ce3  1  0.203111  0.203111  0.796889  1
  Ce  Ce4  1  0.796889  0.203111  0.796889  1
  Ce  Ce5  1  0.203111  0.796889  0.796889  1
  Mg  Mg6  1  0.500000  0.500000  0.500000  1
  Cd  Cd7  1  0.833114  0.833114  0.500656  1
  Cd  Cd8  1  0.833114  0.500656  0.833114  1
  Cd  Cd9  1  0.500656  0.833114  0.833114  1
  Cd  Cd10  1  0.833114  0.833114  0.833114  1
  Cd  Cd11  1  0.166886  0.166886  0.499344  1
  Cd  Cd12  1  0.166886  0.499344  0.166886  1
  Cd  Cd13  1  0.499344  0.166886  0.166886  1
  Cd  Cd14  1  0.166886  0.166886  0.166886  1
  Cd  Cd15  1  0.620648  0.620648  0.138055  1
  Cd  Cd16  1  0.620648  0.138055  0.620648  1
  Cd  Cd17  1  0.138055  0.620648  0.620648  1
  Cd  Cd18  1  0.620648  0.620648  0.620648  1
  Cd  Cd19  1  0.379352  0.379352  0.861945  1
  Cd  Cd20  1  0.379352  0.861945  0.379352  1
  Cd  Cd21  1  0.861945  0.379352  0.379352  1
  Cd  Cd22  1  0.379352  0.379352  0.379352  1
  Cd  Cd23  1  0.000000  0.000000  0.500000  1
  Cd  Cd24  1  0.500000  0.000000  0.500000  1
  Cd  Cd25  1  0.000000  0.500000  0.500000  1
  Cd  Cd26  1  0.500000  0.500000  0.000000  1
  Cd  Cd27  1  0.000000  0.500000  0.000000  1
  Cd  Cd28  1  0.500000  0.000000  0.000000  1
  P  P29  1  0.000000  0.000000  0.000000  1
