# generated using pymatgen
data_Ca20Zn8GaHg3
_symmetry_space_group_name_H-M   'P 1'
_cell_length_a   7.95633100
_cell_length_b   7.95633100
_cell_length_c   15.10767600
_cell_angle_alpha   90.00000000
_cell_angle_beta   90.00000000
_cell_angle_gamma   90.00000000
_symmetry_Int_Tables_number   1
_chemical_formula_structural   Ca20Zn8GaHg3
_chemical_formula_sum   'Ca20 Zn8 Ga1 Hg3'
_cell_volume   956.36428041
_cell_formula_units_Z   1
loop_
 _symmetry_equiv_pos_site_id
 _symmetry_equiv_pos_as_xyz
  1  'x, y, z'
loop_
 _atom_site_type_symbol
 _atom_site_label
 _atom_site_symmetry_multiplicity
 _atom_site_fract_x
 _atom_site_fract_y
 _atom_site_fract_z
 _atom_site_occupancy
  Ca  Ca0  1  0.675676  0.165416  0.101267  1
  Ca  Ca1  1  0.169050  0.670748  0.604891  1
  Ca  Ca2  1  0.324324  0.834584  0.101267  1
  Ca  Ca3  1  0.830950  0.329252  0.604891  1
  Ca  Ca4  1  0.834584  0.675676  0.101267  1
  Ca  Ca5  1  0.329252  0.169050  0.604891  1
  Ca  Ca6  1  0.165416  0.324324  0.101267  1
  Ca  Ca7  1  0.670748  0.830950  0.604891  1
  Ca  Ca8  1  0.834584  0.324324  0.898733  1
  Ca  Ca9  1  0.329252  0.830950  0.395109  1
  Ca  Ca10  1  0.165416  0.675676  0.898733  1
  Ca  Ca11  1  0.670748  0.169050  0.395109  1
  Ca  Ca12  1  0.675676  0.834584  0.898733  1
  Ca  Ca13  1  0.169050  0.329252  0.395109  1
  Ca  Ca14  1  0.324324  0.165416  0.898733  1
  Ca  Ca15  1  0.830950  0.670748  0.395109  1
  Ca  Ca16  1  0.500000  0.500000  0.755991  1
  Ca  Ca17  1  0.000000  0.000000  0.248344  1
  Ca  Ca18  1  0.000000  0.000000  0.751656  1
  Ca  Ca19  1  0.500000  0.500000  0.244009  1
  Zn  Zn20  1  0.617498  0.118521  0.750890  1
  Zn  Zn21  1  0.118521  0.617498  0.249110  1
  Zn  Zn22  1  0.881479  0.382502  0.249110  1
  Zn  Zn23  1  0.382502  0.881479  0.750890  1
  Zn  Zn24  1  0.881479  0.617498  0.750890  1
  Zn  Zn25  1  0.382502  0.118521  0.249110  1
  Zn  Zn26  1  0.118521  0.382502  0.750890  1
  Zn  Zn27  1  0.617498  0.881479  0.249110  1
  Ga  Ga28  1  0.000000  0.000000  0.000000  1
  Hg  Hg29  1  0.500000  0.500000  0.500000  1
  Hg  Hg30  1  0.500000  0.500000  0.000000  1
  Hg  Hg31  1  0.000000  0.000000  0.500000  1
