# generated using pymatgen
data_DyYCo6(P3Rh2)2
_symmetry_space_group_name_H-M   'P 1'
_cell_length_a   3.73735600
_cell_length_b   10.47049401
_cell_length_c   12.08499401
_cell_angle_alpha   90.00422675
_cell_angle_beta   90.00000000
_cell_angle_gamma   90.00000000
_symmetry_Int_Tables_number   1
_chemical_formula_structural   DyYCo6(P3Rh2)2
_chemical_formula_sum   'Dy2 Y2 Co12 P12 Rh8'
_cell_volume   472.90954435
_cell_formula_units_Z   2
loop_
 _symmetry_equiv_pos_site_id
 _symmetry_equiv_pos_as_xyz
  1  'x, y, z'
loop_
 _atom_site_type_symbol
 _atom_site_label
 _atom_site_symmetry_multiplicity
 _atom_site_fract_x
 _atom_site_fract_y
 _atom_site_fract_z
 _atom_site_occupancy
  Dy  Dy0  1  0.250000  0.915628  0.210894  1
  Dy  Dy1  1  0.750000  0.084372  0.789106  1
  Y  Y2  1  0.750000  0.415644  0.289045  1
  Y  Y3  1  0.250000  0.584356  0.710955  1
  Co  Co4  1  0.250000  0.278978  0.678203  1
  Co  Co5  1  0.750000  0.721022  0.321797  1
  Co  Co6  1  0.750000  0.779064  0.821825  1
  Co  Co7  1  0.250000  0.220936  0.178175  1
  Co  Co8  1  0.250000  0.617854  0.196925  1
  Co  Co9  1  0.750000  0.382146  0.803075  1
  Co  Co10  1  0.750000  0.117683  0.303083  1
  Co  Co11  1  0.250000  0.882317  0.696917  1
  Co  Co12  1  0.250000  0.036886  0.431682  1
  Co  Co13  1  0.750000  0.963114  0.568318  1
  Co  Co14  1  0.750000  0.536933  0.068287  1
  Co  Co15  1  0.250000  0.463067  0.931713  1
  P  P16  1  0.250000  0.077928  0.610600  1
  P  P17  1  0.750000  0.922072  0.389400  1
  P  P18  1  0.750000  0.577943  0.889519  1
  P  P19  1  0.250000  0.422057  0.110481  1
  P  P20  1  0.250000  0.225259  0.362127  1
  P  P21  1  0.750000  0.774741  0.637873  1
  P  P22  1  0.750000  0.725384  0.137964  1
  P  P23  1  0.250000  0.274616  0.862036  1
  P  P24  1  0.250000  0.895877  0.879313  1
  P  P25  1  0.750000  0.104123  0.120687  1
  P  P26  1  0.750000  0.395763  0.620587  1
  P  P27  1  0.250000  0.604237  0.379413  1
  Rh  Rh28  1  0.250000  0.788330  0.486156  1
  Rh  Rh29  1  0.750000  0.211670  0.513844  1
  Rh  Rh30  1  0.750000  0.288319  0.013812  1
  Rh  Rh31  1  0.250000  0.711681  0.986188  1
  Rh  Rh32  1  0.250000  0.093625  0.979470  1
  Rh  Rh33  1  0.750000  0.906375  0.020530  1
  Rh  Rh34  1  0.750000  0.593628  0.520355  1
  Rh  Rh35  1  0.250000  0.406372  0.479645  1
