# generated using pymatgen
data_SmZn3InPd2
_symmetry_space_group_name_H-M   'P 1'
_cell_length_a   5.29991900
_cell_length_b   8.62823300
_cell_length_c   11.17269700
_cell_angle_alpha   90.00000000
_cell_angle_beta   90.00000000
_cell_angle_gamma   90.00000000
_symmetry_Int_Tables_number   1
_chemical_formula_structural   SmZn3InPd2
_chemical_formula_sum   'Sm4 Zn12 In4 Pd8'
_cell_volume   510.91554621
_cell_formula_units_Z   4
loop_
 _symmetry_equiv_pos_site_id
 _symmetry_equiv_pos_as_xyz
  1  'x, y, z'
loop_
 _atom_site_type_symbol
 _atom_site_label
 _atom_site_symmetry_multiplicity
 _atom_site_fract_x
 _atom_site_fract_y
 _atom_site_fract_z
 _atom_site_occupancy
  Sm  Sm0  1  0.750000  0.745809  0.442911  1
  Sm  Sm1  1  0.250000  0.254191  0.557089  1
  Sm  Sm2  1  0.250000  0.754191  0.942911  1
  Sm  Sm3  1  0.750000  0.245809  0.057089  1
  Zn  Zn4  1  0.496584  0.938696  0.684780  1
  Zn  Zn5  1  0.503416  0.061304  0.315220  1
  Zn  Zn6  1  0.503416  0.561304  0.184780  1
  Zn  Zn7  1  0.996584  0.061304  0.315220  1
  Zn  Zn8  1  0.496584  0.438696  0.815220  1
  Zn  Zn9  1  0.003416  0.938696  0.684780  1
  Zn  Zn10  1  0.003416  0.438696  0.815220  1
  Zn  Zn11  1  0.996584  0.561304  0.184780  1
  Zn  Zn12  1  0.750000  0.691377  0.758925  1
  Zn  Zn13  1  0.250000  0.308623  0.241075  1
  Zn  Zn14  1  0.250000  0.808623  0.258925  1
  Zn  Zn15  1  0.750000  0.191377  0.741075  1
  In  In16  1  0.750000  0.867517  0.131867  1
  In  In17  1  0.250000  0.132483  0.868133  1
  In  In18  1  0.250000  0.632483  0.631867  1
  In  In19  1  0.750000  0.367517  0.368133  1
  Pd  Pd20  1  0.750000  0.593468  0.983785  1
  Pd  Pd21  1  0.250000  0.406532  0.016215  1
  Pd  Pd22  1  0.250000  0.906532  0.483785  1
  Pd  Pd23  1  0.750000  0.093468  0.516215  1
  Pd  Pd24  1  0.750000  0.947397  0.894113  1
  Pd  Pd25  1  0.250000  0.052603  0.105887  1
  Pd  Pd26  1  0.250000  0.552603  0.394113  1
  Pd  Pd27  1  0.750000  0.447397  0.605887  1
