# generated using pymatgen
data_Ti6Si2Sb
_symmetry_space_group_name_H-M   'P 1'
_cell_length_a   6.97497952
_cell_length_b   3.59775400
_cell_length_c   6.97458000
_cell_angle_alpha   90.00000000
_cell_angle_beta   119.99083913
_cell_angle_gamma   90.00000000
_symmetry_Int_Tables_number   1
_chemical_formula_structural   Ti6Si2Sb
_chemical_formula_sum   'Ti6 Si2 Sb1'
_cell_volume   151.58742508
_cell_formula_units_Z   1
loop_
 _symmetry_equiv_pos_site_id
 _symmetry_equiv_pos_as_xyz
  1  'x, y, z'
loop_
 _atom_site_type_symbol
 _atom_site_label
 _atom_site_symmetry_multiplicity
 _atom_site_fract_x
 _atom_site_fract_y
 _atom_site_fract_z
 _atom_site_occupancy
  Ti  Ti0  1  0.744340  0.000000  0.986877  1
  Ti  Ti1  1  0.389448  0.500001  0.982561  1
  Ti  Ti2  1  0.242528  0.000000  0.255614  1
  Ti  Ti3  1  0.017401  0.500001  0.407006  1
  Ti  Ti4  1  0.593164  0.500001  0.610544  1
  Ti  Ti5  1  0.013170  0.000000  0.757467  1
  Si  Si6  1  0.999981  0.500001  0.999867  1
  Si  Si7  1  0.333305  0.000000  0.666742  1
  Sb  Sb8  1  0.666716  0.000000  0.333373  1
