# generated using pymatgen
data_Mg3Nb(B4Ru5)2
_symmetry_space_group_name_H-M   'P 1'
_cell_length_a   2.96394000
_cell_length_b   8.46703475
_cell_length_c   10.08124229
_cell_angle_alpha   90.69284744
_cell_angle_beta   90.00000000
_cell_angle_gamma   90.00000000
_symmetry_Int_Tables_number   1
_chemical_formula_structural   Mg3Nb(B4Ru5)2
_chemical_formula_sum   'Mg3 Nb1 B8 Ru10'
_cell_volume   252.97817120
_cell_formula_units_Z   1
loop_
 _symmetry_equiv_pos_site_id
 _symmetry_equiv_pos_as_xyz
  1  'x, y, z'
loop_
 _atom_site_type_symbol
 _atom_site_label
 _atom_site_symmetry_multiplicity
 _atom_site_fract_x
 _atom_site_fract_y
 _atom_site_fract_z
 _atom_site_occupancy
  Mg  Mg0  1  0.500000  0.349738  0.188295  1
  Mg  Mg1  1  0.500000  0.152952  0.677953  1
  Mg  Mg2  1  0.500000  0.851670  0.314652  1
  Nb  Nb3  1  0.500000  0.653223  0.819241  1
  B  B4  1  0.500000  0.854919  0.597263  1
  B  B5  1  0.500000  0.145683  0.395644  1
  B  B6  1  0.500000  0.346734  0.899320  1
  B  B7  1  0.500000  0.647088  0.106993  1
  B  B8  1  0.500000  0.962262  0.910118  1
  B  B9  1  0.500000  0.039947  0.088968  1
  B  B10  1  0.500000  0.458208  0.588860  1
  B  B11  1  0.500000  0.536333  0.411480  1
  Ru  Ru12  1  0.000000  0.399830  0.740190  1
  Ru  Ru13  1  0.000000  0.603464  0.264221  1
  Ru  Ru14  1  0.000000  0.901348  0.760343  1
  Ru  Ru15  1  0.000000  0.102385  0.236099  1
  Ru  Ru16  1  0.000000  0.000389  0.498898  1
  Ru  Ru17  1  0.000000  0.499694  0.999863  1
  Ru  Ru18  1  0.000000  0.656824  0.554618  1
  Ru  Ru19  1  0.000000  0.343811  0.454037  1
  Ru  Ru20  1  0.000000  0.155469  0.951334  1
  Ru  Ru21  1  0.000000  0.838030  0.041610  1
