# generated using pymatgen
data_Er6Al20FeSi4Ru7
_symmetry_space_group_name_H-M   'P 1'
_cell_length_a   8.64474700
_cell_length_b   8.64474767
_cell_length_c   9.55730000
_cell_angle_alpha   90.00000000
_cell_angle_beta   90.00000000
_cell_angle_gamma   120.00000125
_symmetry_Int_Tables_number   1
_chemical_formula_structural   Er6Al20FeSi4Ru7
_chemical_formula_sum   'Er6 Al20 Fe1 Si4 Ru7'
_cell_volume   618.54379388
_cell_formula_units_Z   1
loop_
 _symmetry_equiv_pos_site_id
 _symmetry_equiv_pos_as_xyz
  1  'x, y, z'
loop_
 _atom_site_type_symbol
 _atom_site_label
 _atom_site_symmetry_multiplicity
 _atom_site_fract_x
 _atom_site_fract_y
 _atom_site_fract_z
 _atom_site_occupancy
  Er  Er0  1  0.195728  0.391454  0.250004  1
  Er  Er1  1  0.804272  0.608546  0.749996  1
  Er  Er2  1  0.608546  0.804272  0.250004  1
  Er  Er3  1  0.391454  0.195728  0.749996  1
  Er  Er4  1  0.195728  0.804272  0.250004  1
  Er  Er5  1  0.804272  0.195728  0.749996  1
  Al  Al6  1  0.164560  0.329120  0.577408  1
  Al  Al7  1  0.835440  0.670880  0.422592  1
  Al  Al8  1  0.670880  0.835440  0.577408  1
  Al  Al9  1  0.837735  0.675469  0.076697  1
  Al  Al10  1  0.329120  0.164560  0.422592  1
  Al  Al11  1  0.162265  0.324531  0.923303  1
  Al  Al12  1  0.164560  0.835440  0.577408  1
  Al  Al13  1  0.324531  0.162265  0.076697  1
  Al  Al14  1  0.835440  0.164560  0.422592  1
  Al  Al15  1  0.675469  0.837735  0.923303  1
  Al  Al16  1  0.837735  0.162265  0.076697  1
  Al  Al17  1  0.162265  0.837735  0.923303  1
  Al  Al18  1  0.563422  0.126846  0.249566  1
  Al  Al19  1  0.436578  0.873154  0.750434  1
  Al  Al20  1  0.873154  0.436578  0.249566  1
  Al  Al21  1  0.126846  0.563422  0.750434  1
  Al  Al22  1  0.563422  0.436578  0.249566  1
  Al  Al23  1  0.436578  0.563422  0.750434  1
  Al  Al24  1  0.000000  0.000000  0.244412  1
  Al  Al25  1  0.000000  0.000000  0.755588  1
  Fe  Fe26  1  0.000000  0.000000  0.000000  1
  Si  Si27  1  0.333333  0.666667  0.036833  1
  Si  Si28  1  0.666667  0.333333  0.963167  1
  Si  Si29  1  0.666667  0.333333  0.538171  1
  Si  Si30  1  0.333333  0.666667  0.461829  1
  Ru  Ru31  1  0.500000  0.000000  0.000000  1
  Ru  Ru32  1  0.000000  0.500000  0.000000  1
  Ru  Ru33  1  0.500000  0.000000  0.500000  1
  Ru  Ru34  1  0.500000  0.500000  0.000000  1
  Ru  Ru35  1  0.000000  0.500000  0.500000  1
  Ru  Ru36  1  0.500000  0.500000  0.500000  1
  Ru  Ru37  1  0.000000  0.000000  0.500000  1
