# generated using pymatgen
data_YLu6Co6Sn23
_symmetry_space_group_name_H-M   'P 1'
_cell_length_a   9.63814000
_cell_length_b   9.63814079
_cell_length_c   9.93795300
_cell_angle_alpha   90.00000000
_cell_angle_beta   90.00000000
_cell_angle_gamma   119.99999728
_symmetry_Int_Tables_number   1
_chemical_formula_structural   YLu6Co6Sn23
_chemical_formula_sum   'Y1 Lu6 Co6 Sn23'
_cell_volume   799.49191936
_cell_formula_units_Z   1
loop_
 _symmetry_equiv_pos_site_id
 _symmetry_equiv_pos_as_xyz
  1  'x, y, z'
loop_
 _atom_site_type_symbol
 _atom_site_label
 _atom_site_symmetry_multiplicity
 _atom_site_fract_x
 _atom_site_fract_y
 _atom_site_fract_z
 _atom_site_occupancy
  Y  Y0  1  0.000000  0.000000  0.000000  1
  Lu  Lu1  1  0.479619  0.520381  0.305970  1
  Lu  Lu2  1  0.520381  0.479619  0.694030  1
  Lu  Lu3  1  0.479619  0.959238  0.305970  1
  Lu  Lu4  1  0.520381  0.040762  0.694030  1
  Lu  Lu5  1  0.040762  0.520381  0.305970  1
  Lu  Lu6  1  0.959238  0.479619  0.694030  1
  Co  Co7  1  0.831657  0.168343  0.197749  1
  Co  Co8  1  0.168343  0.831657  0.802251  1
  Co  Co9  1  0.831657  0.663311  0.197749  1
  Co  Co10  1  0.168343  0.336689  0.802251  1
  Co  Co11  1  0.336689  0.168343  0.197749  1
  Co  Co12  1  0.663311  0.831657  0.802251  1
  Sn  Sn13  1  0.346524  0.000000  0.000000  1
  Sn  Sn14  1  0.653476  0.000000  0.000000  1
  Sn  Sn15  1  0.000000  0.346524  0.000000  1
  Sn  Sn16  1  0.000000  0.653476  0.000000  1
  Sn  Sn17  1  0.653476  0.653476  0.000000  1
  Sn  Sn18  1  0.346524  0.346524  0.000000  1
  Sn  Sn19  1  0.333333  0.666667  0.817236  1
  Sn  Sn20  1  0.666667  0.333333  0.182764  1
  Sn  Sn21  1  0.000000  0.000000  0.500000  1
  Sn  Sn22  1  0.780786  0.219214  0.452388  1
  Sn  Sn23  1  0.219214  0.780786  0.547612  1
  Sn  Sn24  1  0.780786  0.561570  0.452388  1
  Sn  Sn25  1  0.219214  0.438430  0.547612  1
  Sn  Sn26  1  0.438430  0.219214  0.452388  1
  Sn  Sn27  1  0.561570  0.780786  0.547612  1
  Sn  Sn28  1  0.333333  0.666667  0.121968  1
  Sn  Sn29  1  0.666667  0.333333  0.878032  1
  Sn  Sn30  1  0.119039  0.880961  0.275012  1
  Sn  Sn31  1  0.880961  0.119039  0.724988  1
  Sn  Sn32  1  0.119039  0.238079  0.275012  1
  Sn  Sn33  1  0.880961  0.761921  0.724988  1
  Sn  Sn34  1  0.761921  0.880961  0.275012  1
  Sn  Sn35  1  0.238079  0.119039  0.724988  1
