# generated using pymatgen
data_CeHo2SiRh5
_symmetry_space_group_name_H-M   'P 1'
_cell_length_a   7.97527372
_cell_length_b   7.97527316
_cell_length_c   7.97527272
_cell_angle_alpha   126.09100830
_cell_angle_beta   123.08274875
_cell_angle_gamma   82.24604087
_symmetry_Int_Tables_number   1
_chemical_formula_structural   CeHo2SiRh5
_chemical_formula_sum   'Ce2 Ho4 Si2 Rh10'
_cell_volume   330.15522668
_cell_formula_units_Z   2
loop_
 _symmetry_equiv_pos_site_id
 _symmetry_equiv_pos_as_xyz
  1  'x, y, z'
loop_
 _atom_site_type_symbol
 _atom_site_label
 _atom_site_symmetry_multiplicity
 _atom_site_fract_x
 _atom_site_fract_y
 _atom_site_fract_z
 _atom_site_occupancy
  Ce  Ce0  1  0.378290  0.250000  0.128290  1
  Ce  Ce1  1  0.621710  0.750000  0.871710  1
  Ho  Ho2  1  0.222868  0.448966  0.773903  1
  Ho  Ho3  1  0.777132  0.551034  0.226097  1
  Ho  Ho4  1  0.824936  0.051034  0.773903  1
  Ho  Ho5  1  0.175064  0.948966  0.226097  1
  Si  Si6  1  0.786256  0.250000  0.536256  1
  Si  Si7  1  0.213744  0.750000  0.463744  1
  Rh  Rh8  1  0.172152  0.393344  0.342046  1
  Rh  Rh9  1  0.827848  0.169894  0.221192  1
  Rh  Rh10  1  0.448702  0.106656  0.778808  1
  Rh  Rh11  1  0.551298  0.330106  0.657954  1
  Rh  Rh12  1  0.000000  0.500000  0.000000  1
  Rh  Rh13  1  0.000000  0.000000  0.500000  1
  Rh  Rh14  1  0.448702  0.669894  0.342046  1
  Rh  Rh15  1  0.551298  0.893344  0.221192  1
  Rh  Rh16  1  0.172152  0.830106  0.778808  1
  Rh  Rh17  1  0.827848  0.606656  0.657954  1
