# generated using pymatgen
data_Dy16Er4Si15Pt
_symmetry_space_group_name_H-M   'P 1'
_cell_length_a   7.41735190
_cell_length_b   7.66005673
_cell_length_c   14.57532349
_cell_angle_alpha   89.82063977
_cell_angle_beta   89.67006246
_cell_angle_gamma   90.19337293
_symmetry_Int_Tables_number   1
_chemical_formula_structural   Dy16Er4Si15Pt
_chemical_formula_sum   'Dy16 Er4 Si15 Pt1'
_cell_volume   828.10850200
_cell_formula_units_Z   1
loop_
 _symmetry_equiv_pos_site_id
 _symmetry_equiv_pos_as_xyz
  1  'x, y, z'
loop_
 _atom_site_type_symbol
 _atom_site_label
 _atom_site_symmetry_multiplicity
 _atom_site_fract_x
 _atom_site_fract_y
 _atom_site_fract_z
 _atom_site_occupancy
  Dy  Dy0  1  0.973418  0.817036  0.098565  1
  Dy  Dy1  1  0.471516  0.682931  0.401388  1
  Dy  Dy2  1  0.528786  0.321989  0.900639  1
  Dy  Dy3  1  0.029270  0.183733  0.599164  1
  Dy  Dy4  1  0.028710  0.183369  0.900964  1
  Dy  Dy5  1  0.529682  0.317403  0.598683  1
  Dy  Dy6  1  0.473884  0.681972  0.099792  1
  Dy  Dy7  1  0.969804  0.816724  0.400484  1
  Dy  Dy8  1  0.681154  0.816021  0.880439  1
  Dy  Dy9  1  0.179736  0.681099  0.621885  1
  Dy  Dy10  1  0.818629  0.329893  0.120207  1
  Dy  Dy11  1  0.317104  0.178427  0.376434  1
  Dy  Dy12  1  0.320702  0.178755  0.123439  1
  Dy  Dy13  1  0.819295  0.319765  0.377257  1
  Dy  Dy14  1  0.178010  0.675377  0.877898  1
  Dy  Dy15  1  0.682271  0.819799  0.622670  1
  Er  Er16  1  0.648307  0.991763  0.249365  1
  Er  Er17  1  0.149041  0.511269  0.248261  1
  Er  Er18  1  0.847352  0.488137  0.755826  1
  Er  Er19  1  0.351441  0.011293  0.751234  1
  Si  Si20  1  0.765397  0.629418  0.252081  1
  Si  Si21  1  0.266320  0.872198  0.250875  1
  Si  Si22  1  0.733104  0.124810  0.748794  1
  Si  Si23  1  0.233476  0.373095  0.746722  1
  Si  Si24  1  0.019772  0.104664  0.249325  1
  Si  Si25  1  0.522613  0.396666  0.251472  1
  Si  Si26  1  0.473533  0.605456  0.746947  1
  Si  Si27  1  0.977968  0.896462  0.748434  1
  Si  Si28  1  0.354304  0.971926  0.539969  1
  Si  Si29  1  0.646745  0.027076  0.042368  1
  Si  Si30  1  0.147324  0.470348  0.460005  1
  Si  Si31  1  0.156085  0.472242  0.041909  1
  Si  Si32  1  0.644777  0.028683  0.459518  1
  Si  Si33  1  0.353154  0.969477  0.961084  1
  Si  Si34  1  0.854623  0.528967  0.539375  1
  Pt  Pt35  1  0.852692  0.521758  0.956534  1
