# generated using pymatgen
data_Ac4BeAl14Ni
_symmetry_space_group_name_H-M   'P 1'
_cell_length_a   6.27097900
_cell_length_b   6.26301237
_cell_length_c   11.78032837
_cell_angle_alpha   74.58401674
_cell_angle_beta   74.56391346
_cell_angle_gamma   90.00000348
_symmetry_Int_Tables_number   1
_chemical_formula_structural   Ac4BeAl14Ni
_chemical_formula_sum   'Ac4 Be1 Al14 Ni1'
_cell_volume   428.69131036
_cell_formula_units_Z   1
loop_
 _symmetry_equiv_pos_site_id
 _symmetry_equiv_pos_as_xyz
  1  'x, y, z'
loop_
 _atom_site_type_symbol
 _atom_site_label
 _atom_site_symmetry_multiplicity
 _atom_site_fract_x
 _atom_site_fract_y
 _atom_site_fract_z
 _atom_site_occupancy
  Ac  Ac0  1  0.997439  0.997439  0.005122  1
  Ac  Ac1  1  0.503713  0.503713  0.992573  1
  Ac  Ac2  1  0.752695  0.252695  0.494612  1
  Ac  Ac3  1  0.247893  0.747893  0.504216  1
  Be  Be4  1  0.308957  0.308957  0.382087  1
  Al  Al5  1  0.197866  0.197866  0.604269  1
  Al  Al6  1  0.813183  0.813183  0.373634  1
  Al  Al7  1  0.599213  0.134179  0.252984  1
  Al  Al8  1  0.147802  0.612836  0.252984  1
  Al  Al9  1  0.599213  0.612836  0.252984  1
  Al  Al10  1  0.147802  0.134179  0.252984  1
  Al  Al11  1  0.858969  0.348961  0.754983  1
  Al  Al12  1  0.386049  0.896054  0.754983  1
  Al  Al13  1  0.858969  0.896054  0.754983  1
  Al  Al14  1  0.386049  0.348961  0.754983  1
  Al  Al15  1  0.691173  0.691173  0.617653  1
  Al  Al16  1  0.063026  0.563026  0.873948  1
  Al  Al17  1  0.451445  0.951445  0.097110  1
  Al  Al18  1  0.940851  0.440851  0.118298  1
  Ni  Ni19  1  0.562527  0.062527  0.874946  1
