# generated using pymatgen
data_Yb3(GaRh)2
_symmetry_space_group_name_H-M   'P 1'
_cell_length_a   5.66698500
_cell_length_b   7.64917900
_cell_length_c   13.81827300
_cell_angle_alpha   90.00000000
_cell_angle_beta   90.00000000
_cell_angle_gamma   90.00000000
_symmetry_Int_Tables_number   1
_chemical_formula_structural   Yb3(GaRh)2
_chemical_formula_sum   'Yb12 Ga8 Rh8'
_cell_volume   598.99149468
_cell_formula_units_Z   4
loop_
 _symmetry_equiv_pos_site_id
 _symmetry_equiv_pos_as_xyz
  1  'x, y, z'
loop_
 _atom_site_type_symbol
 _atom_site_label
 _atom_site_symmetry_multiplicity
 _atom_site_fract_x
 _atom_site_fract_y
 _atom_site_fract_z
 _atom_site_occupancy
  Yb  Yb0  1  0.620439  0.252759  0.250000  1
  Yb  Yb1  1  0.379561  0.747241  0.750000  1
  Yb  Yb2  1  0.379561  0.752759  0.250000  1
  Yb  Yb3  1  0.620439  0.247241  0.750000  1
  Yb  Yb4  1  0.149099  0.400276  0.093316  1
  Yb  Yb5  1  0.850901  0.599724  0.906684  1
  Yb  Yb6  1  0.850901  0.599724  0.593316  1
  Yb  Yb7  1  0.850901  0.900276  0.406684  1
  Yb  Yb8  1  0.149099  0.400276  0.406684  1
  Yb  Yb9  1  0.149099  0.099724  0.593316  1
  Yb  Yb10  1  0.149099  0.099724  0.906684  1
  Yb  Yb11  1  0.850901  0.900276  0.093316  1
  Ga  Ga12  1  0.138306  0.100465  0.250000  1
  Ga  Ga13  1  0.861694  0.899535  0.750000  1
  Ga  Ga14  1  0.861694  0.600465  0.250000  1
  Ga  Ga15  1  0.138306  0.399535  0.750000  1
  Ga  Ga16  1  0.616253  0.250000  0.000000  1
  Ga  Ga17  1  0.383747  0.750000  0.000000  1
  Ga  Ga18  1  0.383747  0.750000  0.500000  1
  Ga  Ga19  1  0.616253  0.250000  0.500000  1
  Rh  Rh20  1  0.357656  0.032307  0.094852  1
  Rh  Rh21  1  0.642344  0.967693  0.905148  1
  Rh  Rh22  1  0.642344  0.967693  0.594852  1
  Rh  Rh23  1  0.642344  0.532307  0.405148  1
  Rh  Rh24  1  0.357656  0.032307  0.405148  1
  Rh  Rh25  1  0.357656  0.467693  0.594852  1
  Rh  Rh26  1  0.357656  0.467693  0.905148  1
  Rh  Rh27  1  0.642344  0.532307  0.094852  1
