# generated using pymatgen
data_Cs6YLu3Br18
_symmetry_space_group_name_H-M   'P 1'
_cell_length_a   10.40987150
_cell_length_b   10.40987270
_cell_length_c   10.40987200
_cell_angle_alpha   83.17140425
_cell_angle_beta   83.17140900
_cell_angle_gamma   83.17139381
_symmetry_Int_Tables_number   1
_chemical_formula_structural   Cs6YLu3Br18
_chemical_formula_sum   'Cs6 Y1 Lu3 Br18'
_cell_volume   1105.82570023
_cell_formula_units_Z   1
loop_
 _symmetry_equiv_pos_site_id
 _symmetry_equiv_pos_as_xyz
  1  'x, y, z'
loop_
 _atom_site_type_symbol
 _atom_site_label
 _atom_site_symmetry_multiplicity
 _atom_site_fract_x
 _atom_site_fract_y
 _atom_site_fract_z
 _atom_site_occupancy
  Cs  Cs0  1  0.589532  0.910674  0.249490  1
  Cs  Cs1  1  0.249490  0.589532  0.910674  1
  Cs  Cs2  1  0.910674  0.249490  0.589532  1
  Cs  Cs3  1  0.750126  0.410282  0.089928  1
  Cs  Cs4  1  0.089928  0.750126  0.410282  1
  Cs  Cs5  1  0.410282  0.089928  0.750126  1
  Y  Y6  1  0.653356  0.653356  0.653356  1
  Lu  Lu7  1  0.846049  0.846049  0.846049  1
  Lu  Lu8  1  0.345589  0.345589  0.345589  1
  Lu  Lu9  1  0.154364  0.154364  0.154364  1
  Br  Br10  1  0.096418  0.403662  0.249933  1
  Br  Br11  1  0.249933  0.096418  0.403662  1
  Br  Br12  1  0.403662  0.249933  0.096418  1
  Br  Br13  1  0.751376  0.906874  0.596114  1
  Br  Br14  1  0.596114  0.751376  0.906874  1
  Br  Br15  1  0.906874  0.596114  0.751376  1
  Br  Br16  1  0.236236  0.414065  0.576107  1
  Br  Br17  1  0.576107  0.236236  0.414065  1
  Br  Br18  1  0.414065  0.576107  0.236236  1
  Br  Br19  1  0.076221  0.914284  0.736323  1
  Br  Br20  1  0.736323  0.076221  0.914284  1
  Br  Br21  1  0.914284  0.736323  0.076221  1
  Br  Br22  1  0.766559  0.584439  0.418339  1
  Br  Br23  1  0.418339  0.766559  0.584439  1
  Br  Br24  1  0.584439  0.418339  0.766559  1
  Br  Br25  1  0.923870  0.085972  0.263824  1
  Br  Br26  1  0.263824  0.923870  0.085972  1
  Br  Br27  1  0.085972  0.263824  0.923870  1
