# generated using pymatgen
data_Ca4SiAsPd28
_symmetry_space_group_name_H-M   'P 1'
_cell_length_a   8.96165700
_cell_length_b   8.96165700
_cell_length_c   7.11026900
_cell_angle_alpha   90.00000000
_cell_angle_beta   90.00000000
_cell_angle_gamma   90.00000000
_symmetry_Int_Tables_number   1
_chemical_formula_structural   Ca4SiAsPd28
_chemical_formula_sum   'Ca4 Si1 As1 Pd28'
_cell_volume   571.03491962
_cell_formula_units_Z   1
loop_
 _symmetry_equiv_pos_site_id
 _symmetry_equiv_pos_as_xyz
  1  'x, y, z'
loop_
 _atom_site_type_symbol
 _atom_site_label
 _atom_site_symmetry_multiplicity
 _atom_site_fract_x
 _atom_site_fract_y
 _atom_site_fract_z
 _atom_site_occupancy
  Ca  Ca0  1  0.500000  0.000000  0.939066  1
  Ca  Ca1  1  0.000000  0.500000  0.061070  1
  Ca  Ca2  1  0.000000  0.000000  0.500371  1
  Ca  Ca3  1  0.500000  0.500000  0.500371  1
  Si  Si4  1  0.000000  0.500000  0.552042  1
  As  As5  1  0.500000  0.000000  0.447099  1
  Pd  Pd6  1  0.330280  0.830280  0.621348  1
  Pd  Pd7  1  0.330280  0.169720  0.621348  1
  Pd  Pd8  1  0.669720  0.830280  0.621348  1
  Pd  Pd9  1  0.669720  0.169720  0.621348  1
  Pd  Pd10  1  0.165547  0.665547  0.382892  1
  Pd  Pd11  1  0.165547  0.334453  0.382892  1
  Pd  Pd12  1  0.834453  0.665547  0.382892  1
  Pd  Pd13  1  0.834453  0.334453  0.382892  1
  Pd  Pd14  1  0.500000  0.765992  0.252990  1
  Pd  Pd15  1  0.500000  0.234008  0.252990  1
  Pd  Pd16  1  0.265992  0.000000  0.252990  1
  Pd  Pd17  1  0.734008  0.000000  0.252990  1
  Pd  Pd18  1  0.000000  0.729484  0.742465  1
  Pd  Pd19  1  0.000000  0.270516  0.742465  1
  Pd  Pd20  1  0.229484  0.500000  0.742465  1
  Pd  Pd21  1  0.770516  0.500000  0.742465  1
  Pd  Pd22  1  0.500000  0.349332  0.856928  1
  Pd  Pd23  1  0.500000  0.650668  0.856928  1
  Pd  Pd24  1  0.849332  0.000000  0.856928  1
  Pd  Pd25  1  0.150668  0.000000  0.856928  1
  Pd  Pd26  1  0.000000  0.151200  0.143651  1
  Pd  Pd27  1  0.000000  0.848800  0.143651  1
  Pd  Pd28  1  0.651200  0.500000  0.143651  1
  Pd  Pd29  1  0.348800  0.500000  0.143651  1
  Pd  Pd30  1  0.249447  0.749447  0.999722  1
  Pd  Pd31  1  0.249447  0.250553  0.999722  1
  Pd  Pd32  1  0.750553  0.749447  0.999722  1
  Pd  Pd33  1  0.750553  0.250553  0.999722  1
