# generated using pymatgen
data_Cs4Cd2Si4SnAs8Pb
_symmetry_space_group_name_H-M   'P 1'
_cell_length_a   8.77431978
_cell_length_b   9.07102044
_cell_length_c   8.58964000
_cell_angle_alpha   84.92256876
_cell_angle_beta   78.09997640
_cell_angle_gamma   72.28257627
_symmetry_Int_Tables_number   1
_chemical_formula_structural   Cs4Cd2Si4SnAs8Pb
_chemical_formula_sum   'Cs4 Cd2 Si4 Sn1 As8 Pb1'
_cell_volume   637.00083912
_cell_formula_units_Z   1
loop_
 _symmetry_equiv_pos_site_id
 _symmetry_equiv_pos_as_xyz
  1  'x, y, z'
loop_
 _atom_site_type_symbol
 _atom_site_label
 _atom_site_symmetry_multiplicity
 _atom_site_fract_x
 _atom_site_fract_y
 _atom_site_fract_z
 _atom_site_occupancy
  Cs  Cs0  1  0.439412  0.759139  0.386180  1
  Cs  Cs1  1  0.558970  0.239136  0.614897  1
  Cs  Cs2  1  0.424456  0.788607  0.871699  1
  Cs  Cs3  1  0.576681  0.209914  0.129110  1
  Cd  Cd4  1  0.959599  0.824018  0.247717  1
  Cd  Cd5  1  0.045963  0.188920  0.748956  1
  Si  Si6  1  0.943288  0.573939  0.616989  1
  Si  Si7  1  0.055711  0.427129  0.381492  1
  Si  Si8  1  0.140858  0.466287  0.970106  1
  Si  Si9  1  0.858847  0.533115  0.030659  1
  Sn  Sn10  1  0.054620  0.115579  0.216119  1
  As  As11  1  0.786830  0.826319  0.551522  1
  As  As12  1  0.209919  0.170416  0.442480  1
  As  As13  1  0.823189  0.398368  0.284868  1
  As  As14  1  0.181305  0.592633  0.712849  1
  As  As15  1  0.750280  0.803576  0.059916  1
  As  As16  1  0.246437  0.192659  0.949690  1
  As  As17  1  0.782485  0.443227  0.810793  1
  As  As18  1  0.215829  0.558117  0.189096  1
  Pb  Pb19  1  0.945321  0.888903  0.784864  1
