# generated using pymatgen
data_HoEr7(Hf3Ge4)4
_symmetry_space_group_name_H-M   'P 1'
_cell_length_a   7.37166805
_cell_length_b   7.37029080
_cell_length_c   13.50114000
_cell_angle_alpha   89.99190739
_cell_angle_beta   89.99342452
_cell_angle_gamma   90.07143330
_symmetry_Int_Tables_number   1
_chemical_formula_structural   HoEr7(Hf3Ge4)4
_chemical_formula_sum   'Ho1 Er7 Hf12 Ge16'
_cell_volume   733.53440783
_cell_formula_units_Z   1
loop_
 _symmetry_equiv_pos_site_id
 _symmetry_equiv_pos_as_xyz
  1  'x, y, z'
loop_
 _atom_site_type_symbol
 _atom_site_label
 _atom_site_symmetry_multiplicity
 _atom_site_fract_x
 _atom_site_fract_y
 _atom_site_fract_z
 _atom_site_occupancy
  Ho  Ho0  1  0.659587  0.001956  0.281837  1
  Er  Er1  1  0.999016  0.340609  0.218218  1
  Er  Er2  1  0.001442  0.659595  0.718663  1
  Er  Er3  1  0.159678  0.499148  0.468859  1
  Er  Er4  1  0.501096  0.840052  0.031157  1
  Er  Er5  1  0.840553  0.500939  0.968334  1
  Er  Er6  1  0.498882  0.159570  0.531689  1
  Er  Er7  1  0.340446  0.998428  0.781485  1
  Hf  Hf8  1  0.171543  0.171417  0.999710  1
  Hf  Hf9  1  0.828475  0.828649  0.500183  1
  Hf  Hf10  1  0.328331  0.671336  0.249952  1
  Hf  Hf11  1  0.671614  0.328504  0.750002  1
  Hf  Hf12  1  0.158300  0.996942  0.375785  1
  Hf  Hf13  1  0.842295  0.003073  0.875783  1
  Hf  Hf14  1  0.503107  0.658014  0.626436  1
  Hf  Hf15  1  0.342146  0.496791  0.873828  1
  Hf  Hf16  1  0.496104  0.341664  0.125483  1
  Hf  Hf17  1  0.658184  0.503454  0.374247  1
  Hf  Hf18  1  0.996811  0.157906  0.624486  1
  Hf  Hf19  1  0.002634  0.841595  0.123854  1
  Ge  Ge20  1  0.366669  0.301279  0.323787  1
  Ge  Ge21  1  0.633100  0.699749  0.824000  1
  Ge  Ge22  1  0.199859  0.867342  0.574003  1
  Ge  Ge23  1  0.132887  0.799952  0.925988  1
  Ge  Ge24  1  0.800448  0.132880  0.073554  1
  Ge  Ge25  1  0.868265  0.200645  0.426693  1
  Ge  Ge26  1  0.300445  0.366912  0.676151  1
  Ge  Ge27  1  0.699532  0.632127  0.175914  1
  Ge  Ge28  1  0.297168  0.035036  0.180919  1
  Ge  Ge29  1  0.702063  0.964788  0.681354  1
  Ge  Ge30  1  0.463935  0.797219  0.431746  1
  Ge  Ge31  1  0.202044  0.535454  0.068480  1
  Ge  Ge32  1  0.535378  0.201957  0.931007  1
  Ge  Ge33  1  0.797825  0.464954  0.568944  1
  Ge  Ge34  1  0.035327  0.297875  0.818676  1
  Ge  Ge35  1  0.964811  0.702188  0.318797  1
