# generated using pymatgen
data_VCd2O4F
_symmetry_space_group_name_H-M   'P 1'
_cell_length_a   8.10671240
_cell_length_b   8.10671211
_cell_length_c   10.92262030
_cell_angle_alpha   63.30150333
_cell_angle_beta   63.30150319
_cell_angle_gamma   51.57420262
_symmetry_Int_Tables_number   1
_chemical_formula_structural   VCd2O4F
_chemical_formula_sum   'V4 Cd8 O16 F4'
_cell_volume   487.33900052
_cell_formula_units_Z   4
loop_
 _symmetry_equiv_pos_site_id
 _symmetry_equiv_pos_as_xyz
  1  'x, y, z'
loop_
 _atom_site_type_symbol
 _atom_site_label
 _atom_site_symmetry_multiplicity
 _atom_site_fract_x
 _atom_site_fract_y
 _atom_site_fract_z
 _atom_site_occupancy
  V  V0  1  0.775257  0.579849  0.191542  1
  V  V1  1  0.420151  0.224743  0.308458  1
  V  V2  1  0.224743  0.420151  0.808458  1
  V  V3  1  0.579849  0.775257  0.691542  1
  Cd  Cd4  1  0.791325  0.317236  0.003300  1
  Cd  Cd5  1  0.682764  0.208675  0.496700  1
  Cd  Cd6  1  0.208675  0.682764  0.996700  1
  Cd  Cd7  1  0.317236  0.791325  0.503300  1
  Cd  Cd8  1  0.953424  0.741112  0.351156  1
  Cd  Cd9  1  0.258888  0.046576  0.148844  1
  Cd  Cd10  1  0.046576  0.258888  0.648844  1
  Cd  Cd11  1  0.741112  0.953424  0.851156  1
  O  O12  1  0.215976  0.394204  0.422030  1
  O  O13  1  0.605796  0.784024  0.077970  1
  O  O14  1  0.784024  0.605796  0.577970  1
  O  O15  1  0.394204  0.215976  0.922030  1
  O  O16  1  0.051129  0.357410  0.811448  1
  O  O17  1  0.642590  0.948871  0.688552  1
  O  O18  1  0.948871  0.642590  0.188552  1
  O  O19  1  0.357410  0.051129  0.311448  1
  O  O20  1  0.377602  0.460214  0.636501  1
  O  O21  1  0.539786  0.622398  0.863499  1
  O  O22  1  0.622398  0.539786  0.363499  1
  O  O23  1  0.460214  0.377602  0.136501  1
  O  O24  1  0.074779  0.657958  0.865561  1
  O  O25  1  0.342042  0.925221  0.634439  1
  O  O26  1  0.925221  0.342042  0.134439  1
  O  O27  1  0.657958  0.074779  0.365561  1
  F  F28  1  0.921129  0.101045  0.611373  1
  F  F29  1  0.898955  0.078871  0.888627  1
  F  F30  1  0.078871  0.898955  0.388627  1
  F  F31  1  0.101045  0.921129  0.111373  1
