# generated using pymatgen
data_Yb4Pr16(Ga3Bi)3
_symmetry_space_group_name_H-M   'P 1'
_cell_length_a   8.17107600
_cell_length_b   8.17107600
_cell_length_c   14.23762500
_cell_angle_alpha   90.00000000
_cell_angle_beta   90.00000000
_cell_angle_gamma   90.00000000
_symmetry_Int_Tables_number   1
_chemical_formula_structural   Yb4Pr16(Ga3Bi)3
_chemical_formula_sum   'Yb4 Pr16 Ga9 Bi3'
_cell_volume   950.59614749
_cell_formula_units_Z   1
loop_
 _symmetry_equiv_pos_site_id
 _symmetry_equiv_pos_as_xyz
  1  'x, y, z'
loop_
 _atom_site_type_symbol
 _atom_site_label
 _atom_site_symmetry_multiplicity
 _atom_site_fract_x
 _atom_site_fract_y
 _atom_site_fract_z
 _atom_site_occupancy
  Yb  Yb0  1  0.000000  0.500000  0.753684  1
  Yb  Yb1  1  0.000000  0.500000  0.237812  1
  Yb  Yb2  1  0.500000  0.000000  0.245786  1
  Yb  Yb3  1  0.500000  0.000000  0.759420  1
  Pr  Pr4  1  0.830677  0.833179  0.607844  1
  Pr  Pr5  1  0.165348  0.825659  0.105123  1
  Pr  Pr6  1  0.166911  0.830687  0.391963  1
  Pr  Pr7  1  0.833089  0.169313  0.391963  1
  Pr  Pr8  1  0.669313  0.666911  0.391963  1
  Pr  Pr9  1  0.666821  0.330677  0.607844  1
  Pr  Pr10  1  0.333179  0.669323  0.607844  1
  Pr  Pr11  1  0.674341  0.665348  0.105123  1
  Pr  Pr12  1  0.677908  0.337675  0.895616  1
  Pr  Pr13  1  0.837675  0.822092  0.895616  1
  Pr  Pr14  1  0.330687  0.333089  0.391963  1
  Pr  Pr15  1  0.169323  0.166821  0.607844  1
  Pr  Pr16  1  0.834652  0.174341  0.105123  1
  Pr  Pr17  1  0.322092  0.662325  0.895616  1
  Pr  Pr18  1  0.325659  0.334652  0.105123  1
  Pr  Pr19  1  0.162325  0.177908  0.895616  1
  Ga  Ga20  1  0.621418  0.377745  0.249723  1
  Ga  Ga21  1  0.121905  0.878757  0.750417  1
  Ga  Ga22  1  0.378757  0.378095  0.750417  1
  Ga  Ga23  1  0.378582  0.622255  0.249723  1
  Ga  Ga24  1  0.877745  0.878582  0.249723  1
  Ga  Ga25  1  0.621243  0.621905  0.750417  1
  Ga  Ga26  1  0.878095  0.121243  0.750417  1
  Ga  Ga27  1  0.122255  0.121418  0.249723  1
  Ga  Ga28  1  0.000000  0.500000  0.000893  1
  Bi  Bi29  1  0.000000  0.500000  0.501048  1
  Bi  Bi30  1  0.500000  0.000000  0.498710  1
  Bi  Bi31  1  0.500000  0.000000  0.999901  1
