# generated using pymatgen
data_Nd2Ga7Ni2Au
_symmetry_space_group_name_H-M   'P 1'
_cell_length_a   4.17542928
_cell_length_b   6.54821977
_cell_length_c   8.17253121
_cell_angle_alpha   90.76948353
_cell_angle_beta   104.80056104
_cell_angle_gamma   89.99999604
_symmetry_Int_Tables_number   1
_chemical_formula_structural   Nd2Ga7Ni2Au
_chemical_formula_sum   'Nd2 Ga7 Ni2 Au1'
_cell_volume   216.01558684
_cell_formula_units_Z   1
loop_
 _symmetry_equiv_pos_site_id
 _symmetry_equiv_pos_as_xyz
  1  'x, y, z'
loop_
 _atom_site_type_symbol
 _atom_site_label
 _atom_site_symmetry_multiplicity
 _atom_site_fract_x
 _atom_site_fract_y
 _atom_site_fract_z
 _atom_site_occupancy
  Nd  Nd0  1  0.881135  0.762437  0.762269  1
  Nd  Nd1  1  0.118865  0.237563  0.237731  1
  Ga  Ga2  1  0.500000  0.000000  0.000000  1
  Ga  Ga3  1  0.071926  0.734494  0.143852  1
  Ga  Ga4  1  0.928074  0.265506  0.856148  1
  Ga  Ga5  1  0.686077  0.548107  0.372155  1
  Ga  Ga6  1  0.313923  0.451893  0.627845  1
  Ga  Ga7  1  0.690158  0.945158  0.380318  1
  Ga  Ga8  1  0.309842  0.054842  0.619682  1
  Ni  Ni9  1  0.221934  0.748710  0.443868  1
  Ni  Ni10  1  0.778066  0.251290  0.556132  1
  Au  Au11  1  0.500000  0.500000  0.000000  1
