# generated using pymatgen
data_Y3HoEr8ZnCo4Sn
_symmetry_space_group_name_H-M   'P 1'
_cell_length_a   8.28467214
_cell_length_b   8.27675820
_cell_length_c   8.28005102
_cell_angle_alpha   111.95753870
_cell_angle_beta   109.33041415
_cell_angle_gamma   107.13932277
_symmetry_Int_Tables_number   1
_chemical_formula_structural   Y3HoEr8ZnCo4Sn
_chemical_formula_sum   'Y3 Ho1 Er8 Zn1 Co4 Sn1'
_cell_volume   436.41017960
_cell_formula_units_Z   1
loop_
 _symmetry_equiv_pos_site_id
 _symmetry_equiv_pos_as_xyz
  1  'x, y, z'
loop_
 _atom_site_type_symbol
 _atom_site_label
 _atom_site_symmetry_multiplicity
 _atom_site_fract_x
 _atom_site_fract_y
 _atom_site_fract_z
 _atom_site_occupancy
  Y  Y0  1  0.430331  0.230095  0.200670  1
  Y  Y1  1  0.569901  0.769779  0.799602  1
  Y  Y2  1  0.030699  0.230142  0.801091  1
  Ho  Ho3  1  0.677389  0.987956  0.312606  1
  Er  Er4  1  0.971444  0.769852  0.201055  1
  Er  Er5  1  0.179863  0.281648  0.462183  1
  Er  Er6  1  0.820082  0.717319  0.535823  1
  Er  Er7  1  0.179458  0.717455  0.898125  1
  Er  Er8  1  0.819872  0.284248  0.102241  1
  Er  Er9  1  0.323917  0.636643  0.311942  1
  Er  Er10  1  0.677171  0.364859  0.689416  1
  Er  Er11  1  0.323850  0.011889  0.686906  1
  Zn  Zn12  1  0.999720  0.998555  0.001148  1
  Co  Co13  1  0.343729  0.998751  0.345678  1
  Co  Co14  1  0.651650  0.000191  0.652011  1
  Co  Co15  1  0.113363  0.614234  0.498546  1
  Co  Co16  1  0.886360  0.386471  0.500228  1
  Sn  Sn17  1  0.501203  0.499913  0.000729  1
