# generated using pymatgen
data_Y16CdIn(AgIr2)2
_symmetry_space_group_name_H-M   'P 1'
_cell_length_a   9.65246904
_cell_length_b   9.63132836
_cell_length_c   9.66109600
_cell_angle_alpha   59.89770736
_cell_angle_beta   59.97043035
_cell_angle_gamma   59.94583509
_symmetry_Int_Tables_number   1
_chemical_formula_structural   Y16CdIn(AgIr2)2
_chemical_formula_sum   'Y16 Cd1 In1 Ag2 Ir4'
_cell_volume   634.19731832
_cell_formula_units_Z   1
loop_
 _symmetry_equiv_pos_site_id
 _symmetry_equiv_pos_as_xyz
  1  'x, y, z'
loop_
 _atom_site_type_symbol
 _atom_site_label
 _atom_site_symmetry_multiplicity
 _atom_site_fract_x
 _atom_site_fract_y
 _atom_site_fract_z
 _atom_site_occupancy
  Y  Y0  1  0.350181  0.349555  0.349247  1
  Y  Y1  1  0.350181  0.349555  0.951017  1
  Y  Y2  1  0.350336  0.950663  0.349501  1
  Y  Y3  1  0.949149  0.350238  0.350307  1
  Y  Y4  1  0.808199  0.190172  0.192672  1
  Y  Y5  1  0.188447  0.810415  0.810615  1
  Y  Y6  1  0.188447  0.810415  0.190523  1
  Y  Y7  1  0.808199  0.190172  0.808957  1
  Y  Y8  1  0.191766  0.190446  0.808894  1
  Y  Y9  1  0.810035  0.810828  0.189569  1
  Y  Y10  1  0.936859  0.560163  0.562802  1
  Y  Y11  1  0.561911  0.935018  0.940387  1
  Y  Y12  1  0.561911  0.935018  0.562686  1
  Y  Y13  1  0.936859  0.560163  0.940176  1
  Y  Y14  1  0.561757  0.559973  0.939136  1
  Y  Y15  1  0.937832  0.935797  0.563186  1
  Cd  Cd16  1  0.259653  0.582610  0.578869  1
  In  In17  1  0.582137  0.258406  0.579729  1
  Ag  Ag18  1  0.582452  0.583706  0.582027  1
  Ag  Ag19  1  0.582452  0.583706  0.251817  1
  Ir  Ir20  1  0.141656  0.142677  0.139863  1
  Ir  Ir21  1  0.141656  0.142677  0.575806  1
  Ir  Ir22  1  0.142062  0.575073  0.141433  1
  Ir  Ir23  1  0.575868  0.142560  0.140786  1
