# generated using pymatgen
data_Yb2In5Ag6
_symmetry_space_group_name_H-M   'P 1'
_cell_length_a   9.48247600
_cell_length_b   9.48247600
_cell_length_c   9.48247600
_cell_angle_alpha   90.00000000
_cell_angle_beta   90.00000000
_cell_angle_gamma   90.00000000
_symmetry_Int_Tables_number   1
_chemical_formula_structural   Yb2In5Ag6
_chemical_formula_sum   'Yb6 In15 Ag18'
_cell_volume   852.63912370
_cell_formula_units_Z   3
loop_
 _symmetry_equiv_pos_site_id
 _symmetry_equiv_pos_as_xyz
  1  'x, y, z'
loop_
 _atom_site_type_symbol
 _atom_site_label
 _atom_site_symmetry_multiplicity
 _atom_site_fract_x
 _atom_site_fract_y
 _atom_site_fract_z
 _atom_site_occupancy
  Yb  Yb0  1  0.500000  0.809222  0.000000  1
  Yb  Yb1  1  0.500000  0.190778  0.000000  1
  Yb  Yb2  1  0.809222  0.000000  0.500000  1
  Yb  Yb3  1  0.000000  0.500000  0.809222  1
  Yb  Yb4  1  0.000000  0.500000  0.190778  1
  Yb  Yb5  1  0.190778  0.000000  0.500000  1
  In  In6  1  0.281811  0.281811  0.718189  1
  In  In7  1  0.718189  0.718189  0.281811  1
  In  In8  1  0.718189  0.281811  0.718189  1
  In  In9  1  0.500000  0.000000  0.332687  1
  In  In10  1  0.500000  0.000000  0.667313  1
  In  In11  1  0.332687  0.500000  0.000000  1
  In  In12  1  0.667313  0.500000  0.000000  1
  In  In13  1  0.000000  0.332687  0.500000  1
  In  In14  1  0.718189  0.718189  0.718189  1
  In  In15  1  0.281811  0.718189  0.281811  1
  In  In16  1  0.000000  0.667313  0.500000  1
  In  In17  1  0.281811  0.718189  0.718189  1
  In  In18  1  0.718189  0.281811  0.281811  1
  In  In19  1  0.281811  0.281811  0.281811  1
  In  In20  1  0.000000  0.000000  0.000000  1
  Ag  Ag21  1  0.842376  0.738312  0.000000  1
  Ag  Ag22  1  0.261688  0.000000  0.157624  1
  Ag  Ag23  1  0.000000  0.157624  0.738312  1
  Ag  Ag24  1  0.157624  0.261688  0.000000  1
  Ag  Ag25  1  0.842376  0.261688  0.000000  1
  Ag  Ag26  1  0.728327  0.500000  0.500000  1
  Ag  Ag27  1  0.000000  0.842376  0.738312  1
  Ag  Ag28  1  0.157624  0.738312  0.000000  1
  Ag  Ag29  1  0.738312  0.000000  0.157624  1
  Ag  Ag30  1  0.000000  0.157624  0.261688  1
  Ag  Ag31  1  0.500000  0.500000  0.271673  1
  Ag  Ag32  1  0.500000  0.500000  0.728327  1
  Ag  Ag33  1  0.500000  0.728327  0.500000  1
  Ag  Ag34  1  0.261688  0.000000  0.842376  1
  Ag  Ag35  1  0.271673  0.500000  0.500000  1
  Ag  Ag36  1  0.738312  0.000000  0.842376  1
  Ag  Ag37  1  0.000000  0.842376  0.261688  1
  Ag  Ag38  1  0.500000  0.271673  0.500000  1
