# generated using pymatgen
data_YEr3(Ni7P4)2
_symmetry_space_group_name_H-M   'P 1'
_cell_length_a   3.68686000
_cell_length_b   9.14620328
_cell_length_c   10.24622356
_cell_angle_alpha   90.08097188
_cell_angle_beta   90.00000000
_cell_angle_gamma   90.00000000
_symmetry_Int_Tables_number   1
_chemical_formula_structural   YEr3(Ni7P4)2
_chemical_formula_sum   'Y1 Er3 Ni14 P8'
_cell_volume   345.51021357
_cell_formula_units_Z   1
loop_
 _symmetry_equiv_pos_site_id
 _symmetry_equiv_pos_as_xyz
  1  'x, y, z'
loop_
 _atom_site_type_symbol
 _atom_site_label
 _atom_site_symmetry_multiplicity
 _atom_site_fract_x
 _atom_site_fract_y
 _atom_site_fract_z
 _atom_site_occupancy
  Y  Y0  1  0.500000  0.564246  0.678578  1
  Er  Er1  1  0.000000  0.057848  0.395285  1
  Er  Er2  1  0.500000  0.942090  0.895667  1
  Er  Er3  1  0.000000  0.435850  0.178723  1
  Ni  Ni4  1  0.000000  0.055804  0.699689  1
  Ni  Ni5  1  0.500000  0.944436  0.199548  1
  Ni  Ni6  1  0.000000  0.726507  0.509936  1
  Ni  Ni7  1  0.500000  0.274684  0.011099  1
  Ni  Ni8  1  0.000000  0.097157  0.093600  1
  Ni  Ni9  1  0.500000  0.903587  0.593316  1
  Ni  Ni10  1  0.000000  0.745541  0.273105  1
  Ni  Ni11  1  0.500000  0.253332  0.774048  1
  Ni  Ni12  1  0.000000  0.305947  0.602026  1
  Ni  Ni13  1  0.500000  0.693127  0.103258  1
  Ni  Ni14  1  0.000000  0.686945  0.911911  1
  Ni  Ni15  1  0.500000  0.313266  0.411253  1
  Ni  Ni16  1  0.000000  0.417102  0.870827  1
  Ni  Ni17  1  0.500000  0.582044  0.368129  1
  P  P18  1  0.000000  0.179209  0.889627  1
  P  P19  1  0.500000  0.820425  0.389180  1
  P  P20  1  0.000000  0.846209  0.083272  1
  P  P21  1  0.500000  0.154327  0.582934  1
  P  P22  1  0.000000  0.809795  0.715159  1
  P  P23  1  0.500000  0.191088  0.215294  1
  P  P24  1  0.000000  0.480151  0.460496  1
  P  P25  1  0.500000  0.519284  0.962236  1
