# generated using pymatgen
data_Nd3Mg3Si2Pt
_symmetry_space_group_name_H-M   'P 1'
_cell_length_a   7.38689900
_cell_length_b   7.38689822
_cell_length_c   4.39013700
_cell_angle_alpha   90.00000000
_cell_angle_beta   90.00000000
_cell_angle_gamma   120.00000797
_symmetry_Int_Tables_number   1
_chemical_formula_structural   Nd3Mg3Si2Pt
_chemical_formula_sum   'Nd3 Mg3 Si2 Pt1'
_cell_volume   207.45931815
_cell_formula_units_Z   1
loop_
 _symmetry_equiv_pos_site_id
 _symmetry_equiv_pos_as_xyz
  1  'x, y, z'
loop_
 _atom_site_type_symbol
 _atom_site_label
 _atom_site_symmetry_multiplicity
 _atom_site_fract_x
 _atom_site_fract_y
 _atom_site_fract_z
 _atom_site_occupancy
  Nd  Nd0  1  0.412494  0.412494  0.000000  1
  Nd  Nd1  1  0.587506  0.000000  0.000000  1
  Nd  Nd2  1  0.000000  0.587506  0.000000  1
  Mg  Mg3  1  0.000000  0.240348  0.500000  1
  Mg  Mg4  1  0.759652  0.759652  0.500000  1
  Mg  Mg5  1  0.240348  0.000000  0.500000  1
  Si  Si6  1  0.666667  0.333333  0.500000  1
  Si  Si7  1  0.333333  0.666667  0.500000  1
  Pt  Pt8  1  0.000000  0.000000  0.000000  1
