# generated using pymatgen
data_ErSc19(Zn3Ru)2
_symmetry_space_group_name_H-M   'P 1'
_cell_length_a   8.79165074
_cell_length_b   8.78207831
_cell_length_c   9.00547700
_cell_angle_alpha   90.00000000
_cell_angle_beta   90.00000000
_cell_angle_gamma   119.96399205
_symmetry_Int_Tables_number   1
_chemical_formula_structural   ErSc19(Zn3Ru)2
_chemical_formula_sum   'Er1 Sc19 Zn6 Ru2'
_cell_volume   602.36891202
_cell_formula_units_Z   1
loop_
 _symmetry_equiv_pos_site_id
 _symmetry_equiv_pos_as_xyz
  1  'x, y, z'
loop_
 _atom_site_type_symbol
 _atom_site_label
 _atom_site_symmetry_multiplicity
 _atom_site_fract_x
 _atom_site_fract_y
 _atom_site_fract_z
 _atom_site_occupancy
  Er  Er0  1  0.082646  0.541323  0.750000  1
  Sc  Sc1  1  0.999426  0.999713  0.499874  1
  Sc  Sc2  1  0.999426  0.999713  0.000126  1
  Sc  Sc3  1  0.208144  0.795116  0.441356  1
  Sc  Sc4  1  0.208144  0.413028  0.441356  1
  Sc  Sc5  1  0.585349  0.792674  0.444024  1
  Sc  Sc6  1  0.790152  0.204764  0.553948  1
  Sc  Sc7  1  0.790152  0.585388  0.553948  1
  Sc  Sc8  1  0.414206  0.207103  0.555746  1
  Sc  Sc9  1  0.790152  0.204764  0.946052  1
  Sc  Sc10  1  0.790152  0.585388  0.946052  1
  Sc  Sc11  1  0.414206  0.207103  0.944254  1
  Sc  Sc12  1  0.208144  0.795116  0.058644  1
  Sc  Sc13  1  0.208144  0.413028  0.058644  1
  Sc  Sc14  1  0.585349  0.792674  0.055976  1
  Sc  Sc15  1  0.541879  0.458782  0.250000  1
  Sc  Sc16  1  0.541879  0.083097  0.250000  1
  Sc  Sc17  1  0.917730  0.458865  0.250000  1
  Sc  Sc18  1  0.461711  0.541585  0.750000  1
  Sc  Sc19  1  0.461711  0.920126  0.750000  1
  Zn  Zn20  1  0.885515  0.113040  0.250000  1
  Zn  Zn21  1  0.885515  0.772478  0.250000  1
  Zn  Zn22  1  0.227477  0.113739  0.250000  1
  Zn  Zn23  1  0.114718  0.892577  0.750000  1
  Zn  Zn24  1  0.114718  0.222138  0.750000  1
  Zn  Zn25  1  0.773744  0.886871  0.750000  1
  Ru  Ru26  1  0.332852  0.666426  0.250000  1
  Ru  Ru27  1  0.666759  0.333379  0.750000  1
