# generated using pymatgen
data_BaLi(TaSe2)8
_symmetry_space_group_name_H-M   'P 1'
_cell_length_a   7.04656902
_cell_length_b   7.04657339
_cell_length_c   14.98776900
_cell_angle_alpha   89.98485192
_cell_angle_beta   90.00392728
_cell_angle_gamma   120.00353429
_symmetry_Int_Tables_number   1
_chemical_formula_structural   BaLi(TaSe2)8
_chemical_formula_sum   'Ba1 Li1 Ta8 Se16'
_cell_volume   644.47760006
_cell_formula_units_Z   1
loop_
 _symmetry_equiv_pos_site_id
 _symmetry_equiv_pos_as_xyz
  1  'x, y, z'
loop_
 _atom_site_type_symbol
 _atom_site_label
 _atom_site_symmetry_multiplicity
 _atom_site_fract_x
 _atom_site_fract_y
 _atom_site_fract_z
 _atom_site_occupancy
  Ba  Ba0  1  0.000000  0.000000  0.500000  1
  Li  Li1  1  0.000000  0.000000  0.000000  1
  Ta  Ta2  1  0.509326  0.490780  0.780107  1
  Ta  Ta3  1  0.018643  0.509303  0.219881  1
  Ta  Ta4  1  0.490522  0.981109  0.219865  1
  Ta  Ta5  1  0.509478  0.018891  0.780135  1
  Ta  Ta6  1  0.981357  0.490697  0.780119  1
  Ta  Ta7  1  0.490674  0.509220  0.219893  1
  Ta  Ta8  1  0.000029  0.000252  0.779742  1
  Ta  Ta9  1  0.999971  0.999748  0.220258  1
  Se  Se10  1  0.830754  0.168958  0.329104  1
  Se  Se11  1  0.830725  0.661357  0.329121  1
  Se  Se12  1  0.338383  0.168990  0.329079  1
  Se  Se13  1  0.661819  0.830994  0.887824  1
  Se  Se14  1  0.169275  0.338643  0.670879  1
  Se  Se15  1  0.169053  0.831118  0.887866  1
  Se  Se16  1  0.169172  0.338350  0.887827  1
  Se  Se17  1  0.830947  0.168882  0.112134  1
  Se  Se18  1  0.338181  0.169006  0.112176  1
  Se  Se19  1  0.661617  0.831010  0.670921  1
  Se  Se20  1  0.333362  0.666486  0.104514  1
  Se  Se21  1  0.666704  0.333476  0.663288  1
  Se  Se22  1  0.666638  0.333514  0.895486  1
  Se  Se23  1  0.333296  0.666524  0.336712  1
  Se  Se24  1  0.830828  0.661650  0.112173  1
  Se  Se25  1  0.169246  0.831042  0.670896  1
