# generated using pymatgen
data_NaCaAs4F24
_symmetry_space_group_name_H-M   'P 1'
_cell_length_a   9.65710796
_cell_length_b   9.65710733
_cell_length_c   9.65710700
_cell_angle_alpha   131.67727016
_cell_angle_beta   131.67727476
_cell_angle_gamma   70.73922221
_symmetry_Int_Tables_number   1
_chemical_formula_structural   NaCaAs4F24
_chemical_formula_sum   'Na1 Ca1 As4 F24'
_cell_volume   492.14228376
_cell_formula_units_Z   1
loop_
 _symmetry_equiv_pos_site_id
 _symmetry_equiv_pos_as_xyz
  1  'x, y, z'
loop_
 _atom_site_type_symbol
 _atom_site_label
 _atom_site_symmetry_multiplicity
 _atom_site_fract_x
 _atom_site_fract_y
 _atom_site_fract_z
 _atom_site_occupancy
  Na  Na0  1  0.750000  0.250000  0.500000  1
  Ca  Ca1  1  0.000000  0.000000  0.000000  1
  As  As2  1  0.778590  0.778590  0.000000  1
  As  As3  1  0.221410  0.221410  0.000000  1
  As  As4  1  0.973040  0.473040  0.500000  1
  As  As5  1  0.526960  0.026960  0.500000  1
  F  F6  1  0.858131  0.749592  0.200878  1
  F  F7  1  0.548713  0.657253  0.799122  1
  F  F8  1  0.409244  0.796450  0.306682  1
  F  F9  1  0.342747  0.141869  0.891461  1
  F  F10  1  0.250408  0.451287  0.108539  1
  F  F11  1  0.203550  0.510231  0.612793  1
  F  F12  1  0.647327  0.257849  0.689585  1
  F  F13  1  0.742151  0.431736  0.389479  1
  F  F14  1  0.042257  0.352673  0.610521  1
  F  F15  1  0.094101  0.283051  0.104146  1
  F  F16  1  0.178905  0.989955  0.895854  1
  F  F17  1  0.568264  0.957743  0.310415  1
  F  F18  1  0.716949  0.821095  0.811051  1
  F  F19  1  0.010045  0.905899  0.188949  1
  F  F20  1  0.308474  0.087603  0.338419  1
  F  F21  1  0.912397  0.250816  0.220872  1
  F  F22  1  0.029944  0.691526  0.779128  1
  F  F23  1  0.434512  0.282751  0.279682  1
  F  F24  1  0.003069  0.154829  0.720318  1
  F  F25  1  0.749184  0.970056  0.661581  1
  F  F26  1  0.717249  0.996931  0.151760  1
  F  F27  1  0.845171  0.565488  0.848240  1
  F  F28  1  0.489769  0.102560  0.693318  1
  F  F29  1  0.897440  0.590756  0.387207  1
