# generated using pymatgen
data_Sc5Nb3P12(Ir5Rh3)2
_symmetry_space_group_name_H-M   'P 1'
_cell_length_a   12.69319900
_cell_length_b   12.69922789
_cell_length_c   3.89764300
_cell_angle_alpha   90.00000000
_cell_angle_beta   90.00000000
_cell_angle_gamma   119.98606445
_symmetry_Int_Tables_number   1
_chemical_formula_structural   Sc5Nb3P12(Ir5Rh3)2
_chemical_formula_sum   'Sc5 Nb3 P12 Ir10 Rh6'
_cell_volume   544.17935732
_cell_formula_units_Z   1
loop_
 _symmetry_equiv_pos_site_id
 _symmetry_equiv_pos_as_xyz
  1  'x, y, z'
loop_
 _atom_site_type_symbol
 _atom_site_label
 _atom_site_symmetry_multiplicity
 _atom_site_fract_x
 _atom_site_fract_y
 _atom_site_fract_z
 _atom_site_occupancy
  Sc  Sc0  1  0.333757  0.668046  0.000000  1
  Sc  Sc1  1  0.666763  0.333354  0.000000  1
  Sc  Sc2  1  0.815053  0.999695  0.500000  1
  Sc  Sc3  1  0.999943  0.815309  0.500000  1
  Sc  Sc4  1  0.185051  0.184214  0.500000  1
  Nb  Nb5  1  0.450797  0.999186  0.000000  1
  Nb  Nb6  1  0.999995  0.451145  0.000000  1
  Nb  Nb7  1  0.549113  0.549536  0.000000  1
  P  P8  1  0.174529  0.000016  0.000000  1
  P  P9  1  0.000224  0.175032  0.000000  1
  P  P10  1  0.825338  0.825544  0.000000  1
  P  P11  1  0.168179  0.483773  0.500000  1
  P  P12  1  0.515141  0.682912  0.500000  1
  P  P13  1  0.316061  0.831749  0.500000  1
  P  P14  1  0.684205  0.516648  0.500000  1
  P  P15  1  0.831928  0.315981  0.500000  1
  P  P16  1  0.484186  0.168265  0.500000  1
  P  P17  1  0.644565  0.999955  0.000000  1
  P  P18  1  0.000030  0.644621  0.000000  1
  P  P19  1  0.355017  0.355392  0.000000  1
  Ir  Ir20  1  0.508479  0.863004  0.500000  1
  Ir  Ir21  1  0.136805  0.645111  0.500000  1
  Ir  Ir22  1  0.862989  0.508284  0.500000  1
  Ir  Ir23  1  0.644824  0.137048  0.500000  1
  Ir  Ir24  1  0.492988  0.355179  0.500000  1
  Ir  Ir25  1  0.369937  0.178121  0.000000  1
  Ir  Ir26  1  0.279667  0.999372  0.500000  1
  Ir  Ir27  1  0.999991  0.279324  0.500000  1
  Ir  Ir28  1  0.720831  0.720890  0.500000  1
  Ir  Ir29  1  0.000067  0.000242  0.000000  1
  Rh  Rh30  1  0.354043  0.489909  0.500000  1
  Rh  Rh31  1  0.178661  0.371775  0.000000  1
  Rh  Rh32  1  0.629523  0.807784  0.000000  1
  Rh  Rh33  1  0.191794  0.821537  0.000000  1
  Rh  Rh34  1  0.807984  0.629728  0.000000  1
  Rh  Rh35  1  0.821541  0.192316  0.000000  1
