# generated using pymatgen
data_Sr4CoNi(IrN2)2
_symmetry_space_group_name_H-M   'P 1'
_cell_length_a   5.21231902
_cell_length_b   5.21231902
_cell_length_c   7.99426500
_cell_angle_alpha   90.00000000
_cell_angle_beta   90.00000000
_cell_angle_gamma   90.15905976
_symmetry_Int_Tables_number   1
_chemical_formula_structural   Sr4CoNi(IrN2)2
_chemical_formula_sum   'Sr4 Co1 Ni1 Ir2 N4'
_cell_volume   217.18950969
_cell_formula_units_Z   1
loop_
 _symmetry_equiv_pos_site_id
 _symmetry_equiv_pos_as_xyz
  1  'x, y, z'
loop_
 _atom_site_type_symbol
 _atom_site_label
 _atom_site_symmetry_multiplicity
 _atom_site_fract_x
 _atom_site_fract_y
 _atom_site_fract_z
 _atom_site_occupancy
  Sr  Sr0  1  0.000000  0.500000  0.750973  1
  Sr  Sr1  1  0.000000  0.500000  0.249027  1
  Sr  Sr2  1  0.500000  0.000000  0.249027  1
  Sr  Sr3  1  0.500000  0.000000  0.750973  1
  Co  Co4  1  0.000000  0.000000  0.000000  1
  Ni  Ni5  1  0.500000  0.500000  0.500000  1
  Ir  Ir6  1  0.000000  0.000000  0.500000  1
  Ir  Ir7  1  0.500000  0.500000  0.000000  1
  N  N8  1  0.742897  0.742897  0.500000  1
  N  N9  1  0.759987  0.240013  0.000000  1
  N  N10  1  0.257103  0.257103  0.500000  1
  N  N11  1  0.240013  0.759987  0.000000  1
