# generated using pymatgen
data_K(V3Se4)4
_symmetry_space_group_name_H-M   'P 1'
_cell_length_a   10.27885224
_cell_length_b   10.27885396
_cell_length_c   9.71081382
_cell_angle_alpha   61.75893612
_cell_angle_beta   61.75890885
_cell_angle_gamma   38.08347767
_symmetry_Int_Tables_number   1
_chemical_formula_structural   K(V3Se4)4
_chemical_formula_sum   'K1 V12 Se16'
_cell_volume   547.84800703
_cell_formula_units_Z   1
loop_
 _symmetry_equiv_pos_site_id
 _symmetry_equiv_pos_as_xyz
  1  'x, y, z'
loop_
 _atom_site_type_symbol
 _atom_site_label
 _atom_site_symmetry_multiplicity
 _atom_site_fract_x
 _atom_site_fract_y
 _atom_site_fract_z
 _atom_site_occupancy
  K  K0  1  0.374871  0.374872  0.999284  1
  V  V1  1  0.929119  0.929128  0.509785  1
  V  V2  1  0.428808  0.428799  0.514691  1
  V  V3  1  0.130435  0.130453  0.383039  1
  V  V4  1  0.631788  0.631770  0.376566  1
  V  V5  1  0.063288  0.063305  0.109539  1
  V  V6  1  0.566683  0.566666  0.105861  1
  V  V7  1  0.067845  0.574442  0.492976  1
  V  V8  1  0.574441  0.067849  0.492977  1
  V  V9  1  0.881422  0.361295  0.615163  1
  V  V10  1  0.361292  0.881422  0.615166  1
  V  V11  1  0.923531  0.441526  0.892211  1
  V  V12  1  0.441528  0.923527  0.892214  1
  Se  Se13  1  0.522811  0.522808  0.649638  1
  Se  Se14  1  0.017236  0.017243  0.657935  1
  Se  Se15  1  0.704063  0.704052  0.057064  1
  Se  Se16  1  0.199658  0.199664  0.055466  1
  Se  Se17  1  0.403269  0.403264  0.293148  1
  Se  Se18  1  0.902693  0.902699  0.287274  1
  Se  Se19  1  0.483559  0.982620  0.340352  1
  Se  Se20  1  0.982620  0.483561  0.340353  1
  Se  Se21  1  0.293998  0.796319  0.943478  1
  Se  Se22  1  0.796322  0.294000  0.943472  1
  Se  Se23  1  0.599532  0.094367  0.716188  1
  Se  Se24  1  0.094370  0.599530  0.716191  1
  Se  Se25  1  0.707377  0.707374  0.665542  1
  Se  Se26  1  0.209103  0.209105  0.668006  1
  Se  Se27  1  0.291520  0.791820  0.333210  1
  Se  Se28  1  0.791819  0.291521  0.333210  1
