# generated using pymatgen
data_Y6Ga7Pt16Se
_symmetry_space_group_name_H-M   'P 1'
_cell_length_a   9.06498985
_cell_length_b   9.06535799
_cell_length_c   9.06504200
_cell_angle_alpha   59.99935042
_cell_angle_beta   59.99769315
_cell_angle_gamma   59.99679172
_symmetry_Int_Tables_number   1
_chemical_formula_structural   Y6Ga7Pt16Se
_chemical_formula_sum   'Y6 Ga7 Pt16 Se1'
_cell_volume   526.72856221
_cell_formula_units_Z   1
loop_
 _symmetry_equiv_pos_site_id
 _symmetry_equiv_pos_as_xyz
  1  'x, y, z'
loop_
 _atom_site_type_symbol
 _atom_site_label
 _atom_site_symmetry_multiplicity
 _atom_site_fract_x
 _atom_site_fract_y
 _atom_site_fract_z
 _atom_site_occupancy
  Y  Y0  1  0.717415  0.282608  0.282612  1
  Y  Y1  1  0.282585  0.717392  0.717388  1
  Y  Y2  1  0.282564  0.717403  0.282636  1
  Y  Y3  1  0.717436  0.282597  0.717364  1
  Y  Y4  1  0.282566  0.282627  0.717401  1
  Y  Y5  1  0.717434  0.717373  0.282599  1
  Ga  Ga6  1  0.000000  0.000000  0.000000  1
  Ga  Ga7  1  0.500000  0.000000  0.000000  1
  Ga  Ga8  1  0.000000  0.500000  0.500000  1
  Ga  Ga9  1  0.000000  0.500000  0.000000  1
  Ga  Ga10  1  0.500000  0.000000  0.500000  1
  Ga  Ga11  1  0.000000  0.000000  0.500000  1
  Ga  Ga12  1  0.500000  0.500000  0.000000  1
  Pt  Pt13  1  0.119175  0.119188  0.119169  1
  Pt  Pt14  1  0.880825  0.880812  0.880831  1
  Pt  Pt15  1  0.119166  0.119177  0.642489  1
  Pt  Pt16  1  0.119166  0.642482  0.119169  1
  Pt  Pt17  1  0.880834  0.880823  0.357511  1
  Pt  Pt18  1  0.880834  0.357518  0.880831  1
  Pt  Pt19  1  0.642451  0.119187  0.119167  1
  Pt  Pt20  1  0.357549  0.880813  0.880833  1
  Pt  Pt21  1  0.334234  0.334287  0.334296  1
  Pt  Pt22  1  0.665766  0.665713  0.665704  1
  Pt  Pt23  1  0.334239  0.334279  0.997203  1
  Pt  Pt24  1  0.334244  0.997196  0.334283  1
  Pt  Pt25  1  0.665761  0.665721  0.002797  1
  Pt  Pt26  1  0.665756  0.002804  0.665717  1
  Pt  Pt27  1  0.997132  0.334299  0.334288  1
  Pt  Pt28  1  0.002868  0.665701  0.665712  1
  Se  Se29  1  0.500000  0.500000  0.500000  1
