# generated using pymatgen
data_NaBeB14
_symmetry_space_group_name_H-M   'P 1'
_cell_length_a   7.20054262
_cell_length_b   7.20054231
_cell_length_c   7.20054218
_cell_angle_alpha   133.75792380
_cell_angle_beta   110.03595710
_cell_angle_gamma   88.03879638
_symmetry_Int_Tables_number   1
_chemical_formula_structural   NaBeB14
_chemical_formula_sum   'Na2 Be2 B28'
_cell_volume   241.75605337
_cell_formula_units_Z   2
loop_
 _symmetry_equiv_pos_site_id
 _symmetry_equiv_pos_as_xyz
  1  'x, y, z'
loop_
 _atom_site_type_symbol
 _atom_site_label
 _atom_site_symmetry_multiplicity
 _atom_site_fract_x
 _atom_site_fract_y
 _atom_site_fract_z
 _atom_site_occupancy
  Na  Na0  1  0.097895  0.750000  0.347895  1
  Na  Na1  1  0.902105  0.250000  0.652105  1
  Be  Be2  1  0.500000  0.500000  0.500000  1
  Be  Be3  1  0.500000  0.000000  0.000000  1
  B  B4  1  0.895479  0.220235  0.999365  1
  B  B5  1  0.462893  0.165716  0.788481  1
  B  B6  1  0.877235  0.174413  0.211519  1
  B  B7  1  0.720871  0.396114  0.000635  1
  B  B8  1  0.575128  0.408029  0.167098  1
  B  B9  1  0.704316  0.338695  0.365620  1
  B  B10  1  0.298609  0.333116  0.965492  1
  B  B11  1  0.720871  0.720235  0.324756  1
  B  B12  1  0.877235  0.665716  0.702822  1
  B  B13  1  0.462893  0.674413  0.297178  1
  B  B14  1  0.104521  0.103886  0.324756  1
  B  B15  1  0.895479  0.896114  0.675244  1
  B  B16  1  0.537107  0.325587  0.702822  1
  B  B17  1  0.122765  0.334284  0.297178  1
  B  B18  1  0.279129  0.279765  0.675244  1
  B  B19  1  0.740930  0.908029  0.832902  1
  B  B20  1  0.473075  0.838695  0.634380  1
  B  B21  1  0.867624  0.833116  0.034508  1
  B  B22  1  0.701391  0.666884  0.034508  1
  B  B23  1  0.295684  0.661305  0.634380  1
  B  B24  1  0.424872  0.591971  0.832902  1
  B  B25  1  0.279129  0.603886  0.999365  1
  B  B26  1  0.122765  0.825587  0.788481  1
  B  B27  1  0.537107  0.834284  0.211519  1
  B  B28  1  0.104521  0.779765  0.000635  1
  B  B29  1  0.132376  0.166884  0.965492  1
  B  B30  1  0.526925  0.161305  0.365620  1
  B  B31  1  0.259070  0.091971  0.167098  1
