# generated using pymatgen
data_Nb12Al4GaCu(PdN2)2
_symmetry_space_group_name_H-M   'P 1'
_cell_length_a   7.06113853
_cell_length_b   7.05385140
_cell_length_c   7.05596100
_cell_angle_alpha   90.29815849
_cell_angle_beta   90.07792919
_cell_angle_gamma   90.09055969
_symmetry_Int_Tables_number   1
_chemical_formula_structural   Nb12Al4GaCu(PdN2)2
_chemical_formula_sum   'Nb12 Al4 Ga1 Cu1 Pd2 N4'
_cell_volume   351.43934471
_cell_formula_units_Z   1
loop_
 _symmetry_equiv_pos_site_id
 _symmetry_equiv_pos_as_xyz
  1  'x, y, z'
loop_
 _atom_site_type_symbol
 _atom_site_label
 _atom_site_symmetry_multiplicity
 _atom_site_fract_x
 _atom_site_fract_y
 _atom_site_fract_z
 _atom_site_occupancy
  Nb  Nb0  1  0.788896  0.956477  0.379750  1
  Nb  Nb1  1  0.710187  0.041719  0.871915  1
  Nb  Nb2  1  0.210717  0.457639  0.126269  1
  Nb  Nb3  1  0.289812  0.543999  0.622600  1
  Nb  Nb4  1  0.956881  0.379686  0.787556  1
  Nb  Nb5  1  0.042302  0.871654  0.708488  1
  Nb  Nb6  1  0.455911  0.122342  0.212080  1
  Nb  Nb7  1  0.542733  0.626419  0.291498  1
  Nb  Nb8  1  0.377328  0.789039  0.958464  1
  Nb  Nb9  1  0.873050  0.710220  0.041534  1
  Nb  Nb10  1  0.124939  0.210024  0.455686  1
  Nb  Nb11  1  0.624820  0.290268  0.544033  1
  Al  Al12  1  0.571279  0.419402  0.933386  1
  Al  Al13  1  0.418175  0.932613  0.570233  1
  Al  Al14  1  0.935030  0.573010  0.418521  1
  Al  Al15  1  0.073907  0.071965  0.074777  1
  Ga  Ga16  1  0.677110  0.677427  0.677472  1
  Cu  Cu17  1  0.177347  0.822999  0.319226  1
  Pd  Pd18  1  0.318353  0.178805  0.822664  1
  Pd  Pd19  1  0.821549  0.318636  0.177976  1
  N  N20  1  0.880679  0.126093  0.624993  1
  N  N21  1  0.625342  0.880134  0.124396  1
  N  N22  1  0.125948  0.623849  0.880435  1
  N  N23  1  0.377709  0.375585  0.376047  1
