# generated using pymatgen
data_Hf4V4GaP3
_symmetry_space_group_name_H-M   'P 1'
_cell_length_a   3.46642500
_cell_length_b   6.69696288
_cell_length_c   8.00719800
_cell_angle_alpha   89.42688462
_cell_angle_beta   90.00000000
_cell_angle_gamma   90.00000000
_symmetry_Int_Tables_number   1
_chemical_formula_structural   Hf4V4GaP3
_chemical_formula_sum   'Hf4 V4 Ga1 P3'
_cell_volume   185.87395530
_cell_formula_units_Z   1
loop_
 _symmetry_equiv_pos_site_id
 _symmetry_equiv_pos_as_xyz
  1  'x, y, z'
loop_
 _atom_site_type_symbol
 _atom_site_label
 _atom_site_symmetry_multiplicity
 _atom_site_fract_x
 _atom_site_fract_y
 _atom_site_fract_z
 _atom_site_occupancy
  Hf  Hf0  1  0.250000  0.040382  0.829628  1
  Hf  Hf1  1  0.250000  0.540441  0.671909  1
  Hf  Hf2  1  0.750000  0.964003  0.159777  1
  Hf  Hf3  1  0.750000  0.446739  0.331683  1
  V  V4  1  0.250000  0.133482  0.445236  1
  V  V5  1  0.250000  0.624930  0.051432  1
  V  V6  1  0.750000  0.880566  0.567684  1
  V  V7  1  0.750000  0.368499  0.940508  1
  Ga  Ga8  1  0.250000  0.757753  0.362677  1
  P  P9  1  0.250000  0.261934  0.137592  1
  P  P10  1  0.750000  0.243639  0.638975  1
  P  P11  1  0.750000  0.737631  0.862898  1
