# generated using pymatgen
data_Tb16Cd2Hg2IrPt3
_symmetry_space_group_name_H-M   'P 1'
_cell_length_a   9.70637009
_cell_length_b   9.68072668
_cell_length_c   9.67913400
_cell_angle_alpha   60.00543532
_cell_angle_beta   60.09277166
_cell_angle_gamma   60.12737402
_symmetry_Int_Tables_number   1
_chemical_formula_structural   Tb16Cd2Hg2IrPt3
_chemical_formula_sum   'Tb16 Cd2 Hg2 Ir1 Pt3'
_cell_volume   644.20587876
_cell_formula_units_Z   1
loop_
 _symmetry_equiv_pos_site_id
 _symmetry_equiv_pos_as_xyz
  1  'x, y, z'
loop_
 _atom_site_type_symbol
 _atom_site_label
 _atom_site_symmetry_multiplicity
 _atom_site_fract_x
 _atom_site_fract_y
 _atom_site_fract_z
 _atom_site_occupancy
  Tb  Tb0  1  0.604357  0.600637  0.598325  1
  Tb  Tb1  1  0.604357  0.600637  0.196682  1
  Tb  Tb2  1  0.607827  0.189539  0.601317  1
  Tb  Tb3  1  0.184177  0.607352  0.604235  1
  Tb  Tb4  1  0.057712  0.438449  0.440711  1
  Tb  Tb5  1  0.440053  0.060012  0.058633  1
  Tb  Tb6  1  0.440053  0.060012  0.441302  1
  Tb  Tb7  1  0.057712  0.438449  0.063128  1
  Tb  Tb8  1  0.441332  0.440039  0.059315  1
  Tb  Tb9  1  0.056850  0.063143  0.440004  1
  Tb  Tb10  1  0.186835  0.812286  0.814479  1
  Tb  Tb11  1  0.813836  0.187113  0.187117  1
  Tb  Tb12  1  0.813836  0.187113  0.811934  1
  Tb  Tb13  1  0.186835  0.812286  0.186400  1
  Tb  Tb14  1  0.814971  0.811033  0.186998  1
  Tb  Tb15  1  0.186921  0.186860  0.813109  1
  Cd  Cd16  1  0.829940  0.505453  0.832304  1
  Cd  Cd17  1  0.507020  0.829669  0.831656  1
  Hg  Hg18  1  0.834963  0.834855  0.837514  1
  Hg  Hg19  1  0.834963  0.834855  0.492668  1
  Ir  Ir20  1  0.821285  0.391772  0.393471  1
  Pt  Pt21  1  0.391776  0.394061  0.396407  1
  Pt  Pt22  1  0.391776  0.394061  0.817754  1
  Pt  Pt23  1  0.390615  0.820313  0.394536  1
