# generated using pymatgen
data_Tb2P6Pd20Pb
_symmetry_space_group_name_H-M   'P 1'
_cell_length_a   8.71059067
_cell_length_b   8.71059093
_cell_length_c   8.71059000
_cell_angle_alpha   60.00000353
_cell_angle_beta   60.00000256
_cell_angle_gamma   60.00000268
_symmetry_Int_Tables_number   1
_chemical_formula_structural   Tb2P6Pd20Pb
_chemical_formula_sum   'Tb2 P6 Pd20 Pb1'
_cell_volume   467.33448371
_cell_formula_units_Z   1
loop_
 _symmetry_equiv_pos_site_id
 _symmetry_equiv_pos_as_xyz
  1  'x, y, z'
loop_
 _atom_site_type_symbol
 _atom_site_label
 _atom_site_symmetry_multiplicity
 _atom_site_fract_x
 _atom_site_fract_y
 _atom_site_fract_z
 _atom_site_occupancy
  Tb  Tb0  1  0.750000  0.750000  0.750000  1
  Tb  Tb1  1  0.000000  0.000000  0.000000  1
  P  P2  1  0.736401  0.263599  0.263599  1
  P  P3  1  0.263599  0.736401  0.736401  1
  P  P4  1  0.263599  0.736401  0.263599  1
  P  P5  1  0.736401  0.263599  0.736401  1
  P  P6  1  0.263599  0.263599  0.736401  1
  P  P7  1  0.736401  0.736401  0.263599  1
  Pd  Pd8  1  0.384566  0.384566  0.384566  1
  Pd  Pd9  1  0.615324  0.615324  0.615324  1
  Pd  Pd10  1  0.384566  0.384566  0.846301  1
  Pd  Pd11  1  0.384566  0.846301  0.384566  1
  Pd  Pd12  1  0.615324  0.615324  0.154029  1
  Pd  Pd13  1  0.615324  0.154029  0.615324  1
  Pd  Pd14  1  0.846301  0.384566  0.384566  1
  Pd  Pd15  1  0.154029  0.615324  0.615324  1
  Pd  Pd16  1  0.346596  0.997970  0.997970  1
  Pd  Pd17  1  0.657463  0.997970  0.997970  1
  Pd  Pd18  1  0.997970  0.346596  0.657463  1
  Pd  Pd19  1  0.997970  0.657463  0.346596  1
  Pd  Pd20  1  0.997970  0.346596  0.997970  1
  Pd  Pd21  1  0.657463  0.997970  0.346596  1
  Pd  Pd22  1  0.997970  0.657463  0.997970  1
  Pd  Pd23  1  0.346596  0.997970  0.657463  1
  Pd  Pd24  1  0.997970  0.997970  0.346596  1
  Pd  Pd25  1  0.997970  0.997970  0.657463  1
  Pd  Pd26  1  0.657463  0.346596  0.997970  1
  Pd  Pd27  1  0.346596  0.657463  0.997970  1
  Pb  Pb28  1  0.250000  0.250000  0.250000  1
