# generated using pymatgen
data_YTa6VS12
_symmetry_space_group_name_H-M   'P 1'
_cell_length_a   5.78802200
_cell_length_b   5.78802242
_cell_length_c   13.08098500
_cell_angle_alpha   90.00000000
_cell_angle_beta   90.00000000
_cell_angle_gamma   120.00000902
_symmetry_Int_Tables_number   1
_chemical_formula_structural   YTa6VS12
_chemical_formula_sum   'Y1 Ta6 V1 S12'
_cell_volume   379.51716043
_cell_formula_units_Z   1
loop_
 _symmetry_equiv_pos_site_id
 _symmetry_equiv_pos_as_xyz
  1  'x, y, z'
loop_
 _atom_site_type_symbol
 _atom_site_label
 _atom_site_symmetry_multiplicity
 _atom_site_fract_x
 _atom_site_fract_y
 _atom_site_fract_z
 _atom_site_occupancy
  Y  Y0  1  0.333333  0.666667  0.250000  1
  Ta  Ta1  1  0.000000  0.000000  0.517764  1
  Ta  Ta2  1  0.000000  0.000000  0.982236  1
  Ta  Ta3  1  0.333333  0.666667  0.982580  1
  Ta  Ta4  1  0.666667  0.333333  0.984056  1
  Ta  Ta5  1  0.666667  0.333333  0.515944  1
  Ta  Ta6  1  0.333333  0.666667  0.517420  1
  V  V7  1  0.666667  0.333333  0.750000  1
  S  S8  1  0.331714  0.329076  0.395842  1
  S  S9  1  0.670924  0.002638  0.395842  1
  S  S10  1  0.997362  0.668286  0.395842  1
  S  S11  1  0.333162  0.333229  0.636726  1
  S  S12  1  0.000067  0.666838  0.636726  1
  S  S13  1  0.666771  0.999933  0.636726  1
  S  S14  1  0.666771  0.666838  0.863274  1
  S  S15  1  0.333162  0.999933  0.863274  1
  S  S16  1  0.000067  0.333229  0.863274  1
  S  S17  1  0.670924  0.668286  0.104158  1
  S  S18  1  0.997362  0.329076  0.104158  1
  S  S19  1  0.331714  0.002638  0.104158  1
