# generated using pymatgen
data_Ho3MgZn2Sn2Pd
_symmetry_space_group_name_H-M   'P 1'
_cell_length_a   7.13635347
_cell_length_b   7.13635350
_cell_length_c   4.53992000
_cell_angle_alpha   90.00000000
_cell_angle_beta   90.00000000
_cell_angle_gamma   119.56476767
_symmetry_Int_Tables_number   1
_chemical_formula_structural   Ho3MgZn2Sn2Pd
_chemical_formula_sum   'Ho3 Mg1 Zn2 Sn2 Pd1'
_cell_volume   201.10346914
_cell_formula_units_Z   1
loop_
 _symmetry_equiv_pos_site_id
 _symmetry_equiv_pos_as_xyz
  1  'x, y, z'
loop_
 _atom_site_type_symbol
 _atom_site_label
 _atom_site_symmetry_multiplicity
 _atom_site_fract_x
 _atom_site_fract_y
 _atom_site_fract_z
 _atom_site_occupancy
  Ho  Ho0  1  0.592945  0.999913  0.000000  1
  Ho  Ho1  1  0.999913  0.592945  0.000000  1
  Ho  Ho2  1  0.396456  0.396456  0.000000  1
  Mg  Mg3  1  0.780649  0.780649  0.500000  1
  Zn  Zn4  1  0.229592  0.002826  0.500000  1
  Zn  Zn5  1  0.002826  0.229592  0.500000  1
  Sn  Sn6  1  0.328860  0.665138  0.500000  1
  Sn  Sn7  1  0.665138  0.328860  0.500000  1
  Pd  Pd8  1  0.003621  0.003621  0.000000  1
