# generated using pymatgen
data_LaEr(Ge2Pt)2
_symmetry_space_group_name_H-M   'P 1'
_cell_length_a   4.43569495
_cell_length_b   8.78902267
_cell_length_c   9.65305197
_cell_angle_alpha   117.08074891
_cell_angle_beta   103.28270943
_cell_angle_gamma   90.00000293
_symmetry_Int_Tables_number   1
_chemical_formula_structural   LaEr(Ge2Pt)2
_chemical_formula_sum   'La2 Er2 Ge8 Pt4'
_cell_volume   323.72186233
_cell_formula_units_Z   2
loop_
 _symmetry_equiv_pos_site_id
 _symmetry_equiv_pos_as_xyz
  1  'x, y, z'
loop_
 _atom_site_type_symbol
 _atom_site_label
 _atom_site_symmetry_multiplicity
 _atom_site_fract_x
 _atom_site_fract_y
 _atom_site_fract_z
 _atom_site_occupancy
  La  La0  1  0.000000  0.259422  0.000000  1
  La  La1  1  0.000000  0.740578  0.000000  1
  Er  Er2  1  0.797726  0.297726  0.595451  1
  Er  Er3  1  0.202274  0.702274  0.404549  1
  Ge  Ge4  1  0.425852  0.925852  0.851705  1
  Ge  Ge5  1  0.574148  0.074148  0.148295  1
  Ge  Ge6  1  0.423715  0.423715  0.847431  1
  Ge  Ge7  1  0.576285  0.576285  0.152569  1
  Ge  Ge8  1  0.200774  0.051858  0.401547  1
  Ge  Ge9  1  0.799226  0.948142  0.598453  1
  Ge  Ge10  1  0.200774  0.349689  0.401547  1
  Ge  Ge11  1  0.799226  0.650311  0.598453  1
  Pt  Pt12  1  0.348271  0.096057  0.696543  1
  Pt  Pt13  1  0.651729  0.903943  0.303457  1
  Pt  Pt14  1  0.348271  0.600486  0.696543  1
  Pt  Pt15  1  0.651729  0.399514  0.303457  1
