# generated using pymatgen
data_Pr3Nd2P12Ru18Rh
_symmetry_space_group_name_H-M   'P 1'
_cell_length_a   12.66094411
_cell_length_b   12.62075524
_cell_length_c   4.02502100
_cell_angle_alpha   90.00000000
_cell_angle_beta   90.00000000
_cell_angle_gamma   119.89505820
_symmetry_Int_Tables_number   1
_chemical_formula_structural   Pr3Nd2P12Ru18Rh
_chemical_formula_sum   'Pr3 Nd2 P12 Ru18 Rh1'
_cell_volume   557.58168260
_cell_formula_units_Z   1
loop_
 _symmetry_equiv_pos_site_id
 _symmetry_equiv_pos_as_xyz
  1  'x, y, z'
loop_
 _atom_site_type_symbol
 _atom_site_label
 _atom_site_symmetry_multiplicity
 _atom_site_fract_x
 _atom_site_fract_y
 _atom_site_fract_z
 _atom_site_occupancy
  Pr  Pr0  1  0.000000  0.183376  0.500000  1
  Pr  Pr1  1  0.815662  0.815685  0.500000  1
  Pr  Pr2  1  0.184338  0.000023  0.500000  1
  Nd  Nd3  1  0.665235  0.332474  0.000000  1
  Nd  Nd4  1  0.334765  0.667239  0.000000  1
  P  P5  1  0.000000  0.811172  0.000000  1
  P  P6  1  0.187537  0.187732  0.000000  1
  P  P7  1  0.812463  0.000195  0.000000  1
  P  P8  1  0.694587  0.171732  0.500000  1
  P  P9  1  0.824961  0.523141  0.500000  1
  P  P10  1  0.475435  0.304614  0.500000  1
  P  P11  1  0.175039  0.698180  0.500000  1
  P  P12  1  0.524565  0.829179  0.500000  1
  P  P13  1  0.305413  0.477145  0.500000  1
  P  P14  1  0.000000  0.372227  0.000000  1
  P  P15  1  0.625002  0.625042  0.000000  1
  P  P16  1  0.374998  0.000041  0.000000  1
  Ru  Ru17  1  0.445179  0.445626  0.000000  1
  Ru  Ru18  1  0.554821  0.000446  0.000000  1
  Ru  Ru19  1  0.000000  0.712541  0.500000  1
  Ru  Ru20  1  0.285122  0.285773  0.500000  1
  Ru  Ru21  1  0.714878  0.000650  0.500000  1
  Ru  Ru22  1  0.805768  0.185227  0.000000  1
  Ru  Ru23  1  0.815270  0.621147  0.000000  1
  Ru  Ru24  1  0.378072  0.193981  0.000000  1
  Ru  Ru25  1  0.184730  0.805877  0.000000  1
  Ru  Ru26  1  0.621928  0.815910  0.000000  1
  Ru  Ru27  1  0.194232  0.379457  0.000000  1
  Ru  Ru28  1  0.875662  0.367589  0.500000  1
  Ru  Ru29  1  0.631753  0.508261  0.500000  1
  Ru  Ru30  1  0.491605  0.124539  0.500000  1
  Ru  Ru31  1  0.368247  0.876508  0.500000  1
  Ru  Ru32  1  0.508395  0.632935  0.500000  1
  Ru  Ru33  1  0.124338  0.491928  0.500000  1
  Ru  Ru34  1  0.000000  0.999307  0.000000  1
  Rh  Rh35  1  0.000000  0.553100  0.000000  1
