# generated using pymatgen
data_RbPmSeS
_symmetry_space_group_name_H-M   'P 1'
_cell_length_a   8.56000551
_cell_length_b   8.40220700
_cell_length_c   7.46791286
_cell_angle_alpha   90.00000000
_cell_angle_beta   106.31652865
_cell_angle_gamma   90.00000000
_symmetry_Int_Tables_number   1
_chemical_formula_structural   RbPmSeS
_chemical_formula_sum   'Rb4 Pm4 Se4 S4'
_cell_volume   515.48157546
_cell_formula_units_Z   4
loop_
 _symmetry_equiv_pos_site_id
 _symmetry_equiv_pos_as_xyz
  1  'x, y, z'
loop_
 _atom_site_type_symbol
 _atom_site_label
 _atom_site_symmetry_multiplicity
 _atom_site_fract_x
 _atom_site_fract_y
 _atom_site_fract_z
 _atom_site_occupancy
  Rb  Rb0  1  0.032042  0.752157  0.008346  1
  Rb  Rb1  1  0.967957  0.252158  0.491653  1
  Rb  Rb2  1  0.032043  0.747841  0.508345  1
  Rb  Rb3  1  0.967958  0.247842  0.991655  1
  Pm  Pm4  1  0.513212  0.626898  0.247703  1
  Pm  Pm5  1  0.486787  0.126899  0.252297  1
  Pm  Pm6  1  0.513213  0.873100  0.747703  1
  Pm  Pm7  1  0.486788  0.373101  0.752297  1
  Se  Se8  1  0.712410  0.892056  0.150639  1
  Se  Se9  1  0.287590  0.392057  0.349361  1
  Se  Se10  1  0.712410  0.607944  0.650639  1
  Se  Se11  1  0.287590  0.107944  0.849361  1
  S  S12  1  0.668803  0.369837  0.134748  1
  S  S13  1  0.331196  0.869838  0.365251  1
  S  S14  1  0.668804  0.130162  0.634748  1
  S  S15  1  0.331196  0.630162  0.865251  1
