# generated using pymatgen
data_Dy9HoSi5As
_symmetry_space_group_name_H-M   'P 1'
_cell_length_a   8.44520200
_cell_length_b   8.45975485
_cell_length_c   6.31694600
_cell_angle_alpha   90.00141060
_cell_angle_beta   89.99943388
_cell_angle_gamma   119.94256612
_symmetry_Int_Tables_number   1
_chemical_formula_structural   Dy9HoSi5As
_chemical_formula_sum   'Dy9 Ho1 Si5 As1'
_cell_volume   391.07195231
_cell_formula_units_Z   1
loop_
 _symmetry_equiv_pos_site_id
 _symmetry_equiv_pos_as_xyz
  1  'x, y, z'
loop_
 _atom_site_type_symbol
 _atom_site_label
 _atom_site_symmetry_multiplicity
 _atom_site_fract_x
 _atom_site_fract_y
 _atom_site_fract_z
 _atom_site_occupancy
  Dy  Dy0  1  0.996618  0.753967  0.750028  1
  Dy  Dy1  1  0.000224  0.243748  0.249978  1
  Dy  Dy2  1  0.756442  0.756278  0.249974  1
  Dy  Dy3  1  0.758571  0.999973  0.750028  1
  Dy  Dy4  1  0.242630  0.246060  0.750027  1
  Dy  Dy5  1  0.242741  0.999972  0.249983  1
  Dy  Dy6  1  0.332987  0.663951  0.498853  1
  Dy  Dy7  1  0.669027  0.336032  0.001133  1
  Dy  Dy8  1  0.669037  0.336049  0.498868  1
  Ho  Ho9  1  0.332996  0.663949  0.001127  1
  Si  Si10  1  0.394052  0.393166  0.249918  1
  Si  Si11  1  0.001077  0.606932  0.249919  1
  Si  Si12  1  0.999901  0.394055  0.750084  1
  Si  Si13  1  0.605754  0.606050  0.750083  1
  Si  Si14  1  0.606818  0.999906  0.249929  1
  As  As15  1  0.391123  0.999912  0.750069  1
