# generated using pymatgen
data_Y19ScSi15Pt
_symmetry_space_group_name_H-M   'P 1'
_cell_length_a   7.37533357
_cell_length_b   7.72805599
_cell_length_c   14.63184000
_cell_angle_alpha   90.00000000
_cell_angle_beta   90.00000000
_cell_angle_gamma   90.14264980
_symmetry_Int_Tables_number   1
_chemical_formula_structural   Y19ScSi15Pt
_chemical_formula_sum   'Y19 Sc1 Si15 Pt1'
_cell_volume   833.96826446
_cell_formula_units_Z   1
loop_
 _symmetry_equiv_pos_site_id
 _symmetry_equiv_pos_as_xyz
  1  'x, y, z'
loop_
 _atom_site_type_symbol
 _atom_site_label
 _atom_site_symmetry_multiplicity
 _atom_site_fract_x
 _atom_site_fract_y
 _atom_site_fract_z
 _atom_site_occupancy
  Y  Y0  1  0.680144  0.178893  0.622562  1
  Y  Y1  1  0.186950  0.323552  0.877453  1
  Y  Y2  1  0.316330  0.818914  0.124331  1
  Y  Y3  1  0.818848  0.676075  0.375010  1
  Y  Y4  1  0.316330  0.818914  0.375669  1
  Y  Y5  1  0.818848  0.676075  0.124990  1
  Y  Y6  1  0.680144  0.178893  0.877438  1
  Y  Y7  1  0.186950  0.323552  0.622547  1
  Y  Y8  1  0.525057  0.681853  0.593462  1
  Y  Y9  1  0.026485  0.817885  0.904942  1
  Y  Y10  1  0.471850  0.317256  0.098616  1
  Y  Y11  1  0.974700  0.184495  0.401261  1
  Y  Y12  1  0.471850  0.317256  0.401384  1
  Y  Y13  1  0.974700  0.184495  0.098739  1
  Y  Y14  1  0.525057  0.681853  0.906538  1
  Y  Y15  1  0.026485  0.817885  0.595058  1
  Y  Y16  1  0.844984  0.510017  0.750000  1
  Y  Y17  1  0.356010  0.984356  0.750000  1
  Y  Y18  1  0.647577  0.013099  0.250000  1
  Sc  Sc19  1  0.149901  0.483528  0.250000  1
  Si  Si20  1  0.647128  0.971438  0.458762  1
  Si  Si21  1  0.146302  0.526550  0.042424  1
  Si  Si22  1  0.351774  0.026109  0.961214  1
  Si  Si23  1  0.852402  0.472545  0.539025  1
  Si  Si24  1  0.351774  0.026109  0.538786  1
  Si  Si25  1  0.852402  0.472545  0.960975  1
  Si  Si26  1  0.647128  0.971438  0.041238  1
  Si  Si27  1  0.146302  0.526550  0.457576  1
  Si  Si28  1  0.980170  0.101859  0.750000  1
  Si  Si29  1  0.515369  0.597737  0.250000  1
  Si  Si30  1  0.020661  0.897910  0.250000  1
  Si  Si31  1  0.741618  0.875929  0.750000  1
  Si  Si32  1  0.229492  0.631268  0.750000  1
  Si  Si33  1  0.264684  0.134870  0.250000  1
  Si  Si34  1  0.772639  0.372925  0.250000  1
  Pt  Pt35  1  0.480956  0.405375  0.750000  1
