# generated using pymatgen
data_Rb4Na2CaSnSb4
_symmetry_space_group_name_H-M   'P 1'
_cell_length_a   10.01854112
_cell_length_b   10.01854111
_cell_length_c   10.01854096
_cell_angle_alpha   136.23807804
_cell_angle_beta   63.40030825
_cell_angle_gamma   136.51331385
_symmetry_Int_Tables_number   1
_chemical_formula_structural   Rb4Na2CaSnSb4
_chemical_formula_sum   'Rb4 Na2 Ca1 Sn1 Sb4'
_cell_volume   472.46577110
_cell_formula_units_Z   1
loop_
 _symmetry_equiv_pos_site_id
 _symmetry_equiv_pos_as_xyz
  1  'x, y, z'
loop_
 _atom_site_type_symbol
 _atom_site_label
 _atom_site_symmetry_multiplicity
 _atom_site_fract_x
 _atom_site_fract_y
 _atom_site_fract_z
 _atom_site_occupancy
  Rb  Rb0  1  0.829739  0.239260  0.063571  1
  Rb  Rb1  1  0.670260  0.733832  0.409520  1
  Rb  Rb2  1  0.324311  0.260740  0.590479  1
  Rb  Rb3  1  0.175689  0.766169  0.936429  1
  Na  Na4  1  0.250000  0.250000  0.000000  1
  Na  Na5  1  0.750000  0.750000  0.000000  1
  Ca  Ca6  1  0.750000  0.250000  0.500000  1
  Sn  Sn7  1  0.250000  0.749999  0.500000  1
  Sb  Sb8  1  0.380718  0.758348  0.174912  1
  Sb  Sb9  1  0.119282  0.294196  0.377630  1
  Sb  Sb10  1  0.916565  0.741652  0.622369  1
  Sb  Sb11  1  0.583435  0.205804  0.825088  1
