# generated using pymatgen
data_Bi3WO7
_symmetry_space_group_name_H-M   'P 1'
_cell_length_a   6.66421754
_cell_length_b   7.07736233
_cell_length_c   7.67827436
_cell_angle_alpha   106.14323501
_cell_angle_beta   89.40784339
_cell_angle_gamma   103.39752743
_symmetry_Int_Tables_number   1
_chemical_formula_structural   Bi3WO7
_chemical_formula_sum   'Bi6 W2 O14'
_cell_volume   337.83258698
_cell_formula_units_Z   2
loop_
 _symmetry_equiv_pos_site_id
 _symmetry_equiv_pos_as_xyz
  1  'x, y, z'
loop_
 _atom_site_type_symbol
 _atom_site_label
 _atom_site_symmetry_multiplicity
 _atom_site_fract_x
 _atom_site_fract_y
 _atom_site_fract_z
 _atom_site_occupancy
  Bi  Bi0  1  0.518745  0.007815  0.743848  1
  Bi  Bi1  1  0.481255  0.992185  0.256152  1
  Bi  Bi2  1  0.264858  0.504712  0.875567  1
  Bi  Bi3  1  0.735142  0.495288  0.124433  1
  Bi  Bi4  1  0.745383  0.549129  0.636099  1
  Bi  Bi5  1  0.254617  0.450871  0.363901  1
  W  W6  1  0.000000  0.000000  0.500000  1
  W  W7  1  0.000000  0.000000  0.000000  1
  O  O8  1  0.470582  0.634184  0.182281  1
  O  O9  1  0.529418  0.365816  0.817719  1
  O  O10  1  0.270850  0.949933  0.940997  1
  O  O11  1  0.729150  0.050067  0.059003  1
  O  O12  1  0.273948  0.950622  0.527414  1
  O  O13  1  0.726052  0.049378  0.472586  1
  O  O14  1  0.531466  0.338911  0.357442  1
  O  O15  1  0.468534  0.661089  0.642558  1
  O  O16  1  0.888938  0.695672  0.959146  1
  O  O17  1  0.111062  0.304328  0.040854  1
  O  O18  1  0.103893  0.303531  0.614950  1
  O  O19  1  0.896107  0.696469  0.385050  1
  O  O20  1  0.902405  0.921847  0.730099  1
  O  O21  1  0.097595  0.078153  0.269901  1
