# generated using pymatgen
data_Y5Sc3Pt4
_symmetry_space_group_name_H-M   'P 1'
_cell_length_a   4.67964200
_cell_length_b   7.05065393
_cell_length_c   8.50002836
_cell_angle_alpha   89.66277956
_cell_angle_beta   90.00000000
_cell_angle_gamma   90.00000000
_symmetry_Int_Tables_number   1
_chemical_formula_structural   Y5Sc3Pt4
_chemical_formula_sum   'Y5 Sc3 Pt4'
_cell_volume   280.44963620
_cell_formula_units_Z   1
loop_
 _symmetry_equiv_pos_site_id
 _symmetry_equiv_pos_as_xyz
  1  'x, y, z'
loop_
 _atom_site_type_symbol
 _atom_site_label
 _atom_site_symmetry_multiplicity
 _atom_site_fract_x
 _atom_site_fract_y
 _atom_site_fract_z
 _atom_site_occupancy
  Y  Y0  1  0.250000  0.992426  0.325247  1
  Y  Y1  1  0.750000  0.019897  0.681942  1
  Y  Y2  1  0.250000  0.480246  0.167691  1
  Y  Y3  1  0.750000  0.514340  0.824828  1
  Y  Y4  1  0.750000  0.645143  0.422656  1
  Sc  Sc5  1  0.250000  0.355851  0.576141  1
  Sc  Sc6  1  0.750000  0.139953  0.073956  1
  Sc  Sc7  1  0.250000  0.860098  0.927837  1
  Pt  Pt8  1  0.250000  0.240549  0.901385  1
  Pt  Pt9  1  0.750000  0.757356  0.087192  1
  Pt  Pt10  1  0.250000  0.748294  0.607081  1
  Pt  Pt11  1  0.750000  0.245846  0.404045  1
