# generated using pymatgen
data_Ti6CSeI9
_symmetry_space_group_name_H-M   'P 1'
_cell_length_a   10.71810308
_cell_length_b   10.80836758
_cell_length_c   12.87116209
_cell_angle_alpha   106.39803306
_cell_angle_beta   106.57611247
_cell_angle_gamma   112.93082446
_symmetry_Int_Tables_number   1
_chemical_formula_structural   Ti6CSeI9
_chemical_formula_sum   'Ti12 C2 Se2 I18'
_cell_volume   1178.17454167
_cell_formula_units_Z   2
loop_
 _symmetry_equiv_pos_site_id
 _symmetry_equiv_pos_as_xyz
  1  'x, y, z'
loop_
 _atom_site_type_symbol
 _atom_site_label
 _atom_site_symmetry_multiplicity
 _atom_site_fract_x
 _atom_site_fract_y
 _atom_site_fract_z
 _atom_site_occupancy
  Ti  Ti0  1  0.191817  0.121095  0.172196  1
  Ti  Ti1  1  0.808183  0.878905  0.827804  1
  Ti  Ti2  1  0.928882  0.809940  0.035637  1
  Ti  Ti3  1  0.071118  0.190060  0.964363  1
  Ti  Ti4  1  0.878884  0.067481  0.084754  1
  Ti  Ti5  1  0.121116  0.932519  0.915246  1
  Ti  Ti6  1  0.192818  0.117579  0.478653  1
  Ti  Ti7  1  0.807182  0.882421  0.521347  1
  Ti  Ti8  1  0.875545  0.067184  0.391614  1
  Ti  Ti9  1  0.124455  0.932816  0.608386  1
  Ti  Ti10  1  0.932032  0.811950  0.344522  1
  Ti  Ti11  1  0.067968  0.188050  0.655478  1
  C  C12  1  0.000000  0.000000  0.500000  1
  C  C13  1  0.000000  0.000000  0.000000  1
  Se  Se14  1  0.999338  0.999411  0.251375  1
  Se  Se15  1  0.000662  0.000589  0.748625  1
  I  I16  1  0.628722  0.763378  0.942146  1
  I  I17  1  0.371278  0.236622  0.057854  1
  I  I18  1  0.571316  0.733986  0.585644  1
  I  I19  1  0.428684  0.266014  0.414356  1
  I  I20  1  0.137713  0.365787  0.531822  1
  I  I21  1  0.862287  0.634213  0.468178  1
  I  I22  1  0.842230  0.575734  0.111525  1
  I  I23  1  0.157770  0.424266  0.888475  1
  I  I24  1  0.233091  0.867568  0.110087  1
  I  I25  1  0.766909  0.132432  0.889913  1
  I  I26  1  0.728998  0.151626  0.220878  1
  I  I27  1  0.271002  0.848374  0.779122  1
  I  I28  1  0.137650  0.366935  0.207192  1
  I  I29  1  0.862350  0.633065  0.792808  1
  I  I30  1  0.236619  0.864385  0.437058  1
  I  I31  1  0.763381  0.135615  0.562942  1
  I  I32  1  0.626142  0.761769  0.267748  1
  I  I33  1  0.373858  0.238231  0.732252  1
