# generated using pymatgen
data_KRb3MnO4
_symmetry_space_group_name_H-M   'P 1'
_cell_length_a   6.61533100
_cell_length_b   10.98560984
_cell_length_c   11.22719696
_cell_angle_alpha   68.90056787
_cell_angle_beta   90.00000000
_cell_angle_gamma   90.00000000
_symmetry_Int_Tables_number   1
_chemical_formula_structural   KRb3MnO4
_chemical_formula_sum   'K4 Rb12 Mn4 O16'
_cell_volume   761.21750497
_cell_formula_units_Z   4
loop_
 _symmetry_equiv_pos_site_id
 _symmetry_equiv_pos_as_xyz
  1  'x, y, z'
loop_
 _atom_site_type_symbol
 _atom_site_label
 _atom_site_symmetry_multiplicity
 _atom_site_fract_x
 _atom_site_fract_y
 _atom_site_fract_z
 _atom_site_occupancy
  K  K0  1  0.632918  0.858939  0.108894  1
  K  K1  1  0.367082  0.141061  0.891106  1
  K  K2  1  0.867082  0.858939  0.608894  1
  K  K3  1  0.132918  0.141061  0.391106  1
  Rb  Rb4  1  0.657539  0.055631  0.313869  1
  Rb  Rb5  1  0.117107  0.334114  0.600358  1
  Rb  Rb6  1  0.386393  0.548849  0.312163  1
  Rb  Rb7  1  0.113607  0.548849  0.812163  1
  Rb  Rb8  1  0.842461  0.055631  0.813869  1
  Rb  Rb9  1  0.613607  0.451151  0.687837  1
  Rb  Rb10  1  0.882893  0.665886  0.399642  1
  Rb  Rb11  1  0.157539  0.944369  0.186131  1
  Rb  Rb12  1  0.617107  0.665886  0.899642  1
  Rb  Rb13  1  0.382893  0.334114  0.100358  1
  Rb  Rb14  1  0.342461  0.944369  0.686131  1
  Rb  Rb15  1  0.886393  0.451151  0.187837  1
  Mn  Mn16  1  0.362120  0.749880  0.496256  1
  Mn  Mn17  1  0.637880  0.250120  0.503744  1
  Mn  Mn18  1  0.862120  0.250120  0.003744  1
  Mn  Mn19  1  0.137880  0.749880  0.996256  1
  O  O20  1  0.993216  0.204902  0.156676  1
  O  O21  1  0.493216  0.795098  0.343324  1
  O  O22  1  0.254383  0.589027  0.047306  1
  O  O23  1  0.178271  0.884054  0.453808  1
  O  O24  1  0.745617  0.410973  0.952694  1
  O  O25  1  0.477552  0.273309  0.363947  1
  O  O26  1  0.678271  0.115946  0.046192  1
  O  O27  1  0.006784  0.795098  0.843324  1
  O  O28  1  0.754383  0.410973  0.452694  1
  O  O29  1  0.022448  0.273309  0.863947  1
  O  O30  1  0.321729  0.884054  0.953808  1
  O  O31  1  0.821729  0.115946  0.546192  1
  O  O32  1  0.522448  0.726691  0.636053  1
  O  O33  1  0.245617  0.589027  0.547306  1
  O  O34  1  0.506784  0.204902  0.656676  1
  O  O35  1  0.977552  0.726691  0.136053  1
