# generated using pymatgen
data_Ac2NdMg3Tl2Ag
_symmetry_space_group_name_H-M   'P 1'
_cell_length_a   8.00054319
_cell_length_b   8.00054382
_cell_length_c   4.76909700
_cell_angle_alpha   90.00000000
_cell_angle_beta   90.00000000
_cell_angle_gamma   120.03695952
_symmetry_Int_Tables_number   1
_chemical_formula_structural   Ac2NdMg3Tl2Ag
_chemical_formula_sum   'Ac2 Nd1 Mg3 Tl2 Ag1'
_cell_volume   264.26759085
_cell_formula_units_Z   1
loop_
 _symmetry_equiv_pos_site_id
 _symmetry_equiv_pos_as_xyz
  1  'x, y, z'
loop_
 _atom_site_type_symbol
 _atom_site_label
 _atom_site_symmetry_multiplicity
 _atom_site_fract_x
 _atom_site_fract_y
 _atom_site_fract_z
 _atom_site_occupancy
  Ac  Ac0  1  0.586390  0.998745  0.000000  1
  Ac  Ac1  1  0.998745  0.586390  0.000000  1
  Nd  Nd2  1  0.412051  0.412051  0.000000  1
  Mg  Mg3  1  0.232169  0.005848  0.500000  1
  Mg  Mg4  1  0.005848  0.232169  0.500000  1
  Mg  Mg5  1  0.765497  0.765497  0.500000  1
  Tl  Tl6  1  0.337182  0.655024  0.500000  1
  Tl  Tl7  1  0.655024  0.337182  0.500000  1
  Ag  Ag8  1  0.007094  0.007094  0.000000  1
