# generated using pymatgen
data_Zr7Tc2
_symmetry_space_group_name_H-M   'P 1'
_cell_length_a   3.36605672
_cell_length_b   5.84312168
_cell_length_c   11.10890064
_cell_angle_alpha   101.73068329
_cell_angle_beta   72.63029900
_cell_angle_gamma   73.12580239
_symmetry_Int_Tables_number   1
_chemical_formula_structural   Zr7Tc2
_chemical_formula_sum   'Zr7 Tc2'
_cell_volume   189.22632887
_cell_formula_units_Z   1
loop_
 _symmetry_equiv_pos_site_id
 _symmetry_equiv_pos_as_xyz
  1  'x, y, z'
loop_
 _atom_site_type_symbol
 _atom_site_label
 _atom_site_symmetry_multiplicity
 _atom_site_fract_x
 _atom_site_fract_y
 _atom_site_fract_z
 _atom_site_occupancy
  Zr  Zr0  1  0.700414  0.557826  0.273470  1
  Zr  Zr1  1  0.462737  0.914388  0.850259  1
  Zr  Zr2  1  0.271572  0.184183  0.396741  1
  Zr  Zr3  1  0.056780  0.516599  0.949876  1
  Zr  Zr4  1  0.965508  0.203174  0.697006  1
  Zr  Zr5  1  0.138344  0.932125  0.150679  1
  Zr  Zr6  1  0.363869  0.600783  0.597438  1
  Tc  Tc7  1  0.827979  0.881402  0.490438  1
  Tc  Tc8  1  0.587995  0.234590  0.056460  1
