# generated using pymatgen
data_K2Pu(Cl2O)2
_symmetry_space_group_name_H-M   'P 1'
_cell_length_a   5.59739433
_cell_length_b   6.85034664
_cell_length_c   6.85034638
_cell_angle_alpha   67.16691892
_cell_angle_beta   94.88927895
_cell_angle_gamma   94.88927605
_symmetry_Int_Tables_number   1
_chemical_formula_structural   K2Pu(Cl2O)2
_chemical_formula_sum   'K2 Pu1 Cl4 O2'
_cell_volume   240.81699127
_cell_formula_units_Z   1
loop_
 _symmetry_equiv_pos_site_id
 _symmetry_equiv_pos_as_xyz
  1  'x, y, z'
loop_
 _atom_site_type_symbol
 _atom_site_label
 _atom_site_symmetry_multiplicity
 _atom_site_fract_x
 _atom_site_fract_y
 _atom_site_fract_z
 _atom_site_occupancy
  K  K0  1  0.699438  0.340164  0.340164  1
  K  K1  1  0.300562  0.659836  0.659836  1
  Pu  Pu2  1  0.000000  0.000000  0.000000  1
  Cl  Cl3  1  0.219831  0.634177  0.150930  1
  Cl  Cl4  1  0.780169  0.849070  0.365823  1
  Cl  Cl5  1  0.219831  0.150930  0.634177  1
  Cl  Cl6  1  0.780169  0.365823  0.849070  1
  O  O7  1  0.235944  0.116367  0.116367  1
  O  O8  1  0.764054  0.883632  0.883632  1
