# generated using pymatgen
data_Sr4LiSi6Hg
_symmetry_space_group_name_H-M   'P 1'
_cell_length_a   11.88378946
_cell_length_b   10.20212417
_cell_length_c   8.56735451
_cell_angle_alpha   78.02904243
_cell_angle_beta   57.12123373
_cell_angle_gamma   44.84972318
_symmetry_Int_Tables_number   1
_chemical_formula_structural   Sr4LiSi6Hg
_chemical_formula_sum   'Sr8 Li2 Si12 Hg2'
_cell_volume   586.94718606
_cell_formula_units_Z   2
loop_
 _symmetry_equiv_pos_site_id
 _symmetry_equiv_pos_as_xyz
  1  'x, y, z'
loop_
 _atom_site_type_symbol
 _atom_site_label
 _atom_site_symmetry_multiplicity
 _atom_site_fract_x
 _atom_site_fract_y
 _atom_site_fract_z
 _atom_site_occupancy
  Sr  Sr0  1  0.125622  0.122555  0.875264  1
  Sr  Sr1  1  0.875265  0.876559  0.125621  1
  Sr  Sr2  1  0.127446  0.124379  0.373441  1
  Sr  Sr3  1  0.373442  0.374736  0.127445  1
  Sr  Sr4  1  0.622990  0.624353  0.376541  1
  Sr  Sr5  1  0.376541  0.376116  0.622990  1
  Sr  Sr6  1  0.625648  0.627010  0.873884  1
  Sr  Sr7  1  0.873885  0.873460  0.625647  1
  Li  Li8  1  0.167153  0.832847  0.167153  1
  Li  Li9  1  0.417153  0.082847  0.417153  1
  Si  Si10  1  0.910219  0.596278  0.432735  1
  Si  Si11  1  0.074603  0.419968  0.588972  1
  Si  Si12  1  0.432735  0.060768  0.910219  1
  Si  Si13  1  0.588972  0.916457  0.074603  1
  Si  Si14  1  0.333543  0.661028  0.830032  1
  Si  Si15  1  0.653722  0.339781  0.189232  1
  Si  Si16  1  0.830032  0.175397  0.333543  1
  Si  Si17  1  0.189232  0.817265  0.653722  1
  Si  Si18  1  0.907512  0.592489  0.907511  1
  Si  Si19  1  0.585629  0.914372  0.585628  1
  Si  Si20  1  0.335629  0.664372  0.335629  1
  Si  Si21  1  0.657511  0.342489  0.657511  1
  Hg  Hg22  1  0.082760  0.417240  0.082760  1
  Hg  Hg23  1  0.832760  0.167240  0.832760  1
