# generated using pymatgen
data_YZr2Al6ZnCu2
_symmetry_space_group_name_H-M   'P 1'
_cell_length_a   8.81361871
_cell_length_b   8.81361949
_cell_length_c   8.81361800
_cell_angle_alpha   35.11379388
_cell_angle_beta   35.11378669
_cell_angle_gamma   35.11378691
_symmetry_Int_Tables_number   1
_chemical_formula_structural   YZr2Al6ZnCu2
_chemical_formula_sum   'Y1 Zr2 Al6 Zn1 Cu2'
_cell_volume   202.29341453
_cell_formula_units_Z   1
loop_
 _symmetry_equiv_pos_site_id
 _symmetry_equiv_pos_as_xyz
  1  'x, y, z'
loop_
 _atom_site_type_symbol
 _atom_site_label
 _atom_site_symmetry_multiplicity
 _atom_site_fract_x
 _atom_site_fract_y
 _atom_site_fract_z
 _atom_site_occupancy
  Y  Y0  1  0.000000  0.000000  0.000000  1
  Zr  Zr1  1  0.856737  0.856737  0.856737  1
  Zr  Zr2  1  0.143263  0.143263  0.143263  1
  Al  Al3  1  0.414246  0.414246  0.922095  1
  Al  Al4  1  0.922095  0.414246  0.414246  1
  Al  Al5  1  0.414246  0.922095  0.414246  1
  Al  Al6  1  0.585754  0.077905  0.585754  1
  Al  Al7  1  0.077905  0.585754  0.585754  1
  Al  Al8  1  0.585754  0.585754  0.077905  1
  Zn  Zn9  1  0.500000  0.500000  0.500000  1
  Cu  Cu10  1  0.665283  0.665283  0.665283  1
  Cu  Cu11  1  0.334717  0.334717  0.334717  1
