# generated using pymatgen
data_CeLu3(Ni2Sn)2
_symmetry_space_group_name_H-M   'P 1'
_cell_length_a   7.39143727
_cell_length_b   7.39143665
_cell_length_c   3.51070000
_cell_angle_alpha   90.00000000
_cell_angle_beta   90.00000000
_cell_angle_gamma   88.44798837
_symmetry_Int_Tables_number   1
_chemical_formula_structural   CeLu3(Ni2Sn)2
_chemical_formula_sum   'Ce1 Lu3 Ni4 Sn2'
_cell_volume   191.73090567
_cell_formula_units_Z   1
loop_
 _symmetry_equiv_pos_site_id
 _symmetry_equiv_pos_as_xyz
  1  'x, y, z'
loop_
 _atom_site_type_symbol
 _atom_site_label
 _atom_site_symmetry_multiplicity
 _atom_site_fract_x
 _atom_site_fract_y
 _atom_site_fract_z
 _atom_site_occupancy
  Ce  Ce0  1  0.827007  0.672993  0.500000  1
  Lu  Lu1  1  0.670515  0.169523  0.500000  1
  Lu  Lu2  1  0.330477  0.829485  0.500000  1
  Lu  Lu3  1  0.172228  0.327772  0.500000  1
  Ni  Ni4  1  0.872518  0.380543  0.000000  1
  Ni  Ni5  1  0.119457  0.627482  0.000000  1
  Ni  Ni6  1  0.379166  0.120834  0.000000  1
  Ni  Ni7  1  0.625871  0.874129  0.000000  1
  Sn  Sn8  1  0.493950  0.491188  0.000000  1
  Sn  Sn9  1  0.008812  0.006050  0.000000  1
