# generated using pymatgen
data_DyHoNp2F14
_symmetry_space_group_name_H-M   'P 1'
_cell_length_a   5.92670308
_cell_length_b   6.26728143
_cell_length_c   8.52935744
_cell_angle_alpha   103.21668013
_cell_angle_beta   90.00846640
_cell_angle_gamma   90.01454658
_symmetry_Int_Tables_number   1
_chemical_formula_structural   DyHoNp2F14
_chemical_formula_sum   'Dy1 Ho1 Np2 F14'
_cell_volume   308.42540126
_cell_formula_units_Z   1
loop_
 _symmetry_equiv_pos_site_id
 _symmetry_equiv_pos_as_xyz
  1  'x, y, z'
loop_
 _atom_site_type_symbol
 _atom_site_label
 _atom_site_symmetry_multiplicity
 _atom_site_fract_x
 _atom_site_fract_y
 _atom_site_fract_z
 _atom_site_occupancy
  Dy  Dy0  1  0.198913  0.350006  0.318178  1
  Ho  Ho1  1  0.698820  0.650930  0.682659  1
  Np  Np2  1  0.706554  0.812513  0.226171  1
  Np  Np3  1  0.206691  0.187316  0.773644  1
  F  F4  1  0.906485  0.472840  0.482680  1
  F  F5  1  0.408460  0.528398  0.519214  1
  F  F6  1  0.436208  0.912881  0.763572  1
  F  F7  1  0.935438  0.087011  0.235790  1
  F  F8  1  0.942601  0.936564  0.755813  1
  F  F9  1  0.442395  0.062623  0.243797  1
  F  F10  1  0.979658  0.464970  0.787480  1
  F  F11  1  0.480073  0.534494  0.212084  1
  F  F12  1  0.695466  0.755928  0.966659  1
  F  F13  1  0.195636  0.243254  0.032198  1
  F  F14  1  0.697959  0.863975  0.486639  1
  F  F15  1  0.197897  0.135666  0.513958  1
  F  F16  1  0.511532  0.388819  0.779283  1
  F  F17  1  0.011936  0.611813  0.220182  1
