# generated using pymatgen
data_Sm11Er(ZnAu5)4
_symmetry_space_group_name_H-M   'P 1'
_cell_length_a   8.55644201
_cell_length_b   8.55644320
_cell_length_c   13.53120000
_cell_angle_alpha   90.03927330
_cell_angle_beta   89.96072669
_cell_angle_gamma   127.15374202
_symmetry_Int_Tables_number   1
_chemical_formula_structural   Sm11Er(ZnAu5)4
_chemical_formula_sum   'Sm11 Er1 Zn4 Au20'
_cell_volume   789.57007659
_cell_formula_units_Z   1
loop_
 _symmetry_equiv_pos_site_id
 _symmetry_equiv_pos_as_xyz
  1  'x, y, z'
loop_
 _atom_site_type_symbol
 _atom_site_label
 _atom_site_symmetry_multiplicity
 _atom_site_fract_x
 _atom_site_fract_y
 _atom_site_fract_z
 _atom_site_occupancy
  Sm  Sm0  1  0.927229  0.072771  0.250595  1
  Sm  Sm1  1  0.071875  0.928125  0.749324  1
  Sm  Sm2  1  0.320146  0.679854  0.250641  1
  Sm  Sm3  1  0.679697  0.320303  0.749490  1
  Sm  Sm4  1  0.369265  0.630735  0.538521  1
  Sm  Sm5  1  0.630665  0.369335  0.038493  1
  Sm  Sm6  1  0.369145  0.630855  0.961571  1
  Sm  Sm7  1  0.882171  0.117829  0.951059  1
  Sm  Sm8  1  0.118086  0.881914  0.048951  1
  Sm  Sm9  1  0.881814  0.118186  0.548735  1
  Sm  Sm10  1  0.118028  0.881972  0.451181  1
  Er  Er11  1  0.630520  0.369480  0.462507  1
  Zn  Zn12  1  0.719738  0.280262  0.251012  1
  Zn  Zn13  1  0.279108  0.720892  0.749335  1
  Zn  Zn14  1  0.533524  0.466476  0.250724  1
  Zn  Zn15  1  0.467312  0.532688  0.749768  1
  Au  Au16  1  0.319378  0.065563  0.249797  1
  Au  Au17  1  0.066308  0.319860  0.749590  1
  Au  Au18  1  0.680140  0.933692  0.749590  1
  Au  Au19  1  0.934437  0.680622  0.249797  1
  Au  Au20  1  0.570714  0.007165  0.397475  1
  Au  Au21  1  0.000668  0.567606  0.602749  1
  Au  Au22  1  0.570050  0.003313  0.103837  1
  Au  Au23  1  0.002813  0.569516  0.896168  1
  Au  Au24  1  0.432394  0.999332  0.602749  1
  Au  Au25  1  0.992835  0.429286  0.397475  1
  Au  Au26  1  0.430484  0.997187  0.896168  1
  Au  Au27  1  0.996687  0.429950  0.103837  1
  Au  Au28  1  0.685911  0.738932  0.395232  1
  Au  Au29  1  0.740585  0.682725  0.604176  1
  Au  Au30  1  0.686478  0.741946  0.105813  1
  Au  Au31  1  0.742180  0.686787  0.894210  1
  Au  Au32  1  0.317275  0.259415  0.604176  1
  Au  Au33  1  0.261068  0.314089  0.395232  1
  Au  Au34  1  0.313213  0.257820  0.894210  1
  Au  Au35  1  0.258054  0.313522  0.105813  1
