# generated using pymatgen
data_CsErCr2O8
_symmetry_space_group_name_H-M   'P 1'
_cell_length_a   5.79938800
_cell_length_b   5.79938858
_cell_length_c   8.33207700
_cell_angle_alpha   90.00000000
_cell_angle_beta   90.00000000
_cell_angle_gamma   119.99999671
_symmetry_Int_Tables_number   1
_chemical_formula_structural   CsErCr2O8
_chemical_formula_sum   'Cs1 Er1 Cr2 O8'
_cell_volume   242.68799584
_cell_formula_units_Z   1
loop_
 _symmetry_equiv_pos_site_id
 _symmetry_equiv_pos_as_xyz
  1  'x, y, z'
loop_
 _atom_site_type_symbol
 _atom_site_label
 _atom_site_symmetry_multiplicity
 _atom_site_fract_x
 _atom_site_fract_y
 _atom_site_fract_z
 _atom_site_occupancy
  Cs  Cs0  1  0.000000  0.000000  0.500000  1
  Er  Er1  1  0.000000  0.000000  0.000000  1
  Cr  Cr2  1  0.666666  0.333333  0.229421  1
  Cr  Cr3  1  0.333333  0.666667  0.770579  1
  O  O4  1  0.350794  0.175398  0.163881  1
  O  O5  1  0.824602  0.175398  0.163881  1
  O  O6  1  0.824602  0.649205  0.163881  1
  O  O7  1  0.666666  0.333333  0.424209  1
  O  O8  1  0.333333  0.666667  0.575791  1
  O  O9  1  0.175398  0.350795  0.836119  1
  O  O10  1  0.175397  0.824602  0.836119  1
  O  O11  1  0.649205  0.824602  0.836119  1
