# generated using pymatgen
data_Pr4Ho12Cd4RuPt3
_symmetry_space_group_name_H-M   'P 1'
_cell_length_a   9.73567544
_cell_length_b   9.73132241
_cell_length_c   9.73139355
_cell_angle_alpha   59.83024339
_cell_angle_beta   59.67992643
_cell_angle_gamma   59.67671506
_symmetry_Int_Tables_number   1
_chemical_formula_structural   Pr4Ho12Cd4RuPt3
_chemical_formula_sum   'Pr4 Ho12 Cd4 Ru1 Pt3'
_cell_volume   647.90952829
_cell_formula_units_Z   1
loop_
 _symmetry_equiv_pos_site_id
 _symmetry_equiv_pos_as_xyz
  1  'x, y, z'
loop_
 _atom_site_type_symbol
 _atom_site_label
 _atom_site_symmetry_multiplicity
 _atom_site_fract_x
 _atom_site_fract_y
 _atom_site_fract_z
 _atom_site_occupancy
  Pr  Pr0  1  0.565148  0.935420  0.566009  1
  Pr  Pr1  1  0.937268  0.561189  0.934425  1
  Pr  Pr2  1  0.565159  0.566007  0.935417  1
  Pr  Pr3  1  0.937259  0.934424  0.561200  1
  Ho  Ho4  1  0.352011  0.351198  0.351193  1
  Ho  Ho5  1  0.347086  0.349223  0.953650  1
  Ho  Ho6  1  0.347080  0.953657  0.349224  1
  Ho  Ho7  1  0.951066  0.348005  0.348006  1
  Ho  Ho8  1  0.817781  0.185826  0.185825  1
  Ho  Ho9  1  0.187786  0.811562  0.811568  1
  Ho  Ho10  1  0.187846  0.816050  0.187893  1
  Ho  Ho11  1  0.810783  0.185321  0.810577  1
  Ho  Ho12  1  0.187842  0.187890  0.816053  1
  Ho  Ho13  1  0.810787  0.810582  0.185323  1
  Ho  Ho14  1  0.942268  0.556658  0.556662  1
  Ho  Ho15  1  0.552542  0.943962  0.943969  1
  Cd  Cd16  1  0.583667  0.577438  0.577430  1
  Cd  Cd17  1  0.577703  0.583946  0.258964  1
  Cd  Cd18  1  0.577699  0.258965  0.583952  1
  Cd  Cd19  1  0.259629  0.578046  0.578047  1
  Ru  Ru20  1  0.145556  0.140871  0.140865  1
  Pt  Pt21  1  0.141678  0.147492  0.573545  1
  Pt  Pt22  1  0.141682  0.573542  0.147483  1
  Pt  Pt23  1  0.572671  0.142727  0.142717  1
