# generated using pymatgen
data_Zr3Al3Ru2Au
_symmetry_space_group_name_H-M   'P 1'
_cell_length_a   7.45915900
_cell_length_b   7.45915722
_cell_length_c   3.32905400
_cell_angle_alpha   90.00000000
_cell_angle_beta   90.00000000
_cell_angle_gamma   120.00000993
_symmetry_Int_Tables_number   1
_chemical_formula_structural   Zr3Al3Ru2Au
_chemical_formula_sum   'Zr3 Al3 Ru2 Au1'
_cell_volume   160.40985788
_cell_formula_units_Z   1
loop_
 _symmetry_equiv_pos_site_id
 _symmetry_equiv_pos_as_xyz
  1  'x, y, z'
loop_
 _atom_site_type_symbol
 _atom_site_label
 _atom_site_symmetry_multiplicity
 _atom_site_fract_x
 _atom_site_fract_y
 _atom_site_fract_z
 _atom_site_occupancy
  Zr  Zr0  1  0.979465  0.377593  0.500000  1
  Zr  Zr1  1  0.622407  0.601873  0.500000  1
  Zr  Zr2  1  0.398127  0.020535  0.500000  1
  Al  Al3  1  0.003169  0.730936  0.000000  1
  Al  Al4  1  0.269064  0.272232  0.000000  1
  Al  Al5  1  0.727768  0.996831  0.000000  1
  Ru  Ru6  1  0.666667  0.333333  0.000000  1
  Ru  Ru7  1  0.000000  0.000000  0.500000  1
  Au  Au8  1  0.333333  0.666667  0.000000  1
