# generated using pymatgen
data_KBaMnP4Ir3
_symmetry_space_group_name_H-M   'P 1'
_cell_length_a   6.96215977
_cell_length_b   6.97250280
_cell_length_c   5.61511100
_cell_angle_alpha   90.00000000
_cell_angle_beta   90.00000000
_cell_angle_gamma   132.49675782
_symmetry_Int_Tables_number   1
_chemical_formula_structural   KBaMnP4Ir3
_chemical_formula_sum   'K1 Ba1 Mn1 P4 Ir3'
_cell_volume   200.97610759
_cell_formula_units_Z   1
loop_
 _symmetry_equiv_pos_site_id
 _symmetry_equiv_pos_as_xyz
  1  'x, y, z'
loop_
 _atom_site_type_symbol
 _atom_site_label
 _atom_site_symmetry_multiplicity
 _atom_site_fract_x
 _atom_site_fract_y
 _atom_site_fract_z
 _atom_site_occupancy
  K  K0  1  0.000000  0.000000  0.996200  1
  Ba  Ba1  1  0.500000  0.500000  0.505469  1
  Mn  Mn2  1  0.500000  0.000000  0.250055  1
  P  P3  1  0.641849  0.332732  0.012161  1
  P  P4  1  0.166101  0.857668  0.487216  1
  P  P5  1  0.833899  0.142332  0.487216  1
  P  P6  1  0.358151  0.667268  0.012161  1
  Ir  Ir7  1  0.500000  0.000000  0.749871  1
  Ir  Ir8  1  0.000000  0.500000  0.250056  1
  Ir  Ir9  1  0.000000  0.500000  0.749595  1
