# generated using pymatgen
data_SmThFe2(Co3B)2
_symmetry_space_group_name_H-M   'P 1'
_cell_length_a   5.10497500
_cell_length_b   5.10497435
_cell_length_c   6.85453000
_cell_angle_alpha   90.00000000
_cell_angle_beta   90.00000000
_cell_angle_gamma   120.00001067
_symmetry_Int_Tables_number   1
_chemical_formula_structural   SmThFe2(Co3B)2
_chemical_formula_sum   'Sm1 Th1 Fe2 Co6 B2'
_cell_volume   154.70182986
_cell_formula_units_Z   1
loop_
 _symmetry_equiv_pos_site_id
 _symmetry_equiv_pos_as_xyz
  1  'x, y, z'
loop_
 _atom_site_type_symbol
 _atom_site_label
 _atom_site_symmetry_multiplicity
 _atom_site_fract_x
 _atom_site_fract_y
 _atom_site_fract_z
 _atom_site_occupancy
  Sm  Sm0  1  0.000000  0.000000  0.000000  1
  Th  Th1  1  0.000000  0.000000  0.500000  1
  Fe  Fe2  1  0.666667  0.333333  0.000000  1
  Fe  Fe3  1  0.333333  0.666667  0.000000  1
  Co  Co4  1  0.500000  0.500000  0.710299  1
  Co  Co5  1  0.500000  0.000000  0.710299  1
  Co  Co6  1  0.000000  0.500000  0.710299  1
  Co  Co7  1  0.500000  0.500000  0.289701  1
  Co  Co8  1  0.500000  0.000000  0.289701  1
  Co  Co9  1  0.000000  0.500000  0.289701  1
  B  B10  1  0.666667  0.333333  0.500000  1
  B  B11  1  0.333333  0.666667  0.500000  1
