# generated using pymatgen
data_Sr6TbErSb6
_symmetry_space_group_name_H-M   'P 1'
_cell_length_a   8.46439776
_cell_length_b   8.46627087
_cell_length_c   8.51173021
_cell_angle_alpha   109.34254921
_cell_angle_beta   109.30377720
_cell_angle_gamma   108.93700743
_symmetry_Int_Tables_number   1
_chemical_formula_structural   Sr6TbErSb6
_chemical_formula_sum   'Sr6 Tb1 Er1 Sb6'
_cell_volume   474.29773543
_cell_formula_units_Z   1
loop_
 _symmetry_equiv_pos_site_id
 _symmetry_equiv_pos_as_xyz
  1  'x, y, z'
loop_
 _atom_site_type_symbol
 _atom_site_label
 _atom_site_symmetry_multiplicity
 _atom_site_fract_x
 _atom_site_fract_y
 _atom_site_fract_z
 _atom_site_occupancy
  Sr  Sr0  1  0.999800  0.135877  0.495787  1
  Sr  Sr1  1  0.359834  0.357267  0.359574  1
  Sr  Sr2  1  0.635694  0.499735  0.995591  1
  Sr  Sr3  1  0.857177  0.859893  0.859752  1
  Sr  Sr4  1  0.502549  0.004075  0.644663  1
  Sr  Sr5  1  0.503787  0.002217  0.144589  1
  Tb  Tb6  1  0.999510  0.636274  0.497622  1
  Er  Er7  1  0.135644  0.499639  0.997688  1
  Sb  Sb8  1  0.241297  0.123553  0.870581  1
  Sb  Sb9  1  0.123480  0.851056  0.246356  1
  Sb  Sb10  1  0.775221  0.390808  0.635613  1
  Sb  Sb11  1  0.891331  0.274996  0.134284  1
  Sb  Sb12  1  0.622723  0.741212  0.370252  1
  Sb  Sb13  1  0.351951  0.623397  0.747648  1
