# generated using pymatgen
data_Pm5Ir2
_symmetry_space_group_name_H-M   'P 1'
_cell_length_a   6.44508385
_cell_length_b   6.45086929
_cell_length_c   8.62608100
_cell_angle_alpha   111.68630213
_cell_angle_beta   111.71805715
_cell_angle_gamma   36.69670617
_symmetry_Int_Tables_number   1
_chemical_formula_structural   Pm5Ir2
_chemical_formula_sum   'Pm5 Ir2'
_cell_volume   197.38309579
_cell_formula_units_Z   1
loop_
 _symmetry_equiv_pos_site_id
 _symmetry_equiv_pos_as_xyz
  1  'x, y, z'
loop_
 _atom_site_type_symbol
 _atom_site_label
 _atom_site_symmetry_multiplicity
 _atom_site_fract_x
 _atom_site_fract_y
 _atom_site_fract_z
 _atom_site_occupancy
  Pm  Pm0  1  0.842975  0.463059  0.859296  1
  Pm  Pm1  1  0.173092  0.793311  0.479631  1
  Pm  Pm2  1  0.508029  0.128164  0.669453  1
  Pm  Pm3  1  0.388142  0.007722  0.239022  1
  Pm  Pm4  1  0.627875  0.248649  0.099924  1
  Ir  Ir5  1  0.184470  0.804900  0.896940  1
  Ir  Ir6  1  0.831571  0.451439  0.441996  1
