# generated using pymatgen
data_Lu4TcOs7
_symmetry_space_group_name_H-M   'P 1'
_cell_length_a   5.33122200
_cell_length_b   5.24153189
_cell_length_c   8.83375100
_cell_angle_alpha   90.00000000
_cell_angle_beta   90.00000000
_cell_angle_gamma   120.56766175
_symmetry_Int_Tables_number   1
_chemical_formula_structural   Lu4TcOs7
_chemical_formula_sum   'Lu4 Tc1 Os7'
_cell_volume   212.54360008
_cell_formula_units_Z   1
loop_
 _symmetry_equiv_pos_site_id
 _symmetry_equiv_pos_as_xyz
  1  'x, y, z'
loop_
 _atom_site_type_symbol
 _atom_site_label
 _atom_site_symmetry_multiplicity
 _atom_site_fract_x
 _atom_site_fract_y
 _atom_site_fract_z
 _atom_site_occupancy
  Lu  Lu0  1  0.332974  0.665949  0.434517  1
  Lu  Lu1  1  0.668330  0.336659  0.564603  1
  Lu  Lu2  1  0.668330  0.336659  0.935397  1
  Lu  Lu3  1  0.332974  0.665949  0.065483  1
  Tc  Tc4  1  0.168967  0.337935  0.750000  1
  Os  Os5  1  0.173780  0.825521  0.750000  1
  Os  Os6  1  0.342958  0.169725  0.250000  1
  Os  Os7  1  0.825600  0.651200  0.250000  1
  Os  Os8  1  0.651741  0.825521  0.750000  1
  Os  Os9  1  0.003789  0.007579  0.000262  1
  Os  Os10  1  0.826768  0.169725  0.250000  1
  Os  Os11  1  0.003789  0.007579  0.499738  1
