# generated using pymatgen
data_Tb15DyInHg3Ir4
_symmetry_space_group_name_H-M   'P 1'
_cell_length_a   9.64811837
_cell_length_b   9.65650482
_cell_length_c   9.63749686
_cell_angle_alpha   59.99174355
_cell_angle_beta   59.96353687
_cell_angle_gamma   60.02872514
_symmetry_Int_Tables_number   1
_chemical_formula_structural   Tb15DyInHg3Ir4
_chemical_formula_sum   'Tb15 Dy1 In1 Hg3 Ir4'
_cell_volume   634.83235385
_cell_formula_units_Z   1
loop_
 _symmetry_equiv_pos_site_id
 _symmetry_equiv_pos_as_xyz
  1  'x, y, z'
loop_
 _atom_site_type_symbol
 _atom_site_label
 _atom_site_symmetry_multiplicity
 _atom_site_fract_x
 _atom_site_fract_y
 _atom_site_fract_z
 _atom_site_occupancy
  Tb  Tb0  1  0.941499  0.939205  0.559527  1
  Tb  Tb1  1  0.943508  0.558272  0.939349  1
  Tb  Tb2  1  0.311585  0.690125  0.309596  1
  Tb  Tb3  1  0.940518  0.559295  0.559669  1
  Tb  Tb4  1  0.311751  0.311576  0.687069  1
  Tb  Tb5  1  0.099398  0.100364  0.099767  1
  Tb  Tb6  1  0.558871  0.558272  0.939349  1
  Tb  Tb7  1  0.100180  0.101315  0.698326  1
  Tb  Tb8  1  0.689604  0.311576  0.687069  1
  Tb  Tb9  1  0.688693  0.690125  0.309596  1
  Tb  Tb10  1  0.689000  0.311798  0.310201  1
  Tb  Tb11  1  0.310962  0.691183  0.686893  1
  Tb  Tb12  1  0.559769  0.939205  0.559527  1
  Tb  Tb13  1  0.700473  0.100364  0.099767  1
  Tb  Tb14  1  0.558777  0.942264  0.940180  1
  Dy  Dy15  1  0.099974  0.699687  0.100367  1
  In  In16  1  0.331378  0.330694  0.006549  1
  Hg  Hg17  1  0.334876  0.335039  0.334979  1
  Hg  Hg18  1  0.995105  0.335039  0.334979  1
  Hg  Hg19  1  0.335511  0.993620  0.335359  1
  Ir  Ir20  1  0.891548  0.891784  0.892698  1
  Ir  Ir21  1  0.891880  0.892197  0.324045  1
  Ir  Ir22  1  0.323970  0.891784  0.892698  1
  Ir  Ir23  1  0.891170  0.325216  0.892444  1
