# generated using pymatgen
data_Sc4Al18NiIr5
_symmetry_space_group_name_H-M   'P 1'
_cell_length_a   7.47441880
_cell_length_b   7.47442021
_cell_length_c   9.30148300
_cell_angle_alpha   90.20971608
_cell_angle_beta   90.20972214
_cell_angle_gamma   120.09858007
_symmetry_Int_Tables_number   1
_chemical_formula_structural   Sc4Al18NiIr5
_chemical_formula_sum   'Sc4 Al18 Ni1 Ir5'
_cell_volume   449.56638105
_cell_formula_units_Z   1
loop_
 _symmetry_equiv_pos_site_id
 _symmetry_equiv_pos_as_xyz
  1  'x, y, z'
loop_
 _atom_site_type_symbol
 _atom_site_label
 _atom_site_symmetry_multiplicity
 _atom_site_fract_x
 _atom_site_fract_y
 _atom_site_fract_z
 _atom_site_occupancy
  Sc  Sc0  1  0.996332  0.666983  0.750441  1
  Sc  Sc1  1  0.003668  0.333017  0.249559  1
  Sc  Sc2  1  0.666983  0.996332  0.750441  1
  Sc  Sc3  1  0.333017  0.003668  0.249559  1
  Al  Al4  1  0.116504  0.116504  0.745225  1
  Al  Al5  1  0.883496  0.883496  0.254775  1
  Al  Al6  1  0.997621  0.331298  0.576454  1
  Al  Al7  1  0.002379  0.668702  0.423546  1
  Al  Al8  1  0.001986  0.667452  0.077289  1
  Al  Al9  1  0.332548  0.998014  0.922711  1
  Al  Al10  1  0.998014  0.332548  0.922711  1
  Al  Al11  1  0.667452  0.001986  0.077289  1
  Al  Al12  1  0.668702  0.002379  0.423546  1
  Al  Al13  1  0.331298  0.997621  0.576454  1
  Al  Al14  1  0.332044  0.332044  0.058867  1
  Al  Al15  1  0.667956  0.667956  0.941133  1
  Al  Al16  1  0.672536  0.672536  0.557756  1
  Al  Al17  1  0.327464  0.327464  0.442244  1
  Al  Al18  1  0.338371  0.549575  0.749534  1
  Al  Al19  1  0.661629  0.450425  0.250466  1
  Al  Al20  1  0.549575  0.338371  0.749534  1
  Al  Al21  1  0.450425  0.661629  0.250466  1
  Ni  Ni22  1  0.000000  0.000000  0.500000  1
  Ir  Ir23  1  0.672160  0.327840  0.500000  1
  Ir  Ir24  1  0.327840  0.672160  0.500000  1
  Ir  Ir25  1  0.327671  0.672329  0.000000  1
  Ir  Ir26  1  0.672329  0.327671  0.000000  1
  Ir  Ir27  1  0.000000  0.000000  0.000000  1
