# generated using pymatgen
data_Zr3Ga4SiRu8
_symmetry_space_group_name_H-M   'P 1'
_cell_length_a   6.27541900
_cell_length_b   4.41669800
_cell_length_c   8.75656800
_cell_angle_alpha   90.00000000
_cell_angle_beta   90.00132052
_cell_angle_gamma   90.00000000
_symmetry_Int_Tables_number   1
_chemical_formula_structural   Zr3Ga4SiRu8
_chemical_formula_sum   'Zr3 Ga4 Si1 Ru8'
_cell_volume   242.70256008
_cell_formula_units_Z   1
loop_
 _symmetry_equiv_pos_site_id
 _symmetry_equiv_pos_as_xyz
  1  'x, y, z'
loop_
 _atom_site_type_symbol
 _atom_site_label
 _atom_site_symmetry_multiplicity
 _atom_site_fract_x
 _atom_site_fract_y
 _atom_site_fract_z
 _atom_site_occupancy
  Zr  Zr0  1  0.249999  0.250000  0.115199  1
  Zr  Zr1  1  0.749980  0.750001  0.375010  1
  Zr  Zr2  1  0.249891  0.250000  0.634777  1
  Ga  Ga3  1  0.750115  0.250000  0.137863  1
  Ga  Ga4  1  0.250076  0.750001  0.375016  1
  Ga  Ga5  1  0.749999  0.250000  0.612103  1
  Ga  Ga6  1  0.249788  0.750001  0.875015  1
  Si  Si7  1  0.750250  0.750001  0.874995  1
  Ru  Ru8  1  0.513294  0.750001  0.108173  1
  Ru  Ru9  1  0.986777  0.750001  0.108293  1
  Ru  Ru10  1  0.493934  0.250000  0.374992  1
  Ru  Ru11  1  0.006156  0.250000  0.375003  1
  Ru  Ru12  1  0.986737  0.750001  0.641788  1
  Ru  Ru13  1  0.513104  0.750001  0.641852  1
  Ru  Ru14  1  0.967415  0.250000  0.874967  1
  Ru  Ru15  1  0.532491  0.250000  0.874955  1
