# generated using pymatgen
data_Eu3WN4
_symmetry_space_group_name_H-M   'P 1'
_cell_length_a   7.76688000
_cell_length_b   6.80975300
_cell_length_c   5.56842400
_cell_angle_alpha   90.00000000
_cell_angle_beta   90.00000000
_cell_angle_gamma   90.00000000
_symmetry_Int_Tables_number   1
_chemical_formula_structural   Eu3WN4
_chemical_formula_sum   'Eu6 W2 N8'
_cell_volume   294.51692102
_cell_formula_units_Z   2
loop_
 _symmetry_equiv_pos_site_id
 _symmetry_equiv_pos_as_xyz
  1  'x, y, z'
loop_
 _atom_site_type_symbol
 _atom_site_label
 _atom_site_symmetry_multiplicity
 _atom_site_fract_x
 _atom_site_fract_y
 _atom_site_fract_z
 _atom_site_occupancy
  Eu  Eu0  1  0.254032  0.831770  0.699838  1
  Eu  Eu1  1  0.245968  0.168230  0.199838  1
  Eu  Eu2  1  0.745968  0.831770  0.699838  1
  Eu  Eu3  1  0.754032  0.168230  0.199838  1
  Eu  Eu4  1  0.000000  0.348794  0.698869  1
  Eu  Eu5  1  0.500000  0.651206  0.198869  1
  W  W6  1  0.000000  0.673518  0.229687  1
  W  W7  1  0.500000  0.326482  0.729687  1
  N  N8  1  0.791819  0.806766  0.145180  1
  N  N9  1  0.708181  0.193234  0.645180  1
  N  N10  1  0.208181  0.806766  0.145180  1
  N  N11  1  0.291819  0.193234  0.645180  1
  N  N12  1  0.000000  0.399459  0.152861  1
  N  N13  1  0.500000  0.600541  0.652861  1
  N  N14  1  0.000000  0.676565  0.567807  1
  N  N15  1  0.500000  0.323435  0.067807  1
