# generated using pymatgen
data_Dy2Er2SiI6
_symmetry_space_group_name_H-M   'P 1'
_cell_length_a   4.20843400
_cell_length_b   13.92064500
_cell_length_c   14.71158800
_cell_angle_alpha   90.00000000
_cell_angle_beta   90.00000000
_cell_angle_gamma   90.00000000
_symmetry_Int_Tables_number   1
_chemical_formula_structural   Dy2Er2SiI6
_chemical_formula_sum   'Dy4 Er4 Si2 I12'
_cell_volume   861.86537382
_cell_formula_units_Z   2
loop_
 _symmetry_equiv_pos_site_id
 _symmetry_equiv_pos_as_xyz
  1  'x, y, z'
loop_
 _atom_site_type_symbol
 _atom_site_label
 _atom_site_symmetry_multiplicity
 _atom_site_fract_x
 _atom_site_fract_y
 _atom_site_fract_z
 _atom_site_occupancy
  Dy  Dy0  1  0.000000  0.110872  0.574391  1
  Dy  Dy1  1  0.000000  0.889128  0.425609  1
  Dy  Dy2  1  0.000000  0.610872  0.925609  1
  Dy  Dy3  1  0.000000  0.389128  0.074391  1
  Er  Er4  1  0.500000  0.113429  0.348117  1
  Er  Er5  1  0.500000  0.886571  0.651883  1
  Er  Er6  1  0.500000  0.613429  0.151883  1
  Er  Er7  1  0.500000  0.386571  0.848117  1
  Si  Si8  1  0.500000  0.000000  0.500000  1
  Si  Si9  1  0.500000  0.500000  0.000000  1
  I  I10  1  0.500000  0.245643  0.163505  1
  I  I11  1  0.500000  0.754357  0.836495  1
  I  I12  1  0.500000  0.745643  0.336495  1
  I  I13  1  0.500000  0.254357  0.663505  1
  I  I14  1  0.000000  0.258130  0.413355  1
  I  I15  1  0.000000  0.741870  0.586645  1
  I  I16  1  0.000000  0.758130  0.086645  1
  I  I17  1  0.000000  0.241870  0.913355  1
  I  I18  1  0.000000  0.000929  0.240144  1
  I  I19  1  0.000000  0.999071  0.759856  1
  I  I20  1  0.000000  0.500929  0.259856  1
  I  I21  1  0.000000  0.499071  0.740144  1
