# generated using pymatgen
data_NdDy4Bi2Sb
_symmetry_space_group_name_H-M   'P 1'
_cell_length_a   8.23972600
_cell_length_b   9.43132700
_cell_length_c   12.06082300
_cell_angle_alpha   90.00000000
_cell_angle_beta   90.00000000
_cell_angle_gamma   90.00000000
_symmetry_Int_Tables_number   1
_chemical_formula_structural   NdDy4Bi2Sb
_chemical_formula_sum   'Nd4 Dy16 Bi8 Sb4'
_cell_volume   937.26525318
_cell_formula_units_Z   4
loop_
 _symmetry_equiv_pos_site_id
 _symmetry_equiv_pos_as_xyz
  1  'x, y, z'
loop_
 _atom_site_type_symbol
 _atom_site_label
 _atom_site_symmetry_multiplicity
 _atom_site_fract_x
 _atom_site_fract_y
 _atom_site_fract_z
 _atom_site_occupancy
  Nd  Nd0  1  0.169941  0.750000  0.221713  1
  Nd  Nd1  1  0.330059  0.750000  0.721713  1
  Nd  Nd2  1  0.830059  0.250000  0.778287  1
  Nd  Nd3  1  0.669941  0.250000  0.278287  1
  Dy  Dy4  1  0.816081  0.562087  0.062169  1
  Dy  Dy5  1  0.683919  0.937913  0.562169  1
  Dy  Dy6  1  0.183919  0.062087  0.937831  1
  Dy  Dy7  1  0.316081  0.437913  0.437831  1
  Dy  Dy8  1  0.183919  0.437913  0.937831  1
  Dy  Dy9  1  0.316081  0.062087  0.437831  1
  Dy  Dy10  1  0.816081  0.937913  0.062169  1
  Dy  Dy11  1  0.683919  0.562087  0.562169  1
  Dy  Dy12  1  0.474716  0.750000  0.002521  1
  Dy  Dy13  1  0.025284  0.750000  0.502521  1
  Dy  Dy14  1  0.525284  0.250000  0.997479  1
  Dy  Dy15  1  0.974716  0.250000  0.497479  1
  Dy  Dy16  1  0.663549  0.750000  0.289326  1
  Dy  Dy17  1  0.836451  0.750000  0.789326  1
  Dy  Dy18  1  0.336451  0.250000  0.710674  1
  Dy  Dy19  1  0.163549  0.250000  0.210674  1
  Bi  Bi20  1  0.936284  0.506280  0.327551  1
  Bi  Bi21  1  0.563716  0.993720  0.827551  1
  Bi  Bi22  1  0.063716  0.006280  0.672449  1
  Bi  Bi23  1  0.436284  0.493720  0.172449  1
  Bi  Bi24  1  0.063716  0.493720  0.672449  1
  Bi  Bi25  1  0.436284  0.006280  0.172449  1
  Bi  Bi26  1  0.936284  0.993720  0.327551  1
  Bi  Bi27  1  0.563716  0.506280  0.827551  1
  Sb  Sb28  1  0.401241  0.750000  0.464104  1
  Sb  Sb29  1  0.098759  0.750000  0.964104  1
  Sb  Sb30  1  0.598759  0.250000  0.535896  1
  Sb  Sb31  1  0.901241  0.250000  0.035896  1
