# generated using pymatgen
data_La2URu2
_symmetry_space_group_name_H-M   'P 1'
_cell_length_a   6.20970206
_cell_length_b   6.20970217
_cell_length_c   6.20970221
_cell_angle_alpha   140.86080744
_cell_angle_beta   122.72844852
_cell_angle_gamma   71.56233369
_symmetry_Int_Tables_number   1
_chemical_formula_structural   La2URu2
_chemical_formula_sum   'La2 U1 Ru2'
_cell_volume   124.72840809
_cell_formula_units_Z   1
loop_
 _symmetry_equiv_pos_site_id
 _symmetry_equiv_pos_as_xyz
  1  'x, y, z'
loop_
 _atom_site_type_symbol
 _atom_site_label
 _atom_site_symmetry_multiplicity
 _atom_site_fract_x
 _atom_site_fract_y
 _atom_site_fract_z
 _atom_site_occupancy
  La  La0  1  0.693855  0.193855  0.500000  1
  La  La1  1  0.306145  0.806144  0.500000  1
  U  U2  1  0.000000  0.000000  0.000000  1
  Ru  Ru3  1  0.762266  0.500000  0.262266  1
  Ru  Ru4  1  0.237734  0.500000  0.737733  1
