# generated using pymatgen
data_Tb12Tc3Ag2
_symmetry_space_group_name_H-M   'P 1'
_cell_length_a   8.40373421
_cell_length_b   8.40518455
_cell_length_c   8.40373488
_cell_angle_alpha   109.91768346
_cell_angle_beta   110.40946927
_cell_angle_gamma   108.08881269
_symmetry_Int_Tables_number   1
_chemical_formula_structural   Tb12Tc3Ag2
_chemical_formula_sum   'Tb12 Tc3 Ag2'
_cell_volume   456.78304958
_cell_formula_units_Z   1
loop_
 _symmetry_equiv_pos_site_id
 _symmetry_equiv_pos_as_xyz
  1  'x, y, z'
loop_
 _atom_site_type_symbol
 _atom_site_label
 _atom_site_symmetry_multiplicity
 _atom_site_fract_x
 _atom_site_fract_y
 _atom_site_fract_z
 _atom_site_occupancy
  Tb  Tb0  1  0.183325  0.431169  0.247845  1
  Tb  Tb1  1  0.816675  0.568831  0.752155  1
  Tb  Tb2  1  0.183415  0.935684  0.752269  1
  Tb  Tb3  1  0.935911  0.184177  0.751745  1
  Tb  Tb4  1  0.816585  0.064316  0.247731  1
  Tb  Tb5  1  0.064089  0.815823  0.248255  1
  Tb  Tb6  1  0.432433  0.184177  0.248266  1
  Tb  Tb7  1  0.567567  0.815823  0.751734  1
  Tb  Tb8  1  0.320062  0.319560  0.639781  1
  Tb  Tb9  1  0.679938  0.680440  0.360219  1
  Tb  Tb10  1  0.679780  0.319560  0.999498  1
  Tb  Tb11  1  0.320220  0.680440  0.000502  1
  Tc  Tc12  1  0.337771  0.337842  0.000070  1
  Tc  Tc13  1  0.662229  0.662158  0.999930  1
  Tc  Tc14  1  0.000000  0.000000  0.000000  1
  Ag  Ag15  1  0.000000  0.500000  0.500000  1
  Ag  Ag16  1  0.500000  0.000000  0.500000  1
