# generated using pymatgen
data_Er10Ir2Pt3Au
_symmetry_space_group_name_H-M   'P 1'
_cell_length_a   11.03151055
_cell_length_b   11.00970300
_cell_length_c   6.32875829
_cell_angle_alpha   90.00000000
_cell_angle_beta   89.85969259
_cell_angle_gamma   90.00000000
_symmetry_Int_Tables_number   1
_chemical_formula_structural   Er10Ir2Pt3Au
_chemical_formula_sum   'Er20 Ir4 Pt6 Au2'
_cell_volume   768.64851984
_cell_formula_units_Z   2
loop_
 _symmetry_equiv_pos_site_id
 _symmetry_equiv_pos_as_xyz
  1  'x, y, z'
loop_
 _atom_site_type_symbol
 _atom_site_label
 _atom_site_symmetry_multiplicity
 _atom_site_fract_x
 _atom_site_fract_y
 _atom_site_fract_z
 _atom_site_occupancy
  Er  Er0  1  0.296115  0.086853  0.371287  1
  Er  Er1  1  0.296115  0.913147  0.871287  1
  Er  Er2  1  0.697734  0.088536  0.865681  1
  Er  Er3  1  0.697734  0.911464  0.365681  1
  Er  Er4  1  0.580054  0.793456  0.873861  1
  Er  Er5  1  0.580054  0.206544  0.373861  1
  Er  Er6  1  0.410866  0.794737  0.373100  1
  Er  Er7  1  0.410866  0.205263  0.873100  1
  Er  Er8  1  0.206123  0.413268  0.625047  1
  Er  Er9  1  0.206123  0.586732  0.125047  1
  Er  Er10  1  0.794401  0.418219  0.126940  1
  Er  Er11  1  0.794401  0.581781  0.626940  1
  Er  Er12  1  0.916835  0.702031  0.136148  1
  Er  Er13  1  0.916835  0.297969  0.636148  1
  Er  Er14  1  0.091232  0.700716  0.626851  1
  Er  Er15  1  0.091232  0.299284  0.126851  1
  Er  Er16  1  0.006167  0.999066  0.500217  1
  Er  Er17  1  0.006167  0.000934  0.000217  1
  Er  Er18  1  0.500124  0.499153  0.000275  1
  Er  Er19  1  0.500124  0.500847  0.500275  1
  Ir  Ir20  1  0.499232  0.000198  0.117806  1
  Ir  Ir21  1  0.499232  0.999802  0.617806  1
  Ir  Ir22  1  0.000543  0.500628  0.882278  1
  Ir  Ir23  1  0.000543  0.499372  0.382278  1
  Pt  Pt24  1  0.154978  0.154569  0.749841  1
  Pt  Pt25  1  0.154978  0.845431  0.249841  1
  Pt  Pt26  1  0.654238  0.347152  0.749310  1
  Pt  Pt27  1  0.654238  0.652848  0.249310  1
  Pt  Pt28  1  0.347358  0.346378  0.250718  1
  Pt  Pt29  1  0.347358  0.653622  0.750718  1
  Au  Au30  1  0.844001  0.155621  0.250642  1
  Au  Au31  1  0.844001  0.844379  0.750642  1
