# generated using pymatgen
data_Np3(GaPt)4
_symmetry_space_group_name_H-M   'P 1'
_cell_length_a   8.20859418
_cell_length_b   8.20859489
_cell_length_c   8.20859500
_cell_angle_alpha   150.65734857
_cell_angle_beta   127.48665872
_cell_angle_gamma   61.29621274
_symmetry_Int_Tables_number   1
_chemical_formula_structural   Np3(GaPt)4
_chemical_formula_sum   'Np3 Ga4 Pt4'
_cell_volume   213.26631075
_cell_formula_units_Z   1
loop_
 _symmetry_equiv_pos_site_id
 _symmetry_equiv_pos_as_xyz
  1  'x, y, z'
loop_
 _atom_site_type_symbol
 _atom_site_label
 _atom_site_symmetry_multiplicity
 _atom_site_fract_x
 _atom_site_fract_y
 _atom_site_fract_z
 _atom_site_occupancy
  Np  Np0  1  0.500000  0.000000  0.500000  1
  Np  Np1  1  0.880355  0.880355  0.000000  1
  Np  Np2  1  0.119645  0.119645  0.000000  1
  Ga  Ga3  1  0.477054  0.674981  0.802073  1
  Ga  Ga4  1  0.872910  0.674981  0.197927  1
  Ga  Ga5  1  0.127090  0.325019  0.802073  1
  Ga  Ga6  1  0.522946  0.325019  0.197927  1
  Pt  Pt7  1  0.285878  0.785878  0.500000  1
  Pt  Pt8  1  0.714122  0.214122  0.500000  1
  Pt  Pt9  1  0.796470  0.500000  0.296470  1
  Pt  Pt10  1  0.203530  0.500000  0.703530  1
