# generated using pymatgen
data_Nd3SnHg2PdPt2
_symmetry_space_group_name_H-M   'P 1'
_cell_length_a   7.87554300
_cell_length_b   7.94636528
_cell_length_c   3.87618200
_cell_angle_alpha   90.00000000
_cell_angle_beta   90.00000000
_cell_angle_gamma   119.70560683
_symmetry_Int_Tables_number   1
_chemical_formula_structural   Nd3SnHg2PdPt2
_chemical_formula_sum   'Nd3 Sn1 Hg2 Pd1 Pt2'
_cell_volume   210.69999750
_cell_formula_units_Z   1
loop_
 _symmetry_equiv_pos_site_id
 _symmetry_equiv_pos_as_xyz
  1  'x, y, z'
loop_
 _atom_site_type_symbol
 _atom_site_label
 _atom_site_symmetry_multiplicity
 _atom_site_fract_x
 _atom_site_fract_y
 _atom_site_fract_z
 _atom_site_occupancy
  Nd  Nd0  1  0.594306  0.589181  0.000000  1
  Nd  Nd1  1  0.398810  0.000000  0.000000  1
  Nd  Nd2  1  0.005125  0.410819  0.000000  1
  Sn  Sn3  1  0.741097  0.000000  0.500000  1
  Hg  Hg4  1  0.998181  0.735574  0.500000  1
  Hg  Hg5  1  0.262607  0.264426  0.500000  1
  Pd  Pd6  1  0.983007  0.000000  0.000000  1
  Pt  Pt7  1  0.347804  0.678744  0.500000  1
  Pt  Pt8  1  0.669062  0.321256  0.500000  1
