# generated using pymatgen
data_Lu4Mg2GaSi3
_symmetry_space_group_name_H-M   'P 1'
_cell_length_a   7.11895055
_cell_length_b   7.11894966
_cell_length_c   4.12730300
_cell_angle_alpha   90.00000000
_cell_angle_beta   90.00000000
_cell_angle_gamma   90.69870619
_symmetry_Int_Tables_number   1
_chemical_formula_structural   Lu4Mg2GaSi3
_chemical_formula_sum   'Lu4 Mg2 Ga1 Si3'
_cell_volume   209.15389595
_cell_formula_units_Z   1
loop_
 _symmetry_equiv_pos_site_id
 _symmetry_equiv_pos_as_xyz
  1  'x, y, z'
loop_
 _atom_site_type_symbol
 _atom_site_label
 _atom_site_symmetry_multiplicity
 _atom_site_fract_x
 _atom_site_fract_y
 _atom_site_fract_z
 _atom_site_occupancy
  Lu  Lu0  1  0.677462  0.180109  0.500000  1
  Lu  Lu1  1  0.319891  0.822538  0.500000  1
  Lu  Lu2  1  0.175963  0.324037  0.500000  1
  Lu  Lu3  1  0.827092  0.672908  0.500000  1
  Mg  Mg4  1  0.499130  0.497688  0.000000  1
  Mg  Mg5  1  0.002312  0.000870  0.000000  1
  Ga  Ga6  1  0.621722  0.878278  0.000000  1
  Si  Si7  1  0.880298  0.381114  0.000000  1
  Si  Si8  1  0.118886  0.619702  0.000000  1
  Si  Si9  1  0.377242  0.122758  0.000000  1
