# generated using pymatgen
data_Pr2B3Ru4C
_symmetry_space_group_name_H-M   'P 1'
_cell_length_a   6.80558969
_cell_length_b   5.95305111
_cell_length_c   5.59845541
_cell_angle_alpha   72.11953561
_cell_angle_beta   56.99530330
_cell_angle_gamma   51.52617286
_symmetry_Int_Tables_number   1
_chemical_formula_structural   Pr2B3Ru4C
_chemical_formula_sum   'Pr2 B3 Ru4 C1'
_cell_volume   148.74144196
_cell_formula_units_Z   1
loop_
 _symmetry_equiv_pos_site_id
 _symmetry_equiv_pos_as_xyz
  1  'x, y, z'
loop_
 _atom_site_type_symbol
 _atom_site_label
 _atom_site_symmetry_multiplicity
 _atom_site_fract_x
 _atom_site_fract_y
 _atom_site_fract_z
 _atom_site_occupancy
  Pr  Pr0  1  0.999388  0.000612  0.999388  1
  Pr  Pr1  1  0.249907  0.250093  0.249907  1
  B  B2  1  0.318729  0.681271  0.318729  1
  B  B3  1  0.930258  0.569742  0.930258  1
  B  B4  1  0.569060  0.930940  0.569060  1
  Ru  Ru5  1  0.616749  0.606161  0.880861  1
  Ru  Ru6  1  0.639910  0.626798  0.365572  1
  Ru  Ru7  1  0.365572  0.367720  0.639910  1
  Ru  Ru8  1  0.880862  0.896229  0.616748  1
  C  C9  1  0.679566  0.320434  0.679566  1
