# generated using pymatgen
data_HoLu19(HgBi5)2
_symmetry_space_group_name_H-M   'P 1'
_cell_length_a   8.07746581
_cell_length_b   9.34983400
_cell_length_c   11.76828500
_cell_angle_alpha   90.00000000
_cell_angle_beta   90.02571316
_cell_angle_gamma   90.00000000
_symmetry_Int_Tables_number   1
_chemical_formula_structural   HoLu19(HgBi5)2
_chemical_formula_sum   'Ho1 Lu19 Hg2 Bi10'
_cell_volume   888.77568073
_cell_formula_units_Z   1
loop_
 _symmetry_equiv_pos_site_id
 _symmetry_equiv_pos_as_xyz
  1  'x, y, z'
loop_
 _atom_site_type_symbol
 _atom_site_label
 _atom_site_symmetry_multiplicity
 _atom_site_fract_x
 _atom_site_fract_y
 _atom_site_fract_z
 _atom_site_occupancy
  Ho  Ho0  1  0.809521  0.250000  0.282425  1
  Lu  Lu1  1  0.352928  0.750000  0.208160  1
  Lu  Lu2  1  0.852676  0.750000  0.291714  1
  Lu  Lu3  1  0.653039  0.250000  0.781258  1
  Lu  Lu4  1  0.153054  0.250000  0.718936  1
  Lu  Lu5  1  0.687885  0.571577  0.056922  1
  Lu  Lu6  1  0.187044  0.928563  0.443004  1
  Lu  Lu7  1  0.306750  0.053941  0.941281  1
  Lu  Lu8  1  0.806841  0.446010  0.558749  1
  Lu  Lu9  1  0.306750  0.446059  0.941281  1
  Lu  Lu10  1  0.806841  0.053990  0.558749  1
  Lu  Lu11  1  0.687885  0.928423  0.056922  1
  Lu  Lu12  1  0.187044  0.571437  0.443004  1
  Lu  Lu13  1  0.479527  0.250000  0.491098  1
  Lu  Lu14  1  0.980037  0.250000  0.009162  1
  Lu  Lu15  1  0.533933  0.750000  0.508912  1
  Lu  Lu16  1  0.034142  0.750000  0.991141  1
  Lu  Lu17  1  0.309184  0.250000  0.217037  1
  Lu  Lu18  1  0.683945  0.750000  0.784757  1
  Lu  Lu19  1  0.184268  0.750000  0.715195  1
  Hg  Hg20  1  0.407172  0.750000  0.955846  1
  Hg  Hg21  1  0.906856  0.750000  0.544126  1
  Bi  Bi22  1  0.595072  0.250000  0.041446  1
  Bi  Bi23  1  0.096810  0.250000  0.458960  1
  Bi  Bi24  1  0.557854  0.996918  0.323381  1
  Bi  Bi25  1  0.060488  0.502985  0.176338  1
  Bi  Bi26  1  0.438650  0.498311  0.677128  1
  Bi  Bi27  1  0.938403  0.001759  0.823110  1
  Bi  Bi28  1  0.438650  0.001689  0.677128  1
  Bi  Bi29  1  0.938403  0.498241  0.823110  1
  Bi  Bi30  1  0.557854  0.503082  0.323381  1
  Bi  Bi31  1  0.060488  0.997015  0.176338  1
