# generated using pymatgen
data_TmZr4Pb3
_symmetry_space_group_name_H-M   'P 1'
_cell_length_a   8.76812400
_cell_length_b   8.71185361
_cell_length_c   5.95973200
_cell_angle_alpha   90.00000000
_cell_angle_beta   90.00000000
_cell_angle_gamma   120.21390261
_symmetry_Int_Tables_number   1
_chemical_formula_structural   TmZr4Pb3
_chemical_formula_sum   'Tm2 Zr8 Pb6'
_cell_volume   393.40011672
_cell_formula_units_Z   2
loop_
 _symmetry_equiv_pos_site_id
 _symmetry_equiv_pos_as_xyz
  1  'x, y, z'
loop_
 _atom_site_type_symbol
 _atom_site_label
 _atom_site_symmetry_multiplicity
 _atom_site_fract_x
 _atom_site_fract_y
 _atom_site_fract_z
 _atom_site_occupancy
  Tm  Tm0  1  0.763066  0.760775  0.250000  1
  Tm  Tm1  1  0.002291  0.239225  0.250000  1
  Zr  Zr2  1  0.752477  0.000000  0.750000  1
  Zr  Zr3  1  0.331890  0.667143  0.500783  1
  Zr  Zr4  1  0.249227  0.000000  0.250000  1
  Zr  Zr5  1  0.664747  0.332857  0.500783  1
  Zr  Zr6  1  0.000057  0.758738  0.750000  1
  Zr  Zr7  1  0.331890  0.667143  0.999217  1
  Zr  Zr8  1  0.241320  0.241262  0.750000  1
  Zr  Zr9  1  0.664747  0.332857  0.999217  1
  Pb  Pb10  1  0.607899  0.608765  0.750000  1
  Pb  Pb11  1  0.389625  0.000000  0.750000  1
  Pb  Pb12  1  0.604889  0.000000  0.250000  1
  Pb  Pb13  1  0.999134  0.391235  0.750000  1
  Pb  Pb14  1  0.395100  0.393461  0.250000  1
  Pb  Pb15  1  0.001640  0.606539  0.250000  1
