# generated using pymatgen
data_Tb4GeBr6
_symmetry_space_group_name_H-M   'P 1'
_cell_length_a   4.09367500
_cell_length_b   13.32578600
_cell_length_c   14.12363700
_cell_angle_alpha   90.00000000
_cell_angle_beta   90.00000000
_cell_angle_gamma   90.00000000
_symmetry_Int_Tables_number   1
_chemical_formula_structural   Tb4GeBr6
_chemical_formula_sum   'Tb8 Ge2 Br12'
_cell_volume   770.46469407
_cell_formula_units_Z   2
loop_
 _symmetry_equiv_pos_site_id
 _symmetry_equiv_pos_as_xyz
  1  'x, y, z'
loop_
 _atom_site_type_symbol
 _atom_site_label
 _atom_site_symmetry_multiplicity
 _atom_site_fract_x
 _atom_site_fract_y
 _atom_site_fract_z
 _atom_site_occupancy
  Tb  Tb0  1  0.500000  0.118788  0.340216  1
  Tb  Tb1  1  0.500000  0.881212  0.659784  1
  Tb  Tb2  1  0.500000  0.618788  0.159784  1
  Tb  Tb3  1  0.500000  0.381212  0.840216  1
  Tb  Tb4  1  0.000000  0.118783  0.578769  1
  Tb  Tb5  1  0.000000  0.881217  0.421231  1
  Tb  Tb6  1  0.000000  0.618783  0.921231  1
  Tb  Tb7  1  0.000000  0.381217  0.078769  1
  Ge  Ge8  1  0.500000  0.000000  0.500000  1
  Ge  Ge9  1  0.500000  0.500000  0.000000  1
  Br  Br10  1  0.500000  0.244027  0.162469  1
  Br  Br11  1  0.500000  0.755973  0.837531  1
  Br  Br12  1  0.500000  0.744027  0.337531  1
  Br  Br13  1  0.500000  0.255973  0.662469  1
  Br  Br14  1  0.000000  0.254899  0.411430  1
  Br  Br15  1  0.000000  0.745101  0.588570  1
  Br  Br16  1  0.000000  0.754899  0.088570  1
  Br  Br17  1  0.000000  0.245101  0.911430  1
  Br  Br18  1  0.000000  0.001650  0.243630  1
  Br  Br19  1  0.000000  0.998350  0.756370  1
  Br  Br20  1  0.000000  0.501650  0.256370  1
  Br  Br21  1  0.000000  0.498350  0.743630  1
