# generated using pymatgen
data_Tb2Si5OsPt2
_symmetry_space_group_name_H-M   'P 1'
_cell_length_a   8.17786538
_cell_length_b   8.17786372
_cell_length_c   5.95880900
_cell_angle_alpha   68.68236527
_cell_angle_beta   68.68236981
_cell_angle_gamma   89.45291754
_symmetry_Int_Tables_number   1
_chemical_formula_structural   Tb2Si5OsPt2
_chemical_formula_sum   'Tb4 Si10 Os2 Pt4'
_cell_volume   342.37394423
_cell_formula_units_Z   2
loop_
 _symmetry_equiv_pos_site_id
 _symmetry_equiv_pos_as_xyz
  1  'x, y, z'
loop_
 _atom_site_type_symbol
 _atom_site_label
 _atom_site_symmetry_multiplicity
 _atom_site_fract_x
 _atom_site_fract_y
 _atom_site_fract_z
 _atom_site_occupancy
  Tb  Tb0  1  0.861700  0.602057  0.768383  1
  Tb  Tb1  1  0.397943  0.138300  0.731617  1
  Tb  Tb2  1  0.138300  0.397943  0.231617  1
  Tb  Tb3  1  0.602057  0.861700  0.268383  1
  Si  Si4  1  0.048395  0.254943  0.848113  1
  Si  Si5  1  0.745057  0.951605  0.651887  1
  Si  Si6  1  0.951605  0.745057  0.151887  1
  Si  Si7  1  0.254943  0.048395  0.348113  1
  Si  Si8  1  0.222339  0.777661  0.750000  1
  Si  Si9  1  0.777661  0.222339  0.250000  1
  Si  Si10  1  0.500479  0.499521  0.750000  1
  Si  Si11  1  0.499521  0.500479  0.250000  1
  Si  Si12  1  0.777585  0.222415  0.750000  1
  Si  Si13  1  0.222415  0.777585  0.250000  1
  Os  Os14  1  0.999973  0.000027  0.750000  1
  Os  Os15  1  0.000027  0.999973  0.250000  1
  Pt  Pt16  1  0.248084  0.527492  0.612264  1
  Pt  Pt17  1  0.472508  0.751916  0.887736  1
  Pt  Pt18  1  0.751916  0.472508  0.387736  1
  Pt  Pt19  1  0.527492  0.248084  0.112264  1
