# generated using pymatgen
data_Ho2Lu6Ti9Si16Mo3
_symmetry_space_group_name_H-M   'P 1'
_cell_length_a   6.95507965
_cell_length_b   6.95831353
_cell_length_c   12.78820306
_cell_angle_alpha   89.95875052
_cell_angle_beta   89.99508768
_cell_angle_gamma   89.94224106
_symmetry_Int_Tables_number   1
_chemical_formula_structural   Ho2Lu6Ti9Si16Mo3
_chemical_formula_sum   'Ho2 Lu6 Ti9 Si16 Mo3'
_cell_volume   618.89260079
_cell_formula_units_Z   1
loop_
 _symmetry_equiv_pos_site_id
 _symmetry_equiv_pos_as_xyz
  1  'x, y, z'
loop_
 _atom_site_type_symbol
 _atom_site_label
 _atom_site_symmetry_multiplicity
 _atom_site_fract_x
 _atom_site_fract_y
 _atom_site_fract_z
 _atom_site_occupancy
  Ho  Ho0  1  0.001867  0.339789  0.533200  1
  Ho  Ho1  1  0.999529  0.659561  0.033015  1
  Lu  Lu2  1  0.340331  0.000664  0.466594  1
  Lu  Lu3  1  0.499584  0.841953  0.718426  1
  Lu  Lu4  1  0.499243  0.158127  0.216908  1
  Lu  Lu5  1  0.841706  0.499630  0.281622  1
  Lu  Lu6  1  0.158329  0.499119  0.783150  1
  Lu  Lu7  1  0.659047  0.000769  0.966760  1
  Ti  Ti8  1  0.672764  0.673331  0.499972  1
  Ti  Ti9  1  0.152103  0.007224  0.875831  1
  Ti  Ti10  1  0.492434  0.652104  0.125483  1
  Ti  Ti11  1  0.506752  0.347377  0.627059  1
  Ti  Ti12  1  0.651824  0.491985  0.874339  1
  Ti  Ti13  1  0.347657  0.507160  0.372792  1
  Ti  Ti14  1  0.848509  0.992982  0.375076  1
  Ti  Ti15  1  0.007506  0.152103  0.123983  1
  Ti  Ti16  1  0.992764  0.848605  0.624809  1
  Si  Si17  1  0.203178  0.131026  0.683974  1
  Si  Si18  1  0.369341  0.702228  0.932907  1
  Si  Si19  1  0.631712  0.296944  0.433024  1
  Si  Si20  1  0.700976  0.367257  0.066668  1
  Si  Si21  1  0.298106  0.633857  0.566726  1
  Si  Si22  1  0.796750  0.868858  0.184161  1
  Si  Si23  1  0.132200  0.202080  0.316390  1
  Si  Si24  1  0.867799  0.797972  0.816262  1
  Si  Si25  1  0.293183  0.953902  0.064669  1
  Si  Si26  1  0.546481  0.792282  0.315141  1
  Si  Si27  1  0.452729  0.207713  0.815199  1
  Si  Si28  1  0.791394  0.547454  0.685280  1
  Si  Si29  1  0.208521  0.451842  0.185264  1
  Si  Si30  1  0.706092  0.047145  0.565872  1
  Si  Si31  1  0.952848  0.291028  0.935067  1
  Si  Si32  1  0.048261  0.708170  0.433941  1
  Mo  Mo33  1  0.327566  0.326832  0.000012  1
  Mo  Mo34  1  0.173953  0.827499  0.249243  1
  Mo  Mo35  1  0.826960  0.173427  0.751182  1
