# generated using pymatgen
data_UPa(Al3Rh)3
_symmetry_space_group_name_H-M   'P 1'
_cell_length_a   7.62347268
_cell_length_b   7.62296669
_cell_length_c   9.43476900
_cell_angle_alpha   90.00000000
_cell_angle_beta   90.00000000
_cell_angle_gamma   119.85658903
_symmetry_Int_Tables_number   1
_chemical_formula_structural   UPa(Al3Rh)3
_chemical_formula_sum   'U2 Pa2 Al18 Rh6'
_cell_volume   475.51537315
_cell_formula_units_Z   2
loop_
 _symmetry_equiv_pos_site_id
 _symmetry_equiv_pos_as_xyz
  1  'x, y, z'
loop_
 _atom_site_type_symbol
 _atom_site_label
 _atom_site_symmetry_multiplicity
 _atom_site_fract_x
 _atom_site_fract_y
 _atom_site_fract_z
 _atom_site_occupancy
  U  U0  1  0.670025  0.995357  0.250000  1
  U  U1  1  0.329975  0.004643  0.750000  1
  Pa  Pa2  1  0.998101  0.671126  0.250000  1
  Pa  Pa3  1  0.001899  0.328874  0.750000  1
  Al  Al4  1  0.127641  0.126917  0.250000  1
  Al  Al5  1  0.872359  0.873083  0.750000  1
  Al  Al6  1  0.000324  0.332781  0.075759  1
  Al  Al7  1  0.999676  0.667219  0.924241  1
  Al  Al8  1  0.999676  0.667219  0.575759  1
  Al  Al9  1  0.335782  0.003148  0.426591  1
  Al  Al10  1  0.000324  0.332781  0.424241  1
  Al  Al11  1  0.664218  0.996852  0.573409  1
  Al  Al12  1  0.664218  0.996852  0.926591  1
  Al  Al13  1  0.335782  0.003148  0.073409  1
  Al  Al14  1  0.334109  0.334208  0.553966  1
  Al  Al15  1  0.665891  0.665792  0.446034  1
  Al  Al16  1  0.665891  0.665792  0.053966  1
  Al  Al17  1  0.334109  0.334208  0.946034  1
  Al  Al18  1  0.340340  0.547217  0.250000  1
  Al  Al19  1  0.659660  0.452783  0.750000  1
  Al  Al20  1  0.548349  0.340054  0.250000  1
  Al  Al21  1  0.451651  0.659946  0.750000  1
  Rh  Rh22  1  0.673815  0.330155  0.998698  1
  Rh  Rh23  1  0.326185  0.669845  0.001302  1
  Rh  Rh24  1  0.326185  0.669845  0.498698  1
  Rh  Rh25  1  0.673815  0.330155  0.501302  1
  Rh  Rh26  1  0.000000  0.000000  0.000000  1
  Rh  Rh27  1  0.000000  0.000000  0.500000  1
