# generated using pymatgen
data_Li8B4PdPt11
_symmetry_space_group_name_H-M   'P 1'
_cell_length_a   6.81912504
_cell_length_b   6.81912504
_cell_length_c   6.84777736
_cell_angle_alpha   89.78034075
_cell_angle_beta   89.78034075
_cell_angle_gamma   89.84155894
_symmetry_Int_Tables_number   1
_chemical_formula_structural   Li8B4PdPt11
_chemical_formula_sum   'Li8 B4 Pd1 Pt11'
_cell_volume   318.41895571
_cell_formula_units_Z   1
loop_
 _symmetry_equiv_pos_site_id
 _symmetry_equiv_pos_as_xyz
  1  'x, y, z'
loop_
 _atom_site_type_symbol
 _atom_site_label
 _atom_site_symmetry_multiplicity
 _atom_site_fract_x
 _atom_site_fract_y
 _atom_site_fract_z
 _atom_site_occupancy
  Li  Li0  1  0.316748  0.313915  0.306904  1
  Li  Li1  1  0.052173  0.451079  0.549941  1
  Li  Li2  1  0.559216  0.059541  0.444746  1
  Li  Li3  1  0.454243  0.549614  0.049657  1
  Li  Li4  1  0.190459  0.690784  0.805254  1
  Li  Li5  1  0.936085  0.933252  0.943096  1
  Li  Li6  1  0.798921  0.197827  0.700059  1
  Li  Li7  1  0.700386  0.795757  0.200343  1
  B  B8  1  0.858254  0.391746  0.125000  1
  B  B9  1  0.392740  0.140664  0.876697  1
  B  B10  1  0.628027  0.621973  0.625000  1
  B  B11  1  0.109336  0.857260  0.373303  1
  Pd  Pd12  1  0.203275  0.046725  0.625000  1
  Pt  Pt13  1  0.421938  0.385445  0.690204  1
  Pt  Pt14  1  0.073606  0.614469  0.184104  1
  Pt  Pt15  1  0.963916  0.135097  0.303968  1
  Pt  Pt16  1  0.292438  0.957562  0.125000  1
  Pt  Pt17  1  0.687151  0.430153  0.382911  1
  Pt  Pt18  1  0.544886  0.868636  0.813907  1
  Pt  Pt19  1  0.635531  0.176394  0.065896  1
  Pt  Pt20  1  0.381364  0.705114  0.436093  1
  Pt  Pt21  1  0.864555  0.828062  0.559796  1
  Pt  Pt22  1  0.114903  0.286084  0.946032  1
  Pt  Pt23  1  0.819847  0.562849  0.867089  1
