# generated using pymatgen
data_HfZr4Nb3SiP3
_symmetry_space_group_name_H-M   'P 1'
_cell_length_a   3.60897000
_cell_length_b   6.96714162
_cell_length_c   8.48707601
_cell_angle_alpha   89.54719853
_cell_angle_beta   90.00000000
_cell_angle_gamma   90.00000000
_symmetry_Int_Tables_number   1
_chemical_formula_structural   HfZr4Nb3SiP3
_chemical_formula_sum   'Hf1 Zr4 Nb3 Si1 P3'
_cell_volume   213.39411582
_cell_formula_units_Z   1
loop_
 _symmetry_equiv_pos_site_id
 _symmetry_equiv_pos_as_xyz
  1  'x, y, z'
loop_
 _atom_site_type_symbol
 _atom_site_label
 _atom_site_symmetry_multiplicity
 _atom_site_fract_x
 _atom_site_fract_y
 _atom_site_fract_z
 _atom_site_occupancy
  Hf  Hf0  1  0.250000  0.140181  0.061050  1
  Zr  Zr1  1  0.250000  0.533693  0.832530  1
  Zr  Zr2  1  0.750000  0.964018  0.333301  1
  Zr  Zr3  1  0.250000  0.037472  0.667669  1
  Zr  Zr4  1  0.750000  0.473030  0.174102  1
  Nb  Nb5  1  0.750000  0.857291  0.940764  1
  Nb  Nb6  1  0.250000  0.635702  0.437217  1
  Nb  Nb7  1  0.750000  0.362582  0.558399  1
  Si  Si8  1  0.750000  0.738486  0.640554  1
  P  P9  1  0.250000  0.762650  0.140837  1
  P  P10  1  0.750000  0.235583  0.851910  1
  P  P11  1  0.250000  0.259313  0.361669  1
