# generated using pymatgen
data_Tm9LuSn5Bi
_symmetry_space_group_name_H-M   'P 1'
_cell_length_a   8.86325204
_cell_length_b   8.86314818
_cell_length_c   6.40155402
_cell_angle_alpha   89.99557991
_cell_angle_beta   90.00812954
_cell_angle_gamma   119.85360639
_symmetry_Int_Tables_number   1
_chemical_formula_structural   Tm9LuSn5Bi
_chemical_formula_sum   'Tm9 Lu1 Sn5 Bi1'
_cell_volume   436.15003987
_cell_formula_units_Z   1
loop_
 _symmetry_equiv_pos_site_id
 _symmetry_equiv_pos_as_xyz
  1  'x, y, z'
loop_
 _atom_site_type_symbol
 _atom_site_label
 _atom_site_symmetry_multiplicity
 _atom_site_fract_x
 _atom_site_fract_y
 _atom_site_fract_z
 _atom_site_occupancy
  Tm  Tm0  1  0.670852  0.332760  0.001819  1
  Tm  Tm1  1  0.332746  0.670856  0.001818  1
  Tm  Tm2  1  0.332757  0.670842  0.498180  1
  Tm  Tm3  1  0.766599  0.766587  0.749941  1
  Tm  Tm4  1  0.234480  0.993372  0.749938  1
  Tm  Tm5  1  0.993318  0.234447  0.749941  1
  Tm  Tm6  1  0.236173  0.236157  0.250046  1
  Tm  Tm7  1  0.762721  0.000594  0.250045  1
  Tm  Tm8  1  0.000508  0.762665  0.250073  1
  Lu  Lu9  1  0.670964  0.332746  0.498103  1
  Sn  Sn10  1  0.602578  0.999874  0.749754  1
  Sn  Sn11  1  0.999243  0.602277  0.749747  1
  Sn  Sn12  1  0.605237  0.604949  0.250237  1
  Sn  Sn13  1  0.396064  0.002592  0.250286  1
  Sn  Sn14  1  0.002018  0.395782  0.250256  1
  Bi  Bi15  1  0.393741  0.393503  0.749815  1
