# generated using pymatgen
data_La12MnFeI17
_symmetry_space_group_name_H-M   'P 1'
_cell_length_a   9.97134054
_cell_length_b   12.11358822
_cell_length_c   12.23633335
_cell_angle_alpha   73.36278864
_cell_angle_beta   74.68309271
_cell_angle_gamma   66.72338669
_symmetry_Int_Tables_number   1
_chemical_formula_structural   La12MnFeI17
_chemical_formula_sum   'La12 Mn1 Fe1 I17'
_cell_volume   1281.58256614
_cell_formula_units_Z   1
loop_
 _symmetry_equiv_pos_site_id
 _symmetry_equiv_pos_as_xyz
  1  'x, y, z'
loop_
 _atom_site_type_symbol
 _atom_site_label
 _atom_site_symmetry_multiplicity
 _atom_site_fract_x
 _atom_site_fract_y
 _atom_site_fract_z
 _atom_site_occupancy
  La  La0  1  0.450131  0.481321  0.326104  1
  La  La1  1  0.562938  0.672909  0.001801  1
  La  La2  1  0.290281  0.997405  0.089351  1
  La  La3  1  0.841408  0.282332  0.846418  1
  La  La4  1  0.421635  0.238757  0.730293  1
  La  La5  1  0.707984  0.000221  0.912659  1
  La  La6  1  0.548303  0.520827  0.671106  1
  La  La7  1  0.436329  0.328387  0.999640  1
  La  La8  1  0.589135  0.761738  0.273235  1
  La  La9  1  0.831120  0.185402  0.576485  1
  La  La10  1  0.170166  0.812979  0.420728  1
  La  La11  1  0.161402  0.717428  0.154695  1
  Mn  Mn12  1  0.354148  0.734202  0.207837  1
  Fe  Fe13  1  0.635370  0.266335  0.787037  1
  I  I14  1  0.057333  0.106181  0.318620  1
  I  I15  1  0.459298  0.943360  0.823243  1
  I  I16  1  0.429305  0.822677  0.529291  1
  I  I17  1  0.571208  0.177143  0.472185  1
  I  I18  1  0.856721  0.696320  0.049552  1
  I  I19  1  0.213728  0.418420  0.245970  1
  I  I20  1  0.688369  0.365891  0.104214  1
  I  I21  1  0.539906  0.056636  0.176694  1
  I  I22  1  0.745257  0.474086  0.413102  1
  I  I23  1  0.886074  0.785428  0.370083  1
  I  I24  1  0.941619  0.895156  0.683110  1
  I  I25  1  0.143713  0.306328  0.949936  1
  I  I26  1  0.313054  0.631709  0.894647  1
  I  I27  1  0.999242  0.000839  0.999426  1
  I  I28  1  0.112299  0.215045  0.631589  1
  I  I29  1  0.786543  0.579278  0.753606  1
  I  I30  1  0.255982  0.525258  0.587341  1
