# generated using pymatgen
data_Tb2TaSb5O18
_symmetry_space_group_name_H-M   'P 1'
_cell_length_a   7.53311204
_cell_length_b   5.39204887
_cell_length_c   8.20412000
_cell_angle_alpha   86.29596863
_cell_angle_beta   89.82708430
_cell_angle_gamma   90.02131923
_symmetry_Int_Tables_number   1
_chemical_formula_structural   Tb2TaSb5O18
_chemical_formula_sum   'Tb2 Ta1 Sb5 O18'
_cell_volume   332.54471185
_cell_formula_units_Z   1
loop_
 _symmetry_equiv_pos_site_id
 _symmetry_equiv_pos_as_xyz
  1  'x, y, z'
loop_
 _atom_site_type_symbol
 _atom_site_label
 _atom_site_symmetry_multiplicity
 _atom_site_fract_x
 _atom_site_fract_y
 _atom_site_fract_z
 _atom_site_occupancy
  Tb  Tb0  1  0.249775  0.966108  0.432155  1
  Tb  Tb1  1  0.750225  0.033892  0.567845  1
  Ta  Ta2  1  0.500000  0.000000  0.000000  1
  Sb  Sb3  1  0.000000  0.000000  0.000000  1
  Sb  Sb4  1  0.494770  0.533769  0.695429  1
  Sb  Sb5  1  0.005260  0.530263  0.697113  1
  Sb  Sb6  1  0.994740  0.469737  0.302887  1
  Sb  Sb7  1  0.505230  0.466231  0.304571  1
  O  O8  1  0.250236  0.901520  0.985647  1
  O  O9  1  0.938820  0.856713  0.779399  1
  O  O10  1  0.562690  0.853627  0.780239  1
  O  O11  1  0.960072  0.737656  0.472705  1
  O  O12  1  0.539789  0.737898  0.470689  1
  O  O13  1  0.249861  0.666916  0.656129  1
  O  O14  1  0.931847  0.675727  0.114121  1
  O  O15  1  0.555879  0.681313  0.117841  1
  O  O16  1  0.249645  0.589903  0.311333  1
  O  O17  1  0.750355  0.410097  0.688667  1
  O  O18  1  0.068153  0.324273  0.885879  1
  O  O19  1  0.444121  0.318687  0.882159  1
  O  O20  1  0.750139  0.333084  0.343871  1
  O  O21  1  0.039928  0.262344  0.527295  1
  O  O22  1  0.460211  0.262102  0.529311  1
  O  O23  1  0.061180  0.143287  0.220601  1
  O  O24  1  0.437310  0.146373  0.219761  1
  O  O25  1  0.749764  0.098480  0.014353  1
