# generated using pymatgen
data_Li3Tm4GaPt4
_symmetry_space_group_name_H-M   'P 1'
_cell_length_a   3.96356600
_cell_length_b   6.96372886
_cell_length_c   8.37176167
_cell_angle_alpha   89.70913457
_cell_angle_beta   90.00000000
_cell_angle_gamma   90.00000000
_symmetry_Int_Tables_number   1
_chemical_formula_structural   Li3Tm4GaPt4
_chemical_formula_sum   'Li3 Tm4 Ga1 Pt4'
_cell_volume   231.06768177
_cell_formula_units_Z   1
loop_
 _symmetry_equiv_pos_site_id
 _symmetry_equiv_pos_as_xyz
  1  'x, y, z'
loop_
 _atom_site_type_symbol
 _atom_site_label
 _atom_site_symmetry_multiplicity
 _atom_site_fract_x
 _atom_site_fract_y
 _atom_site_fract_z
 _atom_site_occupancy
  Li  Li0  1  0.250000  0.373710  0.560206  1
  Li  Li1  1  0.250000  0.873780  0.942559  1
  Li  Li2  1  0.750000  0.624414  0.440683  1
  Tm  Tm3  1  0.250000  0.952511  0.320010  1
  Tm  Tm4  1  0.250000  0.448262  0.177319  1
  Tm  Tm5  1  0.750000  0.052846  0.681069  1
  Tm  Tm6  1  0.750000  0.550553  0.819752  1
  Ga  Ga7  1  0.750000  0.120323  0.058823  1
  Pt  Pt8  1  0.250000  0.253010  0.879406  1
  Pt  Pt9  1  0.250000  0.761728  0.627700  1
  Pt  Pt10  1  0.750000  0.745718  0.124124  1
  Pt  Pt11  1  0.750000  0.243145  0.368350  1
