# generated using pymatgen
data_Er15TmIn4Pt3Rh
_symmetry_space_group_name_H-M   'P 1'
_cell_length_a   9.60462136
_cell_length_b   9.60462243
_cell_length_c   9.60605811
_cell_angle_alpha   60.07616017
_cell_angle_beta   60.07615982
_cell_angle_gamma   60.07995254
_symmetry_Int_Tables_number   1
_chemical_formula_structural   Er15TmIn4Pt3Rh
_chemical_formula_sum   'Er15 Tm1 In4 Pt3 Rh1'
_cell_volume   627.69992249
_cell_formula_units_Z   1
loop_
 _symmetry_equiv_pos_site_id
 _symmetry_equiv_pos_as_xyz
  1  'x, y, z'
loop_
 _atom_site_type_symbol
 _atom_site_label
 _atom_site_symmetry_multiplicity
 _atom_site_fract_x
 _atom_site_fract_y
 _atom_site_fract_z
 _atom_site_occupancy
  Er  Er0  1  0.438085  0.062323  0.061985  1
  Er  Er1  1  0.436998  0.064217  0.437374  1
  Er  Er2  1  0.062323  0.438085  0.061985  1
  Er  Er3  1  0.650221  0.052249  0.650717  1
  Er  Er4  1  0.186594  0.810655  0.810473  1
  Er  Er5  1  0.062180  0.062180  0.438240  1
  Er  Er6  1  0.808727  0.190610  0.190424  1
  Er  Er7  1  0.810588  0.810588  0.186433  1
  Er  Er8  1  0.650522  0.650522  0.052132  1
  Er  Er9  1  0.649204  0.649204  0.649106  1
  Er  Er10  1  0.064217  0.436998  0.437374  1
  Er  Er11  1  0.052249  0.650221  0.650717  1
  Er  Er12  1  0.810655  0.186594  0.810473  1
  Er  Er13  1  0.437149  0.437149  0.064101  1
  Er  Er14  1  0.190610  0.808727  0.190424  1
  Tm  Tm15  1  0.190509  0.190509  0.808629  1
  In  In16  1  0.416556  0.749654  0.416614  1
  In  In17  1  0.416484  0.416484  0.749730  1
  In  In18  1  0.749654  0.416556  0.416614  1
  In  In19  1  0.415848  0.415848  0.416061  1
  Pt  Pt20  1  0.858403  0.427146  0.857656  1
  Pt  Pt21  1  0.857746  0.857746  0.427629  1
  Pt  Pt22  1  0.427146  0.858403  0.857656  1
  Rh  Rh23  1  0.857333  0.857333  0.857458  1
