# generated using pymatgen
data_LaZn8Au3
_symmetry_space_group_name_H-M   'P 1'
_cell_length_a   8.49042823
_cell_length_b   8.49042824
_cell_length_c   8.51362353
_cell_angle_alpha   100.17219526
_cell_angle_beta   100.17219273
_cell_angle_gamma   130.87435279
_symmetry_Int_Tables_number   1
_chemical_formula_structural   LaZn8Au3
_chemical_formula_sum   'La2 Zn16 Au6'
_cell_volume   420.10149673
_cell_formula_units_Z   2
loop_
 _symmetry_equiv_pos_site_id
 _symmetry_equiv_pos_as_xyz
  1  'x, y, z'
loop_
 _atom_site_type_symbol
 _atom_site_label
 _atom_site_symmetry_multiplicity
 _atom_site_fract_x
 _atom_site_fract_y
 _atom_site_fract_z
 _atom_site_occupancy
  La  La0  1  0.247584  0.752416  0.500000  1
  La  La1  1  0.002518  0.997482  0.000000  1
  Zn  Zn2  1  0.754763  0.171212  0.828636  1
  Zn  Zn3  1  0.488747  0.822175  0.914179  1
  Zn  Zn4  1  0.502116  0.497884  0.000000  1
  Zn  Zn5  1  0.754811  0.927691  0.579794  1
  Zn  Zn6  1  0.748833  0.251167  0.500000  1
  Zn  Zn7  1  0.062318  0.647014  0.822975  1
  Zn  Zn8  1  0.350449  0.174827  0.419314  1
  Zn  Zn9  1  0.825173  0.649551  0.580686  1
  Zn  Zn10  1  0.903783  0.820354  0.333409  1
  Zn  Zn11  1  0.179646  0.096217  0.666591  1
  Zn  Zn12  1  0.072309  0.245189  0.420206  1
  Zn  Zn13  1  0.352986  0.937682  0.177025  1
  Zn  Zn14  1  0.828788  0.245237  0.171364  1
  Zn  Zn15  1  0.177825  0.511253  0.085821  1
  Zn  Zn16  1  0.631390  0.376484  0.253000  1
  Zn  Zn17  1  0.623516  0.368610  0.747000  1
  Au  Au18  1  0.909096  0.587111  0.086675  1
  Au  Au19  1  0.632115  0.882807  0.245349  1
  Au  Au20  1  0.403781  0.482629  0.312624  1
  Au  Au21  1  0.517371  0.596219  0.687376  1
  Au  Au22  1  0.412889  0.090904  0.913325  1
  Au  Au23  1  0.117193  0.367885  0.754651  1
