# generated using pymatgen
data_YTa5(B2Os5)2
_symmetry_space_group_name_H-M   'P 1'
_cell_length_a   9.59759559
_cell_length_b   9.59759553
_cell_length_c   3.06068400
_cell_angle_alpha   90.00000000
_cell_angle_beta   90.00000000
_cell_angle_gamma   90.53443370
_symmetry_Int_Tables_number   1
_chemical_formula_structural   YTa5(B2Os5)2
_chemical_formula_sum   'Y1 Ta5 B4 Os10'
_cell_volume   281.91909333
_cell_formula_units_Z   1
loop_
 _symmetry_equiv_pos_site_id
 _symmetry_equiv_pos_as_xyz
  1  'x, y, z'
loop_
 _atom_site_type_symbol
 _atom_site_label
 _atom_site_symmetry_multiplicity
 _atom_site_fract_x
 _atom_site_fract_y
 _atom_site_fract_z
 _atom_site_occupancy
  Y  Y0  1  0.823889  0.676111  0.000000  1
  Ta  Ta1  1  0.180253  0.319747  0.000000  1
  Ta  Ta2  1  0.323980  0.822590  0.000000  1
  Ta  Ta3  1  0.677410  0.176020  0.000000  1
  Ta  Ta4  1  0.502028  0.500908  0.000000  1
  Ta  Ta5  1  0.999092  0.997972  0.000000  1
  B  B6  1  0.619176  0.880824  0.000000  1
  B  B7  1  0.377259  0.122741  0.000000  1
  B  B8  1  0.121938  0.619555  0.000000  1
  B  B9  1  0.880445  0.378062  0.000000  1
  Os  Os10  1  0.556498  0.726273  0.500000  1
  Os  Os11  1  0.426232  0.283844  0.500000  1
  Os  Os12  1  0.083158  0.782202  0.500000  1
  Os  Os13  1  0.930303  0.215644  0.500000  1
  Os  Os14  1  0.284356  0.569697  0.500000  1
  Os  Os15  1  0.717798  0.416842  0.500000  1
  Os  Os16  1  0.216156  0.073768  0.500000  1
  Os  Os17  1  0.773727  0.943502  0.500000  1
  Os  Os18  1  0.495073  0.004927  0.500000  1
  Os  Os19  1  0.011227  0.488773  0.500000  1
