# generated using pymatgen
data_Li6ZnCo5(AsO4)6
_symmetry_space_group_name_H-M   'P 1'
_cell_length_a   8.85404780
_cell_length_b   8.85545166
_cell_length_c   8.85389925
_cell_angle_alpha   107.82436652
_cell_angle_beta   107.79269261
_cell_angle_gamma   107.88201877
_symmetry_Int_Tables_number   1
_chemical_formula_structural   Li6ZnCo5(AsO4)6
_chemical_formula_sum   'Li6 Zn1 Co5 As6 O24'
_cell_volume   564.48678099
_cell_formula_units_Z   1
loop_
 _symmetry_equiv_pos_site_id
 _symmetry_equiv_pos_as_xyz
  1  'x, y, z'
loop_
 _atom_site_type_symbol
 _atom_site_label
 _atom_site_symmetry_multiplicity
 _atom_site_fract_x
 _atom_site_fract_y
 _atom_site_fract_z
 _atom_site_occupancy
  Li  Li0  1  0.334050  0.158025  0.933529  1
  Li  Li1  1  0.853432  0.448783  0.619010  1
  Li  Li2  1  0.448937  0.618894  0.853169  1
  Li  Li3  1  0.619344  0.853388  0.448778  1
  Li  Li4  1  0.158080  0.933683  0.334191  1
  Li  Li5  1  0.933857  0.334430  0.158726  1
  Zn  Zn6  1  0.956715  0.182266  0.780595  1
  Co  Co7  1  0.667439  0.493955  0.259617  1
  Co  Co8  1  0.493738  0.259613  0.667127  1
  Co  Co9  1  0.259265  0.667228  0.493763  1
  Co  Co10  1  0.182305  0.779115  0.958037  1
  Co  Co11  1  0.779336  0.958284  0.182743  1
  As  As12  1  0.291273  0.519057  0.111439  1
  As  As13  1  0.519271  0.111949  0.291287  1
  As  As14  1  0.111730  0.291176  0.519732  1
  As  As15  1  0.004697  0.822754  0.596985  1
  As  As16  1  0.822379  0.596740  0.004645  1
  As  As17  1  0.597151  0.004995  0.822674  1
  O  O18  1  0.418124  0.407231  0.093225  1
  O  O19  1  0.407355  0.093199  0.418058  1
  O  O20  1  0.093436  0.417846  0.407533  1
  O  O21  1  0.036241  0.752792  0.086789  1
  O  O22  1  0.753163  0.086937  0.036305  1
  O  O23  1  0.087449  0.036704  0.752613  1
  O  O24  1  0.705200  0.024989  0.691689  1
  O  O25  1  0.692329  0.705127  0.025204  1
  O  O26  1  0.308827  0.634546  0.987189  1
  O  O27  1  0.025093  0.692357  0.705020  1
  O  O28  1  0.986956  0.308545  0.634499  1
  O  O29  1  0.634302  0.987246  0.308687  1
  O  O30  1  0.330966  0.372750  0.664391  1
  O  O31  1  0.664459  0.330950  0.372627  1
  O  O32  1  0.372076  0.663912  0.330246  1
  O  O33  1  0.029508  0.075607  0.365624  1
  O  O34  1  0.365649  0.029355  0.075479  1
  O  O35  1  0.075364  0.365495  0.029450  1
  O  O36  1  0.128256  0.810552  0.479921  1
  O  O37  1  0.480241  0.128470  0.810461  1
  O  O38  1  0.810651  0.479800  0.128318  1
  O  O39  1  0.453452  0.785315  0.741322  1
  O  O40  1  0.741486  0.453032  0.784995  1
  O  O41  1  0.785120  0.741610  0.453009  1
