# generated using pymatgen
data_LiTb(BeB14)2
_symmetry_space_group_name_H-M   'P 1'
_cell_length_a   7.17638933
_cell_length_b   7.17639052
_cell_length_c   7.17638946
_cell_angle_alpha   132.79352092
_cell_angle_beta   110.54066480
_cell_angle_gamma   88.26765378
_symmetry_Int_Tables_number   1
_chemical_formula_structural   LiTb(BeB14)2
_chemical_formula_sum   'Li1 Tb1 Be2 B28'
_cell_volume   242.03344831
_cell_formula_units_Z   1
loop_
 _symmetry_equiv_pos_site_id
 _symmetry_equiv_pos_as_xyz
  1  'x, y, z'
loop_
 _atom_site_type_symbol
 _atom_site_label
 _atom_site_symmetry_multiplicity
 _atom_site_fract_x
 _atom_site_fract_y
 _atom_site_fract_z
 _atom_site_occupancy
  Li  Li0  1  0.627001  0.250000  0.377001  1
  Tb  Tb1  1  0.393645  0.750000  0.643645  1
  Be  Be2  1  0.994355  0.005885  0.500240  1
  Be  Be3  1  0.994355  0.494115  0.988470  1
  B  B4  1  0.634634  0.665534  0.969101  1
  B  B5  1  0.365786  0.333701  0.032085  1
  B  B6  1  0.198383  0.166299  0.032085  1
  B  B7  1  0.803568  0.834466  0.969101  1
  B  B8  1  0.785414  0.156365  0.629049  1
  B  B9  1  0.209131  0.843831  0.365300  1
  B  B10  1  0.021466  0.656169  0.365300  1
  B  B11  1  0.972686  0.343635  0.629049  1
  B  B12  1  0.921046  0.090971  0.830075  1
  B  B13  1  0.079523  0.910801  0.168722  1
  B  B14  1  0.757921  0.589199  0.168722  1
  B  B15  1  0.239104  0.409029  0.830075  1
  B  B16  1  0.398144  0.396751  0.677432  1
  B  B17  1  0.602390  0.279745  0.001782  1
  B  B18  1  0.222038  0.899392  0.001782  1
  B  B19  1  0.780681  0.779288  0.677432  1
  B  B20  1  0.602390  0.600608  0.322646  1
  B  B21  1  0.398144  0.720712  0.001394  1
  B  B22  1  0.780681  0.103249  0.001394  1
  B  B23  1  0.222038  0.220255  0.322646  1
  B  B24  1  0.033961  0.828128  0.700328  1
  B  B25  1  0.964482  0.664195  0.791290  1
  B  B26  1  0.627096  0.326808  0.791290  1
  B  B27  1  0.372199  0.166367  0.700328  1
  B  B28  1  0.964482  0.173192  0.300287  1
  B  B29  1  0.033961  0.333633  0.205834  1
  B  B30  1  0.372199  0.671872  0.205834  1
  B  B31  1  0.627096  0.835805  0.300287  1
