# generated using pymatgen
data_Yb2Fe2CoB8Os5
_symmetry_space_group_name_H-M   'P 1'
_cell_length_a   7.31618516
_cell_length_b   7.26297118
_cell_length_c   4.00496842
_cell_angle_alpha   90.10134888
_cell_angle_beta   90.34031097
_cell_angle_gamma   90.74486701
_symmetry_Int_Tables_number   1
_chemical_formula_structural   Yb2Fe2CoB8Os5
_chemical_formula_sum   'Yb2 Fe2 Co1 B8 Os5'
_cell_volume   212.79087640
_cell_formula_units_Z   1
loop_
 _symmetry_equiv_pos_site_id
 _symmetry_equiv_pos_as_xyz
  1  'x, y, z'
loop_
 _atom_site_type_symbol
 _atom_site_label
 _atom_site_symmetry_multiplicity
 _atom_site_fract_x
 _atom_site_fract_y
 _atom_site_fract_z
 _atom_site_occupancy
  Yb  Yb0  1  0.997682  0.999945  0.927884  1
  Yb  Yb1  1  0.507744  0.499298  0.399099  1
  Fe  Fe2  1  0.875472  0.626448  0.632770  1
  Fe  Fe3  1  0.115790  0.625080  0.131402  1
  Co  Co4  1  0.868562  0.386196  0.127926  1
  B  B5  1  0.815190  0.663663  0.125073  1
  B  B6  1  0.198731  0.336353  0.123362  1
  B  B7  1  0.837531  0.316068  0.622269  1
  B  B8  1  0.156624  0.685562  0.626275  1
  B  B9  1  0.721578  0.825452  0.398257  1
  B  B10  1  0.283868  0.168694  0.394616  1
  B  B11  1  0.674295  0.224106  0.898756  1
  B  B12  1  0.322863  0.778832  0.897202  1
  Os  Os13  1  0.391330  0.150094  0.892314  1
  Os  Os14  1  0.612880  0.842856  0.891899  1
  Os  Os15  1  0.345548  0.881583  0.390563  1
  Os  Os16  1  0.655194  0.110692  0.393914  1
  Os  Os17  1  0.119119  0.379081  0.626415  1
