# generated using pymatgen
data_NdEr3Mn4Al4O20
_symmetry_space_group_name_H-M   'P 1'
_cell_length_a   5.67217700
_cell_length_b   7.28457001
_cell_length_c   8.44892771
_cell_angle_alpha   89.80958632
_cell_angle_beta   90.00000000
_cell_angle_gamma   90.00000000
_symmetry_Int_Tables_number   1
_chemical_formula_structural   NdEr3Mn4Al4O20
_chemical_formula_sum   'Nd1 Er3 Mn4 Al4 O20'
_cell_volume   349.10244659
_cell_formula_units_Z   1
loop_
 _symmetry_equiv_pos_site_id
 _symmetry_equiv_pos_as_xyz
  1  'x, y, z'
loop_
 _atom_site_type_symbol
 _atom_site_label
 _atom_site_symmetry_multiplicity
 _atom_site_fract_x
 _atom_site_fract_y
 _atom_site_fract_z
 _atom_site_occupancy
  Nd  Nd0  1  0.000000  0.368591  0.668527  1
  Er  Er1  1  0.000000  0.635199  0.329768  1
  Er  Er2  1  0.000000  0.867246  0.831875  1
  Er  Er3  1  0.000000  0.131698  0.168200  1
  Mn  Mn4  1  0.254328  0.500726  0.001788  1
  Mn  Mn5  1  0.746193  0.997625  0.498972  1
  Mn  Mn6  1  0.745672  0.500726  0.001788  1
  Mn  Mn7  1  0.253807  0.997625  0.498972  1
  Al  Al8  1  0.500000  0.104928  0.859189  1
  Al  Al9  1  0.500000  0.892604  0.142628  1
  Al  Al10  1  0.500000  0.611000  0.641361  1
  Al  Al11  1  0.500000  0.394135  0.356309  1
  O  O12  1  0.249486  0.892973  0.289154  1
  O  O13  1  0.252272  0.096686  0.711388  1
  O  O14  1  0.750780  0.393360  0.210331  1
  O  O15  1  0.746547  0.612042  0.791852  1
  O  O16  1  0.747728  0.096686  0.711388  1
  O  O17  1  0.750514  0.892973  0.289154  1
  O  O18  1  0.253453  0.612042  0.791852  1
  O  O19  1  0.249220  0.393360  0.210331  1
  O  O20  1  0.500000  0.342522  0.926938  1
  O  O21  1  0.500000  0.657286  0.073657  1
  O  O22  1  0.500000  0.842677  0.569074  1
  O  O23  1  0.500000  0.158030  0.428455  1
  O  O24  1  0.278547  0.000390  0.001359  1
  O  O25  1  0.717112  0.506341  0.495505  1
  O  O26  1  0.721453  0.000390  0.001359  1
  O  O27  1  0.282888  0.506341  0.495505  1
  O  O28  1  0.000000  0.158317  0.438789  1
  O  O29  1  0.000000  0.834740  0.556807  1
  O  O30  1  0.000000  0.663735  0.057689  1
  O  O31  1  0.000000  0.337008  0.950036  1
