# generated using pymatgen
data_Sc4AsSe4
_symmetry_space_group_name_H-M   'P 1'
_cell_length_a   3.83633817
_cell_length_b   9.47351552
_cell_length_c   8.53079200
_cell_angle_alpha   43.21452815
_cell_angle_beta   103.01460304
_cell_angle_gamma   89.88363524
_symmetry_Int_Tables_number   1
_chemical_formula_structural   Sc4AsSe4
_chemical_formula_sum   'Sc4 As1 Se4'
_cell_volume   200.32318692
_cell_formula_units_Z   1
loop_
 _symmetry_equiv_pos_site_id
 _symmetry_equiv_pos_as_xyz
  1  'x, y, z'
loop_
 _atom_site_type_symbol
 _atom_site_label
 _atom_site_symmetry_multiplicity
 _atom_site_fract_x
 _atom_site_fract_y
 _atom_site_fract_z
 _atom_site_occupancy
  Sc  Sc0  1  0.940499  0.962422  0.855315  1
  Sc  Sc1  1  0.141178  0.356052  0.258443  1
  Sc  Sc2  1  0.545005  0.152764  0.067952  1
  Sc  Sc3  1  0.746829  0.546447  0.471208  1
  As  As4  1  0.343631  0.254465  0.663143  1
  Se  Se5  1  0.741705  0.061579  0.458561  1
  Se  Se6  1  0.540250  0.659974  0.055426  1
  Se  Se7  1  0.944698  0.447273  0.867905  1
  Se  Se8  1  0.146803  0.848831  0.271258  1
