# generated using pymatgen
data_SmEr2As4Pd7
_symmetry_space_group_name_H-M   'P 1'
_cell_length_a   8.11248694
_cell_length_b   8.11248725
_cell_length_c   9.67565700
_cell_angle_alpha   55.79179910
_cell_angle_beta   55.79179645
_cell_angle_gamma   29.45771113
_symmetry_Int_Tables_number   1
_chemical_formula_structural   SmEr2As4Pd7
_chemical_formula_sum   'Sm1 Er2 As4 Pd7'
_cell_volume   254.81063915
_cell_formula_units_Z   1
loop_
 _symmetry_equiv_pos_site_id
 _symmetry_equiv_pos_as_xyz
  1  'x, y, z'
loop_
 _atom_site_type_symbol
 _atom_site_label
 _atom_site_symmetry_multiplicity
 _atom_site_fract_x
 _atom_site_fract_y
 _atom_site_fract_z
 _atom_site_occupancy
  Sm  Sm0  1  0.500000  0.500000  0.500000  1
  Er  Er1  1  0.823103  0.823103  0.170522  1
  Er  Er2  1  0.176897  0.176897  0.829478  1
  As  As3  1  0.393065  0.393065  0.320477  1
  As  As4  1  0.606935  0.606935  0.679523  1
  As  As5  1  0.838767  0.838767  0.753981  1
  As  As6  1  0.161233  0.161233  0.246019  1
  Pd  Pd7  1  0.668574  0.668574  0.070482  1
  Pd  Pd8  1  0.012465  0.012465  0.204717  1
  Pd  Pd9  1  0.987535  0.987535  0.795283  1
  Pd  Pd10  1  0.500000  0.500000  0.000000  1
  Pd  Pd11  1  0.194246  0.194246  0.473325  1
  Pd  Pd12  1  0.805754  0.805754  0.526675  1
  Pd  Pd13  1  0.331426  0.331426  0.929518  1
