# generated using pymatgen
data_SmEu3(SbRh)4
_symmetry_space_group_name_H-M   'P 1'
_cell_length_a   4.66634000
_cell_length_b   7.45139675
_cell_length_c   7.83445512
_cell_angle_alpha   90.05926168
_cell_angle_beta   90.00000000
_cell_angle_gamma   90.00000000
_symmetry_Int_Tables_number   1
_chemical_formula_structural   SmEu3(SbRh)4
_chemical_formula_sum   'Sm1 Eu3 Sb4 Rh4'
_cell_volume   272.40974031
_cell_formula_units_Z   1
loop_
 _symmetry_equiv_pos_site_id
 _symmetry_equiv_pos_as_xyz
  1  'x, y, z'
loop_
 _atom_site_type_symbol
 _atom_site_label
 _atom_site_symmetry_multiplicity
 _atom_site_fract_x
 _atom_site_fract_y
 _atom_site_fract_z
 _atom_site_occupancy
  Sm  Sm0  1  0.250000  0.017173  0.303436  1
  Eu  Eu1  1  0.250000  0.515658  0.195793  1
  Eu  Eu2  1  0.750000  0.485323  0.802470  1
  Eu  Eu3  1  0.750000  0.987063  0.695359  1
  Sb  Sb4  1  0.250000  0.687547  0.588505  1
  Sb  Sb5  1  0.750000  0.315708  0.410853  1
  Sb  Sb6  1  0.750000  0.813105  0.088447  1
  Sb  Sb7  1  0.250000  0.186769  0.912592  1
  Rh  Rh8  1  0.250000  0.812650  0.915784  1
  Rh  Rh9  1  0.750000  0.181492  0.092727  1
  Rh  Rh10  1  0.750000  0.696073  0.413082  1
  Rh  Rh11  1  0.250000  0.301440  0.580952  1
