# generated using pymatgen
data_Pr6RhBr10
_symmetry_space_group_name_H-M   'P 1'
_cell_length_a   7.71554397
_cell_length_b   9.53240050
_cell_length_c   9.66409786
_cell_angle_alpha   109.74121848
_cell_angle_beta   106.72970601
_cell_angle_gamma   97.16368061
_symmetry_Int_Tables_number   1
_chemical_formula_structural   Pr6RhBr10
_chemical_formula_sum   'Pr6 Rh1 Br10'
_cell_volume   620.95861916
_cell_formula_units_Z   1
loop_
 _symmetry_equiv_pos_site_id
 _symmetry_equiv_pos_as_xyz
  1  'x, y, z'
loop_
 _atom_site_type_symbol
 _atom_site_label
 _atom_site_symmetry_multiplicity
 _atom_site_fract_x
 _atom_site_fract_y
 _atom_site_fract_z
 _atom_site_occupancy
  Pr  Pr0  1  0.373767  0.192949  0.146024  1
  Pr  Pr1  1  0.021245  0.895720  0.690289  1
  Pr  Pr2  1  0.125083  0.756202  0.044496  1
  Pr  Pr3  1  0.626233  0.807051  0.853976  1
  Pr  Pr4  1  0.874917  0.243798  0.955504  1
  Pr  Pr5  1  0.978755  0.104280  0.309711  1
  Rh  Rh6  1  0.000000  0.000000  0.000000  1
  Br  Br7  1  0.449789  0.079225  0.826558  1
  Br  Br8  1  0.743451  0.540064  0.917488  1
  Br  Br9  1  0.256549  0.459936  0.082512  1
  Br  Br10  1  0.912015  0.169729  0.634321  1
  Br  Br11  1  0.628569  0.721817  0.533428  1
  Br  Br12  1  0.550211  0.920775  0.173442  1
  Br  Br13  1  0.087985  0.830271  0.365679  1
  Br  Br14  1  0.806014  0.359978  0.265230  1
  Br  Br15  1  0.193986  0.640022  0.734770  1
  Br  Br16  1  0.371431  0.278183  0.466572  1
