# generated using pymatgen
data_Pr2Co3P7Ru9
_symmetry_space_group_name_H-M   'P 1'
_cell_length_a   9.39295000
_cell_length_b   9.39295009
_cell_length_c   3.87635500
_cell_angle_alpha   90.00000000
_cell_angle_beta   90.00000000
_cell_angle_gamma   119.99998653
_symmetry_Int_Tables_number   1
_chemical_formula_structural   Pr2Co3P7Ru9
_chemical_formula_sum   'Pr2 Co3 P7 Ru9'
_cell_volume   296.18172571
_cell_formula_units_Z   1
loop_
 _symmetry_equiv_pos_site_id
 _symmetry_equiv_pos_as_xyz
  1  'x, y, z'
loop_
 _atom_site_type_symbol
 _atom_site_label
 _atom_site_symmetry_multiplicity
 _atom_site_fract_x
 _atom_site_fract_y
 _atom_site_fract_z
 _atom_site_occupancy
  Pr  Pr0  1  0.333333  0.666667  0.000000  1
  Pr  Pr1  1  0.666667  0.333333  0.500000  1
  Co  Co2  1  0.156747  0.889861  0.000000  1
  Co  Co3  1  0.110139  0.266886  0.000000  1
  Co  Co4  1  0.733114  0.843253  0.000000  1
  P  P5  1  0.408428  0.105872  0.000000  1
  P  P6  1  0.894128  0.302557  0.000000  1
  P  P7  1  0.697443  0.591572  0.000000  1
  P  P8  1  0.111202  0.714076  0.500000  1
  P  P9  1  0.285924  0.397125  0.500000  1
  P  P10  1  0.602875  0.888798  0.500000  1
  P  P11  1  0.000000  0.000000  0.000000  1
  Ru  Ru12  1  0.422255  0.362906  0.000000  1
  Ru  Ru13  1  0.637094  0.059347  0.000000  1
  Ru  Ru14  1  0.940653  0.577745  0.000000  1
  Ru  Ru15  1  0.381411  0.949239  0.500000  1
  Ru  Ru16  1  0.050761  0.432171  0.500000  1
  Ru  Ru17  1  0.567829  0.618589  0.500000  1
  Ru  Ru18  1  0.204456  0.119557  0.500000  1
  Ru  Ru19  1  0.880443  0.084902  0.500000  1
  Ru  Ru20  1  0.915098  0.795544  0.500000  1
