# generated using pymatgen
data_Tb5Ce(AlC3)2
_symmetry_space_group_name_H-M   'P 1'
_cell_length_a   3.60301900
_cell_length_b   7.19386200
_cell_length_c   9.99043200
_cell_angle_alpha   90.00000000
_cell_angle_beta   90.00000000
_cell_angle_gamma   90.00000000
_symmetry_Int_Tables_number   1
_chemical_formula_structural   Tb5Ce(AlC3)2
_chemical_formula_sum   'Tb5 Ce1 Al2 C6'
_cell_volume   258.94821576
_cell_formula_units_Z   1
loop_
 _symmetry_equiv_pos_site_id
 _symmetry_equiv_pos_as_xyz
  1  'x, y, z'
loop_
 _atom_site_type_symbol
 _atom_site_label
 _atom_site_symmetry_multiplicity
 _atom_site_fract_x
 _atom_site_fract_y
 _atom_site_fract_z
 _atom_site_occupancy
  Tb  Tb0  1  0.500000  0.511494  0.197424  1
  Tb  Tb1  1  0.500000  0.485755  0.801024  1
  Tb  Tb2  1  0.500000  0.988506  0.197424  1
  Tb  Tb3  1  0.500000  0.014245  0.801024  1
  Tb  Tb4  1  0.000000  0.250000  0.538912  1
  Ce  Ce5  1  0.000000  0.750000  0.461294  1
  Al  Al6  1  0.000000  0.750000  0.005968  1
  Al  Al7  1  0.000000  0.250000  0.994827  1
  C  C8  1  0.500000  0.502974  0.566108  1
  C  C9  1  0.500000  0.487428  0.433283  1
  C  C10  1  0.500000  0.997026  0.566108  1
  C  C11  1  0.500000  0.012572  0.433283  1
  C  C12  1  0.000000  0.750000  0.210087  1
  C  C13  1  0.000000  0.250000  0.793233  1
