# generated using pymatgen
data_Yb3WN4
_symmetry_space_group_name_H-M   'P 1'
_cell_length_a   7.62657700
_cell_length_b   6.60209000
_cell_length_c   5.13065400
_cell_angle_alpha   90.00000000
_cell_angle_beta   90.00000000
_cell_angle_gamma   90.00000000
_symmetry_Int_Tables_number   1
_chemical_formula_structural   Yb3WN4
_chemical_formula_sum   'Yb6 W2 N8'
_cell_volume   258.33534372
_cell_formula_units_Z   2
loop_
 _symmetry_equiv_pos_site_id
 _symmetry_equiv_pos_as_xyz
  1  'x, y, z'
loop_
 _atom_site_type_symbol
 _atom_site_label
 _atom_site_symmetry_multiplicity
 _atom_site_fract_x
 _atom_site_fract_y
 _atom_site_fract_z
 _atom_site_occupancy
  Yb  Yb0  1  0.256746  0.827841  0.688714  1
  Yb  Yb1  1  0.243254  0.172159  0.188714  1
  Yb  Yb2  1  0.743254  0.827841  0.688714  1
  Yb  Yb3  1  0.756746  0.172159  0.188714  1
  Yb  Yb4  1  0.000000  0.346473  0.688121  1
  Yb  Yb5  1  0.500000  0.653527  0.188121  1
  W  W6  1  0.000000  0.675312  0.227879  1
  W  W7  1  0.500000  0.324688  0.727879  1
  N  N8  1  0.785942  0.813734  0.150993  1
  N  N9  1  0.714058  0.186266  0.650993  1
  N  N10  1  0.214058  0.813734  0.150993  1
  N  N11  1  0.285942  0.186266  0.650993  1
  N  N12  1  0.000000  0.391981  0.154589  1
  N  N13  1  0.500000  0.608019  0.654589  1
  N  N14  1  0.000000  0.677816  0.589258  1
  N  N15  1  0.500000  0.322184  0.089258  1
