# generated using pymatgen
data_Lu2BeB3Ru5
_symmetry_space_group_name_H-M   'P 1'
_cell_length_a   3.08095900
_cell_length_b   8.68889606
_cell_length_c   10.25394044
_cell_angle_alpha   90.07628202
_cell_angle_beta   90.00000000
_cell_angle_gamma   90.00000000
_symmetry_Int_Tables_number   1
_chemical_formula_structural   Lu2BeB3Ru5
_chemical_formula_sum   'Lu4 Be2 B6 Ru10'
_cell_volume   274.49910115
_cell_formula_units_Z   2
loop_
 _symmetry_equiv_pos_site_id
 _symmetry_equiv_pos_as_xyz
  1  'x, y, z'
loop_
 _atom_site_type_symbol
 _atom_site_label
 _atom_site_symmetry_multiplicity
 _atom_site_fract_x
 _atom_site_fract_y
 _atom_site_fract_z
 _atom_site_occupancy
  Lu  Lu0  1  0.500000  0.842224  0.183194  1
  Lu  Lu1  1  0.500000  0.157776  0.816806  1
  Lu  Lu2  1  0.500000  0.657014  0.680294  1
  Lu  Lu3  1  0.500000  0.342986  0.319706  1
  Be  Be4  1  0.500000  0.962644  0.593322  1
  Be  Be5  1  0.500000  0.037356  0.406678  1
  B  B6  1  0.500000  0.852555  0.898480  1
  B  B7  1  0.500000  0.147445  0.101520  1
  B  B8  1  0.500000  0.653489  0.402819  1
  B  B9  1  0.500000  0.346511  0.597181  1
  B  B10  1  0.500000  0.465860  0.910451  1
  B  B11  1  0.500000  0.534140  0.089549  1
  Ru  Ru12  1  0.000000  0.656593  0.956737  1
  Ru  Ru13  1  0.000000  0.343407  0.043263  1
  Ru  Ru14  1  0.000000  0.832129  0.449370  1
  Ru  Ru15  1  0.000000  0.167871  0.550630  1
  Ru  Ru16  1  0.000000  0.000000  0.000000  1
  Ru  Ru17  1  0.000000  0.407186  0.761671  1
  Ru  Ru18  1  0.000000  0.592814  0.238329  1
  Ru  Ru19  1  0.000000  0.500000  0.500000  1
  Ru  Ru20  1  0.000000  0.898245  0.748733  1
  Ru  Ru21  1  0.000000  0.101755  0.251267  1
