# generated using pymatgen
data_Sn3Pb5F28
_symmetry_space_group_name_H-M   'P 1'
_cell_length_a   5.74975738
_cell_length_b   9.19268261
_cell_length_c   12.35283853
_cell_angle_alpha   62.15748730
_cell_angle_beta   90.02028469
_cell_angle_gamma   89.97750121
_symmetry_Int_Tables_number   1
_chemical_formula_structural   Sn3Pb5F28
_chemical_formula_sum   'Sn3 Pb5 F28'
_cell_volume   577.33246487
_cell_formula_units_Z   1
loop_
 _symmetry_equiv_pos_site_id
 _symmetry_equiv_pos_as_xyz
  1  'x, y, z'
loop_
 _atom_site_type_symbol
 _atom_site_label
 _atom_site_symmetry_multiplicity
 _atom_site_fract_x
 _atom_site_fract_y
 _atom_site_fract_z
 _atom_site_occupancy
  Sn  Sn0  1  0.744534  0.275172  0.955039  1
  Sn  Sn1  1  0.755436  0.276749  0.454497  1
  Sn  Sn2  1  0.260792  0.731244  0.040883  1
  Pb  Pb3  1  0.761608  0.804649  0.262332  1
  Pb  Pb4  1  0.253190  0.195478  0.228173  1
  Pb  Pb5  1  0.247983  0.188288  0.731205  1
  Pb  Pb6  1  0.736563  0.804560  0.765111  1
  Pb  Pb7  1  0.241304  0.732907  0.537966  1
  F  F8  1  0.916449  0.720979  0.454907  1
  F  F9  1  0.446915  0.293866  0.028304  1
  F  F10  1  0.050665  0.295449  0.529713  1
  F  F11  1  0.560815  0.720633  0.955368  1
  F  F12  1  0.050956  0.700855  0.923802  1
  F  F13  1  0.573585  0.303192  0.580176  1
  F  F14  1  0.923038  0.297658  0.083381  1
  F  F15  1  0.451348  0.694082  0.412566  1
  F  F16  1  0.733298  0.533606  0.855902  1
  F  F17  1  0.214509  0.485636  0.647362  1
  F  F18  1  0.282259  0.493480  0.143487  1
  F  F19  1  0.776038  0.535234  0.347855  1
  F  F20  1  0.739469  0.025585  0.056021  1
  F  F21  1  0.239779  0.983345  0.452632  1
  F  F22  1  0.264876  0.971402  0.953224  1
  F  F23  1  0.761188  0.028263  0.555775  1
  F  F24  1  0.037169  0.751192  0.683905  1
  F  F25  1  0.572356  0.266332  0.819306  1
  F  F26  1  0.926775  0.264652  0.319723  1
  F  F27  1  0.466986  0.748128  0.173169  1
  F  F28  1  0.034709  0.273407  0.870622  1
  F  F29  1  0.549225  0.725046  0.642702  1
  F  F30  1  0.974152  0.731198  0.139515  1
  F  F31  1  0.465158  0.278367  0.368680  1
  F  F32  1  0.075126  0.934397  0.240179  1
  F  F33  1  0.597424  0.998765  0.274340  1
  F  F34  1  0.892248  0.000895  0.776966  1
  F  F35  1  0.422075  0.935311  0.735210  1
