# generated using pymatgen
data_Pr4Ga4PdPt7
_symmetry_space_group_name_H-M   'P 1'
_cell_length_a   5.84383806
_cell_length_b   7.14665126
_cell_length_c   7.59605453
_cell_angle_alpha   90.04591851
_cell_angle_beta   90.05583843
_cell_angle_gamma   89.92135520
_symmetry_Int_Tables_number   1
_chemical_formula_structural   Pr4Ga4PdPt7
_chemical_formula_sum   'Pr4 Ga4 Pd1 Pt7'
_cell_volume   317.24010240
_cell_formula_units_Z   1
loop_
 _symmetry_equiv_pos_site_id
 _symmetry_equiv_pos_as_xyz
  1  'x, y, z'
loop_
 _atom_site_type_symbol
 _atom_site_label
 _atom_site_symmetry_multiplicity
 _atom_site_fract_x
 _atom_site_fract_y
 _atom_site_fract_z
 _atom_site_occupancy
  Pr  Pr0  1  0.352049  0.751771  0.029998  1
  Pr  Pr1  1  0.146427  0.751528  0.528037  1
  Pr  Pr2  1  0.647668  0.246988  0.973004  1
  Pr  Pr3  1  0.853456  0.249047  0.470132  1
  Ga  Ga4  1  0.645735  0.750527  0.380749  1
  Ga  Ga5  1  0.853807  0.751377  0.879119  1
  Ga  Ga6  1  0.352572  0.248905  0.620125  1
  Ga  Ga7  1  0.146544  0.250091  0.120020  1
  Pd  Pd8  1  0.588350  0.551181  0.678744  1
  Pt  Pt9  1  0.911485  0.552806  0.178572  1
  Pt  Pt10  1  0.587558  0.945010  0.679546  1
  Pt  Pt11  1  0.087159  0.053824  0.820394  1
  Pt  Pt12  1  0.414004  0.447766  0.321520  1
  Pt  Pt13  1  0.086211  0.448522  0.819565  1
  Pt  Pt14  1  0.414011  0.053856  0.320017  1
  Pt  Pt15  1  0.912964  0.946800  0.180458  1
