# generated using pymatgen
data_Y3ErTm2Bi2Os
_symmetry_space_group_name_H-M   'P 1'
_cell_length_a   8.27091900
_cell_length_b   8.27542598
_cell_length_c   4.25523200
_cell_angle_alpha   90.00000000
_cell_angle_beta   90.00000000
_cell_angle_gamma   119.98198167
_symmetry_Int_Tables_number   1
_chemical_formula_structural   Y3ErTm2Bi2Os
_chemical_formula_sum   'Y3 Er1 Tm2 Bi2 Os1'
_cell_volume   252.27651633
_cell_formula_units_Z   1
loop_
 _symmetry_equiv_pos_site_id
 _symmetry_equiv_pos_as_xyz
  1  'x, y, z'
loop_
 _atom_site_type_symbol
 _atom_site_label
 _atom_site_symmetry_multiplicity
 _atom_site_fract_x
 _atom_site_fract_y
 _atom_site_fract_z
 _atom_site_occupancy
  Y  Y0  1  0.612221  0.000000  0.000000  1
  Y  Y1  1  0.999682  0.612573  0.000000  1
  Y  Y2  1  0.387109  0.387427  0.000000  1
  Er  Er3  1  0.231599  0.000000  0.500000  1
  Tm  Tm4  1  0.999625  0.229863  0.500000  1
  Tm  Tm5  1  0.769763  0.770137  0.500000  1
  Bi  Bi6  1  0.333308  0.666200  0.500000  1
  Bi  Bi7  1  0.667109  0.333800  0.500000  1
  Os  Os8  1  0.999584  0.000000  0.000000  1
