# generated using pymatgen
data_Tb12OsRh3
_symmetry_space_group_name_H-M   'P 1'
_cell_length_a   6.31675699
_cell_length_b   7.27802202
_cell_length_c   9.41949400
_cell_angle_alpha   90.00000000
_cell_angle_beta   90.00000000
_cell_angle_gamma   89.79836303
_symmetry_Int_Tables_number   1
_chemical_formula_structural   Tb12OsRh3
_chemical_formula_sum   'Tb12 Os1 Rh3'
_cell_volume   433.04439292
_cell_formula_units_Z   1
loop_
 _symmetry_equiv_pos_site_id
 _symmetry_equiv_pos_as_xyz
  1  'x, y, z'
loop_
 _atom_site_type_symbol
 _atom_site_label
 _atom_site_symmetry_multiplicity
 _atom_site_fract_x
 _atom_site_fract_y
 _atom_site_fract_z
 _atom_site_occupancy
  Tb  Tb0  1  0.327586  0.678449  0.064969  1
  Tb  Tb1  1  0.170478  0.174942  0.434973  1
  Tb  Tb2  1  0.668040  0.323068  0.563968  1
  Tb  Tb3  1  0.834463  0.823881  0.940230  1
  Tb  Tb4  1  0.668040  0.323068  0.936032  1
  Tb  Tb5  1  0.834463  0.823881  0.559770  1
  Tb  Tb6  1  0.327586  0.678449  0.435031  1
  Tb  Tb7  1  0.170478  0.174942  0.065027  1
  Tb  Tb8  1  0.864656  0.536161  0.250000  1
  Tb  Tb9  1  0.635636  0.033710  0.250000  1
  Tb  Tb10  1  0.137781  0.463138  0.750000  1
  Tb  Tb11  1  0.365161  0.963971  0.750000  1
  Os  Os12  1  0.048261  0.881623  0.250000  1
  Rh  Rh13  1  0.446038  0.381409  0.250000  1
  Rh  Rh14  1  0.943678  0.119275  0.750000  1
  Rh  Rh15  1  0.557654  0.620033  0.750000  1
