# generated using pymatgen
data_TbSc11(Si3Os)4
_symmetry_space_group_name_H-M   'P 1'
_cell_length_a   4.01770500
_cell_length_b   10.36024166
_cell_length_c   11.76649979
_cell_angle_alpha   89.86030243
_cell_angle_beta   90.00000000
_cell_angle_gamma   90.00000000
_symmetry_Int_Tables_number   1
_chemical_formula_structural   TbSc11(Si3Os)4
_chemical_formula_sum   'Tb1 Sc11 Si12 Os4'
_cell_volume   489.77197583
_cell_formula_units_Z   1
loop_
 _symmetry_equiv_pos_site_id
 _symmetry_equiv_pos_as_xyz
  1  'x, y, z'
loop_
 _atom_site_type_symbol
 _atom_site_label
 _atom_site_symmetry_multiplicity
 _atom_site_fract_x
 _atom_site_fract_y
 _atom_site_fract_z
 _atom_site_occupancy
  Tb  Tb0  1  0.250000  0.877984  0.018194  1
  Sc  Sc1  1  0.250000  0.621848  0.518776  1
  Sc  Sc2  1  0.750000  0.125955  0.981087  1
  Sc  Sc3  1  0.750000  0.377272  0.481635  1
  Sc  Sc4  1  0.250000  0.920108  0.604292  1
  Sc  Sc5  1  0.250000  0.576354  0.106391  1
  Sc  Sc6  1  0.750000  0.080373  0.395978  1
  Sc  Sc7  1  0.750000  0.419910  0.894113  1
  Sc  Sc8  1  0.250000  0.657448  0.795868  1
  Sc  Sc9  1  0.250000  0.840525  0.300859  1
  Sc  Sc10  1  0.750000  0.340251  0.202671  1
  Sc  Sc11  1  0.750000  0.161088  0.700989  1
  Si  Si12  1  0.250000  0.018452  0.816071  1
  Si  Si13  1  0.250000  0.484630  0.323079  1
  Si  Si14  1  0.750000  0.988415  0.180920  1
  Si  Si15  1  0.750000  0.514128  0.677583  1
  Si  Si16  1  0.250000  0.252329  0.841724  1
  Si  Si17  1  0.250000  0.249893  0.344731  1
  Si  Si18  1  0.750000  0.745568  0.160475  1
  Si  Si19  1  0.750000  0.749902  0.655863  1
  Si  Si20  1  0.250000  0.195657  0.546417  1
  Si  Si21  1  0.250000  0.304952  0.046313  1
  Si  Si22  1  0.750000  0.804434  0.454157  1
  Si  Si23  1  0.750000  0.688588  0.952069  1
  Os  Os24  1  0.250000  0.390686  0.676336  1
  Os  Os25  1  0.250000  0.113277  0.180181  1
  Os  Os26  1  0.750000  0.608740  0.325691  1
  Os  Os27  1  0.750000  0.891233  0.817536  1
