# generated using pymatgen
data_Y6Sc4SnSb5
_symmetry_space_group_name_H-M   'P 1'
_cell_length_a   6.14584300
_cell_length_b   8.79373633
_cell_length_c   8.81076966
_cell_angle_alpha   119.93635253
_cell_angle_beta   90.00007628
_cell_angle_gamma   89.99991152
_symmetry_Int_Tables_number   1
_chemical_formula_structural   Y6Sc4SnSb5
_chemical_formula_sum   'Y6 Sc4 Sn1 Sb5'
_cell_volume   412.64592433
_cell_formula_units_Z   1
loop_
 _symmetry_equiv_pos_site_id
 _symmetry_equiv_pos_as_xyz
  1  'x, y, z'
loop_
 _atom_site_type_symbol
 _atom_site_label
 _atom_site_symmetry_multiplicity
 _atom_site_fract_x
 _atom_site_fract_y
 _atom_site_fract_z
 _atom_site_occupancy
  Y  Y0  1  0.750001  0.245325  0.000006  1
  Y  Y1  1  0.750003  0.752728  0.755053  1
  Y  Y2  1  0.750003  0.997648  0.244927  1
  Y  Y3  1  0.249996  0.755822  0.000010  1
  Y  Y4  1  0.249999  0.247717  0.245743  1
  Y  Y5  1  0.249999  0.001966  0.754267  1
  Sc  Sc6  1  0.500217  0.333578  0.667320  1
  Sc  Sc7  1  0.500218  0.666263  0.332693  1
  Sc  Sc8  1  0.999785  0.666261  0.332690  1
  Sc  Sc9  1  0.999790  0.333575  0.667316  1
  Sn  Sn10  1  0.750002  0.602028  0.000003  1
  Sb  Sb11  1  0.750002  0.393801  0.394468  1
  Sb  Sb12  1  0.750002  0.999267  0.605499  1
  Sb  Sb13  1  0.249996  0.397354  0.000040  1
  Sb  Sb14  1  0.249994  0.606148  0.605556  1
  Sb  Sb15  1  0.249997  0.000519  0.394410  1
