# generated using pymatgen
data_TbPrAl6Si4Pt
_symmetry_space_group_name_H-M   'P 1'
_cell_length_a   4.20156369
_cell_length_b   4.20161950
_cell_length_c   17.31837623
_cell_angle_alpha   96.78399303
_cell_angle_beta   83.21633297
_cell_angle_gamma   120.11372626
_symmetry_Int_Tables_number   1
_chemical_formula_structural   TbPrAl6Si4Pt
_chemical_formula_sum   'Tb1 Pr1 Al6 Si4 Pt1'
_cell_volume   261.99525484
_cell_formula_units_Z   1
loop_
 _symmetry_equiv_pos_site_id
 _symmetry_equiv_pos_as_xyz
  1  'x, y, z'
loop_
 _atom_site_type_symbol
 _atom_site_label
 _atom_site_symmetry_multiplicity
 _atom_site_fract_x
 _atom_site_fract_y
 _atom_site_fract_z
 _atom_site_occupancy
  Tb  Tb0  1  0.433537  0.566511  0.699150  1
  Pr  Pr1  1  0.565952  0.433986  0.302467  1
  Al  Al2  1  0.319546  0.680495  0.043089  1
  Al  Al3  1  0.949648  0.050277  0.145991  1
  Al  Al4  1  0.184241  0.815765  0.449855  1
  Al  Al5  1  0.812705  0.187273  0.559958  1
  Al  Al6  1  0.051968  0.948105  0.848184  1
  Al  Al7  1  0.682607  0.317405  0.950847  1
  Si  Si8  1  0.267045  0.732870  0.195490  1
  Si  Si9  1  0.862831  0.137138  0.412586  1
  Si  Si10  1  0.133866  0.866141  0.597760  1
  Si  Si11  1  0.734915  0.265154  0.797835  1
  Pt  Pt12  1  0.001138  0.998881  0.996789  1
