# generated using pymatgen
data_DyIn3B4Ir9Pb
_symmetry_space_group_name_H-M   'P 1'
_cell_length_a   5.65494900
_cell_length_b   5.65494832
_cell_length_c   10.45586300
_cell_angle_alpha   90.00000000
_cell_angle_beta   90.00000000
_cell_angle_gamma   119.99999810
_symmetry_Int_Tables_number   1
_chemical_formula_structural   DyIn3B4Ir9Pb
_chemical_formula_sum   'Dy1 In3 B4 Ir9 Pb1'
_cell_volume   289.56619367
_cell_formula_units_Z   1
loop_
 _symmetry_equiv_pos_site_id
 _symmetry_equiv_pos_as_xyz
  1  'x, y, z'
loop_
 _atom_site_type_symbol
 _atom_site_label
 _atom_site_symmetry_multiplicity
 _atom_site_fract_x
 _atom_site_fract_y
 _atom_site_fract_z
 _atom_site_occupancy
  Dy  Dy0  1  0.000000  0.000000  0.915474  1
  In  In1  1  0.666667  0.333333  0.507258  1
  In  In2  1  0.000000  0.000000  0.318063  1
  In  In3  1  0.333333  0.666667  0.507258  1
  B  B4  1  0.666667  0.333333  0.155200  1
  B  B5  1  0.333333  0.666667  0.866012  1
  B  B6  1  0.666667  0.333333  0.866012  1
  B  B7  1  0.333333  0.666667  0.155200  1
  Ir  Ir8  1  0.000000  0.504983  0.281862  1
  Ir  Ir9  1  0.471545  0.000000  0.737222  1
  Ir  Ir10  1  0.504983  0.000000  0.281862  1
  Ir  Ir11  1  0.000000  0.494954  0.012067  1
  Ir  Ir12  1  0.528455  0.528455  0.737222  1
  Ir  Ir13  1  0.000000  0.471545  0.737222  1
  Ir  Ir14  1  0.505046  0.505046  0.012067  1
  Ir  Ir15  1  0.494954  0.000000  0.012067  1
  Ir  Ir16  1  0.495017  0.495017  0.281862  1
  Pb  Pb17  1  0.000000  0.000000  0.616070  1
