# generated using pymatgen
data_Tb2Gd3ThH18
_symmetry_space_group_name_H-M   'P 1'
_cell_length_a   6.47886800
_cell_length_b   6.48016147
_cell_length_c   6.70783300
_cell_angle_alpha   90.19061691
_cell_angle_beta   90.00000000
_cell_angle_gamma   119.99339735
_symmetry_Int_Tables_number   1
_chemical_formula_structural   Tb2Gd3ThH18
_chemical_formula_sum   'Tb2 Gd3 Th1 H18'
_cell_volume   243.90658166
_cell_formula_units_Z   1
loop_
 _symmetry_equiv_pos_site_id
 _symmetry_equiv_pos_as_xyz
  1  'x, y, z'
loop_
 _atom_site_type_symbol
 _atom_site_label
 _atom_site_symmetry_multiplicity
 _atom_site_fract_x
 _atom_site_fract_y
 _atom_site_fract_z
 _atom_site_occupancy
  Tb  Tb0  1  0.999810  0.334065  0.249998  1
  Tb  Tb1  1  0.665745  0.665935  0.250002  1
  Gd  Gd2  1  0.669466  0.000000  0.750000  1
  Gd  Gd3  1  0.995893  0.661563  0.750500  1
  Gd  Gd4  1  0.334330  0.338437  0.749500  1
  Th  Th5  1  0.333094  0.000000  0.250000  1
  H  H6  1  0.991172  0.000000  0.250000  1
  H  H7  1  0.003419  0.000000  0.750000  1
  H  H8  1  0.333050  0.658869  0.206815  1
  H  H9  1  0.674181  0.341131  0.293185  1
  H  H10  1  0.663433  0.330368  0.800378  1
  H  H11  1  0.333064  0.669632  0.699622  1
  H  H12  1  0.343094  0.326371  0.092066  1
  H  H13  1  0.672281  0.018659  0.095207  1
  H  H14  1  0.990163  0.665885  0.097882  1
  H  H15  1  0.016723  0.673629  0.407934  1
  H  H16  1  0.653622  0.981341  0.404793  1
  H  H17  1  0.324279  0.334115  0.402118  1
  H  H18  1  0.655868  0.675306  0.909818  1
  H  H19  1  0.324574  0.975765  0.905539  1
  H  H20  1  0.019241  0.345111  0.909825  1
  H  H21  1  0.980562  0.324694  0.590182  1
  H  H22  1  0.348810  0.024235  0.594461  1
  H  H23  1  0.674130  0.654889  0.590175  1
