# generated using pymatgen
data_Dy4Lu4B24MoRu3
_symmetry_space_group_name_H-M   'P 1'
_cell_length_a   3.62285200
_cell_length_b   9.09791684
_cell_length_c   11.49541836
_cell_angle_alpha   89.87026255
_cell_angle_beta   90.00000000
_cell_angle_gamma   90.00000000
_symmetry_Int_Tables_number   1
_chemical_formula_structural   Dy4Lu4B24MoRu3
_chemical_formula_sum   'Dy4 Lu4 B24 Mo1 Ru3'
_cell_volume   378.89268734
_cell_formula_units_Z   1
loop_
 _symmetry_equiv_pos_site_id
 _symmetry_equiv_pos_as_xyz
  1  'x, y, z'
loop_
 _atom_site_type_symbol
 _atom_site_label
 _atom_site_symmetry_multiplicity
 _atom_site_fract_x
 _atom_site_fract_y
 _atom_site_fract_z
 _atom_site_occupancy
  Dy  Dy0  1  0.000000  0.321862  0.413571  1
  Dy  Dy1  1  0.000000  0.677611  0.584642  1
  Dy  Dy2  1  0.000000  0.820718  0.086918  1
  Dy  Dy3  1  0.000000  0.177586  0.914860  1
  Lu  Lu4  1  0.000000  0.945356  0.372364  1
  Lu  Lu5  1  0.000000  0.057463  0.628867  1
  Lu  Lu6  1  0.000000  0.443320  0.127115  1
  Lu  Lu7  1  0.000000  0.556609  0.870785  1
  B  B8  1  0.500000  0.551506  0.435315  1
  B  B9  1  0.500000  0.445454  0.568506  1
  B  B10  1  0.500000  0.054366  0.067521  1
  B  B11  1  0.500000  0.945632  0.932588  1
  B  B12  1  0.500000  0.752599  0.420998  1
  B  B13  1  0.500000  0.250563  0.581730  1
  B  B14  1  0.500000  0.249727  0.081187  1
  B  B15  1  0.500000  0.749974  0.918290  1
  B  B16  1  0.500000  0.795367  0.264297  1
  B  B17  1  0.500000  0.208028  0.734695  1
  B  B18  1  0.500000  0.291148  0.233421  1
  B  B19  1  0.500000  0.708539  0.765483  1
  B  B20  1  0.500000  0.630899  0.182366  1
  B  B21  1  0.500000  0.368823  0.815601  1
  B  B22  1  0.500000  0.130513  0.314711  1
  B  B23  1  0.500000  0.870033  0.684935  1
  B  B24  1  0.500000  0.983597  0.213139  1
  B  B25  1  0.500000  0.017158  0.787410  1
  B  B26  1  0.500000  0.478119  0.286003  1
  B  B27  1  0.500000  0.516444  0.713419  1
  B  B28  1  0.500000  0.602362  0.026441  1
  B  B29  1  0.500000  0.397020  0.970987  1
  B  B30  1  0.500000  0.103403  0.472336  1
  B  B31  1  0.500000  0.899449  0.529273  1
  Mo  Mo32  1  0.000000  0.638397  0.320356  1
  Ru  Ru33  1  0.000000  0.360272  0.681142  1
  Ru  Ru34  1  0.000000  0.138697  0.178961  1
  Ru  Ru35  1  0.000000  0.861388  0.819768  1
