# generated using pymatgen
data_CdIr4Pb2AuO14
_symmetry_space_group_name_H-M   'P 1'
_cell_length_a   7.23457615
_cell_length_b   7.32287221
_cell_length_c   7.32287176
_cell_angle_alpha   60.64288469
_cell_angle_beta   60.04126090
_cell_angle_gamma   60.04125431
_symmetry_Int_Tables_number   1
_chemical_formula_structural   CdIr4Pb2AuO14
_chemical_formula_sum   'Cd1 Ir4 Pb2 Au1 O14'
_cell_volume   275.80358864
_cell_formula_units_Z   1
loop_
 _symmetry_equiv_pos_site_id
 _symmetry_equiv_pos_as_xyz
  1  'x, y, z'
loop_
 _atom_site_type_symbol
 _atom_site_label
 _atom_site_symmetry_multiplicity
 _atom_site_fract_x
 _atom_site_fract_y
 _atom_site_fract_z
 _atom_site_occupancy
  Cd  Cd0  1  0.125000  0.125000  0.125000  1
  Ir  Ir1  1  0.125000  0.625000  0.625000  1
  Ir  Ir2  1  0.625000  0.125000  0.625000  1
  Ir  Ir3  1  0.625000  0.625000  0.125000  1
  Ir  Ir4  1  0.625000  0.625000  0.625000  1
  Pb  Pb5  1  0.125000  0.625000  0.125000  1
  Pb  Pb6  1  0.125000  0.125000  0.625000  1
  Au  Au7  1  0.625000  0.125000  0.125000  1
  O  O8  1  0.705954  0.691440  0.302856  1
  O  O9  1  0.296183  0.299730  0.695666  1
  O  O10  1  0.705954  0.302856  0.691440  1
  O  O11  1  0.296183  0.695666  0.299730  1
  O  O12  1  0.293036  0.706566  0.706566  1
  O  O13  1  0.694948  0.305796  0.305796  1
  O  O14  1  0.544046  0.558560  0.947144  1
  O  O15  1  0.953817  0.950270  0.554334  1
  O  O16  1  0.544046  0.947144  0.558560  1
  O  O17  1  0.953817  0.554334  0.950270  1
  O  O18  1  0.956964  0.543434  0.543434  1
  O  O19  1  0.555052  0.944204  0.944204  1
  O  O20  1  0.279177  0.232622  0.232622  1
  O  O21  1  0.970823  0.017378  0.017378  1
