# generated using pymatgen
data_YEr(Tc2Ge)4
_symmetry_space_group_name_H-M   'P 1'
_cell_length_a   4.20601600
_cell_length_b   7.26899784
_cell_length_c   7.64089269
_cell_angle_alpha   90.23572851
_cell_angle_beta   90.00249151
_cell_angle_gamma   89.99841095
_symmetry_Int_Tables_number   1
_chemical_formula_structural   YEr(Tc2Ge)4
_chemical_formula_sum   'Y1 Er1 Tc8 Ge4'
_cell_volume   233.60701753
_cell_formula_units_Z   1
loop_
 _symmetry_equiv_pos_site_id
 _symmetry_equiv_pos_as_xyz
  1  'x, y, z'
loop_
 _atom_site_type_symbol
 _atom_site_label
 _atom_site_symmetry_multiplicity
 _atom_site_fract_x
 _atom_site_fract_y
 _atom_site_fract_z
 _atom_site_occupancy
  Y  Y0  1  0.499998  0.999993  0.000023  1
  Er  Er1  1  0.000117  0.500065  0.499816  1
  Tc  Tc2  1  0.999922  0.914118  0.652849  1
  Tc  Tc3  1  0.000057  0.354008  0.106068  1
  Tc  Tc4  1  0.499967  0.584366  0.154261  1
  Tc  Tc5  1  0.000061  0.085857  0.347138  1
  Tc  Tc6  1  0.499996  0.147381  0.605025  1
  Tc  Tc7  1  0.500020  0.415646  0.845753  1
  Tc  Tc8  1  0.999925  0.645982  0.893985  1
  Tc  Tc9  1  0.499990  0.852577  0.394969  1
  Ge  Ge10  1  0.499552  0.716321  0.694024  1
  Ge  Ge11  1  0.500401  0.283781  0.305998  1
  Ge  Ge12  1  0.000115  0.217504  0.804019  1
  Ge  Ge13  1  0.999877  0.782400  0.196070  1
