# generated using pymatgen
data_Mg3SiRh4
_symmetry_space_group_name_H-M   'P 1'
_cell_length_a   7.48432269
_cell_length_b   7.48432261
_cell_length_c   7.48432284
_cell_angle_alpha   33.69959271
_cell_angle_beta   33.69959303
_cell_angle_gamma   33.69958983
_symmetry_Int_Tables_number   1
_chemical_formula_structural   Mg3SiRh4
_chemical_formula_sum   'Mg3 Si1 Rh4'
_cell_volume   114.98347795
_cell_formula_units_Z   1
loop_
 _symmetry_equiv_pos_site_id
 _symmetry_equiv_pos_as_xyz
  1  'x, y, z'
loop_
 _atom_site_type_symbol
 _atom_site_label
 _atom_site_symmetry_multiplicity
 _atom_site_fract_x
 _atom_site_fract_y
 _atom_site_fract_z
 _atom_site_occupancy
  Mg  Mg0  1  0.246974  0.246974  0.246974  1
  Mg  Mg1  1  0.753026  0.753026  0.753026  1
  Mg  Mg2  1  0.500000  0.500000  0.500000  1
  Si  Si3  1  0.000000  0.000000  0.000000  1
  Rh  Rh4  1  0.630223  0.630223  0.630223  1
  Rh  Rh5  1  0.117767  0.117767  0.117767  1
  Rh  Rh6  1  0.882233  0.882233  0.882233  1
  Rh  Rh7  1  0.369777  0.369777  0.369777  1
