# generated using pymatgen
data_Sc6Al12V4Os7
_symmetry_space_group_name_H-M   'P 1'
_cell_length_a   8.75057317
_cell_length_b   8.75057367
_cell_length_c   8.75057400
_cell_angle_alpha   60.00000630
_cell_angle_beta   60.00000442
_cell_angle_gamma   60.00000482
_symmetry_Int_Tables_number   1
_chemical_formula_structural   Sc6Al12V4Os7
_chemical_formula_sum   'Sc6 Al12 V4 Os7'
_cell_volume   473.79952476
_cell_formula_units_Z   1
loop_
 _symmetry_equiv_pos_site_id
 _symmetry_equiv_pos_as_xyz
  1  'x, y, z'
loop_
 _atom_site_type_symbol
 _atom_site_label
 _atom_site_symmetry_multiplicity
 _atom_site_fract_x
 _atom_site_fract_y
 _atom_site_fract_z
 _atom_site_occupancy
  Sc  Sc0  1  0.713454  0.713454  0.286546  1
  Sc  Sc1  1  0.286546  0.713454  0.286546  1
  Sc  Sc2  1  0.713454  0.286546  0.286546  1
  Sc  Sc3  1  0.286546  0.286546  0.713454  1
  Sc  Sc4  1  0.713454  0.286546  0.713454  1
  Sc  Sc5  1  0.286546  0.713454  0.713454  1
  Al  Al6  1  0.120165  0.120165  0.639506  1
  Al  Al7  1  0.120165  0.639506  0.120165  1
  Al  Al8  1  0.639506  0.120165  0.120165  1
  Al  Al9  1  0.120165  0.120165  0.120165  1
  Al  Al10  1  0.664173  0.664173  0.007481  1
  Al  Al11  1  0.664173  0.007481  0.664173  1
  Al  Al12  1  0.007481  0.664173  0.664173  1
  Al  Al13  1  0.664173  0.664173  0.664173  1
  Al  Al14  1  0.335893  0.335893  0.992320  1
  Al  Al15  1  0.335893  0.992320  0.335893  1
  Al  Al16  1  0.992320  0.335893  0.335893  1
  Al  Al17  1  0.335893  0.335893  0.335893  1
  V  V18  1  0.879468  0.879468  0.361596  1
  V  V19  1  0.879468  0.361596  0.879468  1
  V  V20  1  0.361596  0.879468  0.879468  1
  V  V21  1  0.879468  0.879468  0.879468  1
  Os  Os22  1  0.000000  0.000000  0.000000  1
  Os  Os23  1  0.996679  0.996679  0.503321  1
  Os  Os24  1  0.503321  0.996679  0.503321  1
  Os  Os25  1  0.996679  0.503321  0.503321  1
  Os  Os26  1  0.503321  0.503321  0.996679  1
  Os  Os27  1  0.996679  0.503321  0.996679  1
  Os  Os28  1  0.503321  0.996679  0.996679  1
