# generated using pymatgen
data_HoTiAlO5
_symmetry_space_group_name_H-M   'P 1'
_cell_length_a   5.69900800
_cell_length_b   7.40025500
_cell_length_c   8.44750800
_cell_angle_alpha   90.00000000
_cell_angle_beta   90.00000000
_cell_angle_gamma   90.00000000
_symmetry_Int_Tables_number   1
_chemical_formula_structural   HoTiAlO5
_chemical_formula_sum   'Ho4 Ti4 Al4 O20'
_cell_volume   356.26615229
_cell_formula_units_Z   4
loop_
 _symmetry_equiv_pos_site_id
 _symmetry_equiv_pos_as_xyz
  1  'x, y, z'
loop_
 _atom_site_type_symbol
 _atom_site_label
 _atom_site_symmetry_multiplicity
 _atom_site_fract_x
 _atom_site_fract_y
 _atom_site_fract_z
 _atom_site_occupancy
  Ho  Ho0  1  0.000000  0.357944  0.330185  1
  Ho  Ho1  1  0.000000  0.642056  0.669815  1
  Ho  Ho2  1  0.000000  0.857944  0.169815  1
  Ho  Ho3  1  0.000000  0.142056  0.830185  1
  Ti  Ti4  1  0.500000  0.123923  0.146572  1
  Ti  Ti5  1  0.500000  0.876077  0.853428  1
  Ti  Ti6  1  0.500000  0.623923  0.353428  1
  Ti  Ti7  1  0.500000  0.376077  0.646572  1
  Al  Al8  1  0.242387  0.500000  0.000000  1
  Al  Al9  1  0.757613  0.000000  0.500000  1
  Al  Al10  1  0.757613  0.500000  0.000000  1
  Al  Al11  1  0.242387  0.000000  0.500000  1
  O  O12  1  0.000000  0.339452  0.059296  1
  O  O13  1  0.000000  0.660548  0.940704  1
  O  O14  1  0.000000  0.839452  0.440704  1
  O  O15  1  0.000000  0.160548  0.559296  1
  O  O16  1  0.500000  0.350700  0.072322  1
  O  O17  1  0.500000  0.649300  0.927678  1
  O  O18  1  0.500000  0.850700  0.427678  1
  O  O19  1  0.500000  0.149300  0.572322  1
  O  O20  1  0.249663  0.109640  0.294368  1
  O  O21  1  0.249663  0.890360  0.705632  1
  O  O22  1  0.750337  0.609640  0.205632  1
  O  O23  1  0.750337  0.390360  0.794368  1
  O  O24  1  0.750337  0.890360  0.705632  1
  O  O25  1  0.750337  0.109640  0.294368  1
  O  O26  1  0.249663  0.390360  0.794368  1
  O  O27  1  0.249663  0.609640  0.205632  1
  O  O28  1  0.275973  0.000000  0.000000  1
  O  O29  1  0.724027  0.500000  0.500000  1
  O  O30  1  0.724027  0.000000  0.000000  1
  O  O31  1  0.275973  0.500000  0.500000  1
