# generated using pymatgen
data_HoTm2ThPt4
_symmetry_space_group_name_H-M   'P 1'
_cell_length_a   4.56123200
_cell_length_b   5.60256981
_cell_length_c   7.00537807
_cell_angle_alpha   89.86442921
_cell_angle_beta   90.00000000
_cell_angle_gamma   90.00000000
_symmetry_Int_Tables_number   1
_chemical_formula_structural   HoTm2ThPt4
_chemical_formula_sum   'Ho1 Tm2 Th1 Pt4'
_cell_volume   179.01927844
_cell_formula_units_Z   1
loop_
 _symmetry_equiv_pos_site_id
 _symmetry_equiv_pos_as_xyz
  1  'x, y, z'
loop_
 _atom_site_type_symbol
 _atom_site_label
 _atom_site_symmetry_multiplicity
 _atom_site_fract_x
 _atom_site_fract_y
 _atom_site_fract_z
 _atom_site_occupancy
  Ho  Ho0  1  0.750000  0.356192  0.813826  1
  Tm  Tm1  1  0.750000  0.142630  0.321589  1
  Tm  Tm2  1  0.250000  0.859154  0.682806  1
  Th  Th3  1  0.250000  0.641428  0.182725  1
  Pt  Pt4  1  0.250000  0.157626  0.042344  1
  Pt  Pt5  1  0.750000  0.843803  0.950145  1
  Pt  Pt6  1  0.750000  0.659933  0.461626  1
  Pt  Pt7  1  0.250000  0.339233  0.544939  1
