# generated using pymatgen
data_Ba(BRh2)6
_symmetry_space_group_name_H-M   'P 1'
_cell_length_a   6.55834492
_cell_length_b   6.55834409
_cell_length_c   6.55834400
_cell_angle_alpha   104.07643684
_cell_angle_beta   104.07643852
_cell_angle_gamma   104.07645617
_symmetry_Int_Tables_number   1
_chemical_formula_structural   Ba(BRh2)6
_chemical_formula_sum   'Ba1 B6 Rh12'
_cell_volume   251.32060216
_cell_formula_units_Z   1
loop_
 _symmetry_equiv_pos_site_id
 _symmetry_equiv_pos_as_xyz
  1  'x, y, z'
loop_
 _atom_site_type_symbol
 _atom_site_label
 _atom_site_symmetry_multiplicity
 _atom_site_fract_x
 _atom_site_fract_y
 _atom_site_fract_z
 _atom_site_occupancy
  Ba  Ba0  1  0.000000  0.000000  0.000000  1
  B  B1  1  0.768424  0.768424  0.338372  1
  B  B2  1  0.231576  0.661628  0.231576  1
  B  B3  1  0.231576  0.231576  0.661628  1
  B  B4  1  0.661628  0.231576  0.231576  1
  B  B5  1  0.338372  0.768424  0.768424  1
  B  B6  1  0.768424  0.338372  0.768424  1
  Rh  Rh7  1  0.133886  0.500000  0.866114  1
  Rh  Rh8  1  0.188664  0.457513  0.457513  1
  Rh  Rh9  1  0.500000  0.866114  0.133886  1
  Rh  Rh10  1  0.457513  0.188664  0.457513  1
  Rh  Rh11  1  0.542487  0.811336  0.542487  1
  Rh  Rh12  1  0.811336  0.542487  0.542487  1
  Rh  Rh13  1  0.542487  0.542487  0.811336  1
  Rh  Rh14  1  0.500000  0.133886  0.866114  1
  Rh  Rh15  1  0.866114  0.500000  0.133886  1
  Rh  Rh16  1  0.133886  0.866114  0.500000  1
  Rh  Rh17  1  0.457513  0.457513  0.188664  1
  Rh  Rh18  1  0.866114  0.133886  0.500000  1
