# generated using pymatgen
data_Pr16Cd4Co2IrOs
_symmetry_space_group_name_H-M   'P 1'
_cell_length_a   10.03127814
_cell_length_b   9.98056762
_cell_length_c   9.98056669
_cell_angle_alpha   59.49339293
_cell_angle_beta   59.58028539
_cell_angle_gamma   59.58028588
_symmetry_Int_Tables_number   1
_chemical_formula_structural   Pr16Cd4Co2IrOs
_chemical_formula_sum   'Pr16 Cd4 Co2 Ir1 Os1'
_cell_volume   699.35561362
_cell_formula_units_Z   1
loop_
 _symmetry_equiv_pos_site_id
 _symmetry_equiv_pos_as_xyz
  1  'x, y, z'
loop_
 _atom_site_type_symbol
 _atom_site_label
 _atom_site_symmetry_multiplicity
 _atom_site_fract_x
 _atom_site_fract_y
 _atom_site_fract_z
 _atom_site_occupancy
  Pr  Pr0  1  0.340240  0.349651  0.349651  1
  Pr  Pr1  1  0.344269  0.351169  0.958381  1
  Pr  Pr2  1  0.344269  0.958381  0.351169  1
  Pr  Pr3  1  0.960941  0.348485  0.348485  1
  Pr  Pr4  1  0.810793  0.190381  0.190381  1
  Pr  Pr5  1  0.190140  0.809612  0.809612  1
  Pr  Pr6  1  0.190894  0.806431  0.188831  1
  Pr  Pr7  1  0.814734  0.188870  0.804159  1
  Pr  Pr8  1  0.190894  0.188831  0.806431  1
  Pr  Pr9  1  0.814734  0.804159  0.188870  1
  Pr  Pr10  1  0.936689  0.563309  0.563309  1
  Pr  Pr11  1  0.556300  0.941873  0.941873  1
  Pr  Pr12  1  0.563106  0.939319  0.559066  1
  Pr  Pr13  1  0.940412  0.555914  0.940639  1
  Pr  Pr14  1  0.563106  0.559066  0.939319  1
  Pr  Pr15  1  0.940412  0.940639  0.555914  1
  Cd  Cd16  1  0.579736  0.579009  0.579009  1
  Cd  Cd17  1  0.579253  0.578723  0.261276  1
  Cd  Cd18  1  0.579253  0.261276  0.578723  1
  Cd  Cd19  1  0.260425  0.579198  0.579198  1
  Co  Co20  1  0.140825  0.142313  0.580435  1
  Co  Co21  1  0.140825  0.580435  0.142313  1
  Ir  Ir22  1  0.578047  0.142244  0.142244  1
  Os  Os23  1  0.139703  0.140713  0.140713  1
