# generated using pymatgen
data_Li5Dy4Co9(P2Ir)6
_symmetry_space_group_name_H-M   'P 1'
_cell_length_a   3.75661200
_cell_length_b   10.46946331
_cell_length_c   12.42982309
_cell_angle_alpha   89.98833848
_cell_angle_beta   90.00000000
_cell_angle_gamma   90.00000000
_symmetry_Int_Tables_number   1
_chemical_formula_structural   Li5Dy4Co9(P2Ir)6
_chemical_formula_sum   'Li5 Dy4 Co9 P12 Ir6'
_cell_volume   488.86134613
_cell_formula_units_Z   1
loop_
 _symmetry_equiv_pos_site_id
 _symmetry_equiv_pos_as_xyz
  1  'x, y, z'
loop_
 _atom_site_type_symbol
 _atom_site_label
 _atom_site_symmetry_multiplicity
 _atom_site_fract_x
 _atom_site_fract_y
 _atom_site_fract_z
 _atom_site_occupancy
  Li  Li0  1  0.250000  0.705944  0.992158  1
  Li  Li1  1  0.250000  0.794803  0.489494  1
  Li  Li2  1  0.750000  0.294049  0.010979  1
  Li  Li3  1  0.750000  0.202664  0.513333  1
  Li  Li4  1  0.250000  0.410918  0.491500  1
  Dy  Dy5  1  0.250000  0.583475  0.712276  1
  Dy  Dy6  1  0.250000  0.915486  0.213607  1
  Dy  Dy7  1  0.750000  0.419748  0.292101  1
  Dy  Dy8  1  0.750000  0.080285  0.785806  1
  Co  Co9  1  0.750000  0.722390  0.322133  1
  Co  Co10  1  0.250000  0.881564  0.688186  1
  Co  Co11  1  0.250000  0.618195  0.197647  1
  Co  Co12  1  0.750000  0.117520  0.307158  1
  Co  Co13  1  0.750000  0.383196  0.809110  1
  Co  Co14  1  0.250000  0.467365  0.937193  1
  Co  Co15  1  0.250000  0.032294  0.433485  1
  Co  Co16  1  0.750000  0.534248  0.067974  1
  Co  Co17  1  0.750000  0.965682  0.561986  1
  P  P18  1  0.250000  0.428713  0.112681  1
  P  P19  1  0.250000  0.073926  0.608733  1
  P  P20  1  0.750000  0.572337  0.890580  1
  P  P21  1  0.750000  0.923399  0.386349  1
  P  P22  1  0.250000  0.276041  0.864526  1
  P  P23  1  0.250000  0.223163  0.359723  1
  P  P24  1  0.750000  0.723264  0.143426  1
  P  P25  1  0.750000  0.773795  0.631356  1
  P  P26  1  0.250000  0.609501  0.378139  1
  P  P27  1  0.250000  0.899112  0.878370  1
  P  P28  1  0.750000  0.403740  0.622762  1
  P  P29  1  0.750000  0.097232  0.116926  1
  Ir  Ir30  1  0.250000  0.094681  0.971591  1
  Ir  Ir31  1  0.750000  0.589228  0.511146  1
  Ir  Ir32  1  0.750000  0.899882  0.027887  1
  Ir  Ir33  1  0.250000  0.217904  0.172893  1
  Ir  Ir34  1  0.250000  0.284083  0.675195  1
  Ir  Ir35  1  0.750000  0.780168  0.821589  1
