# generated using pymatgen
data_Sr10ZrNiRu3O20
_symmetry_space_group_name_H-M   'P 1'
_cell_length_a   8.98518653
_cell_length_b   8.98518502
_cell_length_c   8.96866760
_cell_angle_alpha   120.67661983
_cell_angle_beta   120.56702486
_cell_angle_gamma   89.03365560
_symmetry_Int_Tables_number   1
_chemical_formula_structural   Sr10ZrNiRu3O20
_chemical_formula_sum   'Sr10 Zr1 Ni1 Ru3 O20'
_cell_volume   506.61909497
_cell_formula_units_Z   1
loop_
 _symmetry_equiv_pos_site_id
 _symmetry_equiv_pos_as_xyz
  1  'x, y, z'
loop_
 _atom_site_type_symbol
 _atom_site_label
 _atom_site_symmetry_multiplicity
 _atom_site_fract_x
 _atom_site_fract_y
 _atom_site_fract_z
 _atom_site_occupancy
  Sr  Sr0  1  0.761332  0.145453  0.199282  1
  Sr  Sr1  1  0.353557  0.353211  0.000769  1
  Sr  Sr2  1  0.948244  0.563858  0.802124  1
  Sr  Sr3  1  0.567138  0.755414  0.616283  1
  Sr  Sr4  1  0.140654  0.948944  0.382390  1
  Sr  Sr5  1  0.647558  0.647212  0.000769  1
  Sr  Sr6  1  0.238266  0.853880  0.802124  1
  Sr  Sr7  1  0.860869  0.049145  0.616283  1
  Sr  Sr8  1  0.433446  0.241736  0.382390  1
  Sr  Sr9  1  0.053830  0.437951  0.199282  1
  Zr  Zr10  1  0.601148  0.197433  0.798581  1
  Ni  Ni11  1  0.001550  0.001269  0.002818  1
  Ru  Ru12  1  0.196536  0.402951  0.599485  1
  Ru  Ru13  1  0.800118  0.604480  0.404599  1
  Ru  Ru14  1  0.398688  0.794212  0.192900  1
  O  O15  1  0.558137  0.955095  0.196534  1
  O  O16  1  0.171226  0.168466  0.005253  1
  O  O17  1  0.765619  0.366302  0.799994  1
  O  O18  1  0.360787  0.560159  0.598990  1
  O  O19  1  0.958137  0.764268  0.400579  1
  O  O20  1  0.836787  0.834027  0.005253  1
  O  O21  1  0.433691  0.034374  0.799994  1
  O  O22  1  0.038831  0.238203  0.598990  1
  O  O23  1  0.636311  0.442442  0.400579  1
  O  O24  1  0.241440  0.638397  0.196534  1
  O  O25  1  0.702778  0.406899  0.109678  1
  O  O26  1  0.296515  0.599641  0.896156  1
  O  O27  1  0.899856  0.795370  0.695226  1
  O  O28  1  0.495378  0.989473  0.484851  1
  O  O29  1  0.102617  0.210299  0.312916  1
  O  O30  1  0.994989  0.501477  0.496466  1
  O  O31  1  0.600156  0.699225  0.299380  1
  O  O32  1  0.208844  0.896133  0.104978  1
  O  O33  1  0.803450  0.098261  0.901710  1
  O  O34  1  0.391516  0.304342  0.695858  1
