# generated using pymatgen
data_LaPu5F18
_symmetry_space_group_name_H-M   'P 1'
_cell_length_a   7.19013400
_cell_length_b   7.18217861
_cell_length_c   7.25053561
_cell_angle_alpha   89.51862385
_cell_angle_beta   90.00000000
_cell_angle_gamma   120.03664775
_symmetry_Int_Tables_number   1
_chemical_formula_structural   LaPu5F18
_chemical_formula_sum   'La1 Pu5 F18'
_cell_volume   324.12531853
_cell_formula_units_Z   1
loop_
 _symmetry_equiv_pos_site_id
 _symmetry_equiv_pos_as_xyz
  1  'x, y, z'
loop_
 _atom_site_type_symbol
 _atom_site_label
 _atom_site_symmetry_multiplicity
 _atom_site_fract_x
 _atom_site_fract_y
 _atom_site_fract_z
 _atom_site_occupancy
  La  La0  1  0.340786  0.000000  0.250000  1
  Pu  Pu1  1  0.341825  0.342502  0.750466  1
  Pu  Pu2  1  0.999322  0.657498  0.749534  1
  Pu  Pu3  1  0.659092  0.000000  0.750000  1
  Pu  Pu4  1  0.658622  0.658390  0.250054  1
  Pu  Pu5  1  0.000232  0.341610  0.249946  1
  F  F6  1  0.000164  0.000000  0.750000  1
  F  F7  1  0.994106  0.000000  0.250000  1
  F  F8  1  0.332676  0.665003  0.809777  1
  F  F9  1  0.667674  0.334997  0.690223  1
  F  F10  1  0.670704  0.337317  0.190216  1
  F  F11  1  0.333386  0.662683  0.309784  1
  F  F12  1  0.309288  0.938002  0.581923  1
  F  F13  1  0.058351  0.368661  0.577495  1
  F  F14  1  0.631613  0.691342  0.577291  1
  F  F15  1  0.371287  0.061998  0.918077  1
  F  F16  1  0.689690  0.631339  0.922505  1
  F  F17  1  0.940271  0.308658  0.922709  1
  F  F18  1  0.690230  0.061378  0.423016  1
  F  F19  1  0.944173  0.635579  0.421265  1
  F  F20  1  0.369906  0.310751  0.424878  1
  F  F21  1  0.628852  0.938622  0.076984  1
  F  F22  1  0.308594  0.364421  0.078735  1
  F  F23  1  0.059155  0.689249  0.075122  1
