# generated using pymatgen
data_Hf18Re6NiMo2Ir
_symmetry_space_group_name_H-M   'P 1'
_cell_length_a   8.66415000
_cell_length_b   8.66415000
_cell_length_c   8.48770300
_cell_angle_alpha   90.00000000
_cell_angle_beta   90.00000000
_cell_angle_gamma   120.00000001
_symmetry_Int_Tables_number   1
_chemical_formula_structural   Hf18Re6NiMo2Ir
_chemical_formula_sum   'Hf18 Re6 Ni1 Mo2 Ir1'
_cell_volume   551.78860929
_cell_formula_units_Z   1
loop_
 _symmetry_equiv_pos_site_id
 _symmetry_equiv_pos_as_xyz
  1  'x, y, z'
loop_
 _atom_site_type_symbol
 _atom_site_label
 _atom_site_symmetry_multiplicity
 _atom_site_fract_x
 _atom_site_fract_y
 _atom_site_fract_z
 _atom_site_occupancy
  Hf  Hf0  1  0.195994  0.804006  0.445776  1
  Hf  Hf1  1  0.195994  0.391985  0.445776  1
  Hf  Hf2  1  0.608015  0.804006  0.445776  1
  Hf  Hf3  1  0.801386  0.198614  0.557888  1
  Hf  Hf4  1  0.801386  0.602774  0.557888  1
  Hf  Hf5  1  0.397226  0.198614  0.557888  1
  Hf  Hf6  1  0.801386  0.198614  0.942112  1
  Hf  Hf7  1  0.801386  0.602774  0.942112  1
  Hf  Hf8  1  0.397226  0.198614  0.942112  1
  Hf  Hf9  1  0.195994  0.804006  0.054224  1
  Hf  Hf10  1  0.195994  0.391985  0.054224  1
  Hf  Hf11  1  0.608015  0.804006  0.054224  1
  Hf  Hf12  1  0.542054  0.457946  0.250000  1
  Hf  Hf13  1  0.542054  0.084110  0.250000  1
  Hf  Hf14  1  0.915890  0.457946  0.250000  1
  Hf  Hf15  1  0.458853  0.541147  0.750000  1
  Hf  Hf16  1  0.458853  0.917705  0.750000  1
  Hf  Hf17  1  0.082295  0.541147  0.750000  1
  Re  Re18  1  0.888677  0.111323  0.250000  1
  Re  Re19  1  0.888677  0.777353  0.250000  1
  Re  Re20  1  0.222647  0.111323  0.250000  1
  Re  Re21  1  0.110787  0.889213  0.750000  1
  Re  Re22  1  0.110787  0.221576  0.750000  1
  Re  Re23  1  0.778424  0.889213  0.750000  1
  Ni  Ni24  1  0.666667  0.333333  0.750000  1
  Mo  Mo25  1  0.000000  0.000000  0.499694  1
  Mo  Mo26  1  0.000000  0.000000  0.000306  1
  Ir  Ir27  1  0.333333  0.666667  0.250000  1
