# generated using pymatgen
data_LiPr3In3HgPt
_symmetry_space_group_name_H-M   'P 1'
_cell_length_a   8.12091900
_cell_length_b   8.12091825
_cell_length_c   3.99893700
_cell_angle_alpha   90.00000000
_cell_angle_beta   90.00000000
_cell_angle_gamma   120.00000713
_symmetry_Int_Tables_number   1
_chemical_formula_structural   LiPr3In3HgPt
_chemical_formula_sum   'Li1 Pr3 In3 Hg1 Pt1'
_cell_volume   228.39441515
_cell_formula_units_Z   1
loop_
 _symmetry_equiv_pos_site_id
 _symmetry_equiv_pos_as_xyz
  1  'x, y, z'
loop_
 _atom_site_type_symbol
 _atom_site_label
 _atom_site_symmetry_multiplicity
 _atom_site_fract_x
 _atom_site_fract_y
 _atom_site_fract_z
 _atom_site_occupancy
  Li  Li0  1  0.000000  0.000000  0.000000  1
  Pr  Pr1  1  0.600596  0.021976  0.000000  1
  Pr  Pr2  1  0.978024  0.578620  0.000000  1
  Pr  Pr3  1  0.421380  0.399404  0.000000  1
  In  In4  1  0.248383  0.002187  0.500000  1
  In  In5  1  0.997813  0.246196  0.500000  1
  In  In6  1  0.753804  0.751617  0.500000  1
  Hg  Hg7  1  0.333333  0.666667  0.500000  1
  Pt  Pt8  1  0.666667  0.333333  0.500000  1
