# generated using pymatgen
data_Zr4In3Co2
_symmetry_space_group_name_H-M   'P 1'
_cell_length_a   3.34971700
_cell_length_b   7.17276942
_cell_length_c   7.82780235
_cell_angle_alpha   72.14883945
_cell_angle_beta   90.00000000
_cell_angle_gamma   90.00000000
_symmetry_Int_Tables_number   1
_chemical_formula_structural   Zr4In3Co2
_chemical_formula_sum   'Zr4 In3 Co2'
_cell_volume   179.02188014
_cell_formula_units_Z   1
loop_
 _symmetry_equiv_pos_site_id
 _symmetry_equiv_pos_as_xyz
  1  'x, y, z'
loop_
 _atom_site_type_symbol
 _atom_site_label
 _atom_site_symmetry_multiplicity
 _atom_site_fract_x
 _atom_site_fract_y
 _atom_site_fract_z
 _atom_site_occupancy
  Zr  Zr0  1  0.500000  0.921572  0.210593  1
  Zr  Zr1  1  0.500000  0.078428  0.789407  1
  Zr  Zr2  1  0.500000  0.393573  0.334457  1
  Zr  Zr3  1  0.500000  0.606427  0.665543  1
  In  In4  1  0.000000  0.703335  0.001963  1
  In  In5  1  0.000000  0.296665  0.998037  1
  In  In6  1  0.000000  0.000000  0.500000  1
  Co  Co7  1  0.000000  0.666589  0.381763  1
  Co  Co8  1  0.000000  0.333411  0.618237  1
