# generated using pymatgen
data_Yb(BOs)4
_symmetry_space_group_name_H-M   'P 1'
_cell_length_a   7.53465700
_cell_length_b   7.53465700
_cell_length_c   4.02857100
_cell_angle_alpha   90.00000000
_cell_angle_beta   90.00000000
_cell_angle_gamma   90.00000000
_symmetry_Int_Tables_number   1
_chemical_formula_structural   Yb(BOs)4
_chemical_formula_sum   'Yb2 B8 Os8'
_cell_volume   228.70623027
_cell_formula_units_Z   2
loop_
 _symmetry_equiv_pos_site_id
 _symmetry_equiv_pos_as_xyz
  1  'x, y, z'
loop_
 _atom_site_type_symbol
 _atom_site_label
 _atom_site_symmetry_multiplicity
 _atom_site_fract_x
 _atom_site_fract_y
 _atom_site_fract_z
 _atom_site_occupancy
  Yb  Yb0  1  0.250000  0.250000  0.250001  1
  Yb  Yb1  1  0.750000  0.750000  0.749999  1
  B  B2  1  0.030899  0.586735  0.136385  1
  B  B3  1  0.469101  0.913265  0.136385  1
  B  B4  1  0.913265  0.030899  0.363613  1
  B  B5  1  0.586735  0.469101  0.363613  1
  B  B6  1  0.413265  0.530900  0.636386  1
  B  B7  1  0.086734  0.969101  0.636386  1
  B  B8  1  0.530900  0.086734  0.863614  1
  B  B9  1  0.969101  0.413265  0.863614  1
  Os  Os10  1  0.396215  0.639817  0.133442  1
  Os  Os11  1  0.103785  0.860183  0.133442  1
  Os  Os12  1  0.639817  0.103785  0.366557  1
  Os  Os13  1  0.860183  0.396215  0.366557  1
  Os  Os14  1  0.139818  0.603786  0.633443  1
  Os  Os15  1  0.360183  0.896214  0.633443  1
  Os  Os16  1  0.896214  0.139818  0.866558  1
  Os  Os17  1  0.603786  0.360183  0.866558  1
