# generated using pymatgen
data_Ni8Mo13P3N4
_symmetry_space_group_name_H-M   'P 1'
_cell_length_a   7.85677020
_cell_length_b   7.85677029
_cell_length_c   7.85676952
_cell_angle_alpha   59.35477924
_cell_angle_beta   59.35477721
_cell_angle_gamma   59.35477715
_symmetry_Int_Tables_number   1
_chemical_formula_structural   Ni8Mo13P3N4
_chemical_formula_sum   'Ni8 Mo13 P3 N4'
_cell_volume   337.90246409
_cell_formula_units_Z   1
loop_
 _symmetry_equiv_pos_site_id
 _symmetry_equiv_pos_as_xyz
  1  'x, y, z'
loop_
 _atom_site_type_symbol
 _atom_site_label
 _atom_site_symmetry_multiplicity
 _atom_site_fract_x
 _atom_site_fract_y
 _atom_site_fract_z
 _atom_site_occupancy
  Ni  Ni0  1  0.007575  0.338870  0.338870  1
  Ni  Ni1  1  0.916494  0.916494  0.916494  1
  Ni  Ni2  1  0.338870  0.338870  0.007575  1
  Ni  Ni3  1  0.911130  0.911130  0.242425  1
  Ni  Ni4  1  0.242425  0.911130  0.911130  1
  Ni  Ni5  1  0.338870  0.007575  0.338870  1
  Ni  Ni6  1  0.911130  0.242425  0.911130  1
  Ni  Ni7  1  0.333506  0.333506  0.333506  1
  Mo  Mo8  1  0.308702  0.690944  0.690944  1
  Mo  Mo9  1  0.559056  0.559056  0.941298  1
  Mo  Mo10  1  0.303840  0.697054  0.303840  1
  Mo  Mo11  1  0.303840  0.303840  0.697054  1
  Mo  Mo12  1  0.697054  0.303840  0.303840  1
  Mo  Mo13  1  0.946160  0.946160  0.552946  1
  Mo  Mo14  1  0.946160  0.552946  0.946160  1
  Mo  Mo15  1  0.941298  0.559056  0.559056  1
  Mo  Mo16  1  0.552946  0.946160  0.946160  1
  Mo  Mo17  1  0.125000  0.125000  0.125000  1
  Mo  Mo18  1  0.690944  0.690944  0.308702  1
  Mo  Mo19  1  0.690944  0.308702  0.690944  1
  Mo  Mo20  1  0.559056  0.941298  0.559056  1
  P  P21  1  0.125000  0.125000  0.625000  1
  P  P22  1  0.625000  0.125000  0.125000  1
  P  P23  1  0.125000  0.625000  0.125000  1
  N  N24  1  0.625000  0.125000  0.625000  1
  N  N25  1  0.625000  0.625000  0.125000  1
  N  N26  1  0.125000  0.625000  0.625000  1
  N  N27  1  0.625000  0.625000  0.625000  1
