# generated using pymatgen
data_VSnSbO6
_symmetry_space_group_name_H-M   'P 1'
_cell_length_a   4.73332202
_cell_length_b   9.46412401
_cell_length_c   9.52922905
_cell_angle_alpha   89.99592447
_cell_angle_beta   90.01073181
_cell_angle_gamma   90.00013385
_symmetry_Int_Tables_number   1
_chemical_formula_structural   VSnSbO6
_chemical_formula_sum   'V4 Sn4 Sb4 O24'
_cell_volume   426.87845044
_cell_formula_units_Z   4
loop_
 _symmetry_equiv_pos_site_id
 _symmetry_equiv_pos_as_xyz
  1  'x, y, z'
loop_
 _atom_site_type_symbol
 _atom_site_label
 _atom_site_symmetry_multiplicity
 _atom_site_fract_x
 _atom_site_fract_y
 _atom_site_fract_z
 _atom_site_occupancy
  V  V0  1  0.500025  0.749990  0.167145  1
  V  V1  1  0.999962  0.500026  0.667055  1
  V  V2  1  0.499948  0.250009  0.167173  1
  V  V3  1  0.000004  0.999972  0.667174  1
  Sn  Sn4  1  0.499964  0.249991  0.498931  1
  Sn  Sn5  1  0.500024  0.749982  0.498910  1
  Sn  Sn6  1  0.999981  0.999932  0.999167  1
  Sn  Sn7  1  0.999970  0.500130  0.999167  1
  Sb  Sb8  1  0.499999  0.249977  0.833477  1
  Sb  Sb9  1  0.500024  0.750023  0.833488  1
  Sb  Sb10  1  0.999998  0.999998  0.333703  1
  Sb  Sb11  1  0.000028  0.499973  0.333663  1
  O  O12  1  0.196417  0.401838  0.171262  1
  O  O13  1  0.196441  0.901852  0.171268  1
  O  O14  1  0.803556  0.098181  0.171259  1
  O  O15  1  0.803536  0.598163  0.171282  1
  O  O16  1  0.303509  0.151798  0.671303  1
  O  O17  1  0.303526  0.651825  0.671295  1
  O  O18  1  0.696441  0.348166  0.671292  1
  O  O19  1  0.696486  0.848193  0.671304  1
  O  O20  1  0.189542  0.405327  0.497858  1
  O  O21  1  0.189528  0.905339  0.497894  1
  O  O22  1  0.810544  0.094633  0.497930  1
  O  O23  1  0.810582  0.594623  0.497910  1
  O  O24  1  0.310565  0.155323  0.997902  1
  O  O25  1  0.310454  0.655343  0.997900  1
  O  O26  1  0.689562  0.344687  0.997866  1
  O  O27  1  0.689504  0.844704  0.997894  1
  O  O28  1  0.198713  0.400716  0.830934  1
  O  O29  1  0.198778  0.900719  0.830910  1
  O  O30  1  0.801214  0.099310  0.830920  1
  O  O31  1  0.801200  0.599309  0.830949  1
  O  O32  1  0.301032  0.150752  0.330964  1
  O  O33  1  0.301046  0.650758  0.330952  1
  O  O34  1  0.698956  0.349206  0.330931  1
  O  O35  1  0.698942  0.849239  0.330973  1
