# generated using pymatgen
data_Hf16Co5TcAu2
_symmetry_space_group_name_H-M   'P 1'
_cell_length_a   8.64866388
_cell_length_b   8.64866424
_cell_length_c   8.64994819
_cell_angle_alpha   59.93036668
_cell_angle_beta   59.93036880
_cell_angle_gamma   60.26316727
_symmetry_Int_Tables_number   1
_chemical_formula_structural   Hf16Co5TcAu2
_chemical_formula_sum   'Hf16 Co5 Tc1 Au2'
_cell_volume   457.92374246
_cell_formula_units_Z   1
loop_
 _symmetry_equiv_pos_site_id
 _symmetry_equiv_pos_as_xyz
  1  'x, y, z'
loop_
 _atom_site_type_symbol
 _atom_site_label
 _atom_site_symmetry_multiplicity
 _atom_site_fract_x
 _atom_site_fract_y
 _atom_site_fract_z
 _atom_site_occupancy
  Hf  Hf0  1  0.058006  0.646015  0.647242  1
  Hf  Hf1  1  0.646015  0.058006  0.647242  1
  Hf  Hf2  1  0.641401  0.641401  0.071645  1
  Hf  Hf3  1  0.646465  0.646465  0.646810  1
  Hf  Hf4  1  0.809438  0.809438  0.190782  1
  Hf  Hf5  1  0.199879  0.199879  0.802202  1
  Hf  Hf6  1  0.803844  0.194437  0.808884  1
  Hf  Hf7  1  0.190550  0.807476  0.191775  1
  Hf  Hf8  1  0.194437  0.803844  0.808884  1
  Hf  Hf9  1  0.807476  0.190550  0.191775  1
  Hf  Hf10  1  0.438863  0.438863  0.057564  1
  Hf  Hf11  1  0.064496  0.064496  0.435964  1
  Hf  Hf12  1  0.437557  0.077870  0.434859  1
  Hf  Hf13  1  0.073606  0.438442  0.051554  1
  Hf  Hf14  1  0.077870  0.437557  0.434859  1
  Hf  Hf15  1  0.438442  0.073606  0.051554  1
  Co  Co16  1  0.398394  0.398394  0.420274  1
  Co  Co17  1  0.430040  0.852021  0.863357  1
  Co  Co18  1  0.852021  0.430040  0.863357  1
  Co  Co19  1  0.857157  0.857157  0.427147  1
  Co  Co20  1  0.854456  0.854456  0.862709  1
  Tc  Tc21  1  0.412748  0.412748  0.751969  1
  Au  Au22  1  0.755848  0.410994  0.418796  1
  Au  Au23  1  0.410994  0.755848  0.418796  1
