# generated using pymatgen
data_Nd4Er2Al24Pd3Ru5
_symmetry_space_group_name_H-M   'P 1'
_cell_length_a   8.91239448
_cell_length_b   8.89059264
_cell_length_c   9.59440933
_cell_angle_alpha   90.13470057
_cell_angle_beta   90.03509219
_cell_angle_gamma   119.64483366
_symmetry_Int_Tables_number   1
_chemical_formula_structural   Nd4Er2Al24Pd3Ru5
_chemical_formula_sum   'Nd4 Er2 Al24 Pd3 Ru5'
_cell_volume   660.71638184
_cell_formula_units_Z   1
loop_
 _symmetry_equiv_pos_site_id
 _symmetry_equiv_pos_as_xyz
  1  'x, y, z'
loop_
 _atom_site_type_symbol
 _atom_site_label
 _atom_site_symmetry_multiplicity
 _atom_site_fract_x
 _atom_site_fract_y
 _atom_site_fract_z
 _atom_site_occupancy
  Nd  Nd0  1  0.187237  0.382248  0.252205  1
  Nd  Nd1  1  0.812763  0.617752  0.747795  1
  Nd  Nd2  1  0.619714  0.812106  0.249965  1
  Nd  Nd3  1  0.380286  0.187894  0.750035  1
  Er  Er4  1  0.190819  0.805527  0.250259  1
  Er  Er5  1  0.809181  0.194473  0.749741  1
  Al  Al6  1  0.326998  0.664418  0.023799  1
  Al  Al7  1  0.673002  0.335582  0.976201  1
  Al  Al8  1  0.669828  0.328786  0.521237  1
  Al  Al9  1  0.330172  0.671214  0.478763  1
  Al  Al10  1  0.155368  0.323855  0.578110  1
  Al  Al11  1  0.844632  0.676145  0.421890  1
  Al  Al12  1  0.676358  0.844880  0.577322  1
  Al  Al13  1  0.844260  0.675503  0.076811  1
  Al  Al14  1  0.323642  0.155120  0.422678  1
  Al  Al15  1  0.155740  0.324497  0.923189  1
  Al  Al16  1  0.163582  0.835811  0.574347  1
  Al  Al17  1  0.321728  0.160115  0.079396  1
  Al  Al18  1  0.836418  0.164189  0.425653  1
  Al  Al19  1  0.678272  0.839885  0.920604  1
  Al  Al20  1  0.841554  0.167859  0.075543  1
  Al  Al21  1  0.158446  0.832141  0.924457  1
  Al  Al22  1  0.560424  0.125005  0.253770  1
  Al  Al23  1  0.439576  0.874995  0.746230  1
  Al  Al24  1  0.876765  0.440706  0.248910  1
  Al  Al25  1  0.123235  0.559294  0.751090  1
  Al  Al26  1  0.564244  0.435733  0.248882  1
  Al  Al27  1  0.435756  0.564267  0.751118  1
  Al  Al28  1  0.999945  0.998821  0.250259  1
  Al  Al29  1  0.000055  0.001179  0.749741  1
  Pd  Pd30  1  0.500000  0.000000  0.000000  1
  Pd  Pd31  1  0.500000  0.500000  0.000000  1
  Pd  Pd32  1  0.500000  0.500000  0.500000  1
  Ru  Ru33  1  0.000000  0.500000  0.000000  1
  Ru  Ru34  1  0.500000  0.000000  0.500000  1
  Ru  Ru35  1  0.000000  0.500000  0.500000  1
  Ru  Ru36  1  0.000000  0.000000  0.000000  1
  Ru  Ru37  1  0.000000  0.000000  0.500000  1
