# generated using pymatgen
data_Li12DyY5In6
_symmetry_space_group_name_H-M   'P 1'
_cell_length_a   4.86303500
_cell_length_b   6.84900700
_cell_length_c   14.57512400
_cell_angle_alpha   90.00003639
_cell_angle_beta   90.00282901
_cell_angle_gamma   89.99997149
_symmetry_Int_Tables_number   1
_chemical_formula_structural   Li12DyY5In6
_chemical_formula_sum   'Li12 Dy1 Y5 In6'
_cell_volume   485.45308279
_cell_formula_units_Z   1
loop_
 _symmetry_equiv_pos_site_id
 _symmetry_equiv_pos_as_xyz
  1  'x, y, z'
loop_
 _atom_site_type_symbol
 _atom_site_label
 _atom_site_symmetry_multiplicity
 _atom_site_fract_x
 _atom_site_fract_y
 _atom_site_fract_z
 _atom_site_occupancy
  Li  Li0  1  0.499999  0.250125  0.000000  1
  Li  Li1  1  0.499999  0.749875  0.000000  1
  Li  Li2  1  0.000591  0.249481  0.166632  1
  Li  Li3  1  0.000591  0.750518  0.166633  1
  Li  Li4  1  0.500591  0.250419  0.333329  1
  Li  Li5  1  0.500591  0.749580  0.333329  1
  Li  Li6  1  0.999998  0.249718  0.500000  1
  Li  Li7  1  0.999998  0.750282  0.500000  1
  Li  Li8  1  0.499403  0.250419  0.666670  1
  Li  Li9  1  0.499403  0.749580  0.666670  1
  Li  Li10  1  0.999409  0.249481  0.833368  1
  Li  Li11  1  0.999408  0.750518  0.833367  1
  Dy  Dy12  1  0.999998  0.000000  0.000000  1
  Y  Y13  1  0.500602  0.500000  0.166652  1
  Y  Y14  1  0.000600  0.000000  0.333362  1
  Y  Y15  1  0.499998  0.500000  0.500000  1
  Y  Y16  1  0.999396  0.000000  0.666638  1
  Y  Y17  1  0.499397  0.500000  0.833349  1
  In  In18  1  0.999998  0.500000  0.000000  1
  In  In19  1  0.500441  0.000000  0.166410  1
  In  In20  1  0.000399  0.500000  0.333447  1
  In  In21  1  0.499998  0.000000  0.500000  1
  In  In22  1  0.999618  0.500000  0.666553  1
  In  In23  1  0.499578  0.000000  0.833590  1
