# generated using pymatgen
data_Dy5ZnP11Ir11Rh8
_symmetry_space_group_name_H-M   'P 1'
_cell_length_a   12.72029448
_cell_length_b   12.77583612
_cell_length_c   3.97106600
_cell_angle_alpha   90.00000000
_cell_angle_beta   90.00000000
_cell_angle_gamma   120.14631751
_symmetry_Int_Tables_number   1
_chemical_formula_structural   Dy5ZnP11Ir11Rh8
_chemical_formula_sum   'Dy5 Zn1 P11 Ir11 Rh8'
_cell_volume   558.06145113
_cell_formula_units_Z   1
loop_
 _symmetry_equiv_pos_site_id
 _symmetry_equiv_pos_as_xyz
  1  'x, y, z'
loop_
 _atom_site_type_symbol
 _atom_site_label
 _atom_site_symmetry_multiplicity
 _atom_site_fract_x
 _atom_site_fract_y
 _atom_site_fract_z
 _atom_site_occupancy
  Dy  Dy0  1  0.328609  0.663577  0.500000  1
  Dy  Dy1  1  0.670732  0.334525  0.500000  1
  Dy  Dy2  1  0.999343  0.817551  0.000000  1
  Dy  Dy3  1  0.186624  0.183385  0.000000  1
  Dy  Dy4  1  0.812636  0.997374  0.000000  1
  Zn  Zn5  1  0.000819  0.643085  0.500000  1
  P  P6  1  0.360982  0.361195  0.500000  1
  P  P7  1  0.638116  0.999238  0.500000  1
  P  P8  1  0.513117  0.687687  0.000000  1
  P  P9  1  0.311351  0.827626  0.000000  1
  P  P10  1  0.163298  0.479463  0.000000  1
  P  P11  1  0.486713  0.174088  0.000000  1
  P  P12  1  0.688593  0.515368  0.000000  1
  P  P13  1  0.837782  0.317337  0.000000  1
  P  P14  1  0.000080  0.173891  0.500000  1
  P  P15  1  0.816224  0.817753  0.500000  1
  P  P16  1  0.183700  0.000645  0.500000  1
  Ir  Ir17  1  0.133191  0.640079  0.000000  1
  Ir  Ir18  1  0.353323  0.491180  0.000000  1
  Ir  Ir19  1  0.490795  0.362600  0.000000  1
  Ir  Ir20  1  0.867815  0.507208  0.000000  1
  Ir  Ir21  1  0.647718  0.139587  0.000000  1
  Ir  Ir22  1  0.999794  0.277285  0.000000  1
  Ir  Ir23  1  0.712548  0.717635  0.000000  1
  Ir  Ir24  1  0.288365  0.004851  0.000000  1
  Ir  Ir25  1  0.786569  0.617012  0.500000  1
  Ir  Ir26  1  0.820649  0.188784  0.500000  1
  Ir  Ir27  1  0.000178  0.995032  0.500000  1
  Rh  Rh28  1  0.508814  0.871797  0.000000  1
  Rh  Rh29  1  0.998898  0.443180  0.500000  1
  Rh  Rh30  1  0.534086  0.546272  0.500000  1
  Rh  Rh31  1  0.466474  0.013743  0.500000  1
  Rh  Rh32  1  0.621111  0.805438  0.500000  1
  Rh  Rh33  1  0.213847  0.830986  0.500000  1
  Rh  Rh34  1  0.179014  0.369083  0.500000  1
  Rh  Rh35  1  0.378091  0.184460  0.500000  1
