# generated using pymatgen
data_DyHo3Cd3Co2
_symmetry_space_group_name_H-M   'P 1'
_cell_length_a   3.70389500
_cell_length_b   7.36605634
_cell_length_c   7.95326730
_cell_angle_alpha   71.02156433
_cell_angle_beta   90.00000000
_cell_angle_gamma   90.00000000
_symmetry_Int_Tables_number   1
_chemical_formula_structural   DyHo3Cd3Co2
_chemical_formula_sum   'Dy1 Ho3 Cd3 Co2'
_cell_volume   205.19444250
_cell_formula_units_Z   1
loop_
 _symmetry_equiv_pos_site_id
 _symmetry_equiv_pos_as_xyz
  1  'x, y, z'
loop_
 _atom_site_type_symbol
 _atom_site_label
 _atom_site_symmetry_multiplicity
 _atom_site_fract_x
 _atom_site_fract_y
 _atom_site_fract_z
 _atom_site_occupancy
  Dy  Dy0  1  0.500000  0.602515  0.688065  1
  Ho  Ho1  1  0.500000  0.903787  0.224677  1
  Ho  Ho2  1  0.500000  0.096223  0.775147  1
  Ho  Ho3  1  0.500000  0.397718  0.312351  1
  Cd  Cd4  1  0.000000  0.706151  0.002341  1
  Cd  Cd5  1  0.000000  0.293643  0.998346  1
  Cd  Cd6  1  0.000000  0.000319  0.499750  1
  Co  Co7  1  0.000000  0.649061  0.396156  1
  Co  Co8  1  0.000000  0.350581  0.603167  1
