# generated using pymatgen
data_NaEr(InBr3)2
_symmetry_space_group_name_H-M   'P 1'
_cell_length_a   7.52641746
_cell_length_b   8.22032100
_cell_length_c   13.13662600
_cell_angle_alpha   90.00000000
_cell_angle_beta   123.26834665
_cell_angle_gamma   90.00000000
_symmetry_Int_Tables_number   1
_chemical_formula_structural   NaEr(InBr3)2
_chemical_formula_sum   'Na2 Er2 In4 Br12'
_cell_volume   679.55500631
_cell_formula_units_Z   2
loop_
 _symmetry_equiv_pos_site_id
 _symmetry_equiv_pos_as_xyz
  1  'x, y, z'
loop_
 _atom_site_type_symbol
 _atom_site_label
 _atom_site_symmetry_multiplicity
 _atom_site_fract_x
 _atom_site_fract_y
 _atom_site_fract_z
 _atom_site_occupancy
  Na  Na0  1  0.500000  0.000000  0.000000  1
  Na  Na1  1  0.500001  0.500000  0.500000  1
  Er  Er2  1  0.000000  0.500000  0.000000  1
  Er  Er3  1  0.000000  0.000000  0.500000  1
  In  In4  1  0.285023  0.087460  0.254303  1
  In  In5  1  0.714977  0.587460  0.245697  1
  In  In6  1  0.285022  0.412540  0.754303  1
  In  In7  1  0.714977  0.912540  0.745696  1
  Br  Br8  1  0.349336  0.320013  0.044457  1
  Br  Br9  1  0.230748  0.788000  0.053705  1
  Br  Br10  1  0.133164  0.468281  0.243261  1
  Br  Br11  1  0.866836  0.968281  0.256739  1
  Br  Br12  1  0.769253  0.288000  0.446296  1
  Br  Br13  1  0.650664  0.820013  0.455544  1
  Br  Br14  1  0.349337  0.179987  0.544457  1
  Br  Br15  1  0.230748  0.712000  0.553705  1
  Br  Br16  1  0.133163  0.031719  0.743261  1
  Br  Br17  1  0.866837  0.531720  0.756739  1
  Br  Br18  1  0.769252  0.212000  0.946296  1
  Br  Br19  1  0.650663  0.679987  0.955544  1
