# generated using pymatgen
data_Th10Sb7
_symmetry_space_group_name_H-M   'P 1'
_cell_length_a   6.56770200
_cell_length_b   9.48210339
_cell_length_c   9.48206400
_cell_angle_alpha   120.00007757
_cell_angle_beta   89.99976054
_cell_angle_gamma   90.00018305
_symmetry_Int_Tables_number   1
_chemical_formula_structural   Th10Sb7
_chemical_formula_sum   'Th10 Sb7'
_cell_volume   511.38890369
_cell_formula_units_Z   1
loop_
 _symmetry_equiv_pos_site_id
 _symmetry_equiv_pos_as_xyz
  1  'x, y, z'
loop_
 _atom_site_type_symbol
 _atom_site_label
 _atom_site_symmetry_multiplicity
 _atom_site_fract_x
 _atom_site_fract_y
 _atom_site_fract_z
 _atom_site_occupancy
  Th  Th0  1  0.499997  0.333332  0.666666  1
  Th  Th1  1  0.500000  0.666668  0.333334  1
  Th  Th2  1  0.000001  0.666667  0.333333  1
  Th  Th3  1  0.000000  0.333333  0.666667  1
  Th  Th4  1  0.768215  0.271402  0.000002  1
  Th  Th5  1  0.768213  0.728595  0.728594  1
  Th  Th6  1  0.768216  0.000002  0.271403  1
  Th  Th7  1  0.231784  0.728599  0.000000  1
  Th  Th8  1  0.231787  0.271405  0.271406  1
  Th  Th9  1  0.231785  0.999999  0.728596  1
  Sb  Sb10  1  0.744473  0.617399  0.000000  1
  Sb  Sb11  1  0.744473  0.382603  0.382602  1
  Sb  Sb12  1  0.744474  0.000000  0.617398  1
  Sb  Sb13  1  0.255526  0.382601  0.000001  1
  Sb  Sb14  1  0.255525  0.617398  0.617398  1
  Sb  Sb15  1  0.255526  0.000000  0.382602  1
  Sb  Sb16  1  0.500000  0.000000  0.000000  1
