# generated using pymatgen
data_Lu4Al18PdRh5
_symmetry_space_group_name_H-M   'P 1'
_cell_length_a   7.54959470
_cell_length_b   7.54959464
_cell_length_c   9.37206100
_cell_angle_alpha   90.02472579
_cell_angle_beta   90.02471820
_cell_angle_gamma   119.45550417
_symmetry_Int_Tables_number   1
_chemical_formula_structural   Lu4Al18PdRh5
_chemical_formula_sum   'Lu4 Al18 Pd1 Rh5'
_cell_volume   465.12495512
_cell_formula_units_Z   1
loop_
 _symmetry_equiv_pos_site_id
 _symmetry_equiv_pos_as_xyz
  1  'x, y, z'
loop_
 _atom_site_type_symbol
 _atom_site_label
 _atom_site_symmetry_multiplicity
 _atom_site_fract_x
 _atom_site_fract_y
 _atom_site_fract_z
 _atom_site_occupancy
  Lu  Lu0  1  0.995226  0.674811  0.250677  1
  Lu  Lu1  1  0.004774  0.325189  0.749323  1
  Lu  Lu2  1  0.674805  0.995222  0.250672  1
  Lu  Lu3  1  0.325195  0.004778  0.749328  1
  Al  Al4  1  0.131842  0.131842  0.252638  1
  Al  Al5  1  0.868158  0.868158  0.747362  1
  Al  Al6  1  0.000598  0.340015  0.078689  1
  Al  Al7  1  0.999402  0.659985  0.921311  1
  Al  Al8  1  0.000796  0.663811  0.576456  1
  Al  Al9  1  0.336186  0.999203  0.423544  1
  Al  Al10  1  0.999204  0.336189  0.423544  1
  Al  Al11  1  0.663814  0.000797  0.576456  1
  Al  Al12  1  0.659983  0.999401  0.921311  1
  Al  Al13  1  0.340017  0.000599  0.078689  1
  Al  Al14  1  0.332241  0.332242  0.551031  1
  Al  Al15  1  0.667759  0.667758  0.448969  1
  Al  Al16  1  0.664177  0.664177  0.054075  1
  Al  Al17  1  0.335823  0.335823  0.945925  1
  Al  Al18  1  0.340406  0.552641  0.250545  1
  Al  Al19  1  0.659594  0.447359  0.749455  1
  Al  Al20  1  0.552643  0.340407  0.250546  1
  Al  Al21  1  0.447357  0.659593  0.749454  1
  Pd  Pd22  1  0.000000  0.000000  0.000000  1
  Rh  Rh23  1  0.672585  0.327412  0.000003  1
  Rh  Rh24  1  0.327415  0.672588  0.999997  1
  Rh  Rh25  1  0.327691  0.672315  0.499998  1
  Rh  Rh26  1  0.672309  0.327685  0.500002  1
  Rh  Rh27  1  0.000000  0.000000  0.500000  1
