# generated using pymatgen
data_LuAl2Pd3Pt2
_symmetry_space_group_name_H-M   'P 1'
_cell_length_a   7.99278960
_cell_length_b   7.99278948
_cell_length_c   7.99278947
_cell_angle_alpha   150.07774800
_cell_angle_beta   150.10850934
_cell_angle_gamma   42.80471940
_symmetry_Int_Tables_number   1
_chemical_formula_structural   LuAl2Pd3Pt2
_chemical_formula_sum   'Lu1 Al2 Pd3 Pt2'
_cell_volume   126.61274195
_cell_formula_units_Z   1
loop_
 _symmetry_equiv_pos_site_id
 _symmetry_equiv_pos_as_xyz
  1  'x, y, z'
loop_
 _atom_site_type_symbol
 _atom_site_label
 _atom_site_symmetry_multiplicity
 _atom_site_fract_x
 _atom_site_fract_y
 _atom_site_fract_z
 _atom_site_occupancy
  Lu  Lu0  1  0.000000  0.000000  0.000000  1
  Al  Al1  1  0.252925  0.252925  0.000000  1
  Al  Al2  1  0.747075  0.747075  0.000000  1
  Pd  Pd3  1  0.141125  0.641125  0.500000  1
  Pd  Pd4  1  0.858875  0.358875  0.500000  1
  Pd  Pd5  1  0.500000  0.500000  0.000000  1
  Pt  Pt6  1  0.644275  0.144275  0.500000  1
  Pt  Pt7  1  0.355725  0.855725  0.500000  1
