# generated using pymatgen
data_LaTb15Cd4Ni3Os
_symmetry_space_group_name_H-M   'P 1'
_cell_length_a   9.67423319
_cell_length_b   9.67423277
_cell_length_c   9.67423330
_cell_angle_alpha   59.42578370
_cell_angle_beta   59.42579528
_cell_angle_gamma   59.42578689
_symmetry_Int_Tables_number   1
_chemical_formula_structural   LaTb15Cd4Ni3Os
_chemical_formula_sum   'La1 Tb15 Cd4 Ni3 Os1'
_cell_volume   631.86340896
_cell_formula_units_Z   1
loop_
 _symmetry_equiv_pos_site_id
 _symmetry_equiv_pos_as_xyz
  1  'x, y, z'
loop_
 _atom_site_type_symbol
 _atom_site_label
 _atom_site_symmetry_multiplicity
 _atom_site_fract_x
 _atom_site_fract_y
 _atom_site_fract_z
 _atom_site_occupancy
  La  La0  1  0.347040  0.347040  0.347040  1
  Tb  Tb1  1  0.350423  0.350423  0.952784  1
  Tb  Tb2  1  0.350423  0.952784  0.350423  1
  Tb  Tb3  1  0.952784  0.350423  0.350423  1
  Tb  Tb4  1  0.812503  0.187624  0.187624  1
  Tb  Tb5  1  0.187277  0.811492  0.811492  1
  Tb  Tb6  1  0.187624  0.812503  0.187624  1
  Tb  Tb7  1  0.811492  0.187277  0.811492  1
  Tb  Tb8  1  0.187624  0.187624  0.812503  1
  Tb  Tb9  1  0.811492  0.811492  0.187277  1
  Tb  Tb10  1  0.935186  0.566253  0.566253  1
  Tb  Tb11  1  0.556876  0.938840  0.938840  1
  Tb  Tb12  1  0.566253  0.935186  0.566253  1
  Tb  Tb13  1  0.938840  0.556876  0.938840  1
  Tb  Tb14  1  0.566253  0.566253  0.935186  1
  Tb  Tb15  1  0.938840  0.938840  0.556876  1
  Cd  Cd16  1  0.580184  0.580184  0.580184  1
  Cd  Cd17  1  0.580999  0.580999  0.255804  1
  Cd  Cd18  1  0.580999  0.255804  0.580999  1
  Cd  Cd19  1  0.255804  0.580999  0.580999  1
  Ni  Ni20  1  0.140974  0.140974  0.576131  1
  Ni  Ni21  1  0.140974  0.576131  0.140974  1
  Ni  Ni22  1  0.576131  0.140974  0.140974  1
  Os  Os23  1  0.143006  0.143006  0.143006  1
