# generated using pymatgen
data_Li17(CaSi)6
_symmetry_space_group_name_H-M   'P 1'
_cell_length_a   9.25647800
_cell_length_b   9.25647874
_cell_length_c   9.25647800
_cell_angle_alpha   120.00000449
_cell_angle_beta   90.00000000
_cell_angle_gamma   120.00000449
_symmetry_Int_Tables_number   1
_chemical_formula_structural   Li17(CaSi)6
_chemical_formula_sum   'Li17 Ca6 Si6'
_cell_volume   560.81845659
_cell_formula_units_Z   1
loop_
 _symmetry_equiv_pos_site_id
 _symmetry_equiv_pos_as_xyz
  1  'x, y, z'
loop_
 _atom_site_type_symbol
 _atom_site_label
 _atom_site_symmetry_multiplicity
 _atom_site_fract_x
 _atom_site_fract_y
 _atom_site_fract_z
 _atom_site_occupancy
  Li  Li0  1  0.368043  0.736083  0.104127  1
  Li  Li1  1  0.830574  0.661147  0.169427  1
  Li  Li2  1  0.508280  0.338854  0.169427  1
  Li  Li3  1  0.830574  0.338854  0.169427  1
  Li  Li4  1  0.104127  0.736083  0.368043  1
  Li  Li5  1  0.631957  0.736083  0.368043  1
  Li  Li6  1  0.631957  0.263916  0.368043  1
  Li  Li7  1  0.830574  0.661147  0.491720  1
  Li  Li8  1  0.500000  0.000000  0.500000  1
  Li  Li9  1  0.169427  0.338854  0.508280  1
  Li  Li10  1  0.368043  0.736083  0.631957  1
  Li  Li11  1  0.368043  0.263916  0.631957  1
  Li  Li12  1  0.895873  0.263916  0.631957  1
  Li  Li13  1  0.169427  0.661147  0.830574  1
  Li  Li14  1  0.491720  0.661147  0.830574  1
  Li  Li15  1  0.169427  0.338854  0.830574  1
  Li  Li16  1  0.631957  0.263916  0.895873  1
  Ca  Ca17  1  0.781541  0.000000  0.218458  1
  Ca  Ca18  1  0.218459  0.436919  0.218459  1
  Ca  Ca19  1  0.218459  0.000000  0.218459  1
  Ca  Ca20  1  0.781541  0.000000  0.781541  1
  Ca  Ca21  1  0.218458  0.000000  0.781541  1
  Ca  Ca22  1  0.781541  0.563082  0.781541  1
  Si  Si23  1  0.500000  0.000000  0.000000  1
  Si  Si24  1  0.000000  0.500000  0.000000  1
  Si  Si25  1  0.500000  0.500000  0.000000  1
  Si  Si26  1  0.000000  0.000000  0.500000  1
  Si  Si27  1  0.000000  0.500000  0.500000  1
  Si  Si28  1  0.500000  0.500000  0.500000  1
