# generated using pymatgen
data_Ba6Tl2Cd(SnSe4)4
_symmetry_space_group_name_H-M   'P 1'
_cell_length_a   13.72217604
_cell_length_b   13.72217601
_cell_length_c   13.72217597
_cell_angle_alpha   110.49279512
_cell_angle_beta   110.49279436
_cell_angle_gamma   107.44684175
_symmetry_Int_Tables_number   1
_chemical_formula_structural   Ba6Tl2Cd(SnSe4)4
_chemical_formula_sum   'Ba12 Tl4 Cd2 Sn8 Se32'
_cell_volume   1987.20213326
_cell_formula_units_Z   2
loop_
 _symmetry_equiv_pos_site_id
 _symmetry_equiv_pos_as_xyz
  1  'x, y, z'
loop_
 _atom_site_type_symbol
 _atom_site_label
 _atom_site_symmetry_multiplicity
 _atom_site_fract_x
 _atom_site_fract_y
 _atom_site_fract_z
 _atom_site_occupancy
  Ba  Ba0  1  0.327680  0.327680  0.000000  1
  Ba  Ba1  1  0.625000  0.908773  0.783773  1
  Ba  Ba2  1  0.091227  0.875000  0.716227  1
  Ba  Ba3  1  0.625000  0.609657  0.484657  1
  Ba  Ba4  1  0.158773  0.375000  0.283773  1
  Ba  Ba5  1  0.672320  0.672320  0.000000  1
  Ba  Ba6  1  0.390343  0.875000  0.015343  1
  Ba  Ba7  1  0.125000  0.841227  0.216227  1
  Ba  Ba8  1  0.922320  0.422320  0.500000  1
  Ba  Ba9  1  0.859657  0.375000  0.984657  1
  Ba  Ba10  1  0.577680  0.077680  0.500000  1
  Ba  Ba11  1  0.125000  0.140343  0.515343  1
  Tl  Tl12  1  0.625000  0.300645  0.175645  1
  Tl  Tl13  1  0.550645  0.375000  0.675645  1
  Tl  Tl14  1  0.125000  0.449355  0.824355  1
  Tl  Tl15  1  0.699355  0.875000  0.324355  1
  Cd  Cd16  1  0.250000  0.750000  0.500000  1
  Cd  Cd17  1  0.000000  0.000000  0.000000  1
  Sn  Sn18  1  0.401388  0.119793  0.761422  1
  Sn  Sn19  1  0.889967  0.108372  0.738578  1
  Sn  Sn20  1  0.880207  0.641628  0.281595  1
  Sn  Sn21  1  0.360033  0.598612  0.718405  1
  Sn  Sn22  1  0.848612  0.110033  0.218405  1
  Sn  Sn23  1  0.891628  0.630207  0.781595  1
  Sn  Sn24  1  0.369793  0.151388  0.261422  1
  Sn  Sn25  1  0.358372  0.639967  0.238578  1
  Se  Se26  1  0.592156  0.134901  0.763657  1
  Se  Se27  1  0.874743  0.303407  0.215934  1
  Se  Se28  1  0.910665  0.136948  0.945228  1
  Se  Se29  1  0.696884  0.475446  0.076805  1
  Se  Se30  1  0.078498  0.121243  0.736343  1
  Se  Se31  1  0.058280  0.613052  0.273717  1
  Se  Se32  1  0.696593  0.912527  0.571336  1
  Se  Se33  1  0.386948  0.660665  0.445228  1
  Se  Se34  1  0.375257  0.091191  0.928664  1
  Se  Se35  1  0.034564  0.089335  0.226283  1
  Se  Se36  1  0.863052  0.808280  0.773717  1
  Se  Se37  1  0.191720  0.965436  0.054772  1
  Se  Se38  1  0.553407  0.624743  0.715934  1
  Se  Se39  1  0.171502  0.407844  0.542745  1
  Se  Se40  1  0.865099  0.628757  0.457255  1
  Se  Se41  1  0.384901  0.342156  0.263657  1
  Se  Se42  1  0.339335  0.784564  0.726283  1
  Se  Se43  1  0.087473  0.658809  0.784066  1
  Se  Se44  1  0.878757  0.615099  0.957255  1
  Se  Se45  1  0.657844  0.921502  0.042745  1
  Se  Se46  1  0.725446  0.446884  0.576805  1
  Se  Se47  1  0.379921  0.303116  0.778563  1
  Se  Se48  1  0.341191  0.125257  0.428664  1
  Se  Se49  1  0.553116  0.129921  0.278563  1
  Se  Se50  1  0.398640  0.620079  0.923195  1
  Se  Se51  1  0.851360  0.274554  0.721437  1
  Se  Se52  1  0.524554  0.601360  0.221437  1
  Se  Se53  1  0.162527  0.446593  0.071336  1
  Se  Se54  1  0.215436  0.941720  0.554772  1
  Se  Se55  1  0.870079  0.148640  0.423195  1
  Se  Se56  1  0.371243  0.828498  0.236343  1
  Se  Se57  1  0.908809  0.837473  0.284066  1
