# generated using pymatgen
data_CaZr(TaSe2)8
_symmetry_space_group_name_H-M   'P 1'
_cell_length_a   7.00672819
_cell_length_b   7.00480955
_cell_length_c   14.31481000
_cell_angle_alpha   90.00000000
_cell_angle_beta   89.98674467
_cell_angle_gamma   119.99100071
_symmetry_Int_Tables_number   1
_chemical_formula_structural   CaZr(TaSe2)8
_chemical_formula_sum   'Ca1 Zr1 Ta8 Se16'
_cell_volume   608.50924682
_cell_formula_units_Z   1
loop_
 _symmetry_equiv_pos_site_id
 _symmetry_equiv_pos_as_xyz
  1  'x, y, z'
loop_
 _atom_site_type_symbol
 _atom_site_label
 _atom_site_symmetry_multiplicity
 _atom_site_fract_x
 _atom_site_fract_y
 _atom_site_fract_z
 _atom_site_occupancy
  Ca  Ca0  1  0.000000  0.000000  0.000000  1
  Zr  Zr1  1  0.000000  0.000000  0.500000  1
  Ta  Ta2  1  0.986235  0.493118  0.263064  1
  Ta  Ta3  1  0.013765  0.506882  0.736936  1
  Ta  Ta4  1  0.493055  0.506343  0.736867  1
  Ta  Ta5  1  0.506945  0.013287  0.263133  1
  Ta  Ta6  1  0.000380  0.000189  0.735627  1
  Ta  Ta7  1  0.999620  0.999811  0.264373  1
  Ta  Ta8  1  0.506945  0.493657  0.263133  1
  Ta  Ta9  1  0.493055  0.986713  0.736867  1
  Se  Se10  1  0.333452  0.666727  0.617075  1
  Se  Se11  1  0.666691  0.333344  0.142562  1
  Se  Se12  1  0.666548  0.333273  0.382925  1
  Se  Se13  1  0.333309  0.666656  0.857438  1
  Se  Se14  1  0.170469  0.340656  0.379605  1
  Se  Se15  1  0.831417  0.168277  0.852150  1
  Se  Se16  1  0.336849  0.168423  0.852262  1
  Se  Se17  1  0.658964  0.829483  0.379760  1
  Se  Se18  1  0.170469  0.829813  0.379605  1
  Se  Se19  1  0.831417  0.663141  0.852150  1
  Se  Se20  1  0.168583  0.336859  0.147850  1
  Se  Se21  1  0.829531  0.170187  0.620395  1
  Se  Se22  1  0.341036  0.170517  0.620240  1
  Se  Se23  1  0.663151  0.831577  0.147738  1
  Se  Se24  1  0.168583  0.831723  0.147850  1
  Se  Se25  1  0.829531  0.659344  0.620395  1
