# generated using pymatgen
data_K2Rb4ErInSb4
_symmetry_space_group_name_H-M   'P 1'
_cell_length_a   10.13998595
_cell_length_b   10.13998569
_cell_length_c   10.13998562
_cell_angle_alpha   131.56255341
_cell_angle_beta   66.59835182
_cell_angle_gamma   137.20060033
_symmetry_Int_Tables_number   1
_chemical_formula_structural   K2Rb4ErInSb4
_chemical_formula_sum   'K2 Rb4 Er1 In1 Sb4'
_cell_volume   521.72388287
_cell_formula_units_Z   1
loop_
 _symmetry_equiv_pos_site_id
 _symmetry_equiv_pos_as_xyz
  1  'x, y, z'
loop_
 _atom_site_type_symbol
 _atom_site_label
 _atom_site_symmetry_multiplicity
 _atom_site_fract_x
 _atom_site_fract_y
 _atom_site_fract_z
 _atom_site_occupancy
  K  K0  1  0.250001  0.250001  0.000000  1
  K  K1  1  0.750000  0.750000  0.000000  1
  Rb  Rb2  1  0.827680  0.287623  0.102081  1
  Rb  Rb3  1  0.672320  0.774400  0.459943  1
  Rb  Rb4  1  0.314457  0.212376  0.540057  1
  Rb  Rb5  1  0.185543  0.725599  0.897919  1
  Er  Er6  1  0.750001  0.250001  0.500000  1
  In  In7  1  0.250001  0.750001  0.500000  1
  Sb  Sb8  1  0.395646  0.796261  0.201032  1
  Sb  Sb9  1  0.104354  0.305385  0.400615  1
  Sb  Sb10  1  0.904771  0.703739  0.599385  1
  Sb  Sb11  1  0.595229  0.194615  0.798968  1
