# generated using pymatgen
data_Er2Si3HgP3Pd20
_symmetry_space_group_name_H-M   'P 1'
_cell_length_a   8.66480194
_cell_length_b   8.67552392
_cell_length_c   8.67552400
_cell_angle_alpha   59.99999209
_cell_angle_beta   59.95905017
_cell_angle_gamma   59.95904915
_symmetry_Int_Tables_number   1
_chemical_formula_structural   Er2Si3HgP3Pd20
_chemical_formula_sum   'Er2 Si3 Hg1 P3 Pd20'
_cell_volume   460.85675085
_cell_formula_units_Z   1
loop_
 _symmetry_equiv_pos_site_id
 _symmetry_equiv_pos_as_xyz
  1  'x, y, z'
loop_
 _atom_site_type_symbol
 _atom_site_label
 _atom_site_symmetry_multiplicity
 _atom_site_fract_x
 _atom_site_fract_y
 _atom_site_fract_z
 _atom_site_occupancy
  Er  Er0  1  0.996046  0.001318  0.001318  1
  Er  Er1  1  0.253311  0.248896  0.248896  1
  Si  Si2  1  0.733018  0.268696  0.268696  1
  Si  Si3  1  0.733018  0.729589  0.268696  1
  Si  Si4  1  0.733018  0.268696  0.729589  1
  Hg  Hg5  1  0.752476  0.749175  0.749175  1
  P  P6  1  0.268531  0.733572  0.264326  1
  P  P7  1  0.268531  0.733572  0.733572  1
  P  P8  1  0.268531  0.264326  0.733572  1
  Pd  Pd9  1  0.339017  0.004512  0.004512  1
  Pd  Pd10  1  0.002723  0.654718  0.342928  1
  Pd  Pd11  1  0.339017  0.004512  0.651958  1
  Pd  Pd12  1  0.002723  0.654718  0.999631  1
  Pd  Pd13  1  0.652719  0.340701  0.003290  1
  Pd  Pd14  1  0.617227  0.619263  0.144247  1
  Pd  Pd15  1  0.383255  0.844705  0.386021  1
  Pd  Pd16  1  0.150063  0.616646  0.616646  1
  Pd  Pd17  1  0.652719  0.003290  0.340701  1
  Pd  Pd18  1  0.002723  0.342928  0.654718  1
  Pd  Pd19  1  0.652719  0.003290  0.003290  1
  Pd  Pd20  1  0.002723  0.999631  0.342928  1
  Pd  Pd21  1  0.617227  0.144247  0.619263  1
  Pd  Pd22  1  0.339017  0.651958  0.004512  1
  Pd  Pd23  1  0.383255  0.386021  0.386021  1
  Pd  Pd24  1  0.617227  0.619263  0.619263  1
  Pd  Pd25  1  0.383255  0.386021  0.844705  1
  Pd  Pd26  1  0.002723  0.999631  0.654718  1
  Pd  Pd27  1  0.850465  0.383179  0.383179  1
  Pd  Pd28  1  0.002723  0.342928  0.999631  1
