# generated using pymatgen
data_Rb3Ho(SiO3)3
_symmetry_space_group_name_H-M   'P 1'
_cell_length_a   6.71779427
_cell_length_b   6.76265277
_cell_length_c   6.78020200
_cell_angle_alpha   109.04077216
_cell_angle_beta   106.78593155
_cell_angle_gamma   107.51913646
_symmetry_Int_Tables_number   1
_chemical_formula_structural   Rb3Ho(SiO3)3
_chemical_formula_sum   'Rb3 Ho1 Si3 O9'
_cell_volume   250.77580024
_cell_formula_units_Z   1
loop_
 _symmetry_equiv_pos_site_id
 _symmetry_equiv_pos_as_xyz
  1  'x, y, z'
loop_
 _atom_site_type_symbol
 _atom_site_label
 _atom_site_symmetry_multiplicity
 _atom_site_fract_x
 _atom_site_fract_y
 _atom_site_fract_z
 _atom_site_occupancy
  Rb  Rb0  1  0.742844  0.888967  0.228116  1
  Rb  Rb1  1  0.584264  0.814844  0.644367  1
  Rb  Rb2  1  0.329795  0.172331  0.665035  1
  Ho  Ho3  1  0.063656  0.376907  0.100782  1
  Si  Si4  1  0.186297  0.901009  0.081117  1
  Si  Si5  1  0.595637  0.342028  0.236178  1
  Si  Si6  1  0.034579  0.490726  0.634198  1
  O  O7  1  0.696698  0.250411  0.053508  1
  O  O8  1  0.436347  0.467435  0.165191  1
  O  O9  1  0.117838  0.747922  0.211899  1
  O  O10  1  0.448250  0.115934  0.268082  1
  O  O11  1  0.159390  0.427741  0.467379  1
  O  O12  1  0.806427  0.526912  0.499850  1
  O  O13  1  0.957972  0.298401  0.724752  1
  O  O14  1  0.223888  0.751066  0.855551  1
  O  O15  1  0.009727  0.005914  0.000494  1
