# generated using pymatgen
data_LuNb3(PO4)6
_symmetry_space_group_name_H-M   'P 1'
_cell_length_a   8.87109946
_cell_length_b   8.86706134
_cell_length_c   9.16862568
_cell_angle_alpha   90.09905691
_cell_angle_beta   118.84093334
_cell_angle_gamma   120.00665004
_symmetry_Int_Tables_number   1
_chemical_formula_structural   LuNb3(PO4)6
_chemical_formula_sum   'Lu1 Nb3 P6 O24'
_cell_volume   518.25423393
_cell_formula_units_Z   1
loop_
 _symmetry_equiv_pos_site_id
 _symmetry_equiv_pos_as_xyz
  1  'x, y, z'
loop_
 _atom_site_type_symbol
 _atom_site_label
 _atom_site_symmetry_multiplicity
 _atom_site_fract_x
 _atom_site_fract_y
 _atom_site_fract_z
 _atom_site_occupancy
  Lu  Lu0  1  0.220334  0.861373  0.081576  1
  Nb  Nb1  1  0.786968  0.642467  0.429990  1
  Nb  Nb2  1  0.214123  0.357926  0.571232  1
  Nb  Nb3  1  0.784561  0.141256  0.926385  1
  P  P4  1  0.984674  0.962103  0.248738  1
  P  P5  1  0.286532  0.523017  0.250702  1
  P  P6  1  0.285368  0.753416  0.748324  1
  P  P7  1  0.727139  0.262873  0.252028  1
  P  P8  1  0.717829  0.464877  0.749541  1
  P  P9  1  0.998961  0.033786  0.751539  1
  O  O10  1  0.300251  0.695732  0.228421  1
  O  O11  1  0.845858  0.989616  0.080709  1
  O  O12  1  0.857054  0.857921  0.590997  1
  O  O13  1  0.834519  0.796531  0.281308  1
  O  O14  1  0.128317  0.929250  0.235472  1
  O  O15  1  0.485496  0.539696  0.284314  1
  O  O16  1  0.092924  0.731675  0.582865  1
  O  O17  1  0.890965  0.631338  0.909780  1
  O  O18  1  0.280105  0.767665  0.908331  1
  O  O19  1  0.487370  0.928444  0.776709  1
  O  O20  1  0.731106  0.492489  0.587407  1
  O  O21  1  0.737481  0.443076  0.277817  1
  O  O22  1  0.294128  0.587084  0.710251  1
  O  O23  1  0.281195  0.490561  0.414227  1
  O  O24  1  0.536337  0.103437  0.235352  1
  O  O25  1  0.733605  0.233721  0.088234  1
  O  O26  1  0.091301  0.350769  0.087228  1
  O  O27  1  0.927557  0.299358  0.417679  1
  O  O28  1  0.500372  0.413900  0.702939  1
  O  O29  1  0.850473  0.060831  0.776597  1
  O  O30  1  0.122300  0.204458  0.706463  1
  O  O31  1  0.113349  0.132702  0.408582  1
  O  O32  1  0.149364  0.023293  0.915848  1
  O  O33  1  0.722089  0.293359  0.782415  1
