# generated using pymatgen
data_Tb16NiHg4Rh3
_symmetry_space_group_name_H-M   'P 1'
_cell_length_a   9.63671698
_cell_length_b   9.63051129
_cell_length_c   9.63671600
_cell_angle_alpha   59.97868522
_cell_angle_beta   60.00000337
_cell_angle_gamma   59.97868211
_symmetry_Int_Tables_number   1
_chemical_formula_structural   Tb16NiHg4Rh3
_chemical_formula_sum   'Tb16 Ni1 Hg4 Rh3'
_cell_volume   632.19712920
_cell_formula_units_Z   1
loop_
 _symmetry_equiv_pos_site_id
 _symmetry_equiv_pos_as_xyz
  1  'x, y, z'
loop_
 _atom_site_type_symbol
 _atom_site_label
 _atom_site_symmetry_multiplicity
 _atom_site_fract_x
 _atom_site_fract_y
 _atom_site_fract_z
 _atom_site_occupancy
  Tb  Tb0  1  0.810711  0.811540  0.188874  1
  Tb  Tb1  1  0.811231  0.190378  0.811231  1
  Tb  Tb2  1  0.187161  0.190378  0.811231  1
  Tb  Tb3  1  0.649147  0.052558  0.649147  1
  Tb  Tb4  1  0.063911  0.063506  0.436291  1
  Tb  Tb5  1  0.434157  0.437067  0.064388  1
  Tb  Tb6  1  0.651823  0.646261  0.651823  1
  Tb  Tb7  1  0.811231  0.190378  0.187161  1
  Tb  Tb8  1  0.188874  0.811540  0.810711  1
  Tb  Tb9  1  0.050093  0.646261  0.651823  1
  Tb  Tb10  1  0.436291  0.063506  0.063911  1
  Tb  Tb11  1  0.436291  0.063506  0.436291  1
  Tb  Tb12  1  0.064388  0.437067  0.064388  1
  Tb  Tb13  1  0.651823  0.646261  0.050093  1
  Tb  Tb14  1  0.188874  0.811540  0.188874  1
  Tb  Tb15  1  0.064388  0.437067  0.434157  1
  Ni  Ni16  1  0.857802  0.426593  0.857802  1
  Hg  Hg17  1  0.415527  0.416592  0.415527  1
  Hg  Hg18  1  0.415527  0.416592  0.752353  1
  Hg  Hg19  1  0.415971  0.752087  0.415971  1
  Hg  Hg20  1  0.752353  0.416592  0.415527  1
  Rh  Rh21  1  0.857534  0.857575  0.857534  1
  Rh  Rh22  1  0.857534  0.857575  0.427356  1
  Rh  Rh23  1  0.427356  0.857575  0.857534  1
