# generated using pymatgen
data_PrNd5(CCl3)2
_symmetry_space_group_name_H-M   'P 1'
_cell_length_a   9.67742533
_cell_length_b   9.68461391
_cell_length_c   9.68339556
_cell_angle_alpha   109.50584744
_cell_angle_beta   109.47496323
_cell_angle_gamma   109.45189509
_symmetry_Int_Tables_number   1
_chemical_formula_structural   PrNd5(CCl3)2
_chemical_formula_sum   'Pr2 Nd10 C4 Cl12'
_cell_volume   698.46675074
_cell_formula_units_Z   2
loop_
 _symmetry_equiv_pos_site_id
 _symmetry_equiv_pos_as_xyz
  1  'x, y, z'
loop_
 _atom_site_type_symbol
 _atom_site_label
 _atom_site_symmetry_multiplicity
 _atom_site_fract_x
 _atom_site_fract_y
 _atom_site_fract_z
 _atom_site_occupancy
  Pr  Pr0  1  0.032737  0.266155  0.016360  1
  Pr  Pr1  1  0.266513  0.749948  0.233621  1
  Nd  Nd2  1  0.482764  0.750393  0.017984  1
  Nd  Nd3  1  0.750685  0.232659  0.267771  1
  Nd  Nd4  1  0.232532  0.267531  0.749881  1
  Nd  Nd5  1  0.464747  0.482556  0.232337  1
  Nd  Nd6  1  0.267738  0.017567  0.035269  1
  Nd  Nd7  1  0.232641  0.464786  0.482063  1
  Nd  Nd8  1  0.017735  0.035190  0.267640  1
  Nd  Nd9  1  0.017715  0.482445  0.749718  1
  Nd  Nd10  1  0.482839  0.232739  0.464983  1
  Nd  Nd11  1  0.750306  0.017693  0.482371  1
  C  C12  1  0.251459  0.249862  0.251316  1
  C  C13  1  0.000226  0.250072  0.499978  1
  C  C14  1  0.251445  0.500058  0.998429  1
  C  C15  1  0.501677  0.001548  0.250182  1
  Cl  Cl16  1  0.995113  0.987193  0.742163  1
  Cl  Cl17  1  0.755421  0.744852  0.249986  1
  Cl  Cl18  1  0.987252  0.744984  0.992147  1
  Cl  Cl19  1  0.250385  0.996867  0.507314  1
  Cl  Cl20  1  0.742960  0.992678  0.989361  1
  Cl  Cl21  1  0.505358  0.250000  0.994949  1
  Cl  Cl22  1  0.743044  0.250299  0.753484  1
  Cl  Cl23  1  0.508139  0.755327  0.513036  1
  Cl  Cl24  1  0.755233  0.510358  0.505161  1
  Cl  Cl25  1  0.250095  0.755083  0.744739  1
  Cl  Cl26  1  0.510367  0.505155  0.755169  1
  Cl  Cl27  1  0.992875  0.506003  0.252588  1
