# generated using pymatgen
data_YbDy3Al24Pt7Au2
_symmetry_space_group_name_H-M   'P 1'
_cell_length_a   7.56678200
_cell_length_b   7.59258677
_cell_length_c   13.19984711
_cell_angle_alpha   84.59212513
_cell_angle_beta   79.05923800
_cell_angle_gamma   59.89830837
_symmetry_Int_Tables_number   1
_chemical_formula_structural   YbDy3Al24Pt7Au2
_chemical_formula_sum   'Yb1 Dy3 Al24 Pt7 Au2'
_cell_volume   644.15135785
_cell_formula_units_Z   1
loop_
 _symmetry_equiv_pos_site_id
 _symmetry_equiv_pos_as_xyz
  1  'x, y, z'
loop_
 _atom_site_type_symbol
 _atom_site_label
 _atom_site_symmetry_multiplicity
 _atom_site_fract_x
 _atom_site_fract_y
 _atom_site_fract_z
 _atom_site_occupancy
  Yb  Yb0  1  0.392561  0.169257  0.808675  1
  Dy  Dy1  1  0.607099  0.831042  0.190795  1
  Dy  Dy2  1  0.733876  0.498611  0.809684  1
  Dy  Dy3  1  0.266126  0.500784  0.190029  1
  Al  Al4  1  0.683212  0.834555  0.944949  1
  Al  Al5  1  0.316765  0.165648  0.053918  1
  Al  Al6  1  0.146040  0.838802  0.561750  1
  Al  Al7  1  0.853516  0.161224  0.438429  1
  Al  Al8  1  0.487632  0.159373  0.559523  1
  Al  Al9  1  0.512094  0.840784  0.441219  1
  Al  Al10  1  0.223047  0.160799  0.325879  1
  Al  Al11  1  0.776096  0.840132  0.674128  1
  Al  Al12  1  0.440244  0.506132  0.674385  1
  Al  Al13  1  0.560062  0.493128  0.325787  1
  Al  Al14  1  0.109588  0.154845  0.673028  1
  Al  Al15  1  0.890950  0.845288  0.327152  1
  Al  Al16  1  0.353020  0.498786  0.944570  1
  Al  Al17  1  0.646894  0.500976  0.055104  1
  Al  Al18  1  0.016043  0.167219  0.953668  1
  Al  Al19  1  0.984644  0.832423  0.045891  1
  Al  Al20  1  0.195086  0.499258  0.438171  1
  Al  Al21  1  0.804942  0.500499  0.562186  1
  Al  Al22  1  0.733221  0.164555  0.183173  1
  Al  Al23  1  0.267540  0.834334  0.816884  1
  Al  Al24  1  0.058731  0.634977  0.818063  1
  Al  Al25  1  0.939574  0.366197  0.182081  1
  Al  Al26  1  0.855135  0.042925  0.816468  1
  Al  Al27  1  0.145628  0.957601  0.183572  1
  Pt  Pt28  1  0.657282  0.171563  0.000709  1
  Pt  Pt29  1  0.342536  0.827998  0.001085  1
  Pt  Pt30  1  0.537349  0.167007  0.361930  1
  Pt  Pt31  1  0.462369  0.832897  0.637229  1
  Pt  Pt32  1  0.780734  0.174808  0.635976  1
  Pt  Pt33  1  0.220437  0.824968  0.363319  1
  Pt  Pt34  1  0.999447  0.500446  0.000910  1
  Au  Au35  1  0.120652  0.490963  0.637786  1
  Au  Au36  1  0.879825  0.509197  0.361892  1
