# generated using pymatgen
data_Li2YPaPt2
_symmetry_space_group_name_H-M   'P 1'
_cell_length_a   3.99931100
_cell_length_b   7.04187100
_cell_length_c   8.42890300
_cell_angle_alpha   90.00000000
_cell_angle_beta   90.00000000
_cell_angle_gamma   90.00000000
_symmetry_Int_Tables_number   1
_chemical_formula_structural   Li2YPaPt2
_chemical_formula_sum   'Li4 Y2 Pa2 Pt4'
_cell_volume   237.38009462
_cell_formula_units_Z   2
loop_
 _symmetry_equiv_pos_site_id
 _symmetry_equiv_pos_as_xyz
  1  'x, y, z'
loop_
 _atom_site_type_symbol
 _atom_site_label
 _atom_site_symmetry_multiplicity
 _atom_site_fract_x
 _atom_site_fract_y
 _atom_site_fract_z
 _atom_site_occupancy
  Li  Li0  1  0.250000  0.126288  0.059881  1
  Li  Li1  1  0.250000  0.626288  0.440119  1
  Li  Li2  1  0.750000  0.878521  0.944359  1
  Li  Li3  1  0.750000  0.378521  0.555641  1
  Y  Y4  1  0.750000  0.946473  0.311188  1
  Y  Y5  1  0.750000  0.446473  0.188812  1
  Pa  Pa6  1  0.250000  0.048213  0.686221  1
  Pa  Pa7  1  0.250000  0.548213  0.813779  1
  Pt  Pt8  1  0.250000  0.236724  0.390355  1
  Pt  Pt9  1  0.250000  0.736724  0.109645  1
  Pt  Pt10  1  0.750000  0.763780  0.636302  1
  Pt  Pt11  1  0.750000  0.263780  0.863698  1
