# generated using pymatgen
data_TaNb2V3Ga5
_symmetry_space_group_name_H-M   'P 1'
_cell_length_a   8.73233100
_cell_length_b   8.72630053
_cell_length_c   5.25285500
_cell_angle_alpha   90.00000000
_cell_angle_beta   90.00000000
_cell_angle_gamma   120.02286679
_symmetry_Int_Tables_number   1
_chemical_formula_structural   TaNb2V3Ga5
_chemical_formula_sum   'Ta2 Nb4 V6 Ga10'
_cell_volume   346.56626250
_cell_formula_units_Z   2
loop_
 _symmetry_equiv_pos_site_id
 _symmetry_equiv_pos_as_xyz
  1  'x, y, z'
loop_
 _atom_site_type_symbol
 _atom_site_label
 _atom_site_symmetry_multiplicity
 _atom_site_fract_x
 _atom_site_fract_y
 _atom_site_fract_z
 _atom_site_occupancy
  Ta  Ta0  1  0.691812  0.846272  0.250000  1
  Ta  Ta1  1  0.845538  0.153728  0.750000  1
  Nb  Nb2  1  0.153877  0.846278  0.250000  1
  Nb  Nb3  1  0.845927  0.692393  0.750000  1
  Nb  Nb4  1  0.307597  0.153722  0.750000  1
  Nb  Nb5  1  0.153536  0.307607  0.250000  1
  V  V6  1  0.500776  0.000000  0.000000  1
  V  V7  1  0.999737  0.499489  0.999732  1
  V  V8  1  0.500776  0.000000  0.500000  1
  V  V9  1  0.500248  0.500511  0.000268  1
  V  V10  1  0.999737  0.499489  0.500268  1
  V  V11  1  0.500248  0.500511  0.499732  1
  Ga  Ga12  1  0.000180  0.000000  0.000000  1
  Ga  Ga13  1  0.786474  0.213527  0.250000  1
  Ga  Ga14  1  0.213528  0.426900  0.750000  1
  Ga  Ga15  1  0.572947  0.786473  0.750000  1
  Ga  Ga16  1  0.786628  0.573100  0.250000  1
  Ga  Ga17  1  0.000180  0.000000  0.500000  1
  Ga  Ga18  1  0.426896  0.213357  0.250000  1
  Ga  Ga19  1  0.213539  0.786643  0.750000  1
  Ga  Ga20  1  0.666576  0.333335  0.750000  1
  Ga  Ga21  1  0.333241  0.666665  0.250000  1
