# generated using pymatgen
data_La3Nd3IrBr10
_symmetry_space_group_name_H-M   'P 1'
_cell_length_a   7.76723169
_cell_length_b   9.69348661
_cell_length_c   9.63632990
_cell_angle_alpha   108.22937285
_cell_angle_beta   96.19335997
_cell_angle_gamma   107.11093360
_symmetry_Int_Tables_number   1
_chemical_formula_structural   La3Nd3IrBr10
_chemical_formula_sum   'La3 Nd3 Ir1 Br10'
_cell_volume   642.44710863
_cell_formula_units_Z   1
loop_
 _symmetry_equiv_pos_site_id
 _symmetry_equiv_pos_as_xyz
  1  'x, y, z'
loop_
 _atom_site_type_symbol
 _atom_site_label
 _atom_site_symmetry_multiplicity
 _atom_site_fract_x
 _atom_site_fract_y
 _atom_site_fract_z
 _atom_site_occupancy
  La  La0  1  0.133697  0.054874  0.762313  1
  La  La1  1  0.630025  0.853594  0.808949  1
  La  La2  1  0.868397  0.947907  0.238425  1
  Nd  Nd3  1  0.030321  0.697406  0.903324  1
  Nd  Nd4  1  0.364484  0.142259  0.185989  1
  Nd  Nd5  1  0.971498  0.303519  0.099454  1
  Ir  Ir6  1  0.999034  0.999833  0.999036  1
  Br  Br7  1  0.203218  0.744411  0.651995  1
  Br  Br8  1  0.650273  0.538545  0.727890  1
  Br  Br9  1  0.248583  0.082222  0.452214  1
  Br  Br10  1  0.789204  0.254520  0.345647  1
  Br  Br11  1  0.553528  0.174116  0.924672  1
  Br  Br12  1  0.756499  0.920357  0.544268  1
  Br  Br13  1  0.911668  0.628004  0.165153  1
  Br  Br14  1  0.354197  0.456055  0.273581  1
  Br  Br15  1  0.089966  0.373639  0.837243  1
  Br  Br16  1  0.445406  0.828741  0.079847  1
