# generated using pymatgen
data_Yb2Dy2TmIr2
_symmetry_space_group_name_H-M   'P 1'
_cell_length_a   6.49500424
_cell_length_b   7.25775046
_cell_length_c   8.46410704
_cell_angle_alpha   97.14526585
_cell_angle_beta   112.56177432
_cell_angle_gamma   89.99999761
_symmetry_Int_Tables_number   1
_chemical_formula_structural   Yb2Dy2TmIr2
_chemical_formula_sum   'Yb4 Dy4 Tm2 Ir4'
_cell_volume   365.09673723
_cell_formula_units_Z   2
loop_
 _symmetry_equiv_pos_site_id
 _symmetry_equiv_pos_as_xyz
  1  'x, y, z'
loop_
 _atom_site_type_symbol
 _atom_site_label
 _atom_site_symmetry_multiplicity
 _atom_site_fract_x
 _atom_site_fract_y
 _atom_site_fract_z
 _atom_site_occupancy
  Yb  Yb0  1  0.974140  0.920792  0.183054  1
  Yb  Yb1  1  0.791086  0.579208  0.816946  1
  Yb  Yb2  1  0.025860  0.079208  0.816946  1
  Yb  Yb3  1  0.208914  0.420792  0.183054  1
  Dy  Dy4  1  0.647737  0.817632  0.439052  1
  Dy  Dy5  1  0.208685  0.682368  0.560948  1
  Dy  Dy6  1  0.352263  0.182368  0.560948  1
  Dy  Dy7  1  0.791315  0.317632  0.439052  1
  Tm  Tm8  1  0.432414  0.750000  0.000000  1
  Tm  Tm9  1  0.567586  0.250000  0.000000  1
  Ir  Ir10  1  0.811435  0.572934  0.224724  1
  Ir  Ir11  1  0.586710  0.927066  0.775276  1
  Ir  Ir12  1  0.188566  0.427066  0.775276  1
  Ir  Ir13  1  0.413290  0.072934  0.224724  1
