# generated using pymatgen
data_HfNi3GeAu
_symmetry_space_group_name_H-M   'P 1'
_cell_length_a   4.80510129
_cell_length_b   4.80510145
_cell_length_c   4.80510171
_cell_angle_alpha   62.56928729
_cell_angle_beta   62.56928868
_cell_angle_gamma   62.56927855
_symmetry_Int_Tables_number   1
_chemical_formula_structural   HfNi3GeAu
_chemical_formula_sum   'Hf1 Ni3 Ge1 Au1'
_cell_volume   82.93944130
_cell_formula_units_Z   1
loop_
 _symmetry_equiv_pos_site_id
 _symmetry_equiv_pos_as_xyz
  1  'x, y, z'
loop_
 _atom_site_type_symbol
 _atom_site_label
 _atom_site_symmetry_multiplicity
 _atom_site_fract_x
 _atom_site_fract_y
 _atom_site_fract_z
 _atom_site_occupancy
  Hf  Hf0  1  0.248803  0.248803  0.248803  1
  Ni  Ni1  1  0.124496  0.625982  0.625982  1
  Ni  Ni2  1  0.625982  0.124496  0.625982  1
  Ni  Ni3  1  0.625982  0.625982  0.124496  1
  Ge  Ge4  1  0.625278  0.625278  0.625278  1
  Au  Au5  1  0.999460  0.999460  0.999460  1
