# generated using pymatgen
data_Na4(Al8Pt3)3
_symmetry_space_group_name_H-M   'P 1'
_cell_length_a   7.45299104
_cell_length_b   7.47739581
_cell_length_c   13.53457510
_cell_angle_alpha   84.51854700
_cell_angle_beta   78.89962002
_cell_angle_gamma   59.94485488
_symmetry_Int_Tables_number   1
_chemical_formula_structural   Na4(Al8Pt3)3
_chemical_formula_sum   'Na4 Al24 Pt9'
_cell_volume   640.63752417
_cell_formula_units_Z   1
loop_
 _symmetry_equiv_pos_site_id
 _symmetry_equiv_pos_as_xyz
  1  'x, y, z'
loop_
 _atom_site_type_symbol
 _atom_site_label
 _atom_site_symmetry_multiplicity
 _atom_site_fract_x
 _atom_site_fract_y
 _atom_site_fract_z
 _atom_site_occupancy
  Na  Na0  1  0.394791  0.168787  0.807056  1
  Na  Na1  1  0.605209  0.831213  0.192944  1
  Na  Na2  1  0.733920  0.499287  0.806920  1
  Na  Na3  1  0.266080  0.500713  0.193080  1
  Al  Al4  1  0.685111  0.833777  0.949505  1
  Al  Al5  1  0.314889  0.166223  0.050495  1
  Al  Al6  1  0.147975  0.831806  0.558290  1
  Al  Al7  1  0.852025  0.168194  0.441710  1
  Al  Al8  1  0.479701  0.167010  0.558381  1
  Al  Al9  1  0.520299  0.832990  0.441619  1
  Al  Al10  1  0.217707  0.165801  0.328133  1
  Al  Al11  1  0.782293  0.834199  0.671867  1
  Al  Al12  1  0.435658  0.507283  0.673630  1
  Al  Al13  1  0.564342  0.492717  0.326370  1
  Al  Al14  1  0.108478  0.159722  0.672095  1
  Al  Al15  1  0.891522  0.840278  0.327905  1
  Al  Al16  1  0.349924  0.500685  0.949513  1
  Al  Al17  1  0.650076  0.499315  0.050487  1
  Al  Al18  1  0.015333  0.166136  0.952946  1
  Al  Al19  1  0.984667  0.833864  0.047054  1
  Al  Al20  1  0.185634  0.499419  0.441784  1
  Al  Al21  1  0.814366  0.500581  0.558216  1
  Al  Al22  1  0.727800  0.164557  0.182495  1
  Al  Al23  1  0.272200  0.835443  0.817505  1
  Al  Al24  1  0.062390  0.624795  0.815851  1
  Al  Al25  1  0.937610  0.375205  0.184149  1
  Al  Al26  1  0.850219  0.047181  0.815954  1
  Al  Al27  1  0.149781  0.952819  0.184046  1
  Pt  Pt28  1  0.122218  0.493143  0.634877  1
  Pt  Pt29  1  0.877782  0.506857  0.365123  1
  Pt  Pt30  1  0.658961  0.170296  0.999609  1
  Pt  Pt31  1  0.341039  0.829704  0.000391  1
  Pt  Pt32  1  0.537850  0.166927  0.365586  1
  Pt  Pt33  1  0.462150  0.833073  0.634414  1
  Pt  Pt34  1  0.781801  0.173009  0.634202  1
  Pt  Pt35  1  0.218199  0.826991  0.365798  1
  Pt  Pt36  1  0.000000  0.500000  0.000000  1
