# generated using pymatgen
data_Li2CeEuIr2
_symmetry_space_group_name_H-M   'P 1'
_cell_length_a   4.01821200
_cell_length_b   7.24443796
_cell_length_c   8.65444100
_cell_angle_alpha   87.55762229
_cell_angle_beta   90.00000000
_cell_angle_gamma   90.00000000
_symmetry_Int_Tables_number   1
_chemical_formula_structural   Li2CeEuIr2
_chemical_formula_sum   'Li4 Ce2 Eu2 Ir4'
_cell_volume   251.69921800
_cell_formula_units_Z   2
loop_
 _symmetry_equiv_pos_site_id
 _symmetry_equiv_pos_as_xyz
  1  'x, y, z'
loop_
 _atom_site_type_symbol
 _atom_site_label
 _atom_site_symmetry_multiplicity
 _atom_site_fract_x
 _atom_site_fract_y
 _atom_site_fract_z
 _atom_site_occupancy
  Li  Li0  1  0.250000  0.633193  0.552624  1
  Li  Li1  1  0.750000  0.366807  0.447376  1
  Li  Li2  1  0.750000  0.879383  0.051994  1
  Li  Li3  1  0.250000  0.120617  0.948006  1
  Ce  Ce4  1  0.750000  0.951130  0.679945  1
  Ce  Ce5  1  0.250000  0.048870  0.320055  1
  Eu  Eu6  1  0.250000  0.548736  0.179819  1
  Eu  Eu7  1  0.750000  0.451264  0.820181  1
  Ir  Ir8  1  0.250000  0.763534  0.851033  1
  Ir  Ir9  1  0.750000  0.236466  0.148967  1
  Ir  Ir10  1  0.750000  0.786075  0.374566  1
  Ir  Ir11  1  0.250000  0.213925  0.625434  1
