# generated using pymatgen
data_Cs2Cu3PdF12
_symmetry_space_group_name_H-M   'P 1'
_cell_length_a   7.85282311
_cell_length_b   7.85807083
_cell_length_c   7.86390436
_cell_angle_alpha   54.48824202
_cell_angle_beta   54.44742941
_cell_angle_gamma   54.50453667
_symmetry_Int_Tables_number   1
_chemical_formula_structural   Cs2Cu3PdF12
_chemical_formula_sum   'Cs2 Cu3 Pd1 F12'
_cell_volume   298.97382945
_cell_formula_units_Z   1
loop_
 _symmetry_equiv_pos_site_id
 _symmetry_equiv_pos_as_xyz
  1  'x, y, z'
loop_
 _atom_site_type_symbol
 _atom_site_label
 _atom_site_symmetry_multiplicity
 _atom_site_fract_x
 _atom_site_fract_y
 _atom_site_fract_z
 _atom_site_occupancy
  Cs  Cs0  1  0.888196  0.888159  0.888141  1
  Cs  Cs1  1  0.111804  0.111841  0.111859  1
  Cu  Cu2  1  0.500000  0.500000  0.000000  1
  Cu  Cu3  1  0.000000  0.500000  0.500000  1
  Cu  Cu4  1  0.500000  0.000000  0.500000  1
  Pd  Pd5  1  0.500000  0.500000  0.500000  1
  F  F6  1  0.815807  0.422511  0.815751  1
  F  F7  1  0.814000  0.813613  0.424803  1
  F  F8  1  0.424613  0.813833  0.814031  1
  F  F9  1  0.184193  0.577489  0.184249  1
  F  F10  1  0.186000  0.186387  0.575197  1
  F  F11  1  0.575387  0.186167  0.185969  1
  F  F12  1  0.423351  0.818738  0.423525  1
  F  F13  1  0.423540  0.423539  0.818357  1
  F  F14  1  0.818837  0.423402  0.423528  1
  F  F15  1  0.576649  0.181262  0.576475  1
  F  F16  1  0.576460  0.576461  0.181643  1
  F  F17  1  0.181163  0.576598  0.576472  1
