# generated using pymatgen
data_La2Ga2(Tc5C)3
_symmetry_space_group_name_H-M   'P 1'
_cell_length_a   7.02429819
_cell_length_b   7.02429984
_cell_length_c   6.98965161
_cell_angle_alpha   82.60414649
_cell_angle_beta   82.60414148
_cell_angle_gamma   82.90228143
_symmetry_Int_Tables_number   1
_chemical_formula_structural   La2Ga2(Tc5C)3
_chemical_formula_sum   'La2 Ga2 Tc15 C3'
_cell_volume   337.14714006
_cell_formula_units_Z   1
loop_
 _symmetry_equiv_pos_site_id
 _symmetry_equiv_pos_as_xyz
  1  'x, y, z'
loop_
 _atom_site_type_symbol
 _atom_site_label
 _atom_site_symmetry_multiplicity
 _atom_site_fract_x
 _atom_site_fract_y
 _atom_site_fract_z
 _atom_site_occupancy
  La  La0  1  0.654607  0.654607  0.653381  1
  La  La1  1  0.345393  0.345393  0.346619  1
  Ga  Ga2  1  0.500000  0.000000  0.000000  1
  Ga  Ga3  1  0.000000  0.500000  0.000000  1
  Tc  Tc4  1  0.000000  0.000000  0.500000  1
  Tc  Tc5  1  0.723926  0.276074  0.000000  1
  Tc  Tc6  1  0.003228  0.726095  0.274593  1
  Tc  Tc7  1  0.273905  0.996772  0.725407  1
  Tc  Tc8  1  0.996772  0.273905  0.725407  1
  Tc  Tc9  1  0.726095  0.003228  0.274593  1
  Tc  Tc10  1  0.276074  0.723926  0.000000  1
  Tc  Tc11  1  0.353373  0.855604  0.352530  1
  Tc  Tc12  1  0.347667  0.347667  0.856448  1
  Tc  Tc13  1  0.855604  0.353373  0.352530  1
  Tc  Tc14  1  0.646627  0.144396  0.647470  1
  Tc  Tc15  1  0.652333  0.652333  0.143552  1
  Tc  Tc16  1  0.144396  0.646627  0.647470  1
  Tc  Tc17  1  0.906438  0.906438  0.898873  1
  Tc  Tc18  1  0.093562  0.093562  0.101127  1
  C  C19  1  0.500000  0.500000  0.000000  1
  C  C20  1  0.000000  0.500000  0.500000  1
  C  C21  1  0.500000  0.000000  0.500000  1
