# generated using pymatgen
data_Li4MgSn2Se7
_symmetry_space_group_name_H-M   'P 1'
_cell_length_a   9.94729799
_cell_length_b   9.94729764
_cell_length_c   10.91363852
_cell_angle_alpha   86.95621038
_cell_angle_beta   86.95620920
_cell_angle_gamma   43.51596060
_symmetry_Int_Tables_number   1
_chemical_formula_structural   Li4MgSn2Se7
_chemical_formula_sum   'Li8 Mg2 Sn4 Se14'
_cell_volume   742.34966286
_cell_formula_units_Z   2
loop_
 _symmetry_equiv_pos_site_id
 _symmetry_equiv_pos_as_xyz
  1  'x, y, z'
loop_
 _atom_site_type_symbol
 _atom_site_label
 _atom_site_symmetry_multiplicity
 _atom_site_fract_x
 _atom_site_fract_y
 _atom_site_fract_z
 _atom_site_occupancy
  Li  Li0  1  0.526867  0.182247  0.412109  1
  Li  Li1  1  0.182247  0.526867  0.912109  1
  Li  Li2  1  0.914744  0.219431  0.335331  1
  Li  Li3  1  0.219431  0.914744  0.835331  1
  Li  Li4  1  0.681283  0.310130  0.698137  1
  Li  Li5  1  0.310130  0.681283  0.198137  1
  Li  Li6  1  0.040649  0.384176  0.614399  1
  Li  Li7  1  0.384176  0.040649  0.114399  1
  Mg  Mg8  1  0.929661  0.636052  0.258818  1
  Mg  Mg9  1  0.636052  0.929661  0.758818  1
  Sn  Sn10  1  0.471351  0.809735  0.470022  1
  Sn  Sn11  1  0.809735  0.471351  0.970022  1
  Sn  Sn12  1  0.079604  0.768101  0.538299  1
  Sn  Sn13  1  0.768101  0.079604  0.038299  1
  Se  Se14  1  0.368387  0.690858  0.635071  1
  Se  Se15  1  0.690858  0.368387  0.135071  1
  Se  Se16  1  0.224262  0.548117  0.351928  1
  Se  Se17  1  0.548117  0.224262  0.851928  1
  Se  Se18  1  0.004869  0.638408  0.707948  1
  Se  Se19  1  0.638408  0.004869  0.207948  1
  Se  Se20  1  0.273764  0.940307  0.278988  1
  Se  Se21  1  0.940307  0.273764  0.778988  1
  Se  Se22  1  0.411875  0.077893  0.569295  1
  Se  Se23  1  0.077893  0.411875  0.069295  1
  Se  Se24  1  0.833817  0.512095  0.420048  1
  Se  Se25  1  0.512095  0.833817  0.920048  1
  Se  Se26  1  0.795815  0.130003  0.497939  1
  Se  Se27  1  0.130003  0.795815  0.997939  1
