# generated using pymatgen
data_CaTb(CeH4)6
_symmetry_space_group_name_H-M   'P 1'
_cell_length_a   6.77195600
_cell_length_b   6.77195600
_cell_length_c   6.77195600
_cell_angle_alpha   90.00000000
_cell_angle_beta   90.00000000
_cell_angle_gamma   90.00000000
_symmetry_Int_Tables_number   1
_chemical_formula_structural   CaTb(CeH4)6
_chemical_formula_sum   'Ca1 Tb1 Ce6 H24'
_cell_volume   310.55775817
_cell_formula_units_Z   1
loop_
 _symmetry_equiv_pos_site_id
 _symmetry_equiv_pos_as_xyz
  1  'x, y, z'
loop_
 _atom_site_type_symbol
 _atom_site_label
 _atom_site_symmetry_multiplicity
 _atom_site_fract_x
 _atom_site_fract_y
 _atom_site_fract_z
 _atom_site_occupancy
  Ca  Ca0  1  0.500000  0.500000  0.500000  1
  Tb  Tb1  1  0.000000  0.000000  0.000000  1
  Ce  Ce2  1  0.250766  0.000000  0.500000  1
  Ce  Ce3  1  0.749234  0.000000  0.500000  1
  Ce  Ce4  1  0.000000  0.500000  0.250766  1
  Ce  Ce5  1  0.000000  0.500000  0.749234  1
  Ce  Ce6  1  0.500000  0.749234  0.000000  1
  Ce  Ce7  1  0.500000  0.250766  0.000000  1
  H  H8  1  0.000000  0.153534  0.301275  1
  H  H9  1  0.500000  0.187507  0.656724  1
  H  H10  1  0.500000  0.812493  0.343276  1
  H  H11  1  0.812493  0.656724  0.500000  1
  H  H12  1  0.187507  0.656724  0.500000  1
  H  H13  1  0.343276  0.500000  0.812493  1
  H  H14  1  0.656724  0.500000  0.812493  1
  H  H15  1  0.301275  0.000000  0.153534  1
  H  H16  1  0.153534  0.301275  0.000000  1
  H  H17  1  0.846466  0.698725  0.000000  1
  H  H18  1  0.301275  0.000000  0.846466  1
  H  H19  1  0.846466  0.301275  0.000000  1
  H  H20  1  0.698725  0.000000  0.153534  1
  H  H21  1  0.698725  0.000000  0.846466  1
  H  H22  1  0.153534  0.698725  0.000000  1
  H  H23  1  0.000000  0.846466  0.698725  1
  H  H24  1  0.000000  0.153534  0.698725  1
  H  H25  1  0.000000  0.846466  0.301275  1
  H  H26  1  0.656724  0.500000  0.187507  1
  H  H27  1  0.343276  0.500000  0.187507  1
  H  H28  1  0.812493  0.343276  0.500000  1
  H  H29  1  0.187507  0.343276  0.500000  1
  H  H30  1  0.500000  0.812493  0.656724  1
  H  H31  1  0.500000  0.187507  0.343276  1
