# generated using pymatgen
data_LuPu2(SnIr)3
_symmetry_space_group_name_H-M   'P 1'
_cell_length_a   7.33335800
_cell_length_b   7.43939343
_cell_length_c   3.95874800
_cell_angle_alpha   90.00000000
_cell_angle_beta   90.00000000
_cell_angle_gamma   119.52961625
_symmetry_Int_Tables_number   1
_chemical_formula_structural   LuPu2(SnIr)3
_chemical_formula_sum   'Lu1 Pu2 Sn3 Ir3'
_cell_volume   187.91781805
_cell_formula_units_Z   1
loop_
 _symmetry_equiv_pos_site_id
 _symmetry_equiv_pos_as_xyz
  1  'x, y, z'
loop_
 _atom_site_type_symbol
 _atom_site_label
 _atom_site_symmetry_multiplicity
 _atom_site_fract_x
 _atom_site_fract_y
 _atom_site_fract_z
 _atom_site_occupancy
  Lu  Lu0  1  0.405703  0.000000  0.500000  1
  Pu  Pu1  1  0.001351  0.414625  0.500000  1
  Pu  Pu2  1  0.586726  0.585375  0.500000  1
  Sn  Sn3  1  0.006311  0.749299  0.000000  1
  Sn  Sn4  1  0.257012  0.250701  0.000000  1
  Sn  Sn5  1  0.735749  0.000000  0.000000  1
  Ir  Ir6  1  0.332179  0.653146  0.000000  1
  Ir  Ir7  1  0.679034  0.346854  0.000000  1
  Ir  Ir8  1  0.995936  0.000000  0.500000  1
