# generated using pymatgen
data_HoAg3(Ir2O7)2
_symmetry_space_group_name_H-M   'P 1'
_cell_length_a   7.19448046
_cell_length_b   7.19448103
_cell_length_c   7.24495843
_cell_angle_alpha   60.23020962
_cell_angle_beta   60.23021347
_cell_angle_gamma   59.99999831
_symmetry_Int_Tables_number   1
_chemical_formula_structural   HoAg3(Ir2O7)2
_chemical_formula_sum   'Ho1 Ag3 Ir4 O14'
_cell_volume   266.08614596
_cell_formula_units_Z   1
loop_
 _symmetry_equiv_pos_site_id
 _symmetry_equiv_pos_as_xyz
  1  'x, y, z'
loop_
 _atom_site_type_symbol
 _atom_site_label
 _atom_site_symmetry_multiplicity
 _atom_site_fract_x
 _atom_site_fract_y
 _atom_site_fract_z
 _atom_site_occupancy
  Ho  Ho0  1  0.125000  0.125000  0.625000  1
  Ag  Ag1  1  0.625000  0.125000  0.125000  1
  Ag  Ag2  1  0.125000  0.625000  0.125000  1
  Ag  Ag3  1  0.125000  0.125000  0.125000  1
  Ir  Ir4  1  0.125000  0.625000  0.625000  1
  Ir  Ir5  1  0.625000  0.125000  0.625000  1
  Ir  Ir6  1  0.625000  0.625000  0.125000  1
  Ir  Ir7  1  0.625000  0.625000  0.625000  1
  O  O8  1  0.695986  0.695986  0.306604  1
  O  O9  1  0.293935  0.293935  0.695500  1
  O  O10  1  0.716632  0.293935  0.695500  1
  O  O11  1  0.301424  0.695986  0.306604  1
  O  O12  1  0.293935  0.716632  0.695500  1
  O  O13  1  0.695986  0.301424  0.306604  1
  O  O14  1  0.554014  0.554014  0.943396  1
  O  O15  1  0.956065  0.956065  0.554500  1
  O  O16  1  0.533368  0.956065  0.554500  1
  O  O17  1  0.948576  0.554014  0.943396  1
  O  O18  1  0.956065  0.533368  0.554500  1
  O  O19  1  0.554014  0.948576  0.943396  1
  O  O20  1  0.254361  0.254361  0.236916  1
  O  O21  1  0.995639  0.995639  0.013084  1
