# generated using pymatgen
data_Hf5Al16GeIr7
_symmetry_space_group_name_H-M   'P 1'
_cell_length_a   8.66283447
_cell_length_b   8.75252430
_cell_length_c   8.75252421
_cell_angle_alpha   59.32319542
_cell_angle_beta   60.33840153
_cell_angle_gamma   60.33840399
_symmetry_Int_Tables_number   1
_chemical_formula_structural   Hf5Al16GeIr7
_chemical_formula_sum   'Hf5 Al16 Ge1 Ir7'
_cell_volume   469.16042747
_cell_formula_units_Z   1
loop_
 _symmetry_equiv_pos_site_id
 _symmetry_equiv_pos_as_xyz
  1  'x, y, z'
loop_
 _atom_site_type_symbol
 _atom_site_label
 _atom_site_symmetry_multiplicity
 _atom_site_fract_x
 _atom_site_fract_y
 _atom_site_fract_z
 _atom_site_occupancy
  Hf  Hf0  1  0.313279  0.686721  0.686721  1
  Hf  Hf1  1  0.286819  0.713181  0.287947  1
  Hf  Hf2  1  0.712053  0.287947  0.713181  1
  Hf  Hf3  1  0.286819  0.287947  0.713181  1
  Hf  Hf4  1  0.712053  0.713181  0.287947  1
  Al  Al5  1  0.374234  0.334208  0.334208  1
  Al  Al6  1  0.677626  0.654069  0.654069  1
  Al  Al7  1  0.345931  0.322374  0.985763  1
  Al  Al8  1  0.345931  0.985763  0.322374  1
  Al  Al9  1  0.665792  0.625766  0.042649  1
  Al  Al10  1  0.665792  0.042649  0.625766  1
  Al  Al11  1  0.957351  0.334208  0.334208  1
  Al  Al12  1  0.014237  0.654069  0.654069  1
  Al  Al13  1  0.110269  0.120162  0.120162  1
  Al  Al14  1  0.885224  0.870555  0.870555  1
  Al  Al15  1  0.129445  0.114776  0.626335  1
  Al  Al16  1  0.129445  0.626335  0.114776  1
  Al  Al17  1  0.879838  0.889731  0.350592  1
  Al  Al18  1  0.879838  0.350592  0.889731  1
  Al  Al19  1  0.649408  0.120162  0.120162  1
  Al  Al20  1  0.373665  0.870555  0.870555  1
  Ge  Ge21  1  0.537640  0.462360  0.462360  1
  Ir  Ir22  1  0.511871  0.988129  0.988129  1
  Ir  Ir23  1  0.011871  0.488129  0.488129  1
  Ir  Ir24  1  0.012830  0.496371  0.987170  1
  Ir  Ir25  1  0.503629  0.987170  0.496371  1
  Ir  Ir26  1  0.012830  0.987170  0.496371  1
  Ir  Ir27  1  0.503629  0.496371  0.987170  1
  Ir  Ir28  1  0.010649  0.989351  0.989351  1
