# generated using pymatgen
data_NdHoNi2(AsH2)2
_symmetry_space_group_name_H-M   'P 1'
_cell_length_a   4.11418000
_cell_length_b   4.11418052
_cell_length_c   8.19616800
_cell_angle_alpha   90.00000000
_cell_angle_beta   90.00000000
_cell_angle_gamma   119.99999579
_symmetry_Int_Tables_number   1
_chemical_formula_structural   NdHoNi2(AsH2)2
_chemical_formula_sum   'Nd1 Ho1 Ni2 As2 H4'
_cell_volume   120.14567297
_cell_formula_units_Z   1
loop_
 _symmetry_equiv_pos_site_id
 _symmetry_equiv_pos_as_xyz
  1  'x, y, z'
loop_
 _atom_site_type_symbol
 _atom_site_label
 _atom_site_symmetry_multiplicity
 _atom_site_fract_x
 _atom_site_fract_y
 _atom_site_fract_z
 _atom_site_occupancy
  Nd  Nd0  1  0.000000  0.000000  0.500000  1
  Ho  Ho1  1  0.000000  0.000000  0.000000  1
  Ni  Ni2  1  0.666667  0.333333  0.240023  1
  Ni  Ni3  1  0.333333  0.666667  0.759977  1
  As  As4  1  0.333333  0.666667  0.241103  1
  As  As5  1  0.666667  0.333333  0.758897  1
  H  H6  1  0.333333  0.666667  0.954749  1
  H  H7  1  0.666667  0.333333  0.045251  1
  H  H8  1  0.333333  0.666667  0.561454  1
  H  H9  1  0.666667  0.333333  0.438546  1
