# generated using pymatgen
data_TbDy9IrRu3
_symmetry_space_group_name_H-M   'P 1'
_cell_length_a   8.51013023
_cell_length_b   8.52285197
_cell_length_c   7.28952234
_cell_angle_alpha   83.35513052
_cell_angle_beta   83.36625362
_cell_angle_gamma   43.94216715
_symmetry_Int_Tables_number   1
_chemical_formula_structural   TbDy9IrRu3
_chemical_formula_sum   'Tb1 Dy9 Ir1 Ru3'
_cell_volume   364.02847980
_cell_formula_units_Z   1
loop_
 _symmetry_equiv_pos_site_id
 _symmetry_equiv_pos_as_xyz
  1  'x, y, z'
loop_
 _atom_site_type_symbol
 _atom_site_label
 _atom_site_symmetry_multiplicity
 _atom_site_fract_x
 _atom_site_fract_y
 _atom_site_fract_z
 _atom_site_occupancy
  Tb  Tb0  1  0.207295  0.979459  0.585158  1
  Dy  Dy1  1  0.021058  0.794067  0.917356  1
  Dy  Dy2  1  0.208089  0.355429  0.314253  1
  Dy  Dy3  1  0.642804  0.792363  0.185316  1
  Dy  Dy4  1  0.791482  0.643186  0.684412  1
  Dy  Dy5  1  0.357659  0.206804  0.815858  1
  Dy  Dy6  1  0.978878  0.206593  0.084803  1
  Dy  Dy7  1  0.791900  0.023093  0.414045  1
  Dy  Dy8  1  0.576887  0.422862  0.750101  1
  Dy  Dy9  1  0.423985  0.576948  0.248733  1
  Ir  Ir10  1  0.176117  0.600878  0.576031  1
  Ru  Ru11  1  0.395295  0.825961  0.924172  1
  Ru  Ru12  1  0.826075  0.396209  0.424867  1
  Ru  Ru13  1  0.602476  0.176148  0.074899  1
