# generated using pymatgen
data_Tb16MgCd3TcPt3
_symmetry_space_group_name_H-M   'P 1'
_cell_length_a   9.76363799
_cell_length_b   9.76363677
_cell_length_c   9.76363761
_cell_angle_alpha   59.39950852
_cell_angle_beta   59.39952161
_cell_angle_gamma   59.39951271
_symmetry_Int_Tables_number   1
_chemical_formula_structural   Tb16MgCd3TcPt3
_chemical_formula_sum   'Tb16 Mg1 Cd3 Tc1 Pt3'
_cell_volume   649.14901425
_cell_formula_units_Z   1
loop_
 _symmetry_equiv_pos_site_id
 _symmetry_equiv_pos_as_xyz
  1  'x, y, z'
loop_
 _atom_site_type_symbol
 _atom_site_label
 _atom_site_symmetry_multiplicity
 _atom_site_fract_x
 _atom_site_fract_y
 _atom_site_fract_z
 _atom_site_occupancy
  Tb  Tb0  1  0.352360  0.352360  0.352360  1
  Tb  Tb1  1  0.348637  0.348637  0.951942  1
  Tb  Tb2  1  0.348637  0.951942  0.348637  1
  Tb  Tb3  1  0.951942  0.348637  0.348637  1
  Tb  Tb4  1  0.815379  0.188804  0.188804  1
  Tb  Tb5  1  0.188114  0.810356  0.810356  1
  Tb  Tb6  1  0.188804  0.815379  0.188804  1
  Tb  Tb7  1  0.810356  0.188114  0.810356  1
  Tb  Tb8  1  0.188804  0.188804  0.815379  1
  Tb  Tb9  1  0.810356  0.810356  0.188114  1
  Tb  Tb10  1  0.936084  0.565200  0.565200  1
  Tb  Tb11  1  0.557133  0.937423  0.937423  1
  Tb  Tb12  1  0.565200  0.936084  0.565200  1
  Tb  Tb13  1  0.937423  0.557133  0.937423  1
  Tb  Tb14  1  0.565200  0.565200  0.936084  1
  Tb  Tb15  1  0.937423  0.937423  0.557133  1
  Mg  Mg16  1  0.575144  0.575144  0.575144  1
  Cd  Cd17  1  0.581502  0.581502  0.253531  1
  Cd  Cd18  1  0.581502  0.253531  0.581502  1
  Cd  Cd19  1  0.253531  0.581502  0.581502  1
  Tc  Tc20  1  0.143763  0.143763  0.143763  1
  Pt  Pt21  1  0.144832  0.144832  0.573045  1
  Pt  Pt22  1  0.144832  0.573045  0.144832  1
  Pt  Pt23  1  0.573045  0.144832  0.144832  1
