# generated using pymatgen
data_Cs2GaH8Cl
_symmetry_space_group_name_H-M   'P 1'
_cell_length_a   5.61957200
_cell_length_b   5.61957200
_cell_length_c   7.71259600
_cell_angle_alpha   90.00000000
_cell_angle_beta   90.00000000
_cell_angle_gamma   90.00000000
_symmetry_Int_Tables_number   1
_chemical_formula_structural   Cs2GaH8Cl
_chemical_formula_sum   'Cs2 Ga1 H8 Cl1'
_cell_volume   243.56061538
_cell_formula_units_Z   1
loop_
 _symmetry_equiv_pos_site_id
 _symmetry_equiv_pos_as_xyz
  1  'x, y, z'
loop_
 _atom_site_type_symbol
 _atom_site_label
 _atom_site_symmetry_multiplicity
 _atom_site_fract_x
 _atom_site_fract_y
 _atom_site_fract_z
 _atom_site_occupancy
  Cs  Cs0  1  0.500000  0.500000  0.000000  1
  Cs  Cs1  1  0.000000  0.000000  0.500000  1
  Ga  Ga2  1  0.500000  0.500000  0.500000  1
  H  H3  1  0.000000  0.567435  0.834926  1
  H  H4  1  0.000000  0.432565  0.834926  1
  H  H5  1  0.567435  0.000000  0.165074  1
  H  H6  1  0.432565  0.000000  0.165074  1
  H  H7  1  0.268475  0.500000  0.380199  1
  H  H8  1  0.731525  0.500000  0.380199  1
  H  H9  1  0.500000  0.268475  0.619801  1
  H  H10  1  0.500000  0.731525  0.619801  1
  Cl  Cl11  1  0.000000  0.000000  0.000000  1
