# generated using pymatgen
data_Tb2Si4Tc3
_symmetry_space_group_name_H-M   'P 1'
_cell_length_a   6.80444000
_cell_length_b   6.81234585
_cell_length_c   6.79136474
_cell_angle_alpha   69.68186101
_cell_angle_beta   90.00000000
_cell_angle_gamma   90.00000000
_symmetry_Int_Tables_number   1
_chemical_formula_structural   Tb2Si4Tc3
_chemical_formula_sum   'Tb4 Si8 Tc6'
_cell_volume   295.22060122
_cell_formula_units_Z   2
loop_
 _symmetry_equiv_pos_site_id
 _symmetry_equiv_pos_as_xyz
  1  'x, y, z'
loop_
 _atom_site_type_symbol
 _atom_site_label
 _atom_site_symmetry_multiplicity
 _atom_site_fract_x
 _atom_site_fract_y
 _atom_site_fract_z
 _atom_site_occupancy
  Tb  Tb0  1  0.332710  0.558195  0.808996  1
  Tb  Tb1  1  0.832710  0.941805  0.191004  1
  Tb  Tb2  1  0.667290  0.441805  0.191004  1
  Tb  Tb3  1  0.167290  0.058195  0.808996  1
  Si  Si4  1  0.552231  0.878926  0.896261  1
  Si  Si5  1  0.052231  0.621074  0.103739  1
  Si  Si6  1  0.447769  0.121074  0.103739  1
  Si  Si7  1  0.947769  0.378926  0.896261  1
  Si  Si8  1  0.141752  0.869235  0.486636  1
  Si  Si9  1  0.641752  0.630765  0.513364  1
  Si  Si10  1  0.858248  0.130765  0.513364  1
  Si  Si11  1  0.358248  0.369235  0.486636  1
  Tc  Tc12  1  0.500000  0.000000  0.500000  1
  Tc  Tc13  1  0.000000  0.500000  0.500000  1
  Tc  Tc14  1  0.849520  0.757352  0.758761  1
  Tc  Tc15  1  0.349520  0.742648  0.241239  1
  Tc  Tc16  1  0.150480  0.242648  0.241239  1
  Tc  Tc17  1  0.650480  0.257352  0.758761  1
