# generated using pymatgen
data_Yb2LuSc(Ga2Ag)4
_symmetry_space_group_name_H-M   'P 1'
_cell_length_a   4.29088700
_cell_length_b   6.92880137
_cell_length_c   10.32136060
_cell_angle_alpha   89.76608067
_cell_angle_beta   90.00000000
_cell_angle_gamma   90.00000000
_symmetry_Int_Tables_number   1
_chemical_formula_structural   Yb2LuSc(Ga2Ag)4
_chemical_formula_sum   'Yb2 Lu1 Sc1 Ga8 Ag4'
_cell_volume   306.85875665
_cell_formula_units_Z   1
loop_
 _symmetry_equiv_pos_site_id
 _symmetry_equiv_pos_as_xyz
  1  'x, y, z'
loop_
 _atom_site_type_symbol
 _atom_site_label
 _atom_site_symmetry_multiplicity
 _atom_site_fract_x
 _atom_site_fract_y
 _atom_site_fract_z
 _atom_site_occupancy
  Yb  Yb0  1  0.750000  0.226237  0.174704  1
  Yb  Yb1  1  0.750000  0.727554  0.326552  1
  Lu  Lu2  1  0.250000  0.776477  0.826119  1
  Sc  Sc3  1  0.250000  0.277624  0.672360  1
  Ga  Ga4  1  0.250000  0.699180  0.536837  1
  Ga  Ga5  1  0.750000  0.297456  0.471425  1
  Ga  Ga6  1  0.750000  0.798798  0.031266  1
  Ga  Ga7  1  0.250000  0.202672  0.960994  1
  Ga  Ga8  1  0.250000  0.928914  0.148264  1
  Ga  Ga9  1  0.750000  0.074546  0.840233  1
  Ga  Ga10  1  0.750000  0.566493  0.658218  1
  Ga  Ga11  1  0.250000  0.429598  0.351832  1
  Ag  Ag12  1  0.250000  0.540915  0.098374  1
  Ag  Ag13  1  0.750000  0.455436  0.901242  1
  Ag  Ag14  1  0.750000  0.954971  0.599199  1
  Ag  Ag15  1  0.250000  0.043127  0.402384  1
