# generated using pymatgen
data_Lu6Zn21CuSiPd
_symmetry_space_group_name_H-M   'P 1'
_cell_length_a   8.91052829
_cell_length_b   8.91839211
_cell_length_c   8.91839207
_cell_angle_alpha   60.32170331
_cell_angle_beta   60.03128534
_cell_angle_gamma   60.03127574
_symmetry_Int_Tables_number   1
_chemical_formula_structural   Lu6Zn21CuSiPd
_chemical_formula_sum   'Lu6 Zn21 Cu1 Si1 Pd1'
_cell_volume   502.58848257
_cell_formula_units_Z   1
loop_
 _symmetry_equiv_pos_site_id
 _symmetry_equiv_pos_as_xyz
  1  'x, y, z'
loop_
 _atom_site_type_symbol
 _atom_site_label
 _atom_site_symmetry_multiplicity
 _atom_site_fract_x
 _atom_site_fract_y
 _atom_site_fract_z
 _atom_site_occupancy
  Lu  Lu0  1  0.716577  0.283425  0.283425  1
  Lu  Lu1  1  0.283423  0.716575  0.716575  1
  Lu  Lu2  1  0.284581  0.715087  0.284915  1
  Lu  Lu3  1  0.715419  0.284913  0.715085  1
  Lu  Lu4  1  0.284581  0.284915  0.715087  1
  Lu  Lu5  1  0.715419  0.715085  0.284913  1
  Zn  Zn6  1  0.129921  0.120161  0.120161  1
  Zn  Zn7  1  0.870079  0.879839  0.879839  1
  Zn  Zn8  1  0.123241  0.122734  0.630785  1
  Zn  Zn9  1  0.123241  0.630785  0.122734  1
  Zn  Zn10  1  0.876759  0.877266  0.369215  1
  Zn  Zn11  1  0.876759  0.369215  0.877266  1
  Zn  Zn12  1  0.629758  0.120161  0.120161  1
  Zn  Zn13  1  0.370242  0.879839  0.879839  1
  Zn  Zn14  1  0.000000  0.500000  0.500000  1
  Zn  Zn15  1  0.000000  0.500000  0.000000  1
  Zn  Zn16  1  0.500000  0.000000  0.500000  1
  Zn  Zn17  1  0.000000  0.000000  0.500000  1
  Zn  Zn18  1  0.500000  0.500000  0.000000  1
  Zn  Zn19  1  0.335357  0.334605  0.334605  1
  Zn  Zn20  1  0.664643  0.665395  0.665395  1
  Zn  Zn21  1  0.337177  0.330059  0.995590  1
  Zn  Zn22  1  0.337177  0.995590  0.330059  1
  Zn  Zn23  1  0.662823  0.669941  0.004410  1
  Zn  Zn24  1  0.662823  0.004410  0.669941  1
  Zn  Zn25  1  0.995439  0.334604  0.334604  1
  Zn  Zn26  1  0.004561  0.665396  0.665396  1
  Cu  Cu27  1  0.500000  0.000000  0.000000  1
  Si  Si28  1  0.500000  0.500000  0.500000  1
  Pd  Pd29  1  0.000000  0.000000  0.000000  1
