# generated using pymatgen
data_Pa2Al20TcOs3
_symmetry_space_group_name_H-M   'P 1'
_cell_length_a   6.85301065
_cell_length_b   6.85344799
_cell_length_c   9.13890405
_cell_angle_alpha   89.93112034
_cell_angle_beta   89.86444850
_cell_angle_gamma   97.50238922
_symmetry_Int_Tables_number   1
_chemical_formula_structural   Pa2Al20TcOs3
_chemical_formula_sum   'Pa2 Al20 Tc1 Os3'
_cell_volume   425.54854314
_cell_formula_units_Z   1
loop_
 _symmetry_equiv_pos_site_id
 _symmetry_equiv_pos_as_xyz
  1  'x, y, z'
loop_
 _atom_site_type_symbol
 _atom_site_label
 _atom_site_symmetry_multiplicity
 _atom_site_fract_x
 _atom_site_fract_y
 _atom_site_fract_z
 _atom_site_occupancy
  Pa  Pa0  1  0.869399  0.127098  0.750618  1
  Pa  Pa1  1  0.130601  0.872902  0.249382  1
  Al  Al2  1  0.516927  0.781386  0.750322  1
  Al  Al3  1  0.781844  0.517145  0.250288  1
  Al  Al4  1  0.483073  0.218614  0.249678  1
  Al  Al5  1  0.218156  0.482855  0.749712  1
  Al  Al6  1  0.623128  0.375972  0.954322  1
  Al  Al7  1  0.376872  0.624028  0.045678  1
  Al  Al8  1  0.623510  0.376669  0.545874  1
  Al  Al9  1  0.376490  0.623331  0.454126  1
  Al  Al10  1  0.409791  0.146386  0.750300  1
  Al  Al11  1  0.146171  0.409649  0.250024  1
  Al  Al12  1  0.590209  0.853614  0.249700  1
  Al  Al13  1  0.853829  0.590351  0.749976  1
  Al  Al14  1  0.845472  0.155106  0.396557  1
  Al  Al15  1  0.154528  0.844894  0.603443  1
  Al  Al16  1  0.844950  0.154921  0.103142  1
  Al  Al17  1  0.155050  0.845079  0.896858  1
  Al  Al18  1  0.779581  0.780044  0.999590  1
  Al  Al19  1  0.779992  0.780063  0.500089  1
  Al  Al20  1  0.220419  0.219956  0.000410  1
  Al  Al21  1  0.220008  0.219937  0.499911  1
  Tc  Tc22  1  0.500000  0.000000  0.000000  1
  Os  Os23  1  0.000000  0.500000  0.000000  1
  Os  Os24  1  0.500000  0.000000  0.500000  1
  Os  Os25  1  0.000000  0.500000  0.500000  1
