# generated using pymatgen
data_Nd6Y10Cd4IrRu3
_symmetry_space_group_name_H-M   'P 1'
_cell_length_a   9.74674038
_cell_length_b   9.80026886
_cell_length_c   9.80026800
_cell_angle_alpha   59.99999616
_cell_angle_beta   59.81815742
_cell_angle_gamma   59.81816351
_symmetry_Int_Tables_number   1
_chemical_formula_structural   Nd6Y10Cd4IrRu3
_chemical_formula_sum   'Nd6 Y10 Cd4 Ir1 Ru3'
_cell_volume   660.11740863
_cell_formula_units_Z   1
loop_
 _symmetry_equiv_pos_site_id
 _symmetry_equiv_pos_as_xyz
  1  'x, y, z'
loop_
 _atom_site_type_symbol
 _atom_site_label
 _atom_site_symmetry_multiplicity
 _atom_site_fract_x
 _atom_site_fract_y
 _atom_site_fract_z
 _atom_site_occupancy
  Nd  Nd0  1  0.937998  0.561356  0.561356  1
  Nd  Nd1  1  0.559696  0.939292  0.939292  1
  Nd  Nd2  1  0.559696  0.939292  0.561719  1
  Nd  Nd3  1  0.937998  0.561356  0.939291  1
  Nd  Nd4  1  0.559696  0.561719  0.939292  1
  Nd  Nd5  1  0.937998  0.939291  0.561356  1
  Y  Y6  1  0.344486  0.345322  0.345322  1
  Y  Y7  1  0.344486  0.345322  0.964870  1
  Y  Y8  1  0.344486  0.964870  0.345322  1
  Y  Y9  1  0.967572  0.344143  0.344143  1
  Y  Y10  1  0.813464  0.187545  0.187545  1
  Y  Y11  1  0.186888  0.813301  0.813301  1
  Y  Y12  1  0.186888  0.813301  0.186510  1
  Y  Y13  1  0.813464  0.187545  0.811447  1
  Y  Y14  1  0.186888  0.186510  0.813301  1
  Y  Y15  1  0.813464  0.811447  0.187545  1
  Cd  Cd16  1  0.579126  0.578631  0.578631  1
  Cd  Cd17  1  0.579126  0.578631  0.263611  1
  Cd  Cd18  1  0.579126  0.263611  0.578631  1
  Cd  Cd19  1  0.261716  0.579428  0.579428  1
  Ir  Ir20  1  0.580449  0.139850  0.139850  1
  Ru  Ru21  1  0.141763  0.137831  0.137831  1
  Ru  Ru22  1  0.141763  0.137831  0.582575  1
  Ru  Ru23  1  0.141763  0.582575  0.137831  1
