# generated using pymatgen
data_Zn22NiPtRh
_symmetry_space_group_name_H-M   'P 1'
_cell_length_a   7.74307556
_cell_length_b   7.74307447
_cell_length_c   7.76248575
_cell_angle_alpha   71.95786089
_cell_angle_beta   71.95786229
_cell_angle_gamma   58.13429314
_symmetry_Int_Tables_number   1
_chemical_formula_structural   Zn22NiPtRh
_chemical_formula_sum   'Zn22 Ni1 Pt1 Rh1'
_cell_volume   369.61313902
_cell_formula_units_Z   1
loop_
 _symmetry_equiv_pos_site_id
 _symmetry_equiv_pos_as_xyz
  1  'x, y, z'
loop_
 _atom_site_type_symbol
 _atom_site_label
 _atom_site_symmetry_multiplicity
 _atom_site_fract_x
 _atom_site_fract_y
 _atom_site_fract_z
 _atom_site_occupancy
  Zn  Zn0  1  0.341312  0.734398  0.319054  1
  Zn  Zn1  1  0.650584  0.264658  0.692553  1
  Zn  Zn2  1  0.264658  0.650584  0.692553  1
  Zn  Zn3  1  0.734398  0.341312  0.319054  1
  Zn  Zn4  1  0.678795  0.318589  0.998598  1
  Zn  Zn5  1  0.318589  0.678795  0.998598  1
  Zn  Zn6  1  0.832179  0.832179  0.780003  1
  Zn  Zn7  1  0.171536  0.171536  0.212676  1
  Zn  Zn8  1  0.975741  0.975741  0.173494  1
  Zn  Zn9  1  0.024247  0.024247  0.827063  1
  Zn  Zn10  1  0.351863  0.351863  0.271600  1
  Zn  Zn11  1  0.645341  0.645341  0.721831  1
  Zn  Zn12  1  0.688856  0.688856  0.377157  1
  Zn  Zn13  1  0.316708  0.316708  0.619756  1
  Zn  Zn14  1  0.657827  0.024355  0.459658  1
  Zn  Zn15  1  0.340437  0.975924  0.540908  1
  Zn  Zn16  1  0.975924  0.340437  0.540908  1
  Zn  Zn17  1  0.024355  0.657827  0.459658  1
  Zn  Zn18  1  0.611941  0.008223  0.102025  1
  Zn  Zn19  1  0.375613  0.009972  0.895355  1
  Zn  Zn20  1  0.009972  0.375613  0.895355  1
  Zn  Zn21  1  0.008223  0.611941  0.102025  1
  Ni  Ni22  1  0.341984  0.341984  0.945614  1
  Pt  Pt23  1  0.658386  0.658386  0.054797  1
  Rh  Rh24  1  0.000532  0.000532  0.499709  1
