# generated using pymatgen
data_La6Si2SnSe14
_symmetry_space_group_name_H-M   'P 1'
_cell_length_a   10.92587400
_cell_length_b   10.92587325
_cell_length_c   6.10065700
_cell_angle_alpha   90.00000000
_cell_angle_beta   90.00000000
_cell_angle_gamma   120.00000832
_symmetry_Int_Tables_number   1
_chemical_formula_structural   La6Si2SnSe14
_chemical_formula_sum   'La6 Si2 Sn1 Se14'
_cell_volume   630.69523414
_cell_formula_units_Z   1
loop_
 _symmetry_equiv_pos_site_id
 _symmetry_equiv_pos_as_xyz
  1  'x, y, z'
loop_
 _atom_site_type_symbol
 _atom_site_label
 _atom_site_symmetry_multiplicity
 _atom_site_fract_x
 _atom_site_fract_y
 _atom_site_fract_z
 _atom_site_occupancy
  La  La0  1  0.306896  0.102396  0.755628  1
  La  La1  1  0.795499  0.693104  0.755628  1
  La  La2  1  0.897604  0.204501  0.755628  1
  La  La3  1  0.027125  0.564663  0.251085  1
  La  La4  1  0.537537  0.972875  0.251085  1
  La  La5  1  0.435337  0.462463  0.251085  1
  Si  Si6  1  0.000000  0.000000  0.165707  1
  Si  Si7  1  0.333333  0.666667  0.661551  1
  Sn  Sn8  1  0.666667  0.333333  0.519729  1
  Se  Se9  1  0.000000  0.000000  0.538071  1
  Se  Se10  1  0.333333  0.666667  0.034443  1
  Se  Se11  1  0.143488  0.222789  0.019008  1
  Se  Se12  1  0.079300  0.856512  0.019008  1
  Se  Se13  1  0.777211  0.920700  0.019008  1
  Se  Se14  1  0.189435  0.443764  0.516051  1
  Se  Se15  1  0.254328  0.810565  0.516051  1
  Se  Se16  1  0.556236  0.745672  0.516051  1
  Se  Se17  1  0.403440  0.164763  0.268708  1
  Se  Se18  1  0.761325  0.596560  0.268708  1
  Se  Se19  1  0.835237  0.238675  0.268708  1
  Se  Se20  1  0.931591  0.505013  0.771037  1
  Se  Se21  1  0.573422  0.068409  0.771037  1
  Se  Se22  1  0.494987  0.426578  0.771037  1
