# generated using pymatgen
data_Li7Zn(BO3)3
_symmetry_space_group_name_H-M   'P 1'
_cell_length_a   8.47551259
_cell_length_b   9.29368734
_cell_length_c   11.42452700
_cell_angle_alpha   71.60967701
_cell_angle_beta   79.11812464
_cell_angle_gamma   71.51021234
_symmetry_Int_Tables_number   1
_chemical_formula_structural   Li7Zn(BO3)3
_chemical_formula_sum   'Li28 Zn4 B12 O36'
_cell_volume   805.91139249
_cell_formula_units_Z   4
loop_
 _symmetry_equiv_pos_site_id
 _symmetry_equiv_pos_as_xyz
  1  'x, y, z'
loop_
 _atom_site_type_symbol
 _atom_site_label
 _atom_site_symmetry_multiplicity
 _atom_site_fract_x
 _atom_site_fract_y
 _atom_site_fract_z
 _atom_site_occupancy
  Li  Li0  1  0.593144  0.826759  0.243827  1
  Li  Li1  1  0.406856  0.173241  0.756173  1
  Li  Li2  1  0.650371  0.988638  0.959372  1
  Li  Li3  1  0.349629  0.011362  0.040628  1
  Li  Li4  1  0.942565  0.156336  0.485847  1
  Li  Li5  1  0.057435  0.843664  0.514153  1
  Li  Li6  1  0.173419  0.578456  0.960062  1
  Li  Li7  1  0.826581  0.421544  0.039938  1
  Li  Li8  1  0.799415  0.959290  0.405197  1
  Li  Li9  1  0.200585  0.040710  0.594803  1
  Li  Li10  1  0.991011  0.348557  0.612055  1
  Li  Li11  1  0.008989  0.651443  0.387945  1
  Li  Li12  1  0.666156  0.354276  0.691824  1
  Li  Li13  1  0.333844  0.645724  0.308176  1
  Li  Li14  1  0.493808  0.920692  0.620307  1
  Li  Li15  1  0.506192  0.079308  0.379693  1
  Li  Li16  1  0.786568  0.894120  0.644410  1
  Li  Li17  1  0.213432  0.105880  0.355590  1
  Li  Li18  1  0.893810  0.836418  0.194914  1
  Li  Li19  1  0.106190  0.163582  0.805086  1
  Li  Li20  1  0.961411  0.889478  0.968995  1
  Li  Li21  1  0.038589  0.110522  0.031005  1
  Li  Li22  1  0.166978  0.721780  0.727451  1
  Li  Li23  1  0.833022  0.278220  0.272549  1
  Li  Li24  1  0.798825  0.243681  0.895258  1
  Li  Li25  1  0.201175  0.756319  0.104742  1
  Li  Li26  1  0.833361  0.705712  0.874424  1
  Li  Li27  1  0.166639  0.294288  0.125576  1
  Zn  Zn28  1  0.542436  0.608588  0.842177  1
  Zn  Zn29  1  0.457564  0.391412  0.157823  1
  Zn  Zn30  1  0.707473  0.528882  0.420602  1
  Zn  Zn31  1  0.292527  0.471118  0.579398  1
  B  B32  1  0.775506  0.662348  0.599128  1
  B  B33  1  0.224494  0.337652  0.400872  1
  B  B34  1  0.905393  0.024731  0.737391  1
  B  B35  1  0.094607  0.975269  0.262609  1
  B  B36  1  0.454970  0.307616  0.931934  1
  B  B37  1  0.545030  0.692384  0.068066  1
  B  B38  1  0.383558  0.773619  0.478882  1
  B  B39  1  0.616442  0.226381  0.521118  1
  B  B40  1  0.939606  0.575021  0.176991  1
  B  B41  1  0.060394  0.424979  0.823009  1
  B  B42  1  0.269961  0.895650  0.845925  1
  B  B43  1  0.730039  0.104350  0.154075  1
  O  O44  1  0.300777  0.737120  0.848829  1
  O  O45  1  0.699223  0.262880  0.151171  1
  O  O46  1  0.877088  0.752043  0.521402  1
  O  O47  1  0.122912  0.247957  0.478598  1
  O  O48  1  0.275514  0.694032  0.564761  1
  O  O49  1  0.724486  0.305968  0.435239  1
  O  O50  1  0.828334  0.925796  0.832111  1
  O  O51  1  0.171666  0.074204  0.167889  1
  O  O52  1  0.669966  0.724315  0.692983  1
  O  O53  1  0.330034  0.275685  0.307017  1
  O  O54  1  0.488365  0.701512  0.391006  1
  O  O55  1  0.511635  0.298488  0.608994  1
  O  O56  1  0.178571  0.948417  0.947257  1
  O  O57  1  0.821429  0.051583  0.052743  1
  O  O58  1  0.371619  0.926683  0.477646  1
  O  O59  1  0.628381  0.073317  0.522354  1
  O  O60  1  0.992226  0.967258  0.636001  1
  O  O61  1  0.007774  0.032742  0.363999  1
  O  O62  1  0.683939  0.994891  0.259022  1
  O  O63  1  0.316061  0.005109  0.740978  1
  O  O64  1  0.653094  0.624698  0.978217  1
  O  O65  1  0.346906  0.375302  0.021783  1
  O  O66  1  0.949635  0.428703  0.167926  1
  O  O67  1  0.050365  0.571297  0.832074  1
  O  O68  1  0.984013  0.319041  0.913386  1
  O  O69  1  0.015987  0.680959  0.086614  1
  O  O70  1  0.851191  0.630563  0.280578  1
  O  O71  1  0.148809  0.369437  0.719422  1
  O  O72  1  0.776462  0.518711  0.584125  1
  O  O73  1  0.223538  0.481289  0.415875  1
  O  O74  1  0.452682  0.166277  0.919013  1
  O  O75  1  0.547318  0.833723  0.080987  1
  O  O76  1  0.898267  0.175537  0.739064  1
  O  O77  1  0.101733  0.824463  0.260936  1
  O  O78  1  0.571316  0.385394  0.854268  1
  O  O79  1  0.428684  0.614606  0.145732  1
