# generated using pymatgen
data_LiCa3(CdGa4)2
_symmetry_space_group_name_H-M   'P 1'
_cell_length_a   4.48550345
_cell_length_b   8.56729431
_cell_length_c   8.56729500
_cell_angle_alpha   70.85093991
_cell_angle_beta   74.82424100
_cell_angle_gamma   74.82424584
_symmetry_Int_Tables_number   1
_chemical_formula_structural   LiCa3(CdGa4)2
_chemical_formula_sum   'Li1 Ca3 Cd2 Ga8'
_cell_volume   294.52670786
_cell_formula_units_Z   1
loop_
 _symmetry_equiv_pos_site_id
 _symmetry_equiv_pos_as_xyz
  1  'x, y, z'
loop_
 _atom_site_type_symbol
 _atom_site_label
 _atom_site_symmetry_multiplicity
 _atom_site_fract_x
 _atom_site_fract_y
 _atom_site_fract_z
 _atom_site_occupancy
  Li  Li0  1  0.000000  0.196973  0.803027  1
  Ca  Ca1  1  0.500000  0.501015  0.498985  1
  Ca  Ca2  1  0.200981  0.799737  0.798302  1
  Ca  Ca3  1  0.799019  0.201698  0.200263  1
  Cd  Cd4  1  0.500000  0.007637  0.992363  1
  Cd  Cd5  1  0.000000  0.812535  0.187465  1
  Ga  Ga6  1  0.355098  0.369842  0.919962  1
  Ga  Ga7  1  0.652824  0.619096  0.075258  1
  Ga  Ga8  1  0.347176  0.924742  0.380904  1
  Ga  Ga9  1  0.644902  0.080038  0.630158  1
  Ga  Ga10  1  0.163206  0.464015  0.209576  1
  Ga  Ga11  1  0.842529  0.523596  0.791346  1
  Ga  Ga12  1  0.157471  0.208654  0.476404  1
  Ga  Ga13  1  0.836794  0.790424  0.535985  1
