# generated using pymatgen
data_Y11Er5Cd4(NiOs)2
_symmetry_space_group_name_H-M   'P 1'
_cell_length_a   9.59539919
_cell_length_b   9.61266445
_cell_length_c   9.69015699
_cell_angle_alpha   59.45655819
_cell_angle_beta   59.53469101
_cell_angle_gamma   59.33487851
_symmetry_Int_Tables_number   1
_chemical_formula_structural   Y11Er5Cd4(NiOs)2
_chemical_formula_sum   'Y11 Er5 Cd4 Ni2 Os2'
_cell_volume   623.98153301
_cell_formula_units_Z   1
loop_
 _symmetry_equiv_pos_site_id
 _symmetry_equiv_pos_as_xyz
  1  'x, y, z'
loop_
 _atom_site_type_symbol
 _atom_site_label
 _atom_site_symmetry_multiplicity
 _atom_site_fract_x
 _atom_site_fract_y
 _atom_site_fract_z
 _atom_site_occupancy
  Y  Y0  1  0.436659  0.060983  0.060516  1
  Y  Y1  1  0.436433  0.060539  0.440127  1
  Y  Y2  1  0.061429  0.436514  0.061144  1
  Y  Y3  1  0.438231  0.438665  0.060458  1
  Y  Y4  1  0.059534  0.059517  0.439936  1
  Y  Y5  1  0.190179  0.806218  0.815788  1
  Y  Y6  1  0.806473  0.188770  0.189143  1
  Y  Y7  1  0.806214  0.190549  0.815184  1
  Y  Y8  1  0.189020  0.805142  0.189950  1
  Y  Y9  1  0.814823  0.813716  0.188369  1
  Y  Y10  1  0.191766  0.192697  0.807853  1
  Er  Er11  1  0.599569  0.598922  0.592657  1
  Er  Er12  1  0.600366  0.599893  0.208447  1
  Er  Er13  1  0.601009  0.208369  0.595977  1
  Er  Er14  1  0.207286  0.601361  0.596698  1
  Er  Er15  1  0.060880  0.436910  0.439689  1
  Cd  Cd16  1  0.828394  0.828407  0.831423  1
  Cd  Cd17  1  0.829036  0.829109  0.508400  1
  Cd  Cd18  1  0.829101  0.507419  0.830769  1
  Cd  Cd19  1  0.507288  0.829218  0.830641  1
  Ni  Ni20  1  0.393871  0.823216  0.392271  1
  Ni  Ni21  1  0.824955  0.393859  0.392729  1
  Os  Os22  1  0.392110  0.395487  0.391114  1
  Os  Os23  1  0.395374  0.394518  0.820718  1
