# generated using pymatgen
data_Y2Tm6Tc3B24Os
_symmetry_space_group_name_H-M   'P 1'
_cell_length_a   3.64383400
_cell_length_b   9.09939915
_cell_length_c   11.47934001
_cell_angle_alpha   89.94286739
_cell_angle_beta   90.00000000
_cell_angle_gamma   90.00000000
_symmetry_Int_Tables_number   1
_chemical_formula_structural   Y2Tm6Tc3B24Os
_chemical_formula_sum   'Y2 Tm6 Tc3 B24 Os1'
_cell_volume   380.61684381
_cell_formula_units_Z   1
loop_
 _symmetry_equiv_pos_site_id
 _symmetry_equiv_pos_as_xyz
  1  'x, y, z'
loop_
 _atom_site_type_symbol
 _atom_site_label
 _atom_site_symmetry_multiplicity
 _atom_site_fract_x
 _atom_site_fract_y
 _atom_site_fract_z
 _atom_site_occupancy
  Y  Y0  1  0.000000  0.322755  0.413700  1
  Y  Y1  1  0.000000  0.676348  0.584580  1
  Tm  Tm2  1  0.000000  0.822738  0.087084  1
  Tm  Tm3  1  0.000000  0.178488  0.914678  1
  Tm  Tm4  1  0.000000  0.942793  0.369684  1
  Tm  Tm5  1  0.000000  0.058039  0.630338  1
  Tm  Tm6  1  0.000000  0.442814  0.129481  1
  Tm  Tm7  1  0.000000  0.556946  0.870157  1
  Tc  Tc8  1  0.000000  0.639230  0.319106  1
  Tc  Tc9  1  0.000000  0.360797  0.681404  1
  Tc  Tc10  1  0.000000  0.137566  0.177668  1
  B  B11  1  0.500000  0.553383  0.432393  1
  B  B12  1  0.500000  0.446458  0.567421  1
  B  B13  1  0.500000  0.052791  0.066263  1
  B  B14  1  0.500000  0.946511  0.933522  1
  B  B15  1  0.500000  0.749743  0.418067  1
  B  B16  1  0.500000  0.249930  0.582045  1
  B  B17  1  0.500000  0.249635  0.080498  1
  B  B18  1  0.500000  0.750778  0.919245  1
  B  B19  1  0.500000  0.792568  0.264417  1
  B  B20  1  0.500000  0.207563  0.736134  1
  B  B21  1  0.500000  0.291717  0.234085  1
  B  B22  1  0.500000  0.708949  0.765866  1
  B  B23  1  0.500000  0.630915  0.184262  1
  B  B24  1  0.500000  0.368982  0.816266  1
  B  B25  1  0.500000  0.129551  0.313845  1
  B  B26  1  0.500000  0.869978  0.685897  1
  B  B27  1  0.500000  0.980963  0.211333  1
  B  B28  1  0.500000  0.017930  0.788663  1
  B  B29  1  0.500000  0.481849  0.287020  1
  B  B30  1  0.500000  0.517898  0.712837  1
  B  B31  1  0.500000  0.601453  0.027832  1
  B  B32  1  0.500000  0.399705  0.972001  1
  B  B33  1  0.500000  0.099693  0.472405  1
  B  B34  1  0.500000  0.900379  0.528108  1
  Os  Os35  1  0.000000  0.862164  0.821697  1
