# generated using pymatgen
data_Er8B24MoRh3
_symmetry_space_group_name_H-M   'P 1'
_cell_length_a   3.64535400
_cell_length_b   9.14254167
_cell_length_c   11.50615975
_cell_angle_alpha   90.24304603
_cell_angle_beta   90.00000000
_cell_angle_gamma   90.00000000
_symmetry_Int_Tables_number   1
_chemical_formula_structural   Er8B24MoRh3
_chemical_formula_sum   'Er8 B24 Mo1 Rh3'
_cell_volume   383.47155042
_cell_formula_units_Z   1
loop_
 _symmetry_equiv_pos_site_id
 _symmetry_equiv_pos_as_xyz
  1  'x, y, z'
loop_
 _atom_site_type_symbol
 _atom_site_label
 _atom_site_symmetry_multiplicity
 _atom_site_fract_x
 _atom_site_fract_y
 _atom_site_fract_z
 _atom_site_occupancy
  Er  Er0  1  0.500000  0.319020  0.410558  1
  Er  Er1  1  0.500000  0.676719  0.585230  1
  Er  Er2  1  0.500000  0.178134  0.916680  1
  Er  Er3  1  0.500000  0.824097  0.086965  1
  Er  Er4  1  0.500000  0.445023  0.125548  1
  Er  Er5  1  0.500000  0.556966  0.871959  1
  Er  Er6  1  0.500000  0.055773  0.628806  1
  Er  Er7  1  0.500000  0.945332  0.374223  1
  B  B8  1  0.000000  0.107877  0.472498  1
  B  B9  1  0.000000  0.890901  0.530912  1
  B  B10  1  0.000000  0.394356  0.968817  1
  B  B11  1  0.000000  0.609665  0.028715  1
  B  B12  1  0.000000  0.132476  0.317065  1
  B  B13  1  0.000000  0.866367  0.683936  1
  B  B14  1  0.000000  0.368131  0.815982  1
  B  B15  1  0.000000  0.633310  0.183856  1
  B  B16  1  0.000000  0.051675  0.064565  1
  B  B17  1  0.000000  0.946646  0.933188  1
  B  B18  1  0.000000  0.445245  0.565292  1
  B  B19  1  0.000000  0.552940  0.433878  1
  B  B20  1  0.000000  0.483347  0.287125  1
  B  B21  1  0.000000  0.517265  0.711879  1
  B  B22  1  0.000000  0.017253  0.787643  1
  B  B23  1  0.000000  0.979879  0.214121  1
  B  B24  1  0.000000  0.250922  0.078161  1
  B  B25  1  0.000000  0.751365  0.919875  1
  B  B26  1  0.000000  0.250180  0.579271  1
  B  B27  1  0.000000  0.748594  0.421367  1
  B  B28  1  0.000000  0.295721  0.235884  1
  B  B29  1  0.000000  0.705932  0.763640  1
  B  B30  1  0.000000  0.207548  0.736058  1
  B  B31  1  0.000000  0.792309  0.266294  1
  Mo  Mo32  1  0.500000  0.138354  0.178964  1
  Rh  Rh33  1  0.500000  0.860512  0.820756  1
  Rh  Rh34  1  0.500000  0.361215  0.678736  1
  Rh  Rh35  1  0.500000  0.638954  0.321554  1
