# generated using pymatgen
data_TbYTh(B2C)3
_symmetry_space_group_name_H-M   'P 1'
_cell_length_a   5.30479492
_cell_length_b   5.30479507
_cell_length_c   5.30479507
_cell_angle_alpha   77.32046360
_cell_angle_beta   77.32046573
_cell_angle_gamma   77.32044763
_symmetry_Int_Tables_number   1
_chemical_formula_structural   TbYTh(B2C)3
_chemical_formula_sum   'Tb1 Y1 Th1 B6 C3'
_cell_volume   139.76861897
_cell_formula_units_Z   1
loop_
 _symmetry_equiv_pos_site_id
 _symmetry_equiv_pos_as_xyz
  1  'x, y, z'
loop_
 _atom_site_type_symbol
 _atom_site_label
 _atom_site_symmetry_multiplicity
 _atom_site_fract_x
 _atom_site_fract_y
 _atom_site_fract_z
 _atom_site_occupancy
  Tb  Tb0  1  0.310569  0.310569  0.310569  1
  Y  Y1  1  0.689175  0.689175  0.689175  1
  Th  Th2  1  0.999991  0.999991  0.999991  1
  B  B3  1  0.500016  0.773713  0.226498  1
  B  B4  1  0.226498  0.500016  0.773713  1
  B  B5  1  0.773713  0.226498  0.500016  1
  B  B6  1  0.500016  0.226498  0.773713  1
  B  B7  1  0.226498  0.773713  0.500016  1
  B  B8  1  0.773713  0.500016  0.226498  1
  C  C9  1  0.999915  0.999915  0.499981  1
  C  C10  1  0.999915  0.499981  0.999915  1
  C  C11  1  0.499981  0.999915  0.999915  1
