# generated using pymatgen
data_Dy3Ag2Hg3Ir
_symmetry_space_group_name_H-M   'P 1'
_cell_length_a   8.09426000
_cell_length_b   8.09426105
_cell_length_c   3.61282600
_cell_angle_alpha   90.00000000
_cell_angle_beta   90.00000000
_cell_angle_gamma   119.99999570
_symmetry_Int_Tables_number   1
_chemical_formula_structural   Dy3Ag2Hg3Ir
_chemical_formula_sum   'Dy3 Ag2 Hg3 Ir1'
_cell_volume   204.98970650
_cell_formula_units_Z   1
loop_
 _symmetry_equiv_pos_site_id
 _symmetry_equiv_pos_as_xyz
  1  'x, y, z'
loop_
 _atom_site_type_symbol
 _atom_site_label
 _atom_site_symmetry_multiplicity
 _atom_site_fract_x
 _atom_site_fract_y
 _atom_site_fract_z
 _atom_site_occupancy
  Dy  Dy0  1  0.585891  0.622761  0.000000  1
  Dy  Dy1  1  0.377239  0.963130  0.000000  1
  Dy  Dy2  1  0.036870  0.414109  0.000000  1
  Ag  Ag3  1  0.000000  0.000000  0.000000  1
  Ag  Ag4  1  0.666667  0.333333  0.500000  1
  Hg  Hg5  1  0.986870  0.710990  0.500000  1
  Hg  Hg6  1  0.289010  0.275882  0.500000  1
  Hg  Hg7  1  0.724118  0.013130  0.500000  1
  Ir  Ir8  1  0.333333  0.666667  0.500000  1
