# generated using pymatgen
data_LuBe11Cu2
_symmetry_space_group_name_H-M   'P 1'
_cell_length_a   7.29593955
_cell_length_b   7.25800206
_cell_length_c   7.31363641
_cell_angle_alpha   60.09047419
_cell_angle_beta   59.57656347
_cell_angle_gamma   60.33296552
_symmetry_Int_Tables_number   1
_chemical_formula_structural   LuBe11Cu2
_chemical_formula_sum   'Lu2 Be22 Cu4'
_cell_volume   273.82766446
_cell_formula_units_Z   2
loop_
 _symmetry_equiv_pos_site_id
 _symmetry_equiv_pos_as_xyz
  1  'x, y, z'
loop_
 _atom_site_type_symbol
 _atom_site_label
 _atom_site_symmetry_multiplicity
 _atom_site_fract_x
 _atom_site_fract_y
 _atom_site_fract_z
 _atom_site_occupancy
  Lu  Lu0  1  0.250000  0.250000  0.250000  1
  Lu  Lu1  1  0.750000  0.750000  0.750000  1
  Be  Be2  1  0.704671  0.933787  0.066213  1
  Be  Be3  1  0.700350  0.060570  0.299650  1
  Be  Be4  1  0.066213  0.295329  0.704671  1
  Be  Be5  1  0.939430  0.299650  0.060570  1
  Be  Be6  1  0.933787  0.704671  0.295329  1
  Be  Be7  1  0.299650  0.939430  0.700350  1
  Be  Be8  1  0.295329  0.066213  0.933787  1
  Be  Be9  1  0.060570  0.700350  0.939430  1
  Be  Be10  1  0.788331  0.440741  0.559259  1
  Be  Be11  1  0.559259  0.211669  0.788331  1
  Be  Be12  1  0.211669  0.559259  0.440741  1
  Be  Be13  1  0.440741  0.788331  0.211669  1
  Be  Be14  1  0.779926  0.220074  0.430940  1
  Be  Be15  1  0.787533  0.566481  0.212467  1
  Be  Be16  1  0.430940  0.569060  0.779926  1
  Be  Be17  1  0.566481  0.787533  0.433519  1
  Be  Be18  1  0.569060  0.430940  0.220074  1
  Be  Be19  1  0.212467  0.433519  0.787533  1
  Be  Be20  1  0.220074  0.779926  0.569060  1
  Be  Be21  1  0.433519  0.212467  0.566481  1
  Be  Be22  1  0.000000  0.000000  0.000000  1
  Be  Be23  1  0.500000  0.500000  0.500000  1
  Cu  Cu24  1  0.693145  0.306855  0.942135  1
  Cu  Cu25  1  0.942135  0.057865  0.693145  1
  Cu  Cu26  1  0.306855  0.693145  0.057865  1
  Cu  Cu27  1  0.057865  0.942135  0.306855  1
