# generated using pymatgen
data_Tb3Ho2CoBi2
_symmetry_space_group_name_H-M   'P 1'
_cell_length_a   8.03168100
_cell_length_b   8.90893200
_cell_length_c   12.45750900
_cell_angle_alpha   90.00000000
_cell_angle_beta   90.00000000
_cell_angle_gamma   90.00000000
_symmetry_Int_Tables_number   1
_chemical_formula_structural   Tb3Ho2CoBi2
_chemical_formula_sum   'Tb12 Ho8 Co4 Bi8'
_cell_volume   891.38086017
_cell_formula_units_Z   4
loop_
 _symmetry_equiv_pos_site_id
 _symmetry_equiv_pos_as_xyz
  1  'x, y, z'
loop_
 _atom_site_type_symbol
 _atom_site_label
 _atom_site_symmetry_multiplicity
 _atom_site_fract_x
 _atom_site_fract_y
 _atom_site_fract_z
 _atom_site_occupancy
  Tb  Tb0  1  0.848480  0.750000  0.801832  1
  Tb  Tb1  1  0.151520  0.250000  0.198168  1
  Tb  Tb2  1  0.348480  0.250000  0.698168  1
  Tb  Tb3  1  0.651520  0.750000  0.301832  1
  Tb  Tb4  1  0.379326  0.750000  0.689414  1
  Tb  Tb5  1  0.620674  0.250000  0.310586  1
  Tb  Tb6  1  0.879326  0.250000  0.810586  1
  Tb  Tb7  1  0.120674  0.750000  0.189414  1
  Tb  Tb8  1  0.954599  0.750000  0.502494  1
  Tb  Tb9  1  0.045401  0.250000  0.497506  1
  Tb  Tb10  1  0.454599  0.250000  0.997506  1
  Tb  Tb11  1  0.545401  0.750000  0.002494  1
  Ho  Ho12  1  0.675343  0.033732  0.562401  1
  Ho  Ho13  1  0.324657  0.966268  0.437599  1
  Ho  Ho14  1  0.175343  0.966268  0.937599  1
  Ho  Ho15  1  0.324657  0.533732  0.437599  1
  Ho  Ho16  1  0.824657  0.033732  0.062401  1
  Ho  Ho17  1  0.675343  0.466268  0.562401  1
  Ho  Ho18  1  0.824657  0.466268  0.062401  1
  Ho  Ho19  1  0.175343  0.533732  0.937599  1
  Co  Co20  1  0.558920  0.750000  0.507997  1
  Co  Co21  1  0.441080  0.250000  0.492003  1
  Co  Co22  1  0.058920  0.250000  0.992003  1
  Co  Co23  1  0.941080  0.750000  0.007997  1
  Bi  Bi24  1  0.569980  0.492424  0.825631  1
  Bi  Bi25  1  0.430020  0.507576  0.174369  1
  Bi  Bi26  1  0.069980  0.507576  0.674369  1
  Bi  Bi27  1  0.430020  0.992424  0.174369  1
  Bi  Bi28  1  0.930020  0.492424  0.325631  1
  Bi  Bi29  1  0.569980  0.007576  0.825631  1
  Bi  Bi30  1  0.930020  0.007576  0.325631  1
  Bi  Bi31  1  0.069980  0.992424  0.674369  1
