# generated using pymatgen
data_Ce8Si12Os3Pt
_symmetry_space_group_name_H-M   'P 1'
_cell_length_a   8.24768570
_cell_length_b   8.24879645
_cell_length_c   8.19796302
_cell_angle_alpha   90.00390136
_cell_angle_beta   89.99165171
_cell_angle_gamma   120.02749182
_symmetry_Int_Tables_number   1
_chemical_formula_structural   Ce8Si12Os3Pt
_chemical_formula_sum   'Ce8 Si12 Os3 Pt1'
_cell_volume   482.87964008
_cell_formula_units_Z   1
loop_
 _symmetry_equiv_pos_site_id
 _symmetry_equiv_pos_as_xyz
  1  'x, y, z'
loop_
 _atom_site_type_symbol
 _atom_site_label
 _atom_site_symmetry_multiplicity
 _atom_site_fract_x
 _atom_site_fract_y
 _atom_site_fract_z
 _atom_site_occupancy
  Ce  Ce0  1  0.000006  0.000000  0.249326  1
  Ce  Ce1  1  0.000004  0.000012  0.749787  1
  Ce  Ce2  1  0.503807  0.496209  0.254884  1
  Ce  Ce3  1  0.503757  0.007564  0.254897  1
  Ce  Ce4  1  0.992395  0.496228  0.254893  1
  Ce  Ce5  1  0.501818  0.498183  0.745548  1
  Ce  Ce6  1  0.501762  0.003561  0.745539  1
  Ce  Ce7  1  0.996423  0.498230  0.745533  1
  Si  Si8  1  0.165710  0.834272  0.498805  1
  Si  Si9  1  0.165774  0.331509  0.498785  1
  Si  Si10  1  0.668516  0.834232  0.498727  1
  Si  Si11  1  0.835283  0.164749  0.500759  1
  Si  Si12  1  0.835243  0.670513  0.500737  1
  Si  Si13  1  0.329492  0.164779  0.500675  1
  Si  Si14  1  0.833904  0.166127  0.002553  1
  Si  Si15  1  0.833845  0.667725  0.002583  1
  Si  Si16  1  0.332281  0.166170  0.002658  1
  Si  Si17  1  0.164271  0.835706  0.997727  1
  Si  Si18  1  0.164323  0.328590  0.997769  1
  Si  Si19  1  0.671397  0.835665  0.997827  1
  Os  Os20  1  0.333355  0.666778  0.499928  1
  Os  Os21  1  0.666653  0.333258  0.502614  1
  Os  Os22  1  0.666654  0.333222  0.990130  1
  Pt  Pt23  1  0.333328  0.666719  0.007315  1
