# generated using pymatgen
data_LiY4Ho4InRh2
_symmetry_space_group_name_H-M   'P 1'
_cell_length_a   9.65314245
_cell_length_b   9.67277714
_cell_length_c   9.69161987
_cell_angle_alpha   59.74389117
_cell_angle_beta   59.67114140
_cell_angle_gamma   59.77185529
_symmetry_Int_Tables_number   1
_chemical_formula_structural   LiY4Ho4InRh2
_chemical_formula_sum   'Li2 Y8 Ho8 In2 Rh4'
_cell_volume   635.94417593
_cell_formula_units_Z   2
loop_
 _symmetry_equiv_pos_site_id
 _symmetry_equiv_pos_as_xyz
  1  'x, y, z'
loop_
 _atom_site_type_symbol
 _atom_site_label
 _atom_site_symmetry_multiplicity
 _atom_site_fract_x
 _atom_site_fract_y
 _atom_site_fract_z
 _atom_site_occupancy
  Li  Li0  1  0.822576  0.822682  0.825004  1
  Li  Li1  1  0.822962  0.823099  0.527829  1
  Y  Y2  1  0.185722  0.186575  0.813727  1
  Y  Y3  1  0.600611  0.599404  0.198568  1
  Y  Y4  1  0.439482  0.060550  0.439146  1
  Y  Y5  1  0.441993  0.442038  0.057032  1
  Y  Y6  1  0.814219  0.187186  0.813628  1
  Y  Y7  1  0.184746  0.813734  0.188085  1
  Y  Y8  1  0.437846  0.062727  0.060228  1
  Y  Y9  1  0.186798  0.813392  0.813640  1
  Ho  Ho10  1  0.063004  0.437739  0.060873  1
  Ho  Ho11  1  0.811685  0.810783  0.189695  1
  Ho  Ho12  1  0.207950  0.597350  0.598537  1
  Ho  Ho13  1  0.061047  0.439027  0.438576  1
  Ho  Ho14  1  0.066318  0.066333  0.431672  1
  Ho  Ho15  1  0.813961  0.185947  0.187665  1
  Ho  Ho16  1  0.597803  0.208783  0.597730  1
  Ho  Ho17  1  0.598824  0.598007  0.600593  1
  In  In18  1  0.505688  0.834338  0.829036  1
  In  In19  1  0.833969  0.505520  0.829358  1
  Rh  Rh20  1  0.393710  0.821702  0.394005  1
  Rh  Rh21  1  0.391786  0.393799  0.392668  1
  Rh  Rh22  1  0.824515  0.394193  0.392017  1
  Rh  Rh23  1  0.392787  0.395095  0.820692  1
