# generated using pymatgen
data_RbTlAg2(NO3)8
_symmetry_space_group_name_H-M   'P 1'
_cell_length_a   8.38337368
_cell_length_b   8.33844931
_cell_length_c   8.02464994
_cell_angle_alpha   91.36220281
_cell_angle_beta   87.46357124
_cell_angle_gamma   90.96099410
_symmetry_Int_Tables_number   1
_chemical_formula_structural   RbTlAg2(NO3)8
_chemical_formula_sum   'Rb1 Tl1 Ag2 N8 O24'
_cell_volume   560.18047423
_cell_formula_units_Z   1
loop_
 _symmetry_equiv_pos_site_id
 _symmetry_equiv_pos_as_xyz
  1  'x, y, z'
loop_
 _atom_site_type_symbol
 _atom_site_label
 _atom_site_symmetry_multiplicity
 _atom_site_fract_x
 _atom_site_fract_y
 _atom_site_fract_z
 _atom_site_occupancy
  Rb  Rb0  1  0.000000  0.000000  0.000000  1
  Tl  Tl1  1  0.000000  0.500000  0.500000  1
  Ag  Ag2  1  0.500000  0.500000  0.000000  1
  Ag  Ag3  1  0.500000  0.000000  0.500000  1
  N  N4  1  0.334069  0.346660  0.304171  1
  N  N5  1  0.364900  0.189399  0.828592  1
  N  N6  1  0.201869  0.833763  0.370326  1
  N  N7  1  0.854843  0.356024  0.197839  1
  N  N8  1  0.665931  0.653340  0.695829  1
  N  N9  1  0.145157  0.643976  0.802161  1
  N  N10  1  0.798131  0.166237  0.629674  1
  N  N11  1  0.635100  0.810601  0.171408  1
  O  O12  1  0.767681  0.331424  0.078920  1
  O  O13  1  0.219098  0.950855  0.278940  1
  O  O14  1  0.298020  0.807611  0.485538  1
  O  O15  1  0.261613  0.210118  0.941893  1
  O  O16  1  0.236690  0.332103  0.429760  1
  O  O17  1  0.448166  0.254942  0.281577  1
  O  O18  1  0.309851  0.459796  0.202424  1
  O  O19  1  0.166154  0.508538  0.713986  1
  O  O20  1  0.915976  0.264764  0.651253  1
  O  O21  1  0.651654  0.929471  0.274680  1
  O  O22  1  0.039836  0.737010  0.759897  1
  O  O23  1  0.513624  0.717981  0.187785  1
  O  O24  1  0.780902  0.049145  0.721060  1
  O  O25  1  0.701980  0.192389  0.514462  1
  O  O26  1  0.738387  0.789882  0.058107  1
  O  O27  1  0.232319  0.668576  0.921080  1
  O  O28  1  0.763310  0.667897  0.570240  1
  O  O29  1  0.551834  0.745058  0.718423  1
  O  O30  1  0.690149  0.540204  0.797576  1
  O  O31  1  0.833846  0.491462  0.286014  1
  O  O32  1  0.084024  0.735236  0.348747  1
  O  O33  1  0.348346  0.070529  0.725320  1
  O  O34  1  0.960164  0.262990  0.240103  1
  O  O35  1  0.486376  0.282019  0.812215  1
