# generated using pymatgen
data_LiY19(Cd3Os)2
_symmetry_space_group_name_H-M   'P 1'
_cell_length_a   9.56599300
_cell_length_b   9.56599792
_cell_length_c   9.83375500
_cell_angle_alpha   90.00022970
_cell_angle_beta   89.99978149
_cell_angle_gamma   119.99978089
_symmetry_Int_Tables_number   1
_chemical_formula_structural   LiY19(Cd3Os)2
_chemical_formula_sum   'Li1 Y19 Cd6 Os2'
_cell_volume   779.31191322
_cell_formula_units_Z   1
loop_
 _symmetry_equiv_pos_site_id
 _symmetry_equiv_pos_as_xyz
  1  'x, y, z'
loop_
 _atom_site_type_symbol
 _atom_site_label
 _atom_site_symmetry_multiplicity
 _atom_site_fract_x
 _atom_site_fract_y
 _atom_site_fract_z
 _atom_site_occupancy
  Li  Li0  1  0.000000  0.000000  0.500000  1
  Y  Y1  1  0.000000  0.000000  0.000000  1
  Y  Y2  1  0.207943  0.792058  0.440505  1
  Y  Y3  1  0.207943  0.415886  0.440504  1
  Y  Y4  1  0.584116  0.792058  0.440505  1
  Y  Y5  1  0.792057  0.207942  0.559495  1
  Y  Y6  1  0.792057  0.584114  0.559496  1
  Y  Y7  1  0.415884  0.207942  0.559495  1
  Y  Y8  1  0.789586  0.210414  0.941740  1
  Y  Y9  1  0.789585  0.579171  0.941739  1
  Y  Y10  1  0.420829  0.210415  0.941739  1
  Y  Y11  1  0.210414  0.789586  0.058260  1
  Y  Y12  1  0.210415  0.420829  0.058261  1
  Y  Y13  1  0.579171  0.789585  0.058261  1
  Y  Y14  1  0.540932  0.459068  0.252107  1
  Y  Y15  1  0.540931  0.081863  0.252107  1
  Y  Y16  1  0.918137  0.459069  0.252107  1
  Y  Y17  1  0.459068  0.540932  0.747893  1
  Y  Y18  1  0.459069  0.918137  0.747893  1
  Y  Y19  1  0.081863  0.540931  0.747893  1
  Cd  Cd20  1  0.888492  0.111507  0.258013  1
  Cd  Cd21  1  0.888491  0.776985  0.258014  1
  Cd  Cd22  1  0.223016  0.111509  0.258014  1
  Cd  Cd23  1  0.111508  0.888493  0.741987  1
  Cd  Cd24  1  0.111509  0.223015  0.741986  1
  Cd  Cd25  1  0.776984  0.888491  0.741986  1
  Os  Os26  1  0.333335  0.666668  0.250506  1
  Os  Os27  1  0.666665  0.333332  0.749494  1
