# generated using pymatgen
data_Mg4Zn6IrPd
_symmetry_space_group_name_H-M   'P 1'
_cell_length_a   5.18267155
_cell_length_b   5.24435936
_cell_length_c   8.42192700
_cell_angle_alpha   90.00000000
_cell_angle_beta   90.00000000
_cell_angle_gamma   120.34404192
_symmetry_Int_Tables_number   1
_chemical_formula_structural   Mg4Zn6IrPd
_chemical_formula_sum   'Mg4 Zn6 Ir1 Pd1'
_cell_volume   197.54778358
_cell_formula_units_Z   1
loop_
 _symmetry_equiv_pos_site_id
 _symmetry_equiv_pos_as_xyz
  1  'x, y, z'
loop_
 _atom_site_type_symbol
 _atom_site_label
 _atom_site_symmetry_multiplicity
 _atom_site_fract_x
 _atom_site_fract_y
 _atom_site_fract_z
 _atom_site_occupancy
  Mg  Mg0  1  0.323431  0.652696  0.063014  1
  Mg  Mg1  1  0.675008  0.334157  0.568782  1
  Mg  Mg2  1  0.675008  0.334157  0.931218  1
  Mg  Mg3  1  0.323431  0.652696  0.436986  1
  Zn  Zn4  1  0.003500  0.014682  0.999581  1
  Zn  Zn5  1  0.003500  0.014682  0.500419  1
  Zn  Zn6  1  0.337695  0.165363  0.250000  1
  Zn  Zn7  1  0.662194  0.827735  0.750000  1
  Zn  Zn8  1  0.169886  0.830014  0.750000  1
  Zn  Zn9  1  0.830935  0.664426  0.250000  1
  Ir  Ir10  1  0.176047  0.343487  0.750000  1
  Pd  Pd11  1  0.819367  0.165906  0.250000  1
