# generated using pymatgen
data_Tb3Er3Al24Pd3Ru5
_symmetry_space_group_name_H-M   'P 1'
_cell_length_a   8.83552751
_cell_length_b   8.80936137
_cell_length_c   9.55340013
_cell_angle_alpha   90.14381992
_cell_angle_beta   89.89461942
_cell_angle_gamma   119.46202504
_symmetry_Int_Tables_number   1
_chemical_formula_structural   Tb3Er3Al24Pd3Ru5
_chemical_formula_sum   'Tb3 Er3 Al24 Pd3 Ru5'
_cell_volume   647.43013399
_cell_formula_units_Z   1
loop_
 _symmetry_equiv_pos_site_id
 _symmetry_equiv_pos_as_xyz
  1  'x, y, z'
loop_
 _atom_site_type_symbol
 _atom_site_label
 _atom_site_symmetry_multiplicity
 _atom_site_fract_x
 _atom_site_fract_y
 _atom_site_fract_z
 _atom_site_occupancy
  Tb  Tb0  1  0.188000  0.385313  0.252143  1
  Tb  Tb1  1  0.811753  0.614510  0.747843  1
  Tb  Tb2  1  0.616604  0.810755  0.250323  1
  Er  Er3  1  0.385109  0.189790  0.749331  1
  Er  Er4  1  0.191893  0.805191  0.250728  1
  Er  Er5  1  0.807739  0.194845  0.749250  1
  Al  Al6  1  0.327466  0.664349  0.026485  1
  Al  Al7  1  0.671900  0.335310  0.972870  1
  Al  Al8  1  0.669003  0.329935  0.525939  1
  Al  Al9  1  0.330421  0.669913  0.474624  1
  Al  Al10  1  0.157725  0.325011  0.577657  1
  Al  Al11  1  0.842432  0.674700  0.422706  1
  Al  Al12  1  0.675588  0.843228  0.576685  1
  Al  Al13  1  0.842687  0.675518  0.077753  1
  Al  Al14  1  0.324257  0.156733  0.423942  1
  Al  Al15  1  0.157464  0.324171  0.921861  1
  Al  Al16  1  0.164209  0.837086  0.577437  1
  Al  Al17  1  0.322420  0.161982  0.079025  1
  Al  Al18  1  0.835926  0.163404  0.422946  1
  Al  Al19  1  0.677470  0.837921  0.920386  1
  Al  Al20  1  0.842117  0.168197  0.078919  1
  Al  Al21  1  0.158012  0.832201  0.920742  1
  Al  Al22  1  0.561416  0.124690  0.253265  1
  Al  Al23  1  0.438318  0.875735  0.746869  1
  Al  Al24  1  0.877087  0.439977  0.249776  1
  Al  Al25  1  0.122915  0.559984  0.750248  1
  Al  Al26  1  0.563536  0.436840  0.249707  1
  Al  Al27  1  0.436255  0.562357  0.750276  1
  Al  Al28  1  0.997731  0.000474  0.250251  1
  Al  Al29  1  0.003289  0.000124  0.749761  1
  Pd  Pd30  1  0.499920  0.000042  0.999871  1
  Pd  Pd31  1  0.499919  0.499840  0.999874  1
  Pd  Pd32  1  0.499930  0.499876  0.500111  1
  Ru  Ru33  1  0.999807  0.499908  0.999890  1
  Ru  Ru34  1  0.499828  0.000279  0.500341  1
  Ru  Ru35  1  0.999811  0.499865  0.500141  1
  Ru  Ru36  1  0.000030  0.999976  0.999946  1
  Ru  Ru37  1  0.000013  0.999973  0.500077  1
