# generated using pymatgen
data_Dy9Y7MgCo4Hg3
_symmetry_space_group_name_H-M   'P 1'
_cell_length_a   9.52193616
_cell_length_b   9.49936517
_cell_length_c   9.49669400
_cell_angle_alpha   60.00930837
_cell_angle_beta   60.08766092
_cell_angle_gamma   60.16675881
_symmetry_Int_Tables_number   1
_chemical_formula_structural   Dy9Y7MgCo4Hg3
_chemical_formula_sum   'Dy9 Y7 Mg1 Co4 Hg3'
_cell_volume   608.61117336
_cell_formula_units_Z   1
loop_
 _symmetry_equiv_pos_site_id
 _symmetry_equiv_pos_as_xyz
  1  'x, y, z'
loop_
 _atom_site_type_symbol
 _atom_site_label
 _atom_site_symmetry_multiplicity
 _atom_site_fract_x
 _atom_site_fract_y
 _atom_site_fract_z
 _atom_site_occupancy
  Dy  Dy0  1  0.347221  0.345179  0.344491  1
  Dy  Dy1  1  0.347221  0.345179  0.963109  1
  Dy  Dy2  1  0.347676  0.962054  0.345135  1
  Dy  Dy3  1  0.952231  0.349569  0.349100  1
  Dy  Dy4  1  0.809117  0.189265  0.190335  1
  Dy  Dy5  1  0.185264  0.812615  0.813876  1
  Dy  Dy6  1  0.185264  0.812615  0.188245  1
  Dy  Dy7  1  0.809117  0.189265  0.811284  1
  Dy  Dy8  1  0.185804  0.187556  0.813320  1
  Y  Y9  1  0.809278  0.810669  0.190027  1
  Y  Y10  1  0.938292  0.561177  0.561742  1
  Y  Y11  1  0.560489  0.939103  0.937885  1
  Y  Y12  1  0.560489  0.939103  0.562523  1
  Y  Y13  1  0.938292  0.561177  0.938790  1
  Y  Y14  1  0.560694  0.562218  0.938544  1
  Y  Y15  1  0.937538  0.939729  0.561367  1
  Mg  Mg16  1  0.285140  0.571309  0.571776  1
  Co  Co17  1  0.139111  0.142624  0.141444  1
  Co  Co18  1  0.139111  0.142624  0.576822  1
  Co  Co19  1  0.141055  0.576189  0.141378  1
  Co  Co20  1  0.576040  0.143318  0.140321  1
  Hg  Hg21  1  0.581788  0.585414  0.585320  1
  Hg  Hg22  1  0.581788  0.585414  0.247480  1
  Hg  Hg23  1  0.581980  0.246639  0.585691  1
