# generated using pymatgen
data_PrHo2Co8P6Ru
_symmetry_space_group_name_H-M   'P 1'
_cell_length_a   3.73009200
_cell_length_b   10.57777200
_cell_length_c   12.31393300
_cell_angle_alpha   90.00000000
_cell_angle_beta   90.00000000
_cell_angle_gamma   90.00000000
_symmetry_Int_Tables_number   1
_chemical_formula_structural   PrHo2Co8P6Ru
_chemical_formula_sum   'Pr2 Ho4 Co16 P12 Ru2'
_cell_volume   485.85931272
_cell_formula_units_Z   2
loop_
 _symmetry_equiv_pos_site_id
 _symmetry_equiv_pos_as_xyz
  1  'x, y, z'
loop_
 _atom_site_type_symbol
 _atom_site_label
 _atom_site_symmetry_multiplicity
 _atom_site_fract_x
 _atom_site_fract_y
 _atom_site_fract_z
 _atom_site_occupancy
  Pr  Pr0  1  0.000000  0.500000  0.525638  1
  Pr  Pr1  1  0.500000  0.000000  0.474362  1
  Ho  Ho2  1  0.500000  0.816542  0.205253  1
  Ho  Ho3  1  0.500000  0.183458  0.205253  1
  Ho  Ho4  1  0.000000  0.683458  0.794747  1
  Ho  Ho5  1  0.000000  0.316542  0.794747  1
  Co  Co6  1  0.000000  0.500000  0.986587  1
  Co  Co7  1  0.500000  0.000000  0.013413  1
  Co  Co8  1  0.500000  0.296000  0.429289  1
  Co  Co9  1  0.500000  0.704000  0.429289  1
  Co  Co10  1  0.000000  0.204000  0.570711  1
  Co  Co11  1  0.000000  0.796000  0.570711  1
  Co  Co12  1  0.500000  0.879431  0.710565  1
  Co  Co13  1  0.500000  0.120569  0.710565  1
  Co  Co14  1  0.000000  0.620569  0.289435  1
  Co  Co15  1  0.000000  0.379431  0.289435  1
  Co  Co16  1  0.500000  0.332266  0.990761  1
  Co  Co17  1  0.500000  0.667734  0.990761  1
  Co  Co18  1  0.000000  0.167734  0.009239  1
  Co  Co19  1  0.000000  0.832266  0.009239  1
  Co  Co20  1  0.500000  0.500000  0.707870  1
  Co  Co21  1  0.000000  0.000000  0.292130  1
  P  P22  1  0.500000  0.307308  0.618371  1
  P  P23  1  0.500000  0.692692  0.618371  1
  P  P24  1  0.000000  0.192692  0.381629  1
  P  P25  1  0.000000  0.807308  0.381629  1
  P  P26  1  0.500000  0.500000  0.883506  1
  P  P27  1  0.000000  0.000000  0.116494  1
  P  P28  1  0.500000  0.846395  0.894283  1
  P  P29  1  0.500000  0.153605  0.894283  1
  P  P30  1  0.000000  0.653605  0.105717  1
  P  P31  1  0.000000  0.346395  0.105717  1
  P  P32  1  0.500000  0.500000  0.345855  1
  P  P33  1  0.000000  0.000000  0.654145  1
  Ru  Ru34  1  0.500000  0.500000  0.157601  1
  Ru  Ru35  1  0.000000  0.000000  0.842399  1
