# generated using pymatgen
data_Er8TlInRuRh
_symmetry_space_group_name_H-M   'P 1'
_cell_length_a   9.58577274
_cell_length_b   9.58370933
_cell_length_c   9.58370912
_cell_angle_alpha   59.97221379
_cell_angle_beta   59.99287587
_cell_angle_gamma   59.99288063
_symmetry_Int_Tables_number   1
_chemical_formula_structural   Er8TlInRuRh
_chemical_formula_sum   'Er16 Tl2 In2 Ru2 Rh2'
_cell_volume   622.35956335
_cell_formula_units_Z   2
loop_
 _symmetry_equiv_pos_site_id
 _symmetry_equiv_pos_as_xyz
  1  'x, y, z'
loop_
 _atom_site_type_symbol
 _atom_site_label
 _atom_site_symmetry_multiplicity
 _atom_site_fract_x
 _atom_site_fract_y
 _atom_site_fract_z
 _atom_site_occupancy
  Er  Er0  1  0.188998  0.193425  0.809008  1
  Er  Er1  1  0.438404  0.061596  0.061596  1
  Er  Er2  1  0.442235  0.059711  0.438214  1
  Er  Er3  1  0.059839  0.438214  0.059711  1
  Er  Er4  1  0.651818  0.046258  0.650105  1
  Er  Er5  1  0.191131  0.808869  0.808869  1
  Er  Er6  1  0.059839  0.059711  0.438214  1
  Er  Er7  1  0.807996  0.192004  0.192004  1
  Er  Er8  1  0.808569  0.809008  0.193425  1
  Er  Er9  1  0.651818  0.650105  0.046258  1
  Er  Er10  1  0.654036  0.650361  0.650361  1
  Er  Er11  1  0.060002  0.439998  0.439998  1
  Er  Er12  1  0.045243  0.650361  0.650361  1
  Er  Er13  1  0.808569  0.193425  0.809008  1
  Er  Er14  1  0.442235  0.438214  0.059711  1
  Er  Er15  1  0.188998  0.809008  0.193425  1
  Tl  Tl16  1  0.416270  0.752819  0.414641  1
  Tl  Tl17  1  0.416270  0.414641  0.752819  1
  In  In18  1  0.750875  0.415946  0.415946  1
  In  In19  1  0.417233  0.415946  0.415946  1
  Ru  Ru20  1  0.859050  0.422430  0.859470  1
  Ru  Ru21  1  0.859050  0.859470  0.422430  1
  Rh  Rh22  1  0.422457  0.859237  0.859237  1
  Rh  Rh23  1  0.859067  0.859237  0.859237  1
