# generated using pymatgen
data_Hf4PtRhO
_symmetry_space_group_name_H-M   'P 1'
_cell_length_a   8.75911020
_cell_length_b   8.75911073
_cell_length_c   8.75911100
_cell_angle_alpha   60.00000276
_cell_angle_beta   60.00000074
_cell_angle_gamma   59.99999815
_symmetry_Int_Tables_number   1
_chemical_formula_structural   Hf4PtRhO
_chemical_formula_sum   'Hf16 Pt4 Rh4 O4'
_cell_volume   475.18753990
_cell_formula_units_Z   4
loop_
 _symmetry_equiv_pos_site_id
 _symmetry_equiv_pos_as_xyz
  1  'x, y, z'
loop_
 _atom_site_type_symbol
 _atom_site_label
 _atom_site_symmetry_multiplicity
 _atom_site_fract_x
 _atom_site_fract_y
 _atom_site_fract_z
 _atom_site_occupancy
  Hf  Hf0  1  0.112320  0.629227  0.629227  1
  Hf  Hf1  1  0.629227  0.112320  0.629227  1
  Hf  Hf2  1  0.629227  0.629227  0.112320  1
  Hf  Hf3  1  0.629227  0.629227  0.629227  1
  Hf  Hf4  1  0.815487  0.815487  0.184513  1
  Hf  Hf5  1  0.184513  0.184513  0.815487  1
  Hf  Hf6  1  0.815487  0.184513  0.815487  1
  Hf  Hf7  1  0.184513  0.815487  0.184513  1
  Hf  Hf8  1  0.184513  0.815487  0.815487  1
  Hf  Hf9  1  0.815487  0.184513  0.184513  1
  Hf  Hf10  1  0.435655  0.435655  0.064345  1
  Hf  Hf11  1  0.064345  0.064345  0.435655  1
  Hf  Hf12  1  0.435655  0.064345  0.435655  1
  Hf  Hf13  1  0.064345  0.435655  0.064345  1
  Hf  Hf14  1  0.064345  0.435655  0.435655  1
  Hf  Hf15  1  0.435655  0.064345  0.064345  1
  Pt  Pt16  1  0.785102  0.404966  0.404966  1
  Pt  Pt17  1  0.404966  0.785102  0.404966  1
  Pt  Pt18  1  0.404966  0.404966  0.785102  1
  Pt  Pt19  1  0.404966  0.404966  0.404966  1
  Rh  Rh20  1  0.458806  0.847065  0.847065  1
  Rh  Rh21  1  0.847065  0.458806  0.847065  1
  Rh  Rh22  1  0.847065  0.847065  0.458806  1
  Rh  Rh23  1  0.847065  0.847065  0.847065  1
  O  O24  1  0.624578  0.125141  0.125141  1
  O  O25  1  0.125141  0.624578  0.125141  1
  O  O26  1  0.125141  0.125141  0.624578  1
  O  O27  1  0.125141  0.125141  0.125141  1
