# generated using pymatgen
data_Pa3Co3(BiSb)2
_symmetry_space_group_name_H-M   'P 1'
_cell_length_a   8.18032687
_cell_length_b   8.18032656
_cell_length_c   8.18032700
_cell_angle_alpha   109.47122421
_cell_angle_beta   109.47122344
_cell_angle_gamma   109.47121159
_symmetry_Int_Tables_number   1
_chemical_formula_structural   Pa3Co3(BiSb)2
_chemical_formula_sum   'Pa6 Co6 Bi4 Sb4'
_cell_volume   421.39568714
_cell_formula_units_Z   2
loop_
 _symmetry_equiv_pos_site_id
 _symmetry_equiv_pos_as_xyz
  1  'x, y, z'
loop_
 _atom_site_type_symbol
 _atom_site_label
 _atom_site_symmetry_multiplicity
 _atom_site_fract_x
 _atom_site_fract_y
 _atom_site_fract_z
 _atom_site_occupancy
  Pa  Pa0  1  0.882299  0.250000  0.132299  1
  Pa  Pa1  1  0.617701  0.750000  0.367701  1
  Pa  Pa2  1  0.250000  0.132299  0.882299  1
  Pa  Pa3  1  0.750000  0.367701  0.617701  1
  Pa  Pa4  1  0.132299  0.882299  0.250000  1
  Pa  Pa5  1  0.367701  0.617701  0.750000  1
  Co  Co6  1  0.367483  0.250000  0.617483  1
  Co  Co7  1  0.132517  0.750000  0.882517  1
  Co  Co8  1  0.250000  0.617483  0.367483  1
  Co  Co9  1  0.750000  0.882517  0.132517  1
  Co  Co10  1  0.617483  0.367483  0.250000  1
  Co  Co11  1  0.882517  0.132517  0.750000  1
  Bi  Bi12  1  0.670222  0.500000  0.000000  1
  Bi  Bi13  1  0.500000  0.000000  0.670222  1
  Bi  Bi14  1  0.000000  0.670222  0.500000  1
  Bi  Bi15  1  0.829778  0.829778  0.829778  1
  Sb  Sb16  1  0.500000  0.000000  0.161661  1
  Sb  Sb17  1  0.161661  0.500000  0.000000  1
  Sb  Sb18  1  0.000000  0.161661  0.500000  1
  Sb  Sb19  1  0.338339  0.338339  0.338339  1
