# generated using pymatgen
data_Pr2FeOsI
_symmetry_space_group_name_H-M   'P 1'
_cell_length_a   4.19957400
_cell_length_b   4.19957470
_cell_length_c   18.00712300
_cell_angle_alpha   90.00000000
_cell_angle_beta   90.00000000
_cell_angle_gamma   120.00001024
_symmetry_Int_Tables_number   1
_chemical_formula_structural   Pr2FeOsI
_chemical_formula_sum   'Pr4 Fe2 Os2 I2'
_cell_volume   275.03341854
_cell_formula_units_Z   2
loop_
 _symmetry_equiv_pos_site_id
 _symmetry_equiv_pos_as_xyz
  1  'x, y, z'
loop_
 _atom_site_type_symbol
 _atom_site_label
 _atom_site_symmetry_multiplicity
 _atom_site_fract_x
 _atom_site_fract_y
 _atom_site_fract_z
 _atom_site_occupancy
  Pr  Pr0  1  0.000000  0.000000  0.106078  1
  Pr  Pr1  1  0.000000  0.000000  0.606078  1
  Pr  Pr2  1  0.000000  0.000000  0.893869  1
  Pr  Pr3  1  0.000000  0.000000  0.393869  1
  Fe  Fe4  1  0.333333  0.666667  0.003899  1
  Fe  Fe5  1  0.666667  0.333333  0.503899  1
  Os  Os6  1  0.666667  0.333333  0.996489  1
  Os  Os7  1  0.333333  0.666667  0.496489  1
  I  I8  1  0.666667  0.333333  0.249666  1
  I  I9  1  0.333333  0.666667  0.749666  1
