# generated using pymatgen
data_DyEr2Mg3Ag2Os
_symmetry_space_group_name_H-M   'P 1'
_cell_length_a   7.70540497
_cell_length_b   7.69957221
_cell_length_c   3.96935600
_cell_angle_alpha   90.00000000
_cell_angle_beta   90.00000000
_cell_angle_gamma   119.90861888
_symmetry_Int_Tables_number   1
_chemical_formula_structural   DyEr2Mg3Ag2Os
_chemical_formula_sum   'Dy1 Er2 Mg3 Ag2 Os1'
_cell_volume   204.13238870
_cell_formula_units_Z   1
loop_
 _symmetry_equiv_pos_site_id
 _symmetry_equiv_pos_as_xyz
  1  'x, y, z'
loop_
 _atom_site_type_symbol
 _atom_site_label
 _atom_site_symmetry_multiplicity
 _atom_site_fract_x
 _atom_site_fract_y
 _atom_site_fract_z
 _atom_site_occupancy
  Dy  Dy0  1  0.962642  0.566722  0.500000  1
  Er  Er1  1  0.433167  0.395015  0.500000  1
  Er  Er2  1  0.604720  0.038106  0.500000  1
  Mg  Mg3  1  0.743490  0.743123  0.000000  1
  Mg  Mg4  1  0.257492  0.001852  0.000000  1
  Mg  Mg5  1  0.998492  0.255051  0.000000  1
  Ag  Ag6  1  0.334775  0.667390  0.000000  1
  Ag  Ag7  1  0.000099  0.000728  0.500000  1
  Os  Os8  1  0.665124  0.332012  0.000000  1
