# generated using pymatgen
data_Zr3MnGa2N
_symmetry_space_group_name_H-M   'P 1'
_cell_length_a   8.56474634
_cell_length_b   8.56474637
_cell_length_c   8.56474600
_cell_angle_alpha   60.00000144
_cell_angle_beta   60.00000129
_cell_angle_gamma   59.99999655
_symmetry_Int_Tables_number   1
_chemical_formula_structural   Zr3MnGa2N
_chemical_formula_sum   'Zr12 Mn4 Ga8 N4'
_cell_volume   444.25108713
_cell_formula_units_Z   4
loop_
 _symmetry_equiv_pos_site_id
 _symmetry_equiv_pos_as_xyz
  1  'x, y, z'
loop_
 _atom_site_type_symbol
 _atom_site_label
 _atom_site_symmetry_multiplicity
 _atom_site_fract_x
 _atom_site_fract_y
 _atom_site_fract_z
 _atom_site_occupancy
  Zr  Zr0  1  0.807589  0.807603  0.192387  1
  Zr  Zr1  1  0.192534  0.192389  0.807544  1
  Zr  Zr2  1  0.807539  0.192371  0.807554  1
  Zr  Zr3  1  0.192419  0.807591  0.192406  1
  Zr  Zr4  1  0.192387  0.807602  0.807605  1
  Zr  Zr5  1  0.807528  0.192403  0.192535  1
  Zr  Zr6  1  0.442411  0.442397  0.057613  1
  Zr  Zr7  1  0.057466  0.057611  0.442456  1
  Zr  Zr8  1  0.442461  0.057629  0.442446  1
  Zr  Zr9  1  0.057581  0.442409  0.057594  1
  Zr  Zr10  1  0.057613  0.442398  0.442395  1
  Zr  Zr11  1  0.442472  0.057597  0.057465  1
  Mn  Mn12  1  0.125000  0.625000  0.625000  1
  Mn  Mn13  1  0.625000  0.125000  0.625000  1
  Mn  Mn14  1  0.625000  0.625000  0.125000  1
  Mn  Mn15  1  0.625000  0.625000  0.625000  1
  Ga  Ga16  1  0.749823  0.416582  0.416794  1
  Ga  Ga17  1  0.416738  0.749889  0.416681  1
  Ga  Ga18  1  0.416831  0.416553  0.749849  1
  Ga  Ga19  1  0.416823  0.416568  0.416766  1
  Ga  Ga20  1  0.500177  0.833418  0.833206  1
  Ga  Ga21  1  0.833262  0.500111  0.833319  1
  Ga  Ga22  1  0.833169  0.833447  0.500151  1
  Ga  Ga23  1  0.833177  0.833432  0.833234  1
  N  N24  1  0.625000  0.125000  0.125000  1
  N  N25  1  0.125000  0.625000  0.125000  1
  N  N26  1  0.125000  0.125000  0.625000  1
  N  N27  1  0.125000  0.125000  0.125000  1
