# generated using pymatgen
data_La5Sc3(As3Ir4)4
_symmetry_space_group_name_H-M   'P 1'
_cell_length_a   13.42053100
_cell_length_b   13.42053231
_cell_length_c   4.12862800
_cell_angle_alpha   90.00000000
_cell_angle_beta   90.00000000
_cell_angle_gamma   119.99999924
_symmetry_Int_Tables_number   1
_chemical_formula_structural   La5Sc3(As3Ir4)4
_chemical_formula_sum   'La5 Sc3 As12 Ir16'
_cell_volume   643.98511625
_cell_formula_units_Z   1
loop_
 _symmetry_equiv_pos_site_id
 _symmetry_equiv_pos_as_xyz
  1  'x, y, z'
loop_
 _atom_site_type_symbol
 _atom_site_label
 _atom_site_symmetry_multiplicity
 _atom_site_fract_x
 _atom_site_fract_y
 _atom_site_fract_z
 _atom_site_occupancy
  La  La0  1  0.333333  0.666667  0.500000  1
  La  La1  1  0.666667  0.333333  0.500000  1
  La  La2  1  0.000000  0.809718  0.000000  1
  La  La3  1  0.190282  0.190282  0.000000  1
  La  La4  1  0.809718  0.000000  0.000000  1
  Sc  Sc5  1  0.000000  0.438373  0.500000  1
  Sc  Sc6  1  0.561627  0.561627  0.500000  1
  Sc  Sc7  1  0.438373  0.000000  0.500000  1
  As  As8  1  0.000000  0.638761  0.500000  1
  As  As9  1  0.361239  0.361239  0.500000  1
  As  As10  1  0.638761  0.000000  0.500000  1
  As  As11  1  0.515822  0.683938  0.000000  1
  As  As12  1  0.316062  0.831884  0.000000  1
  As  As13  1  0.168116  0.484178  0.000000  1
  As  As14  1  0.484178  0.168116  0.000000  1
  As  As15  1  0.683938  0.515822  0.000000  1
  As  As16  1  0.831884  0.316062  0.000000  1
  As  As17  1  0.000000  0.179117  0.500000  1
  As  As18  1  0.820883  0.820883  0.500000  1
  As  As19  1  0.179117  0.000000  0.500000  1
  Ir  Ir20  1  0.518876  0.873304  0.000000  1
  Ir  Ir21  1  0.126696  0.645574  0.000000  1
  Ir  Ir22  1  0.354426  0.481124  0.000000  1
  Ir  Ir23  1  0.481124  0.354426  0.000000  1
  Ir  Ir24  1  0.873304  0.518876  0.000000  1
  Ir  Ir25  1  0.645574  0.126696  0.000000  1
  Ir  Ir26  1  0.000000  0.281910  0.000000  1
  Ir  Ir27  1  0.718090  0.718090  0.000000  1
  Ir  Ir28  1  0.281910  0.000000  0.000000  1
  Ir  Ir29  1  0.622129  0.799514  0.500000  1
  Ir  Ir30  1  0.200486  0.822615  0.500000  1
  Ir  Ir31  1  0.177385  0.377871  0.500000  1
  Ir  Ir32  1  0.377871  0.177385  0.500000  1
  Ir  Ir33  1  0.799514  0.622129  0.500000  1
  Ir  Ir34  1  0.822615  0.200486  0.500000  1
  Ir  Ir35  1  0.000000  0.000000  0.500000  1
