# generated using pymatgen
data_Dy2Er2Pa(FeB3)2
_symmetry_space_group_name_H-M   'P 1'
_cell_length_a   5.41565802
_cell_length_b   5.41565743
_cell_length_c   7.90094340
_cell_angle_alpha   69.95718893
_cell_angle_beta   69.95718930
_cell_angle_gamma   59.99998098
_symmetry_Int_Tables_number   1
_chemical_formula_structural   Dy2Er2Pa(FeB3)2
_chemical_formula_sum   'Dy2 Er2 Pa1 Fe2 B6'
_cell_volume   184.30020075
_cell_formula_units_Z   1
loop_
 _symmetry_equiv_pos_site_id
 _symmetry_equiv_pos_as_xyz
  1  'x, y, z'
loop_
 _atom_site_type_symbol
 _atom_site_label
 _atom_site_symmetry_multiplicity
 _atom_site_fract_x
 _atom_site_fract_y
 _atom_site_fract_z
 _atom_site_occupancy
  Dy  Dy0  1  0.412228  0.412228  0.763316  1
  Dy  Dy1  1  0.587772  0.587772  0.236684  1
  Er  Er2  1  0.253796  0.253796  0.238615  1
  Er  Er3  1  0.746204  0.746204  0.761385  1
  Pa  Pa4  1  0.000000  0.000000  0.000000  1
  Fe  Fe5  1  0.108277  0.108277  0.675170  1
  Fe  Fe6  1  0.891723  0.891723  0.324830  1
  B  B7  1  0.167146  0.832854  0.500000  1
  B  B8  1  0.832854  0.500000  0.500000  1
  B  B9  1  0.500000  0.167146  0.500000  1
  B  B10  1  0.167146  0.500000  0.500000  1
  B  B11  1  0.500000  0.832854  0.500000  1
  B  B12  1  0.832854  0.167146  0.500000  1
