# generated using pymatgen
data_Er4Ga20IrRu5
_symmetry_space_group_name_H-M   'P 1'
_cell_length_a   8.89992600
_cell_length_b   8.89992600
_cell_length_c   6.39035800
_cell_angle_alpha   90.00000000
_cell_angle_beta   90.00000000
_cell_angle_gamma   90.00000000
_symmetry_Int_Tables_number   1
_chemical_formula_structural   Er4Ga20IrRu5
_chemical_formula_sum   'Er4 Ga20 Ir1 Ru5'
_cell_volume   506.17183984
_cell_formula_units_Z   1
loop_
 _symmetry_equiv_pos_site_id
 _symmetry_equiv_pos_as_xyz
  1  'x, y, z'
loop_
 _atom_site_type_symbol
 _atom_site_label
 _atom_site_symmetry_multiplicity
 _atom_site_fract_x
 _atom_site_fract_y
 _atom_site_fract_z
 _atom_site_occupancy
  Er  Er0  1  0.683032  0.182661  0.000000  1
  Er  Er1  1  0.316968  0.817339  0.000000  1
  Er  Er2  1  0.817339  0.683032  0.000000  1
  Er  Er3  1  0.182661  0.316968  0.000000  1
  Ga  Ga4  1  0.938780  0.207054  0.292571  1
  Ga  Ga5  1  0.708348  0.438226  0.293869  1
  Ga  Ga6  1  0.500000  0.000000  0.285209  1
  Ga  Ga7  1  0.561774  0.708348  0.706131  1
  Ga  Ga8  1  0.291652  0.561774  0.706131  1
  Ga  Ga9  1  0.792946  0.938780  0.292571  1
  Ga  Ga10  1  0.938780  0.207054  0.707429  1
  Ga  Ga11  1  0.291652  0.561774  0.293869  1
  Ga  Ga12  1  0.061220  0.792946  0.292571  1
  Ga  Ga13  1  0.708348  0.438226  0.706131  1
  Ga  Ga14  1  0.438226  0.291652  0.706131  1
  Ga  Ga15  1  0.061220  0.792946  0.707429  1
  Ga  Ga16  1  0.207054  0.061220  0.707429  1
  Ga  Ga17  1  0.792946  0.938780  0.707429  1
  Ga  Ga18  1  0.207054  0.061220  0.292571  1
  Ga  Ga19  1  0.000000  0.500000  0.714791  1
  Ga  Ga20  1  0.000000  0.500000  0.285209  1
  Ga  Ga21  1  0.561774  0.708348  0.293869  1
  Ga  Ga22  1  0.438226  0.291652  0.293869  1
  Ga  Ga23  1  0.500000  0.000000  0.714791  1
  Ir  Ir24  1  0.500000  0.500000  0.000000  1
  Ru  Ru25  1  0.677670  0.179022  0.500000  1
  Ru  Ru26  1  0.820978  0.677670  0.500000  1
  Ru  Ru27  1  0.179022  0.322330  0.500000  1
  Ru  Ru28  1  0.000000  0.000000  0.000000  1
  Ru  Ru29  1  0.322330  0.820978  0.500000  1
