# generated using pymatgen
data_Sr8Li12Ta3NbN16
_symmetry_space_group_name_H-M   'P 1'
_cell_length_a   7.03159500
_cell_length_b   8.74033803
_cell_length_c   9.02365603
_cell_angle_alpha   90.00866999
_cell_angle_beta   90.00000000
_cell_angle_gamma   90.00000000
_symmetry_Int_Tables_number   1
_chemical_formula_structural   Sr8Li12Ta3NbN16
_chemical_formula_sum   'Sr8 Li12 Ta3 Nb1 N16'
_cell_volume   554.58051231
_cell_formula_units_Z   1
loop_
 _symmetry_equiv_pos_site_id
 _symmetry_equiv_pos_as_xyz
  1  'x, y, z'
loop_
 _atom_site_type_symbol
 _atom_site_label
 _atom_site_symmetry_multiplicity
 _atom_site_fract_x
 _atom_site_fract_y
 _atom_site_fract_z
 _atom_site_occupancy
  Sr  Sr0  1  0.000000  0.241938  0.753732  1
  Sr  Sr1  1  0.000000  0.758128  0.246310  1
  Sr  Sr2  1  0.500000  0.742013  0.746323  1
  Sr  Sr3  1  0.500000  0.258049  0.253660  1
  Sr  Sr4  1  0.260022  0.000138  0.000173  1
  Sr  Sr5  1  0.239941  0.500058  0.500104  1
  Sr  Sr6  1  0.739978  0.000138  0.000173  1
  Sr  Sr7  1  0.760059  0.500058  0.500104  1
  Li  Li8  1  0.237347  0.019107  0.365633  1
  Li  Li9  1  0.237252  0.980802  0.634423  1
  Li  Li10  1  0.262633  0.519083  0.134417  1
  Li  Li11  1  0.262782  0.480968  0.865454  1
  Li  Li12  1  0.762748  0.980802  0.634423  1
  Li  Li13  1  0.762653  0.019107  0.365633  1
  Li  Li14  1  0.737218  0.480968  0.865454  1
  Li  Li15  1  0.737367  0.519083  0.134417  1
  Li  Li16  1  0.000000  0.205313  0.422244  1
  Li  Li17  1  0.000000  0.794721  0.577388  1
  Li  Li18  1  0.500000  0.705267  0.077409  1
  Li  Li19  1  0.500000  0.294662  0.922292  1
  Ta  Ta20  1  0.000000  0.714186  0.862738  1
  Ta  Ta21  1  0.500000  0.785855  0.362720  1
  Ta  Ta22  1  0.500000  0.214113  0.637221  1
  Nb  Nb23  1  0.000000  0.286028  0.137414  1
  N  N24  1  0.235539  0.302596  0.018571  1
  N  N25  1  0.234431  0.697345  0.981048  1
  N  N26  1  0.265639  0.802592  0.481107  1
  N  N27  1  0.265526  0.197431  0.518905  1
  N  N28  1  0.765569  0.697345  0.981048  1
  N  N29  1  0.764461  0.302596  0.018571  1
  N  N30  1  0.734474  0.197431  0.518905  1
  N  N31  1  0.734361  0.802592  0.481107  1
  N  N32  1  0.000000  0.072790  0.221656  1
  N  N33  1  0.000000  0.925828  0.778575  1
  N  N34  1  0.500000  0.574143  0.278579  1
  N  N35  1  0.500000  0.425789  0.721432  1
  N  N36  1  0.000000  0.453845  0.284147  1
  N  N37  1  0.000000  0.547052  0.716513  1
  N  N38  1  0.500000  0.952938  0.216473  1
  N  N39  1  0.500000  0.047104  0.783503  1
