# generated using pymatgen
data_CaNd3(SiPd2)4
_symmetry_space_group_name_H-M   'P 1'
_cell_length_a   5.67289085
_cell_length_b   6.99340900
_cell_length_c   7.52018674
_cell_angle_alpha   90.00000000
_cell_angle_beta   89.83550245
_cell_angle_gamma   90.00000000
_symmetry_Int_Tables_number   1
_chemical_formula_structural   CaNd3(SiPd2)4
_chemical_formula_sum   'Ca1 Nd3 Si4 Pd8'
_cell_volume   298.34598034
_cell_formula_units_Z   1
loop_
 _symmetry_equiv_pos_site_id
 _symmetry_equiv_pos_as_xyz
  1  'x, y, z'
loop_
 _atom_site_type_symbol
 _atom_site_label
 _atom_site_symmetry_multiplicity
 _atom_site_fract_x
 _atom_site_fract_y
 _atom_site_fract_z
 _atom_site_occupancy
  Ca  Ca0  1  0.140970  0.750000  0.527729  1
  Nd  Nd1  1  0.860725  0.250000  0.471208  1
  Nd  Nd2  1  0.643176  0.250000  0.972094  1
  Nd  Nd3  1  0.357161  0.750000  0.030128  1
  Si  Si4  1  0.854856  0.750000  0.871739  1
  Si  Si5  1  0.145598  0.250000  0.124619  1
  Si  Si6  1  0.356957  0.250000  0.624441  1
  Si  Si7  1  0.643473  0.750000  0.377818  1
  Pd  Pd8  1  0.592356  0.552581  0.672087  1
  Pd  Pd9  1  0.407953  0.447676  0.326080  1
  Pd  Pd10  1  0.094465  0.447114  0.826604  1
  Pd  Pd11  1  0.407953  0.052324  0.326080  1
  Pd  Pd12  1  0.903768  0.553100  0.175341  1
  Pd  Pd13  1  0.592356  0.947419  0.672087  1
  Pd  Pd14  1  0.903768  0.946900  0.175341  1
  Pd  Pd15  1  0.094465  0.052886  0.826604  1
