# generated using pymatgen
data_Ba18Sr2Si11Bi
_symmetry_space_group_name_H-M   'P 1'
_cell_length_a   8.45267700
_cell_length_b   8.45267700
_cell_length_c   16.89733700
_cell_angle_alpha   90.00000000
_cell_angle_beta   90.00000000
_cell_angle_gamma   90.00000000
_symmetry_Int_Tables_number   1
_chemical_formula_structural   Ba18Sr2Si11Bi
_chemical_formula_sum   'Ba18 Sr2 Si11 Bi1'
_cell_volume   1207.27668373
_cell_formula_units_Z   1
loop_
 _symmetry_equiv_pos_site_id
 _symmetry_equiv_pos_as_xyz
  1  'x, y, z'
loop_
 _atom_site_type_symbol
 _atom_site_label
 _atom_site_symmetry_multiplicity
 _atom_site_fract_x
 _atom_site_fract_y
 _atom_site_fract_z
 _atom_site_occupancy
  Ba  Ba0  1  0.319823  0.679156  0.110947  1
  Ba  Ba1  1  0.179156  0.180177  0.110947  1
  Ba  Ba2  1  0.328225  0.691843  0.393389  1
  Ba  Ba3  1  0.663271  0.698730  0.888982  1
  Ba  Ba4  1  0.191843  0.171775  0.393389  1
  Ba  Ba5  1  0.671775  0.308157  0.393389  1
  Ba  Ba6  1  0.172317  0.810192  0.606227  1
  Ba  Ba7  1  0.336729  0.301270  0.888982  1
  Ba  Ba8  1  0.198730  0.836729  0.888982  1
  Ba  Ba9  1  0.827683  0.189808  0.606227  1
  Ba  Ba10  1  0.310192  0.327683  0.606227  1
  Ba  Ba11  1  0.808157  0.828225  0.393389  1
  Ba  Ba12  1  0.801270  0.163271  0.888982  1
  Ba  Ba13  1  0.820844  0.819823  0.110947  1
  Ba  Ba14  1  0.000000  0.500000  0.271473  1
  Ba  Ba15  1  0.000000  0.500000  0.764675  1
  Ba  Ba16  1  0.680177  0.320844  0.110947  1
  Ba  Ba17  1  0.689808  0.672317  0.606227  1
  Sr  Sr18  1  0.500000  0.000000  0.721343  1
  Sr  Sr19  1  0.500000  0.000000  0.237013  1
  Si  Si20  1  0.103715  0.100818  0.748727  1
  Si  Si21  1  0.399182  0.603715  0.748727  1
  Si  Si22  1  0.600325  0.604379  0.251296  1
  Si  Si23  1  0.500000  0.000000  0.016965  1
  Si  Si24  1  0.104379  0.899675  0.251296  1
  Si  Si25  1  0.600818  0.396285  0.748727  1
  Si  Si26  1  0.896285  0.899182  0.748727  1
  Si  Si27  1  0.399675  0.395621  0.251296  1
  Si  Si28  1  0.895621  0.100325  0.251296  1
  Si  Si29  1  0.500000  0.000000  0.514072  1
  Si  Si30  1  0.000000  0.500000  0.487389  1
  Bi  Bi31  1  0.000000  0.500000  0.988796  1
