# generated using pymatgen
data_PrNdTm2(MoN3)4
_symmetry_space_group_name_H-M   'P 1'
_cell_length_a   7.22668703
_cell_length_b   7.22668744
_cell_length_c   6.12558502
_cell_angle_alpha   76.67919574
_cell_angle_beta   76.67918806
_cell_angle_gamma   83.27310239
_symmetry_Int_Tables_number   1
_chemical_formula_structural   PrNdTm2(MoN3)4
_chemical_formula_sum   'Pr1 Nd1 Tm2 Mo4 N12'
_cell_volume   302.23236959
_cell_formula_units_Z   1
loop_
 _symmetry_equiv_pos_site_id
 _symmetry_equiv_pos_as_xyz
  1  'x, y, z'
loop_
 _atom_site_type_symbol
 _atom_site_label
 _atom_site_symmetry_multiplicity
 _atom_site_fract_x
 _atom_site_fract_y
 _atom_site_fract_z
 _atom_site_occupancy
  Pr  Pr0  1  0.313954  0.686046  0.750000  1
  Nd  Nd1  1  0.685871  0.314129  0.250000  1
  Tm  Tm2  1  0.914259  0.085741  0.750000  1
  Tm  Tm3  1  0.082967  0.917033  0.250000  1
  Mo  Mo4  1  0.805277  0.617967  0.737457  1
  Mo  Mo5  1  0.195591  0.381638  0.263286  1
  Mo  Mo6  1  0.618362  0.804409  0.236714  1
  Mo  Mo7  1  0.382033  0.194723  0.762543  1
  N  N8  1  0.212430  0.003264  0.858943  1
  N  N9  1  0.340627  0.378897  0.494836  1
  N  N10  1  0.663012  0.620480  0.503166  1
  N  N11  1  0.619047  0.102917  0.662982  1
  N  N12  1  0.996736  0.787570  0.641057  1
  N  N13  1  0.784643  0.999146  0.140722  1
  N  N14  1  0.106536  0.619905  0.164840  1
  N  N15  1  0.897083  0.380953  0.837018  1
  N  N16  1  0.000854  0.215357  0.359278  1
  N  N17  1  0.379520  0.336988  0.996834  1
  N  N18  1  0.621103  0.659373  0.005164  1
  N  N19  1  0.380095  0.893464  0.335160  1
