# generated using pymatgen
data_Nd2Ga6PtAu5
_symmetry_space_group_name_H-M   'P 1'
_cell_length_a   4.42588200
_cell_length_b   7.14806000
_cell_length_c   8.69823600
_cell_angle_alpha   90.00000000
_cell_angle_beta   90.00000000
_cell_angle_gamma   90.00000000
_symmetry_Int_Tables_number   1
_chemical_formula_structural   Nd2Ga6PtAu5
_chemical_formula_sum   'Nd2 Ga6 Pt1 Au5'
_cell_volume   275.18148304
_cell_formula_units_Z   1
loop_
 _symmetry_equiv_pos_site_id
 _symmetry_equiv_pos_as_xyz
  1  'x, y, z'
loop_
 _atom_site_type_symbol
 _atom_site_label
 _atom_site_symmetry_multiplicity
 _atom_site_fract_x
 _atom_site_fract_y
 _atom_site_fract_z
 _atom_site_occupancy
  Nd  Nd0  1  0.500000  0.000000  0.754671  1
  Nd  Nd1  1  0.000000  0.500000  0.247359  1
  Ga  Ga2  1  0.000000  0.308047  0.892065  1
  Ga  Ga3  1  0.500000  0.206862  0.104895  1
  Ga  Ga4  1  0.000000  0.691953  0.892065  1
  Ga  Ga5  1  0.000000  0.000000  0.374054  1
  Ga  Ga6  1  0.500000  0.793138  0.104895  1
  Ga  Ga7  1  0.500000  0.500000  0.634399  1
  Pt  Pt8  1  0.500000  0.500000  0.935659  1
  Au  Au9  1  0.000000  0.735426  0.601006  1
  Au  Au10  1  0.500000  0.762350  0.397759  1
  Au  Au11  1  0.000000  0.000000  0.062407  1
  Au  Au12  1  0.500000  0.237650  0.397759  1
  Au  Au13  1  0.000000  0.264574  0.601006  1
