# generated using pymatgen
data_Zr10AlInPb4
_symmetry_space_group_name_H-M   'P 1'
_cell_length_a   5.72492205
_cell_length_b   8.57273149
_cell_length_c   8.57273100
_cell_angle_alpha   96.40128976
_cell_angle_beta   109.50584748
_cell_angle_gamma   70.49414651
_symmetry_Int_Tables_number   1
_chemical_formula_structural   Zr10AlInPb4
_chemical_formula_sum   'Zr10 Al1 In1 Pb4'
_cell_volume   373.82615735
_cell_formula_units_Z   1
loop_
 _symmetry_equiv_pos_site_id
 _symmetry_equiv_pos_as_xyz
  1  'x, y, z'
loop_
 _atom_site_type_symbol
 _atom_site_label
 _atom_site_symmetry_multiplicity
 _atom_site_fract_x
 _atom_site_fract_y
 _atom_site_fract_z
 _atom_site_occupancy
  Zr  Zr0  1  0.418439  0.858305  0.706475  1
  Zr  Zr1  1  0.570268  0.141695  0.293525  1
  Zr  Zr2  1  0.929732  0.293525  0.141695  1
  Zr  Zr3  1  0.081561  0.706475  0.858305  1
  Zr  Zr4  1  0.711963  0.706475  0.141695  1
  Zr  Zr5  1  0.276743  0.293525  0.858305  1
  Zr  Zr6  1  0.788037  0.141695  0.706475  1
  Zr  Zr7  1  0.223257  0.858305  0.293525  1
  Zr  Zr8  1  0.250000  0.500000  0.500000  1
  Zr  Zr9  1  0.750000  0.500000  0.500000  1
  Al  Al10  1  0.250000  0.000000  0.000000  1
  In  In11  1  0.750000  0.000000  0.000000  1
  Pb  Pb12  1  0.334701  0.500000  0.169403  1
  Pb  Pb13  1  0.665299  0.500000  0.830597  1
  Pb  Pb14  1  0.834701  0.830597  0.500000  1
  Pb  Pb15  1  0.165299  0.169403  0.500000  1
