# generated using pymatgen
data_La20Ir7PdRu4
_symmetry_space_group_name_H-M   'P 1'
_cell_length_a   11.41668433
_cell_length_b   11.41668362
_cell_length_c   6.71434920
_cell_angle_alpha   90.00126125
_cell_angle_beta   90.00125897
_cell_angle_gamma   90.09717393
_symmetry_Int_Tables_number   1
_chemical_formula_structural   La20Ir7PdRu4
_chemical_formula_sum   'La20 Ir7 Pd1 Ru4'
_cell_volume   875.15153411
_cell_formula_units_Z   1
loop_
 _symmetry_equiv_pos_site_id
 _symmetry_equiv_pos_as_xyz
  1  'x, y, z'
loop_
 _atom_site_type_symbol
 _atom_site_label
 _atom_site_symmetry_multiplicity
 _atom_site_fract_x
 _atom_site_fract_y
 _atom_site_fract_z
 _atom_site_occupancy
  La  La0  1  0.293898  0.090112  0.388139  1
  La  La1  1  0.294228  0.909716  0.888090  1
  La  La2  1  0.701908  0.088200  0.880252  1
  La  La3  1  0.703842  0.906156  0.389744  1
  La  La4  1  0.589799  0.794217  0.888974  1
  La  La5  1  0.585255  0.205963  0.389916  1
  La  La6  1  0.409352  0.794305  0.388567  1
  La  La7  1  0.409931  0.205577  0.888421  1
  La  La8  1  0.205783  0.410201  0.611026  1
  La  La9  1  0.205695  0.590648  0.111433  1
  La  La10  1  0.794037  0.414745  0.110084  1
  La  La11  1  0.794423  0.590069  0.611579  1
  La  La12  1  0.909888  0.706102  0.111861  1
  La  La13  1  0.911800  0.298092  0.619748  1
  La  La14  1  0.090284  0.705772  0.611910  1
  La  La15  1  0.093844  0.296158  0.110256  1
  La  La16  1  0.002677  0.997568  0.502397  1
  La  La17  1  0.002432  0.997323  0.997603  1
  La  La18  1  0.499761  0.500037  0.000142  1
  La  La19  1  0.499963  0.500239  0.499858  1
  Ir  Ir20  1  0.847851  0.848499  0.749685  1
  Ir  Ir21  1  0.151501  0.152149  0.750315  1
  Ir  Ir22  1  0.152438  0.847562  0.250000  1
  Ir  Ir23  1  0.653634  0.346366  0.750000  1
  Ir  Ir24  1  0.652903  0.652584  0.250058  1
  Ir  Ir25  1  0.347416  0.347097  0.249942  1
  Ir  Ir26  1  0.347458  0.652542  0.750000  1
  Pd  Pd27  1  0.846786  0.153214  0.250000  1
  Ru  Ru28  1  0.501686  0.000672  0.117702  1
  Ru  Ru29  1  0.500925  0.000726  0.617765  1
  Ru  Ru30  1  0.999274  0.499075  0.882235  1
  Ru  Ru31  1  0.999328  0.498314  0.382298  1
