# generated using pymatgen
data_Sm2TcWC3
_symmetry_space_group_name_H-M   'P 1'
_cell_length_a   6.25601366
_cell_length_b   6.25601422
_cell_length_c   5.82862721
_cell_angle_alpha   65.87170151
_cell_angle_beta   65.87170830
_cell_angle_gamma   31.36651197
_symmetry_Int_Tables_number   1
_chemical_formula_structural   Sm2TcWC3
_chemical_formula_sum   'Sm2 Tc1 W1 C3'
_cell_volume   107.50418147
_cell_formula_units_Z   1
loop_
 _symmetry_equiv_pos_site_id
 _symmetry_equiv_pos_as_xyz
  1  'x, y, z'
loop_
 _atom_site_type_symbol
 _atom_site_label
 _atom_site_symmetry_multiplicity
 _atom_site_fract_x
 _atom_site_fract_y
 _atom_site_fract_z
 _atom_site_occupancy
  Sm  Sm0  1  0.391710  0.391710  0.810169  1
  Sm  Sm1  1  0.608147  0.608147  0.180514  1
  Tc  Tc2  1  0.158293  0.158293  0.683211  1
  W  W3  1  0.839664  0.839664  0.324710  1
  C  C4  1  0.001150  0.001150  0.001079  1
  C  C5  1  0.251204  0.251204  0.271842  1
  C  C6  1  0.749832  0.749832  0.728473  1
