# generated using pymatgen
data_TmLuZr4Pt2F30
_symmetry_space_group_name_H-M   'P 1'
_cell_length_a   8.08516384
_cell_length_b   8.08516257
_cell_length_c   8.09079903
_cell_angle_alpha   79.86706411
_cell_angle_beta   79.86706132
_cell_angle_gamma   100.03345378
_symmetry_Int_Tables_number   1
_chemical_formula_structural   TmLuZr4Pt2F30
_chemical_formula_sum   'Tm1 Lu1 Zr4 Pt2 F30'
_cell_volume   500.90420918
_cell_formula_units_Z   1
loop_
 _symmetry_equiv_pos_site_id
 _symmetry_equiv_pos_as_xyz
  1  'x, y, z'
loop_
 _atom_site_type_symbol
 _atom_site_label
 _atom_site_symmetry_multiplicity
 _atom_site_fract_x
 _atom_site_fract_y
 _atom_site_fract_z
 _atom_site_occupancy
  Tm  Tm0  1  0.677506  0.322494  0.750000  1
  Lu  Lu1  1  0.322754  0.677246  0.250000  1
  Zr  Zr2  1  0.822871  0.750342  0.326863  1
  Zr  Zr3  1  0.249658  0.177129  0.173137  1
  Zr  Zr4  1  0.177443  0.250109  0.672546  1
  Zr  Zr5  1  0.749891  0.822557  0.827454  1
  Pt  Pt6  1  0.249820  0.750180  0.750000  1
  Pt  Pt7  1  0.750009  0.249991  0.250000  1
  F  F8  1  0.150494  0.185190  0.945380  1
  F  F9  1  0.687263  0.562274  0.846324  1
  F  F10  1  0.044816  0.656584  0.313664  1
  F  F11  1  0.655166  0.042869  0.814966  1
  F  F12  1  0.561873  0.687516  0.344837  1
  F  F13  1  0.185286  0.150209  0.445593  1
  F  F14  1  0.849791  0.814714  0.054407  1
  F  F15  1  0.312484  0.438127  0.155163  1
  F  F16  1  0.957131  0.344834  0.685034  1
  F  F17  1  0.343416  0.955184  0.186336  1
  F  F18  1  0.437726  0.312737  0.653676  1
  F  F19  1  0.814810  0.849506  0.554620  1
  F  F20  1  0.970060  0.029940  0.750000  1
  F  F21  1  0.539350  0.751976  0.029228  1
  F  F22  1  0.248024  0.460650  0.470772  1
  F  F23  1  0.459578  0.247165  0.972158  1
  F  F24  1  0.752835  0.540422  0.527842  1
  F  F25  1  0.029457  0.970543  0.250000  1
  F  F26  1  0.213811  0.725736  0.001263  1
  F  F27  1  0.225523  0.497769  0.790123  1
  F  F28  1  0.996814  0.712087  0.776657  1
  F  F29  1  0.711886  0.996855  0.276634  1
  F  F30  1  0.497724  0.225202  0.290246  1
  F  F31  1  0.725672  0.213295  0.501051  1
  F  F32  1  0.786705  0.274328  0.998949  1
  F  F33  1  0.774798  0.502276  0.209754  1
  F  F34  1  0.003145  0.288114  0.223366  1
  F  F35  1  0.287913  0.003186  0.723343  1
  F  F36  1  0.502231  0.774477  0.709877  1
  F  F37  1  0.274264  0.786189  0.498737  1
