# generated using pymatgen
data_Dy2Pa(InPt)3
_symmetry_space_group_name_H-M   'P 1'
_cell_length_a   7.66135300
_cell_length_b   7.63426242
_cell_length_c   3.92992300
_cell_angle_alpha   90.00000000
_cell_angle_beta   90.00000000
_cell_angle_gamma   120.11745912
_symmetry_Int_Tables_number   1
_chemical_formula_structural   Dy2Pa(InPt)3
_chemical_formula_sum   'Dy2 Pa1 In3 Pt3'
_cell_volume   198.82545413
_cell_formula_units_Z   1
loop_
 _symmetry_equiv_pos_site_id
 _symmetry_equiv_pos_as_xyz
  1  'x, y, z'
loop_
 _atom_site_type_symbol
 _atom_site_label
 _atom_site_symmetry_multiplicity
 _atom_site_fract_x
 _atom_site_fract_y
 _atom_site_fract_z
 _atom_site_occupancy
  Dy  Dy0  1  0.406364  0.403949  0.500000  1
  Dy  Dy1  1  0.002415  0.596051  0.500000  1
  Pa  Pa2  1  0.590458  0.000000  0.500000  1
  In  In3  1  0.742274  0.730426  0.000000  1
  In  In4  1  0.011849  0.269574  0.000000  1
  In  In5  1  0.247227  0.000000  0.000000  1
  Pt  Pt6  1  0.350184  0.686456  0.000000  1
  Pt  Pt7  1  0.663729  0.313544  0.000000  1
  Pt  Pt8  1  0.985500  0.000000  0.500000  1
