# generated using pymatgen
data_Nd3(DyNi4)4
_symmetry_space_group_name_H-M   'P 1'
_cell_length_a   8.77748276
_cell_length_b   8.79812973
_cell_length_c   8.76345282
_cell_angle_alpha   131.56493322
_cell_angle_beta   131.50261955
_cell_angle_gamma   71.19533047
_symmetry_Int_Tables_number   1
_chemical_formula_structural   Nd3(DyNi4)4
_chemical_formula_sum   'Nd3 Dy4 Ni16'
_cell_volume   370.81971137
_cell_formula_units_Z   1
loop_
 _symmetry_equiv_pos_site_id
 _symmetry_equiv_pos_as_xyz
  1  'x, y, z'
loop_
 _atom_site_type_symbol
 _atom_site_label
 _atom_site_symmetry_multiplicity
 _atom_site_fract_x
 _atom_site_fract_y
 _atom_site_fract_z
 _atom_site_occupancy
  Nd  Nd0  1  0.096469  0.096786  0.400422  1
  Nd  Nd1  1  0.696037  0.696347  0.599563  1
  Nd  Nd2  1  0.904069  0.303063  0.999995  1
  Dy  Dy3  1  0.749307  0.249434  0.499106  1
  Dy  Dy4  1  0.499882  0.501129  0.000007  1
  Dy  Dy5  1  0.306194  0.902505  0.999998  1
  Dy  Dy6  1  0.250197  0.750337  0.500897  1
  Ni  Ni7  1  0.431468  0.191856  0.000003  1
  Ni  Ni8  1  0.676098  0.931658  0.471204  1
  Ni  Ni9  1  0.936257  0.683784  0.484370  1
  Ni  Ni10  1  0.195147  0.431868  0.000002  1
  Ni  Ni11  1  0.318219  0.798619  0.248549  1
  Ni  Ni12  1  0.943153  0.657271  0.000004  1
  Ni  Ni13  1  0.806029  0.806099  0.238502  1
  Ni  Ni14  1  0.069677  0.550086  0.751470  1
  Ni  Ni15  1  0.060593  0.056296  0.721159  1
  Ni  Ni16  1  0.656709  0.942248  0.999992  1
  Ni  Ni17  1  0.567527  0.567582  0.761461  1
  Ni  Ni18  1  0.796651  0.320295  0.252574  1
  Ni  Ni19  1  0.544083  0.067716  0.747429  1
  Ni  Ni20  1  0.204912  0.460459  0.528812  1
  Ni  Ni21  1  0.339424  0.335138  0.278839  1
  Ni  Ni22  1  0.451897  0.199424  0.515642  1
