# generated using pymatgen
data_Pr8Er12Ga5Si11
_symmetry_space_group_name_H-M   'P 1'
_cell_length_a   7.53278886
_cell_length_b   7.82091077
_cell_length_c   14.96247957
_cell_angle_alpha   89.99195418
_cell_angle_beta   90.08500052
_cell_angle_gamma   90.06024489
_symmetry_Int_Tables_number   1
_chemical_formula_structural   Pr8Er12Ga5Si11
_chemical_formula_sum   'Pr8 Er12 Ga5 Si11'
_cell_volume   881.48712574
_cell_formula_units_Z   1
loop_
 _symmetry_equiv_pos_site_id
 _symmetry_equiv_pos_as_xyz
  1  'x, y, z'
loop_
 _atom_site_type_symbol
 _atom_site_label
 _atom_site_symmetry_multiplicity
 _atom_site_fract_x
 _atom_site_fract_y
 _atom_site_fract_z
 _atom_site_occupancy
  Pr  Pr0  1  0.015592  0.175487  0.399861  1
  Pr  Pr1  1  0.515559  0.324574  0.399995  1
  Pr  Pr2  1  0.486434  0.676738  0.899050  1
  Pr  Pr3  1  0.484929  0.678138  0.599386  1
  Pr  Pr4  1  0.984990  0.822193  0.599248  1
  Pr  Pr5  1  0.984695  0.827747  0.899635  1
  Pr  Pr6  1  0.514642  0.323571  0.101184  1
  Pr  Pr7  1  0.013543  0.175716  0.101347  1
  Er  Er8  1  0.327144  0.173082  0.623800  1
  Er  Er9  1  0.672837  0.822961  0.375921  1
  Er  Er10  1  0.664112  0.994635  0.751381  1
  Er  Er11  1  0.172334  0.676930  0.375783  1
  Er  Er12  1  0.826016  0.324428  0.875917  1
  Er  Er13  1  0.826986  0.326189  0.623712  1
  Er  Er14  1  0.836928  0.495335  0.250763  1
  Er  Er15  1  0.337339  0.003943  0.251643  1
  Er  Er16  1  0.329923  0.175133  0.874538  1
  Er  Er17  1  0.171931  0.673098  0.125690  1
  Er  Er18  1  0.671507  0.826511  0.124750  1
  Er  Er19  1  0.162621  0.504043  0.750693  1
  Ga  Ga20  1  0.154110  0.461992  0.537339  1
  Ga  Ga21  1  0.844610  0.538266  0.038467  1
  Ga  Ga22  1  0.344632  0.961515  0.037642  1
  Ga  Ga23  1  0.155268  0.461752  0.961098  1
  Ga  Ga24  1  0.654347  0.038243  0.537370  1
  Si  Si25  1  0.282199  0.878574  0.749522  1
  Si  Si26  1  0.466205  0.615934  0.251339  1
  Si  Si27  1  0.033782  0.116155  0.749317  1
  Si  Si28  1  0.534151  0.385533  0.749237  1
  Si  Si29  1  0.966219  0.884787  0.250732  1
  Si  Si30  1  0.716266  0.121794  0.251083  1
  Si  Si31  1  0.348644  0.964582  0.460482  1
  Si  Si32  1  0.848497  0.535421  0.460507  1
  Si  Si33  1  0.782988  0.621466  0.749236  1
  Si  Si34  1  0.216834  0.377660  0.251060  1
  Si  Si35  1  0.651186  0.035879  0.961273  1
