# generated using pymatgen
data_ThNp(S2O7)4
_symmetry_space_group_name_H-M   'P 1'
_cell_length_a   6.96755942
_cell_length_b   6.96576919
_cell_length_c   12.22568745
_cell_angle_alpha   79.01062616
_cell_angle_beta   78.68980997
_cell_angle_gamma   79.11705872
_symmetry_Int_Tables_number   1
_chemical_formula_structural   ThNp(S2O7)4
_chemical_formula_sum   'Th1 Np1 S8 O28'
_cell_volume   564.06305255
_cell_formula_units_Z   1
loop_
 _symmetry_equiv_pos_site_id
 _symmetry_equiv_pos_as_xyz
  1  'x, y, z'
loop_
 _atom_site_type_symbol
 _atom_site_label
 _atom_site_symmetry_multiplicity
 _atom_site_fract_x
 _atom_site_fract_y
 _atom_site_fract_z
 _atom_site_occupancy
  Th  Th0  1  0.990625  0.007417  0.752479  1
  Np  Np1  1  0.011011  0.994734  0.249151  1
  S  S2  1  0.451554  0.949731  0.851054  1
  S  S3  1  0.964956  0.448782  0.341737  1
  S  S4  1  0.196781  0.712522  0.009417  1
  S  S5  1  0.279065  0.799790  0.496299  1
  S  S6  1  0.719817  0.196062  0.502038  1
  S  S7  1  0.802755  0.282204  0.002496  1
  S  S8  1  0.186860  0.505214  0.689224  1
  S  S9  1  0.548292  0.039641  0.160693  1
  O  O10  1  0.665900  0.906478  0.810944  1
  O  O11  1  0.919604  0.663246  0.304609  1
  O  O12  1  0.341087  0.949468  0.758740  1
  O  O13  1  0.418668  0.740999  0.936785  1
  O  O14  1  0.616008  0.873007  0.103087  1
  O  O15  1  0.823122  0.201401  0.896694  1
  O  O16  1  0.488001  0.772128  0.490588  1
  O  O17  1  0.944703  0.337959  0.252448  1
  O  O18  1  0.162387  0.943350  0.568392  1
  O  O19  1  0.764869  0.417818  0.437478  1
  O  O20  1  0.057325  0.833996  0.937209  1
  O  O21  1  0.210070  0.830150  0.386806  1
  O  O22  1  0.798488  0.489633  0.988745  1
  O  O23  1  0.794841  0.171737  0.609796  1
  O  O24  1  0.380573  0.470619  0.717648  1
  O  O25  1  0.201229  0.504435  0.029074  1
  O  O26  1  0.943357  0.155242  0.073690  1
  O  O27  1  0.043911  0.660372  0.743641  1
  O  O28  1  0.196496  0.588673  0.553466  1
  O  O29  1  0.845234  0.054931  0.430481  1
  O  O30  1  0.183564  0.800477  0.112612  1
  O  O31  1  0.511466  0.207777  0.512774  1
  O  O32  1  0.381687  0.111778  0.912067  1
  O  O33  1  0.660386  0.045152  0.251534  1
  O  O34  1  0.582466  0.246619  0.071589  1
  O  O35  1  0.091542  0.330533  0.697442  1
  O  O36  1  0.137896  0.374702  0.392395  1
  O  O37  1  0.333576  0.088959  0.198784  1
