# generated using pymatgen
data_Zr3Nb2AlSi2C
_symmetry_space_group_name_H-M   'P 1'
_cell_length_a   7.96288370
_cell_length_b   7.96288347
_cell_length_c   5.45661000
_cell_angle_alpha   90.00000000
_cell_angle_beta   90.00000000
_cell_angle_gamma   120.01460862
_symmetry_Int_Tables_number   1
_chemical_formula_structural   Zr3Nb2AlSi2C
_chemical_formula_sum   'Zr6 Nb4 Al2 Si4 C2'
_cell_volume   299.59208095
_cell_formula_units_Z   2
loop_
 _symmetry_equiv_pos_site_id
 _symmetry_equiv_pos_as_xyz
  1  'x, y, z'
loop_
 _atom_site_type_symbol
 _atom_site_label
 _atom_site_symmetry_multiplicity
 _atom_site_fract_x
 _atom_site_fract_y
 _atom_site_fract_z
 _atom_site_occupancy
  Zr  Zr0  1  0.238610  0.996558  0.250000  1
  Zr  Zr1  1  0.761390  0.003442  0.750000  1
  Zr  Zr2  1  0.996558  0.238610  0.250000  1
  Zr  Zr3  1  0.003442  0.761390  0.750000  1
  Zr  Zr4  1  0.766796  0.766796  0.250000  1
  Zr  Zr5  1  0.233204  0.233204  0.750000  1
  Nb  Nb6  1  0.328218  0.671782  0.000000  1
  Nb  Nb7  1  0.671782  0.328218  0.000000  1
  Nb  Nb8  1  0.671782  0.328218  0.500000  1
  Nb  Nb9  1  0.328218  0.671782  0.500000  1
  Al  Al10  1  0.411889  0.411889  0.250000  1
  Al  Al11  1  0.588111  0.588111  0.750000  1
  Si  Si12  1  0.592131  0.997643  0.250000  1
  Si  Si13  1  0.407869  0.002357  0.750000  1
  Si  Si14  1  0.997643  0.592131  0.250000  1
  Si  Si15  1  0.002357  0.407869  0.750000  1
  C  C16  1  0.000000  0.000000  0.000000  1
  C  C17  1  0.000000  0.000000  0.500000  1
