# generated using pymatgen
data_Tb3Y12Th(ZnCo)4
_symmetry_space_group_name_H-M   'P 1'
_cell_length_a   9.37316508
_cell_length_b   9.37316579
_cell_length_c   9.37316600
_cell_angle_alpha   60.05396011
_cell_angle_beta   60.05395759
_cell_angle_gamma   60.05396202
_symmetry_Int_Tables_number   1
_chemical_formula_structural   Tb3Y12Th(ZnCo)4
_chemical_formula_sum   'Tb3 Y12 Th1 Zn4 Co4'
_cell_volume   583.00823330
_cell_formula_units_Z   1
loop_
 _symmetry_equiv_pos_site_id
 _symmetry_equiv_pos_as_xyz
  1  'x, y, z'
loop_
 _atom_site_type_symbol
 _atom_site_label
 _atom_site_symmetry_multiplicity
 _atom_site_fract_x
 _atom_site_fract_y
 _atom_site_fract_z
 _atom_site_occupancy
  Tb  Tb0  1  0.601230  0.601230  0.195096  1
  Tb  Tb1  1  0.601230  0.195096  0.601230  1
  Tb  Tb2  1  0.195096  0.601230  0.601230  1
  Y  Y3  1  0.061006  0.440049  0.440049  1
  Y  Y4  1  0.441601  0.059503  0.059503  1
  Y  Y5  1  0.440049  0.061006  0.440049  1
  Y  Y6  1  0.059503  0.441601  0.059503  1
  Y  Y7  1  0.440049  0.440049  0.061006  1
  Y  Y8  1  0.059503  0.059503  0.441601  1
  Y  Y9  1  0.187055  0.813738  0.813738  1
  Y  Y10  1  0.812140  0.188797  0.188797  1
  Y  Y11  1  0.813738  0.187055  0.813738  1
  Y  Y12  1  0.188797  0.812140  0.188797  1
  Y  Y13  1  0.813738  0.813738  0.187055  1
  Y  Y14  1  0.188797  0.188797  0.812140  1
  Th  Th15  1  0.595916  0.595916  0.595916  1
  Zn  Zn16  1  0.827076  0.827076  0.827076  1
  Zn  Zn17  1  0.827981  0.827981  0.515593  1
  Zn  Zn18  1  0.827981  0.515593  0.827981  1
  Zn  Zn19  1  0.515593  0.827981  0.827981  1
  Co  Co20  1  0.393378  0.393378  0.393378  1
  Co  Co21  1  0.395091  0.395091  0.818364  1
  Co  Co22  1  0.395091  0.818364  0.395091  1
  Co  Co23  1  0.818364  0.395091  0.395091  1
