# generated using pymatgen
data_Ho8Ti5Si16Mo7
_symmetry_space_group_name_H-M   'P 1'
_cell_length_a   6.93535239
_cell_length_b   6.92706066
_cell_length_c   12.81776572
_cell_angle_alpha   89.88550173
_cell_angle_beta   90.02784155
_cell_angle_gamma   90.02600347
_symmetry_Int_Tables_number   1
_chemical_formula_structural   Ho8Ti5Si16Mo7
_chemical_formula_sum   'Ho8 Ti5 Si16 Mo7'
_cell_volume   615.78469406
_cell_formula_units_Z   1
loop_
 _symmetry_equiv_pos_site_id
 _symmetry_equiv_pos_as_xyz
  1  'x, y, z'
loop_
 _atom_site_type_symbol
 _atom_site_label
 _atom_site_symmetry_multiplicity
 _atom_site_fract_x
 _atom_site_fract_y
 _atom_site_fract_z
 _atom_site_occupancy
  Ho  Ho0  1  0.341767  0.003990  0.467153  1
  Ho  Ho1  1  0.496614  0.841444  0.718618  1
  Ho  Ho2  1  0.502942  0.159035  0.218298  1
  Ho  Ho3  1  0.841042  0.496019  0.281082  1
  Ho  Ho4  1  0.158635  0.502622  0.782954  1
  Ho  Ho5  1  0.658537  0.996756  0.968220  1
  Ho  Ho6  1  0.003235  0.340986  0.531922  1
  Ho  Ho7  1  0.995996  0.659607  0.031368  1
  Ti  Ti8  1  0.328482  0.328754  0.999555  1
  Ti  Ti9  1  0.170991  0.828157  0.250019  1
  Ti  Ti10  1  0.826939  0.172547  0.750348  1
  Ti  Ti11  1  0.670850  0.669162  0.499335  1
  Ti  Ti12  1  0.994162  0.842487  0.625570  1
  Si  Si13  1  0.201670  0.130708  0.683921  1
  Si  Si14  1  0.370142  0.700657  0.934001  1
  Si  Si15  1  0.631388  0.300321  0.434045  1
  Si  Si16  1  0.699133  0.369342  0.066040  1
  Si  Si17  1  0.300750  0.630556  0.565412  1
  Si  Si18  1  0.799904  0.869862  0.183853  1
  Si  Si19  1  0.129198  0.200185  0.316290  1
  Si  Si20  1  0.870687  0.799903  0.815959  1
  Si  Si21  1  0.289098  0.957468  0.062981  1
  Si  Si22  1  0.542541  0.789095  0.312894  1
  Si  Si23  1  0.456777  0.210740  0.812980  1
  Si  Si24  1  0.789477  0.544011  0.687348  1
  Si  Si25  1  0.210935  0.457169  0.186725  1
  Si  Si26  1  0.710636  0.044130  0.563564  1
  Si  Si27  1  0.957098  0.289314  0.937143  1
  Si  Si28  1  0.044534  0.710792  0.436993  1
  Mo  Mo29  1  0.158673  0.007964  0.875420  1
  Mo  Mo30  1  0.493015  0.657524  0.124471  1
  Mo  Mo31  1  0.506798  0.342388  0.623816  1
  Mo  Mo32  1  0.656320  0.491780  0.877293  1
  Mo  Mo33  1  0.343547  0.504672  0.374545  1
  Mo  Mo34  1  0.841095  0.991905  0.373589  1
  Mo  Mo35  1  0.006393  0.157948  0.126274  1
