# generated using pymatgen
data_Th6Zn17PAu6
_symmetry_space_group_name_H-M   'P 1'
_cell_length_a   9.32025163
_cell_length_b   9.32014123
_cell_length_c   9.32083900
_cell_angle_alpha   59.99827939
_cell_angle_beta   59.99829502
_cell_angle_gamma   60.03268427
_symmetry_Int_Tables_number   1
_chemical_formula_structural   Th6Zn17PAu6
_chemical_formula_sum   'Th6 Zn17 P1 Au6'
_cell_volume   572.64576154
_cell_formula_units_Z   1
loop_
 _symmetry_equiv_pos_site_id
 _symmetry_equiv_pos_as_xyz
  1  'x, y, z'
loop_
 _atom_site_type_symbol
 _atom_site_label
 _atom_site_symmetry_multiplicity
 _atom_site_fract_x
 _atom_site_fract_y
 _atom_site_fract_z
 _atom_site_occupancy
  Th  Th0  1  0.714652  0.286916  0.283675  1
  Th  Th1  1  0.714651  0.286916  0.714757  1
  Th  Th2  1  0.712723  0.712722  0.287278  1
  Th  Th3  1  0.286915  0.714652  0.714758  1
  Th  Th4  1  0.286916  0.714651  0.283675  1
  Th  Th5  1  0.284167  0.284168  0.715832  1
  Zn  Zn6  1  0.873193  0.873189  0.380190  1
  Zn  Zn7  1  0.873189  0.873187  0.873431  1
  Zn  Zn8  1  0.505723  0.999839  0.997159  1
  Zn  Zn9  1  0.505725  0.999839  0.497280  1
  Zn  Zn10  1  0.499091  0.499090  0.000909  1
  Zn  Zn11  1  0.999840  0.505724  0.497280  1
  Zn  Zn12  1  0.999839  0.505724  0.997158  1
  Zn  Zn13  1  0.996663  0.996664  0.503334  1
  Zn  Zn14  1  0.000703  0.000704  0.999295  1
  Zn  Zn15  1  0.014660  0.329212  0.328066  1
  Zn  Zn16  1  0.329212  0.014660  0.328065  1
  Zn  Zn17  1  0.328594  0.328594  0.014816  1
  Zn  Zn18  1  0.328594  0.328592  0.327995  1
  Zn  Zn19  1  0.985976  0.671544  0.671240  1
  Zn  Zn20  1  0.671546  0.985971  0.671241  1
  Zn  Zn21  1  0.672663  0.672663  0.982691  1
  Zn  Zn22  1  0.672666  0.672666  0.671982  1
  P  P23  1  0.497796  0.497799  0.502202  1
  Au  Au24  1  0.637142  0.117432  0.122712  1
  Au  Au25  1  0.117431  0.637142  0.122713  1
  Au  Au26  1  0.121818  0.121821  0.629689  1
  Au  Au27  1  0.121818  0.121822  0.126672  1
  Au  Au28  1  0.369097  0.876996  0.876955  1
  Au  Au29  1  0.876997  0.369097  0.876954  1
