# generated using pymatgen
data_Ac5Ho3Np4O24
_symmetry_space_group_name_H-M   'P 1'
_cell_length_a   5.67629515
_cell_length_b   8.04371167
_cell_length_c   12.14224900
_cell_angle_alpha   73.85712203
_cell_angle_beta   90.01326334
_cell_angle_gamma   90.03178810
_symmetry_Int_Tables_number   1
_chemical_formula_structural   Ac5Ho3Np4O24
_chemical_formula_sum   'Ac5 Ho3 Np4 O24'
_cell_volume   532.53745881
_cell_formula_units_Z   1
loop_
 _symmetry_equiv_pos_site_id
 _symmetry_equiv_pos_as_xyz
  1  'x, y, z'
loop_
 _atom_site_type_symbol
 _atom_site_label
 _atom_site_symmetry_multiplicity
 _atom_site_fract_x
 _atom_site_fract_y
 _atom_site_fract_z
 _atom_site_occupancy
  Ac  Ac0  1  0.745329  0.004472  0.758959  1
  Ac  Ac1  1  0.256888  0.999977  0.242604  1
  Ac  Ac2  1  0.199607  0.807105  0.578858  1
  Ac  Ac3  1  0.695175  0.499835  0.755186  1
  Ac  Ac4  1  0.309430  0.495367  0.249723  1
  Ho  Ho5  1  0.815786  0.792172  0.082639  1
  Ho  Ho6  1  0.189269  0.208882  0.917030  1
  Ho  Ho7  1  0.805914  0.206587  0.417591  1
  Np  Np8  1  0.255214  0.716624  0.899305  1
  Np  Np9  1  0.754224  0.714795  0.385780  1
  Np  Np10  1  0.247265  0.284204  0.606832  1
  Np  Np11  1  0.749941  0.281199  0.108324  1
  O  O12  1  0.065790  0.939751  0.910724  1
  O  O13  1  0.546942  0.840064  0.948241  1
  O  O14  1  0.934557  0.942405  0.397093  1
  O  O15  1  0.448688  0.787754  0.745811  1
  O  O16  1  0.463990  0.835994  0.424656  1
  O  O17  1  0.980469  0.722801  0.777261  1
  O  O18  1  0.568168  0.784967  0.226809  1
  O  O19  1  0.871829  0.626792  0.550610  1
  O  O20  1  0.364578  0.480285  0.893664  1
  O  O21  1  0.025872  0.720093  0.263333  1
  O  O22  1  0.385113  0.510995  0.604087  1
  O  O23  1  0.891408  0.369303  0.947836  1
  O  O24  1  0.108501  0.623946  0.056071  1
  O  O25  1  0.636490  0.475135  0.388792  1
  O  O26  1  0.983603  0.284606  0.736613  1
  O  O27  1  0.633906  0.517397  0.105751  1
  O  O28  1  0.108096  0.373669  0.445692  1
  O  O29  1  0.433920  0.211924  0.767908  1
  O  O30  1  0.018701  0.276554  0.233003  1
  O  O31  1  0.526817  0.146145  0.557839  1
  O  O32  1  0.562556  0.209652  0.267382  1
  O  O33  1  0.032731  0.079325  0.595655  1
  O  O34  1  0.451017  0.169280  0.056952  1
  O  O35  1  0.932218  0.059945  0.095386  1
