# generated using pymatgen
data_Tb3YEr8(GaCo2)2
_symmetry_space_group_name_H-M   'P 1'
_cell_length_a   8.21356767
_cell_length_b   8.21356824
_cell_length_c   8.23454284
_cell_angle_alpha   106.98667019
_cell_angle_beta   109.21717777
_cell_angle_gamma   112.15505652
_symmetry_Int_Tables_number   1
_chemical_formula_structural   Tb3YEr8(GaCo2)2
_chemical_formula_sum   'Tb3 Y1 Er8 Ga2 Co4'
_cell_volume   427.27262356
_cell_formula_units_Z   1
loop_
 _symmetry_equiv_pos_site_id
 _symmetry_equiv_pos_as_xyz
  1  'x, y, z'
loop_
 _atom_site_type_symbol
 _atom_site_label
 _atom_site_symmetry_multiplicity
 _atom_site_fract_x
 _atom_site_fract_y
 _atom_site_fract_z
 _atom_site_occupancy
  Tb  Tb0  1  0.301781  0.739121  0.040902  1
  Tb  Tb1  1  0.698026  0.738518  0.436545  1
  Tb  Tb2  1  0.301923  0.261247  0.563168  1
  Y  Y3  1  0.697392  0.260193  0.957586  1
  Er  Er4  1  0.811799  0.139924  0.327463  1
  Er  Er5  1  0.812089  0.484003  0.672436  1
  Er  Er6  1  0.188433  0.860347  0.672436  1
  Er  Er7  1  0.187538  0.515664  0.327463  1
  Er  Er8  1  0.602130  0.780886  0.821115  1
  Er  Er9  1  0.959650  0.780628  0.179203  1
  Er  Er10  1  0.040230  0.218985  0.821115  1
  Er  Er11  1  0.398574  0.219552  0.179203  1
  Ga  Ga12  1  0.500109  0.499600  0.999709  1
  Ga  Ga13  1  0.500273  0.000261  0.500534  1
  Co  Co14  1  0.839311  0.500962  0.340273  1
  Co  Co15  1  0.161311  0.500034  0.661346  1
  Co  Co16  1  0.999602  0.115253  0.114855  1
  Co  Co17  1  0.999830  0.884822  0.884652  1
