# generated using pymatgen
data_Pr20(GaSi3)3
_symmetry_space_group_name_H-M   'P 1'
_cell_length_a   7.83802100
_cell_length_b   7.83802100
_cell_length_c   14.53158100
_cell_angle_alpha   90.00000000
_cell_angle_beta   90.00000000
_cell_angle_gamma   90.00000000
_symmetry_Int_Tables_number   1
_chemical_formula_structural   Pr20(GaSi3)3
_chemical_formula_sum   'Pr20 Ga3 Si9'
_cell_volume   892.74147660
_cell_formula_units_Z   1
loop_
 _symmetry_equiv_pos_site_id
 _symmetry_equiv_pos_as_xyz
  1  'x, y, z'
loop_
 _atom_site_type_symbol
 _atom_site_label
 _atom_site_symmetry_multiplicity
 _atom_site_fract_x
 _atom_site_fract_y
 _atom_site_fract_z
 _atom_site_occupancy
  Pr  Pr0  1  0.817399  0.823197  0.606675  1
  Pr  Pr1  1  0.186027  0.827818  0.109994  1
  Pr  Pr2  1  0.169016  0.810505  0.392462  1
  Pr  Pr3  1  0.000000  0.500000  0.733541  1
  Pr  Pr4  1  0.830984  0.189495  0.392462  1
  Pr  Pr5  1  0.689495  0.669016  0.392462  1
  Pr  Pr6  1  0.676803  0.317399  0.606675  1
  Pr  Pr7  1  0.323197  0.682601  0.606675  1
  Pr  Pr8  1  0.000000  0.500000  0.229134  1
  Pr  Pr9  1  0.672182  0.686027  0.109994  1
  Pr  Pr10  1  0.685100  0.327068  0.890715  1
  Pr  Pr11  1  0.827068  0.814900  0.890715  1
  Pr  Pr12  1  0.310505  0.330984  0.392462  1
  Pr  Pr13  1  0.182601  0.176803  0.606675  1
  Pr  Pr14  1  0.813973  0.172182  0.109994  1
  Pr  Pr15  1  0.314900  0.672932  0.890715  1
  Pr  Pr16  1  0.327818  0.313973  0.109994  1
  Pr  Pr17  1  0.500000  0.000000  0.271357  1
  Pr  Pr18  1  0.172932  0.185100  0.890715  1
  Pr  Pr19  1  0.500000  0.000000  0.766842  1
  Ga  Ga20  1  0.500000  0.000000  0.493137  1
  Ga  Ga21  1  0.500000  0.000000  0.992997  1
  Ga  Ga22  1  0.000000  0.500000  0.005898  1
  Si  Si23  1  0.612989  0.386778  0.251390  1
  Si  Si24  1  0.113272  0.887557  0.748190  1
  Si  Si25  1  0.387557  0.386728  0.748190  1
  Si  Si26  1  0.387011  0.613222  0.251390  1
  Si  Si27  1  0.886778  0.887011  0.251390  1
  Si  Si28  1  0.612443  0.613272  0.748190  1
  Si  Si29  1  0.000000  0.500000  0.509390  1
  Si  Si30  1  0.886728  0.112443  0.748190  1
  Si  Si31  1  0.113222  0.112989  0.251390  1
