# generated using pymatgen
data_Dy5BeSe4
_symmetry_space_group_name_H-M   'P 1'
_cell_length_a   7.05318632
_cell_length_b   7.05318706
_cell_length_c   7.05318627
_cell_angle_alpha   99.55037044
_cell_angle_beta   99.55036290
_cell_angle_gamma   131.92605367
_symmetry_Int_Tables_number   1
_chemical_formula_structural   Dy5BeSe4
_chemical_formula_sum   'Dy5 Be1 Se4'
_cell_volume   238.41790221
_cell_formula_units_Z   1
loop_
 _symmetry_equiv_pos_site_id
 _symmetry_equiv_pos_as_xyz
  1  'x, y, z'
loop_
 _atom_site_type_symbol
 _atom_site_label
 _atom_site_symmetry_multiplicity
 _atom_site_fract_x
 _atom_site_fract_y
 _atom_site_fract_z
 _atom_site_occupancy
  Dy  Dy0  1  0.405083  0.786142  0.191225  1
  Dy  Dy1  1  0.000000  0.000000  0.000000  1
  Dy  Dy2  1  0.594917  0.213858  0.808775  1
  Dy  Dy3  1  0.213858  0.405083  0.618941  1
  Dy  Dy4  1  0.786142  0.594917  0.381059  1
  Be  Be5  1  0.500000  0.500000  0.000000  1
  Se  Se6  1  0.095077  0.696596  0.791672  1
  Se  Se7  1  0.696596  0.904923  0.601520  1
  Se  Se8  1  0.303404  0.095077  0.398480  1
  Se  Se9  1  0.904923  0.303404  0.208328  1
