# generated using pymatgen
data_Ta5Re24
_symmetry_space_group_name_H-M   'P 1'
_cell_length_a   8.40741117
_cell_length_b   8.40740951
_cell_length_c   8.42057100
_cell_angle_alpha   109.50293552
_cell_angle_beta   109.50293151
_cell_angle_gamma   109.43948494
_symmetry_Int_Tables_number   1
_chemical_formula_structural   Ta5Re24
_chemical_formula_sum   'Ta5 Re24'
_cell_volume   458.00902840
_cell_formula_units_Z   1
loop_
 _symmetry_equiv_pos_site_id
 _symmetry_equiv_pos_as_xyz
  1  'x, y, z'
loop_
 _atom_site_type_symbol
 _atom_site_label
 _atom_site_symmetry_multiplicity
 _atom_site_fract_x
 _atom_site_fract_y
 _atom_site_fract_z
 _atom_site_occupancy
  Ta  Ta0  1  0.000000  0.000000  0.635677  1
  Ta  Ta1  1  0.000000  0.000000  0.999447  1
  Ta  Ta2  1  0.365031  0.365031  0.365338  1
  Ta  Ta3  1  0.000000  0.634969  0.000307  1
  Ta  Ta4  1  0.634969  0.000000  0.000307  1
  Re  Re5  1  0.000000  0.398168  0.683353  1
  Re  Re6  1  0.283330  0.600511  0.599989  1
  Re  Re7  1  0.716670  0.317181  0.316660  1
  Re  Re8  1  0.317181  0.716670  0.316660  1
  Re  Re9  1  0.682119  0.000000  0.398636  1
  Re  Re10  1  0.000000  0.682119  0.398636  1
  Re  Re11  1  0.601832  0.601832  0.285186  1
  Re  Re12  1  0.806293  0.806293  0.183416  1
  Re  Re13  1  0.377490  0.194382  0.000239  1
  Re  Re14  1  0.194382  0.377490  0.000239  1
  Re  Re15  1  0.622510  0.816892  0.622748  1
  Re  Re16  1  0.375826  0.000000  0.193822  1
  Re  Re17  1  0.000000  0.375826  0.193822  1
  Re  Re18  1  0.816892  0.622510  0.622748  1
  Re  Re19  1  0.183108  0.805618  0.805857  1
  Re  Re20  1  0.805618  0.183108  0.805857  1
  Re  Re21  1  0.193707  0.000000  0.377123  1
  Re  Re22  1  0.000000  0.193707  0.377123  1
  Re  Re23  1  0.624174  0.624174  0.817994  1
  Re  Re24  1  0.398168  0.000000  0.683353  1
  Re  Re25  1  0.600511  0.283330  0.599989  1
  Re  Re26  1  0.682819  0.399489  0.999479  1
  Re  Re27  1  0.399489  0.682819  0.999479  1
  Re  Re28  1  0.317881  0.317881  0.716517  1
