# generated using pymatgen
data_Ac5Nd2Ho13Pb16
_symmetry_space_group_name_H-M   'P 1'
_cell_length_a   8.37791828
_cell_length_b   8.46629164
_cell_length_c   16.02818687
_cell_angle_alpha   89.96880649
_cell_angle_beta   90.43850987
_cell_angle_gamma   89.75418408
_symmetry_Int_Tables_number   1
_chemical_formula_structural   Ac5Nd2Ho13Pb16
_chemical_formula_sum   'Ac5 Nd2 Ho13 Pb16'
_cell_volume   1136.83373509
_cell_formula_units_Z   1
loop_
 _symmetry_equiv_pos_site_id
 _symmetry_equiv_pos_as_xyz
  1  'x, y, z'
loop_
 _atom_site_type_symbol
 _atom_site_label
 _atom_site_symmetry_multiplicity
 _atom_site_fract_x
 _atom_site_fract_y
 _atom_site_fract_z
 _atom_site_occupancy
  Ac  Ac0  1  0.981288  0.821338  0.901392  1
  Ac  Ac1  1  0.518082  0.325980  0.093764  1
  Ac  Ac2  1  0.019019  0.175177  0.408166  1
  Ac  Ac3  1  0.518192  0.325244  0.408081  1
  Ac  Ac4  1  0.015826  0.176443  0.092807  1
  Nd  Nd5  1  0.479539  0.677059  0.899639  1
  Nd  Nd6  1  0.976126  0.819624  0.600050  1
  Ho  Ho7  1  0.641125  0.155652  0.624410  1
  Ho  Ho8  1  0.145057  0.344623  0.873883  1
  Ho  Ho9  1  0.358929  0.839332  0.124027  1
  Ho  Ho10  1  0.862452  0.658042  0.380188  1
  Ho  Ho11  1  0.363596  0.842119  0.379502  1
  Ho  Ho12  1  0.857008  0.656921  0.121786  1
  Ho  Ho13  1  0.643532  0.157576  0.872046  1
  Ho  Ho14  1  0.143036  0.345129  0.623132  1
  Ho  Ho15  1  0.474987  0.679940  0.599702  1
  Ho  Ho16  1  0.807556  0.496279  0.748075  1
  Ho  Ho17  1  0.307901  0.003323  0.747376  1
  Ho  Ho18  1  0.194571  0.506501  0.250956  1
  Ho  Ho19  1  0.693159  0.994345  0.252304  1
  Pb  Pb20  1  0.698860  0.948170  0.461032  1
  Pb  Pb21  1  0.198572  0.549499  0.040863  1
  Pb  Pb22  1  0.311146  0.040798  0.952220  1
  Pb  Pb23  1  0.795281  0.467920  0.549442  1
  Pb  Pb24  1  0.300528  0.032271  0.548981  1
  Pb  Pb25  1  0.800917  0.457302  0.951239  1
  Pb  Pb26  1  0.686899  0.950056  0.041853  1
  Pb  Pb27  1  0.202400  0.554704  0.462217  1
  Pb  Pb28  1  0.447573  0.372112  0.748079  1
  Pb  Pb29  1  0.948743  0.131905  0.747623  1
  Pb  Pb30  1  0.555455  0.634122  0.252448  1
  Pb  Pb31  1  0.052663  0.864641  0.249997  1
  Pb  Pb32  1  0.662392  0.844421  0.746380  1
  Pb  Pb33  1  0.175769  0.649586  0.745810  1
  Pb  Pb34  1  0.330285  0.146650  0.250589  1
  Pb  Pb35  1  0.831532  0.355195  0.249942  1
