# generated using pymatgen
data_Cs4ReBiCl12
_symmetry_space_group_name_H-M   'P 1'
_cell_length_a   13.18946632
_cell_length_b   13.18798979
_cell_length_c   13.18798931
_cell_angle_alpha   131.45066885
_cell_angle_beta   131.14533237
_cell_angle_gamma   71.33803995
_symmetry_Int_Tables_number   1
_chemical_formula_structural   Cs4ReBiCl12
_chemical_formula_sum   'Cs8 Re2 Bi2 Cl24'
_cell_volume   1267.32933548
_cell_formula_units_Z   2
loop_
 _symmetry_equiv_pos_site_id
 _symmetry_equiv_pos_as_xyz
  1  'x, y, z'
loop_
 _atom_site_type_symbol
 _atom_site_label
 _atom_site_symmetry_multiplicity
 _atom_site_fract_x
 _atom_site_fract_y
 _atom_site_fract_z
 _atom_site_occupancy
  Cs  Cs0  1  0.375000  0.852573  0.977573  1
  Cs  Cs1  1  0.601954  0.625008  0.476997  1
  Cs  Cs2  1  0.875000  0.852516  0.477516  1
  Cs  Cs3  1  0.601954  0.124958  0.976946  1
  Cs  Cs4  1  0.875000  0.397484  0.022484  1
  Cs  Cs5  1  0.148046  0.125042  0.523054  1
  Cs  Cs6  1  0.375000  0.397427  0.522427  1
  Cs  Cs7  1  0.148046  0.624992  0.023003  1
  Re  Re8  1  0.000032  0.000063  0.999969  1
  Re  Re9  1  0.749968  0.249937  0.500031  1
  Bi  Bi10  1  0.500107  0.500086  0.000021  1
  Bi  Bi11  1  0.249893  0.749914  0.499979  1
  Cl  Cl12  1  0.743957  0.496380  0.247577  1
  Cl  Cl13  1  0.503683  0.254738  0.751100  1
  Cl  Cl14  1  0.374031  0.373992  0.000039  1
  Cl  Cl15  1  0.123852  0.623843  0.500009  1
  Cl  Cl16  1  0.375969  0.876008  0.499961  1
  Cl  Cl17  1  0.626148  0.626157  0.999991  1
  Cl  Cl18  1  0.109096  0.109277  0.999819  1
  Cl  Cl19  1  0.859296  0.359184  0.500112  1
  Cl  Cl20  1  0.640904  0.140723  0.500181  1
  Cl  Cl21  1  0.890704  0.890816  0.999888  1
  Cl  Cl22  1  0.216434  0.000626  0.215808  1
  Cl  Cl23  1  0.750687  0.033314  0.282889  1
  Cl  Cl24  1  0.503683  0.752582  0.248945  1
  Cl  Cl25  1  0.533566  0.249374  0.284192  1
  Cl  Cl26  1  0.965489  0.249349  0.716140  1
  Cl  Cl27  1  0.999313  0.216686  0.217111  1
  Cl  Cl28  1  0.999313  0.782202  0.782627  1
  Cl  Cl29  1  0.784511  0.000651  0.783860  1
  Cl  Cl30  1  0.750687  0.467798  0.717373  1
  Cl  Cl31  1  0.246317  0.497418  0.251055  1
  Cl  Cl32  1  0.246317  0.995262  0.748900  1
  Cl  Cl33  1  0.006043  0.753620  0.252423  1
  Cl  Cl34  1  0.501140  0.753594  0.747547  1
  Cl  Cl35  1  0.248860  0.496406  0.752453  1
