# generated using pymatgen
data_CeTmTi3Si4
_symmetry_space_group_name_H-M   'P 1'
_cell_length_a   7.05655930
_cell_length_b   7.05766792
_cell_length_c   13.01587656
_cell_angle_alpha   90.20559861
_cell_angle_beta   90.07799253
_cell_angle_gamma   90.20275222
_symmetry_Int_Tables_number   1
_chemical_formula_structural   CeTmTi3Si4
_chemical_formula_sum   'Ce4 Tm4 Ti12 Si16'
_cell_volume   648.21893286
_cell_formula_units_Z   4
loop_
 _symmetry_equiv_pos_site_id
 _symmetry_equiv_pos_as_xyz
  1  'x, y, z'
loop_
 _atom_site_type_symbol
 _atom_site_label
 _atom_site_symmetry_multiplicity
 _atom_site_fract_x
 _atom_site_fract_y
 _atom_site_fract_z
 _atom_site_occupancy
  Ce  Ce0  1  0.337417  0.003704  0.467427  1
  Ce  Ce1  1  0.494129  0.838470  0.715941  1
  Ce  Ce2  1  0.512641  0.167824  0.217139  1
  Ce  Ce3  1  0.832570  0.488831  0.281941  1
  Tm  Tm4  1  0.160393  0.503828  0.783984  1
  Tm  Tm5  1  0.659609  0.998718  0.966855  1
  Tm  Tm6  1  0.002132  0.338850  0.533132  1
  Tm  Tm7  1  0.999932  0.660563  0.031953  1
  Ti  Ti8  1  0.326712  0.326506  0.000896  1
  Ti  Ti9  1  0.173465  0.826453  0.250599  1
  Ti  Ti10  1  0.824720  0.173465  0.750588  1
  Ti  Ti11  1  0.671660  0.674137  0.500350  1
  Ti  Ti12  1  0.153693  0.009151  0.877791  1
  Ti  Ti13  1  0.494533  0.654698  0.125350  1
  Ti  Ti14  1  0.508814  0.342804  0.628515  1
  Ti  Ti15  1  0.655208  0.496222  0.872500  1
  Ti  Ti16  1  0.342835  0.505645  0.372756  1
  Ti  Ti17  1  0.844970  0.990563  0.376608  1
  Ti  Ti18  1  0.008760  0.154730  0.121108  1
  Ti  Ti19  1  0.995361  0.845416  0.623681  1
  Si  Si20  1  0.197762  0.132860  0.687552  1
  Si  Si21  1  0.369992  0.701873  0.935926  1
  Si  Si22  1  0.629210  0.299939  0.439906  1
  Si  Si23  1  0.702745  0.373103  0.060146  1
  Si  Si24  1  0.296515  0.624040  0.564208  1
  Si  Si25  1  0.801034  0.868151  0.183692  1
  Si  Si26  1  0.128716  0.199699  0.313017  1
  Si  Si27  1  0.871592  0.799135  0.815935  1
  Si  Si28  1  0.293110  0.953151  0.066137  1
  Si  Si29  1  0.545022  0.790379  0.314406  1
  Si  Si30  1  0.453466  0.210879  0.817123  1
  Si  Si31  1  0.794547  0.545359  0.685039  1
  Si  Si32  1  0.207256  0.457530  0.183740  1
  Si  Si33  1  0.712225  0.045385  0.566152  1
  Si  Si34  1  0.954270  0.293571  0.933218  1
  Si  Si35  1  0.042985  0.704370  0.434696  1
