# generated using pymatgen
data_Ba3Sc2AuO9
_symmetry_space_group_name_H-M   'P 1'
_cell_length_a   5.90079800
_cell_length_b   5.90079803
_cell_length_c   7.24814000
_cell_angle_alpha   90.00000000
_cell_angle_beta   90.00000000
_cell_angle_gamma   119.99999986
_symmetry_Int_Tables_number   1
_chemical_formula_structural   Ba3Sc2AuO9
_chemical_formula_sum   'Ba3 Sc2 Au1 O9'
_cell_volume   218.56403670
_cell_formula_units_Z   1
loop_
 _symmetry_equiv_pos_site_id
 _symmetry_equiv_pos_as_xyz
  1  'x, y, z'
loop_
 _atom_site_type_symbol
 _atom_site_label
 _atom_site_symmetry_multiplicity
 _atom_site_fract_x
 _atom_site_fract_y
 _atom_site_fract_z
 _atom_site_occupancy
  Ba  Ba0  1  0.000000  0.000000  0.500000  1
  Ba  Ba1  1  0.666667  0.333333  0.833807  1
  Ba  Ba2  1  0.333333  0.666667  0.166193  1
  Sc  Sc3  1  0.666667  0.333333  0.337860  1
  Sc  Sc4  1  0.333333  0.666667  0.662140  1
  Au  Au5  1  0.000000  0.000000  0.000000  1
  O  O6  1  0.673446  0.836724  0.838025  1
  O  O7  1  0.326554  0.163276  0.161975  1
  O  O8  1  0.000000  0.500000  0.500000  1
  O  O9  1  0.500000  0.000000  0.500000  1
  O  O10  1  0.163276  0.326554  0.838025  1
  O  O11  1  0.836724  0.673446  0.161975  1
  O  O12  1  0.500000  0.500000  0.500000  1
  O  O13  1  0.163276  0.836724  0.838025  1
  O  O14  1  0.836724  0.163276  0.161975  1
