# generated using pymatgen
data_LaBS3
_symmetry_space_group_name_H-M   'P 1'
_cell_length_a   6.03844200
_cell_length_b   7.79313100
_cell_length_c   9.04425800
_cell_angle_alpha   90.00000000
_cell_angle_beta   90.00000000
_cell_angle_gamma   90.00000000
_symmetry_Int_Tables_number   1
_chemical_formula_structural   LaBS3
_chemical_formula_sum   'La4 B4 S12'
_cell_volume   425.60803520
_cell_formula_units_Z   4
loop_
 _symmetry_equiv_pos_site_id
 _symmetry_equiv_pos_as_xyz
  1  'x, y, z'
loop_
 _atom_site_type_symbol
 _atom_site_label
 _atom_site_symmetry_multiplicity
 _atom_site_fract_x
 _atom_site_fract_y
 _atom_site_fract_z
 _atom_site_occupancy
  La  La0  1  0.928502  0.384841  0.255494  1
  La  La1  1  0.071498  0.615159  0.755494  1
  La  La2  1  0.428502  0.115159  0.755494  1
  La  La3  1  0.571498  0.884841  0.255494  1
  B  B4  1  0.094223  0.847960  0.427131  1
  B  B5  1  0.905777  0.152040  0.927131  1
  B  B6  1  0.594223  0.652040  0.927131  1
  B  B7  1  0.405777  0.347960  0.427131  1
  S  S8  1  0.589575  0.508250  0.770575  1
  S  S9  1  0.410425  0.491750  0.270575  1
  S  S10  1  0.089575  0.991750  0.270575  1
  S  S11  1  0.910425  0.008250  0.770575  1
  S  S12  1  0.834142  0.674652  0.048207  1
  S  S13  1  0.165858  0.325348  0.548207  1
  S  S14  1  0.334142  0.825348  0.548207  1
  S  S15  1  0.665858  0.174652  0.048207  1
  S  S16  1  0.364894  0.800977  0.957833  1
  S  S17  1  0.635106  0.199023  0.457833  1
  S  S18  1  0.864894  0.699023  0.457833  1
  S  S19  1  0.135106  0.300977  0.957833  1
