# generated using pymatgen
data_Gd3Ho9CoTc3
_symmetry_space_group_name_H-M   'P 1'
_cell_length_a   6.25332090
_cell_length_b   7.30149595
_cell_length_c   9.11174600
_cell_angle_alpha   90.00678777
_cell_angle_beta   90.07868720
_cell_angle_gamma   90.15258598
_symmetry_Int_Tables_number   1
_chemical_formula_structural   Gd3Ho9CoTc3
_chemical_formula_sum   'Gd3 Ho9 Co1 Tc3'
_cell_volume   416.02766952
_cell_formula_units_Z   1
loop_
 _symmetry_equiv_pos_site_id
 _symmetry_equiv_pos_as_xyz
  1  'x, y, z'
loop_
 _atom_site_type_symbol
 _atom_site_label
 _atom_site_symmetry_multiplicity
 _atom_site_fract_x
 _atom_site_fract_y
 _atom_site_fract_z
 _atom_site_occupancy
  Gd  Gd0  1  0.663056  0.176341  0.062341  1
  Gd  Gd1  1  0.831114  0.677922  0.435469  1
  Gd  Gd2  1  0.332799  0.821377  0.936298  1
  Ho  Ho3  1  0.371971  0.539670  0.250091  1
  Ho  Ho4  1  0.125573  0.041080  0.250711  1
  Ho  Ho5  1  0.164968  0.326213  0.564893  1
  Ho  Ho6  1  0.661809  0.175912  0.439442  1
  Ho  Ho7  1  0.163478  0.327116  0.934913  1
  Ho  Ho8  1  0.333257  0.821747  0.562811  1
  Ho  Ho9  1  0.875709  0.952512  0.749359  1
  Ho  Ho10  1  0.641188  0.458040  0.749778  1
  Ho  Ho11  1  0.832503  0.677655  0.063745  1
  Co  Co12  1  0.039200  0.615603  0.750387  1
  Tc  Tc13  1  0.960319  0.389043  0.250112  1
  Tc  Tc14  1  0.463820  0.112853  0.749527  1
  Tc  Tc15  1  0.539239  0.886918  0.250123  1
