# generated using pymatgen
data_Pr3GaIr3
_symmetry_space_group_name_H-M   'P 1'
_cell_length_a   4.21253700
_cell_length_b   5.78561234
_cell_length_c   14.09824200
_cell_angle_alpha   90.00000000
_cell_angle_beta   90.00000000
_cell_angle_gamma   111.34929805
_symmetry_Int_Tables_number   1
_chemical_formula_structural   Pr3GaIr3
_chemical_formula_sum   'Pr6 Ga2 Ir6'
_cell_volume   320.02518161
_cell_formula_units_Z   2
loop_
 _symmetry_equiv_pos_site_id
 _symmetry_equiv_pos_as_xyz
  1  'x, y, z'
loop_
 _atom_site_type_symbol
 _atom_site_label
 _atom_site_symmetry_multiplicity
 _atom_site_fract_x
 _atom_site_fract_y
 _atom_site_fract_z
 _atom_site_occupancy
  Pr  Pr0  1  0.212769  0.425537  0.393344  1
  Pr  Pr1  1  0.787231  0.574463  0.606656  1
  Pr  Pr2  1  0.212769  0.425537  0.106656  1
  Pr  Pr3  1  0.787231  0.574463  0.893344  1
  Pr  Pr4  1  0.493385  0.986771  0.250000  1
  Pr  Pr5  1  0.506615  0.013229  0.750000  1
  Ga  Ga6  1  0.500000  0.000000  0.500000  1
  Ga  Ga7  1  0.500000  0.000000  0.000000  1
  Ir  Ir8  1  0.923938  0.847878  0.411330  1
  Ir  Ir9  1  0.076062  0.152122  0.588670  1
  Ir  Ir10  1  0.923938  0.847878  0.088670  1
  Ir  Ir11  1  0.076062  0.152122  0.911330  1
  Ir  Ir12  1  0.777350  0.554698  0.250000  1
  Ir  Ir13  1  0.222650  0.445302  0.750000  1
