# generated using pymatgen
data_HoTm2Sc3FeSb2
_symmetry_space_group_name_H-M   'P 1'
_cell_length_a   7.82165800
_cell_length_b   7.81979616
_cell_length_c   4.10774000
_cell_angle_alpha   90.00000000
_cell_angle_beta   90.00000000
_cell_angle_gamma   120.00788482
_symmetry_Int_Tables_number   1
_chemical_formula_structural   HoTm2Sc3FeSb2
_chemical_formula_sum   'Ho1 Tm2 Sc3 Fe1 Sb2'
_cell_volume   217.56714988
_cell_formula_units_Z   1
loop_
 _symmetry_equiv_pos_site_id
 _symmetry_equiv_pos_as_xyz
  1  'x, y, z'
loop_
 _atom_site_type_symbol
 _atom_site_label
 _atom_site_symmetry_multiplicity
 _atom_site_fract_x
 _atom_site_fract_y
 _atom_site_fract_z
 _atom_site_occupancy
  Ho  Ho0  1  0.608124  0.000000  0.500000  1
  Tm  Tm1  1  0.390282  0.390608  0.500000  1
  Tm  Tm2  1  0.999673  0.609392  0.500000  1
  Sc  Sc3  1  0.227150  0.000000  0.000000  1
  Sc  Sc4  1  0.773707  0.773080  0.000000  1
  Sc  Sc5  1  0.000627  0.226920  0.000000  1
  Fe  Fe6  1  0.001491  0.000000  0.500000  1
  Sb  Sb7  1  0.332167  0.665388  0.000000  1
  Sb  Sb8  1  0.666779  0.334612  0.000000  1
