# generated using pymatgen
data_Ho16Al3ZnPd4
_symmetry_space_group_name_H-M   'P 1'
_cell_length_a   9.53900287
_cell_length_b   9.52302308
_cell_length_c   9.52302400
_cell_angle_alpha   60.00000374
_cell_angle_beta   60.05540365
_cell_angle_gamma   60.05539553
_symmetry_Int_Tables_number   1
_chemical_formula_structural   Ho16Al3ZnPd4
_chemical_formula_sum   'Ho16 Al3 Zn1 Pd4'
_cell_volume   612.21062911
_cell_formula_units_Z   1
loop_
 _symmetry_equiv_pos_site_id
 _symmetry_equiv_pos_as_xyz
  1  'x, y, z'
loop_
 _atom_site_type_symbol
 _atom_site_label
 _atom_site_symmetry_multiplicity
 _atom_site_fract_x
 _atom_site_fract_y
 _atom_site_fract_z
 _atom_site_occupancy
  Ho  Ho0  1  0.355230  0.356765  0.356765  1
  Ho  Ho1  1  0.355230  0.356765  0.931241  1
  Ho  Ho2  1  0.355230  0.931241  0.356765  1
  Ho  Ho3  1  0.932923  0.355692  0.355692  1
  Ho  Ho4  1  0.806824  0.193090  0.193090  1
  Ho  Ho5  1  0.192547  0.808472  0.808472  1
  Ho  Ho6  1  0.192547  0.808472  0.190509  1
  Ho  Ho7  1  0.806824  0.193090  0.806996  1
  Ho  Ho8  1  0.192547  0.190509  0.808472  1
  Ho  Ho9  1  0.806824  0.806996  0.193090  1
  Ho  Ho10  1  0.936703  0.565073  0.565073  1
  Ho  Ho11  1  0.565779  0.934322  0.934322  1
  Ho  Ho12  1  0.565779  0.934322  0.565577  1
  Ho  Ho13  1  0.936703  0.565073  0.933150  1
  Ho  Ho14  1  0.565779  0.565577  0.934322  1
  Ho  Ho15  1  0.936703  0.933150  0.565073  1
  Al  Al16  1  0.579404  0.577700  0.577700  1
  Al  Al17  1  0.579404  0.577700  0.265195  1
  Al  Al18  1  0.579404  0.265195  0.577700  1
  Zn  Zn19  1  0.257045  0.580985  0.580985  1
  Pd  Pd20  1  0.145042  0.144388  0.144388  1
  Pd  Pd21  1  0.145042  0.144388  0.566181  1
  Pd  Pd22  1  0.145042  0.566181  0.144388  1
  Pd  Pd23  1  0.565448  0.144851  0.144851  1
