# generated using pymatgen
data_Ba3HoTl(ReO6)2
_symmetry_space_group_name_H-M   'P 1'
_cell_length_a   10.12710128
_cell_length_b   10.12710147
_cell_length_c   10.12710212
_cell_angle_alpha   33.73564858
_cell_angle_beta   33.73564796
_cell_angle_gamma   33.73564632
_symmetry_Int_Tables_number   1
_chemical_formula_structural   Ba3HoTl(ReO6)2
_chemical_formula_sum   'Ba3 Ho1 Tl1 Re2 O12'
_cell_volume   285.41601112
_cell_formula_units_Z   1
loop_
 _symmetry_equiv_pos_site_id
 _symmetry_equiv_pos_as_xyz
  1  'x, y, z'
loop_
 _atom_site_type_symbol
 _atom_site_label
 _atom_site_symmetry_multiplicity
 _atom_site_fract_x
 _atom_site_fract_y
 _atom_site_fract_z
 _atom_site_occupancy
  Ba  Ba0  1  0.291134  0.291134  0.291134  1
  Ba  Ba1  1  0.865612  0.865612  0.865612  1
  Ba  Ba2  1  0.131372  0.131372  0.131372  1
  Ho  Ho3  1  0.002076  0.002076  0.002076  1
  Tl  Tl4  1  0.712279  0.712279  0.712279  1
  Re  Re5  1  0.578906  0.578906  0.578906  1
  Re  Re6  1  0.421325  0.421325  0.421325  1
  O  O7  1  0.225898  0.684592  0.225898  1
  O  O8  1  0.225898  0.225898  0.684592  1
  O  O9  1  0.684592  0.225898  0.225898  1
  O  O10  1  0.775729  0.308316  0.775729  1
  O  O11  1  0.775729  0.775729  0.308316  1
  O  O12  1  0.308316  0.775729  0.775729  1
  O  O13  1  0.389771  0.855754  0.389771  1
  O  O14  1  0.389771  0.389771  0.855754  1
  O  O15  1  0.855754  0.389771  0.389771  1
  O  O16  1  0.609575  0.146689  0.609575  1
  O  O17  1  0.609575  0.609575  0.146689  1
  O  O18  1  0.146689  0.609575  0.609575  1
