# generated using pymatgen
data_RbSrAsO3
_symmetry_space_group_name_H-M   'P 1'
_cell_length_a   7.96125089
_cell_length_b   7.86987200
_cell_length_c   8.12647000
_cell_angle_alpha   89.99975975
_cell_angle_beta   99.66721022
_cell_angle_gamma   90.00037049
_symmetry_Int_Tables_number   1
_chemical_formula_structural   RbSrAsO3
_chemical_formula_sum   'Rb4 Sr4 As4 O12'
_cell_volume   501.92590623
_cell_formula_units_Z   4
loop_
 _symmetry_equiv_pos_site_id
 _symmetry_equiv_pos_as_xyz
  1  'x, y, z'
loop_
 _atom_site_type_symbol
 _atom_site_label
 _atom_site_symmetry_multiplicity
 _atom_site_fract_x
 _atom_site_fract_y
 _atom_site_fract_z
 _atom_site_occupancy
  Rb  Rb0  1  0.136535  0.446050  0.217974  1
  Rb  Rb1  1  0.863466  0.946056  0.282030  1
  Rb  Rb2  1  0.136533  0.053944  0.717966  1
  Rb  Rb3  1  0.863464  0.553946  0.782027  1
  Sr  Sr4  1  0.565130  0.269292  0.996312  1
  Sr  Sr5  1  0.434872  0.769294  0.503687  1
  Sr  Sr6  1  0.565130  0.230703  0.496311  1
  Sr  Sr7  1  0.434870  0.730704  0.003690  1
  As  As8  1  0.263143  0.024562  0.207816  1
  As  As9  1  0.736859  0.524575  0.292163  1
  As  As10  1  0.263137  0.475438  0.707835  1
  As  As11  1  0.736860  0.975439  0.792187  1
  O  O12  1  0.230137  0.799083  0.209869  1
  O  O13  1  0.712737  0.572232  0.072881  1
  O  O14  1  0.484230  0.025985  0.185404  1
  O  O15  1  0.515780  0.525987  0.314597  1
  O  O16  1  0.287256  0.072230  0.427096  1
  O  O17  1  0.769864  0.299090  0.290129  1
  O  O18  1  0.230140  0.700918  0.709874  1
  O  O19  1  0.712745  0.927769  0.572906  1
  O  O20  1  0.484214  0.474006  0.685404  1
  O  O21  1  0.515776  0.974011  0.814599  1
  O  O22  1  0.287261  0.427762  0.927112  1
  O  O23  1  0.769864  0.200923  0.790131  1
