# generated using pymatgen
data_Ho2(TeO3)3
_symmetry_space_group_name_H-M   'P 1'
_cell_length_a   5.54665000
_cell_length_b   8.22281000
_cell_length_c   18.57989900
_cell_angle_alpha   90.00000000
_cell_angle_beta   90.00000000
_cell_angle_gamma   90.00000000
_symmetry_Int_Tables_number   1
_chemical_formula_structural   Ho2(TeO3)3
_chemical_formula_sum   'Ho8 Te12 O36'
_cell_volume   847.41152551
_cell_formula_units_Z   4
loop_
 _symmetry_equiv_pos_site_id
 _symmetry_equiv_pos_as_xyz
  1  'x, y, z'
loop_
 _atom_site_type_symbol
 _atom_site_label
 _atom_site_symmetry_multiplicity
 _atom_site_fract_x
 _atom_site_fract_y
 _atom_site_fract_z
 _atom_site_occupancy
  Ho  Ho0  1  0.720321  0.661651  0.059645  1
  Ho  Ho1  1  0.779679  0.161651  0.440355  1
  Ho  Ho2  1  0.220321  0.838349  0.940355  1
  Ho  Ho3  1  0.279679  0.338349  0.940355  1
  Ho  Ho4  1  0.720321  0.661651  0.440355  1
  Ho  Ho5  1  0.279679  0.338349  0.559645  1
  Ho  Ho6  1  0.220321  0.838349  0.559645  1
  Ho  Ho7  1  0.779679  0.161651  0.059645  1
  Te  Te8  1  0.724182  0.145487  0.250000  1
  Te  Te9  1  0.795410  0.149093  0.865443  1
  Te  Te10  1  0.204590  0.850907  0.134557  1
  Te  Te11  1  0.224182  0.354513  0.750000  1
  Te  Te12  1  0.704590  0.649093  0.865443  1
  Te  Te13  1  0.704590  0.649093  0.634557  1
  Te  Te14  1  0.295410  0.350907  0.365443  1
  Te  Te15  1  0.204590  0.850907  0.365443  1
  Te  Te16  1  0.295410  0.350907  0.134557  1
  Te  Te17  1  0.795410  0.149093  0.634557  1
  Te  Te18  1  0.275818  0.854513  0.750000  1
  Te  Te19  1  0.775818  0.645487  0.250000  1
  O  O20  1  0.438608  0.137066  0.127022  1
  O  O21  1  0.404770  0.825431  0.047734  1
  O  O22  1  0.061392  0.637066  0.372978  1
  O  O23  1  0.061392  0.637066  0.127022  1
  O  O24  1  0.404770  0.825431  0.452266  1
  O  O25  1  0.059087  0.802602  0.672831  1
  O  O26  1  0.942627  0.850985  0.250000  1
  O  O27  1  0.438608  0.137066  0.372978  1
  O  O28  1  0.561392  0.862934  0.627022  1
  O  O29  1  0.938608  0.362934  0.627022  1
  O  O30  1  0.559698  0.415803  0.430879  1
  O  O31  1  0.440302  0.584197  0.569121  1
  O  O32  1  0.440913  0.302602  0.672831  1
  O  O33  1  0.559698  0.415803  0.069121  1
  O  O34  1  0.057373  0.149015  0.750000  1
  O  O35  1  0.561392  0.862934  0.872978  1
  O  O36  1  0.059698  0.084197  0.569121  1
  O  O37  1  0.595230  0.174569  0.952266  1
  O  O38  1  0.442627  0.649015  0.750000  1
  O  O39  1  0.595230  0.174569  0.547734  1
  O  O40  1  0.095230  0.325431  0.047734  1
  O  O41  1  0.059698  0.084197  0.930879  1
  O  O42  1  0.904770  0.674569  0.952266  1
  O  O43  1  0.440913  0.302602  0.827169  1
  O  O44  1  0.440302  0.584197  0.930879  1
  O  O45  1  0.559087  0.697398  0.327169  1
  O  O46  1  0.938608  0.362934  0.872978  1
  O  O47  1  0.059087  0.802602  0.827169  1
  O  O48  1  0.940913  0.197398  0.327169  1
  O  O49  1  0.557373  0.350985  0.250000  1
  O  O50  1  0.095230  0.325431  0.452266  1
  O  O51  1  0.940913  0.197398  0.172831  1
  O  O52  1  0.940302  0.915803  0.069121  1
  O  O53  1  0.904770  0.674569  0.547734  1
  O  O54  1  0.940302  0.915803  0.430879  1
  O  O55  1  0.559087  0.697398  0.172831  1
