# generated using pymatgen
data_TmHf(NbRe8)3
_symmetry_space_group_name_H-M   'P 1'
_cell_length_a   8.46181894
_cell_length_b   8.46181968
_cell_length_c   8.46181909
_cell_angle_alpha   109.50034465
_cell_angle_beta   109.50034860
_cell_angle_gamma   109.50034624
_symmetry_Int_Tables_number   1
_chemical_formula_structural   TmHf(NbRe8)3
_chemical_formula_sum   'Tm1 Hf1 Nb3 Re24'
_cell_volume   465.90796045
_cell_formula_units_Z   1
loop_
 _symmetry_equiv_pos_site_id
 _symmetry_equiv_pos_as_xyz
  1  'x, y, z'
loop_
 _atom_site_type_symbol
 _atom_site_label
 _atom_site_symmetry_multiplicity
 _atom_site_fract_x
 _atom_site_fract_y
 _atom_site_fract_z
 _atom_site_occupancy
  Tm  Tm0  1  0.999191  0.999191  0.999191  1
  Hf  Hf1  1  0.371303  0.371303  0.371303  1
  Nb  Nb2  1  0.628978  0.000209  0.000209  1
  Nb  Nb3  1  0.000209  0.628978  0.000209  1
  Nb  Nb4  1  0.000209  0.000209  0.628978  1
  Re  Re5  1  0.398794  0.681847  0.000532  1
  Re  Re6  1  0.717172  0.319010  0.319010  1
  Re  Re7  1  0.398794  0.000532  0.681847  1
  Re  Re8  1  0.681847  0.398794  0.000532  1
  Re  Re9  1  0.000532  0.398794  0.681847  1
  Re  Re10  1  0.319010  0.717172  0.319010  1
  Re  Re11  1  0.319010  0.319010  0.717172  1
  Re  Re12  1  0.000532  0.681847  0.398794  1
  Re  Re13  1  0.681847  0.000532  0.398794  1
  Re  Re14  1  0.604217  0.604217  0.281266  1
  Re  Re15  1  0.281266  0.604217  0.604217  1
  Re  Re16  1  0.604217  0.281266  0.604217  1
  Re  Re17  1  0.376746  0.194380  0.999164  1
  Re  Re18  1  0.180964  0.803561  0.803561  1
  Re  Re19  1  0.376746  0.999164  0.194380  1
  Re  Re20  1  0.194380  0.376746  0.999164  1
  Re  Re21  1  0.999164  0.376746  0.194380  1
  Re  Re22  1  0.803561  0.180964  0.803561  1
  Re  Re23  1  0.803561  0.803561  0.180964  1
  Re  Re24  1  0.999164  0.194380  0.376746  1
  Re  Re25  1  0.194380  0.999164  0.376746  1
  Re  Re26  1  0.622924  0.622924  0.818356  1
  Re  Re27  1  0.818356  0.622924  0.622924  1
  Re  Re28  1  0.622924  0.818356  0.622924  1
