# generated using pymatgen
data_Hf6Zr4Ga2Sn5Sb
_symmetry_space_group_name_H-M   'P 1'
_cell_length_a   8.67900801
_cell_length_b   8.67900914
_cell_length_c   5.84585300
_cell_angle_alpha   90.00000000
_cell_angle_beta   90.00000000
_cell_angle_gamma   119.91562910
_symmetry_Int_Tables_number   1
_chemical_formula_structural   Hf6Zr4Ga2Sn5Sb
_chemical_formula_sum   'Hf6 Zr4 Ga2 Sn5 Sb1'
_cell_volume   381.66941305
_cell_formula_units_Z   1
loop_
 _symmetry_equiv_pos_site_id
 _symmetry_equiv_pos_as_xyz
  1  'x, y, z'
loop_
 _atom_site_type_symbol
 _atom_site_label
 _atom_site_symmetry_multiplicity
 _atom_site_fract_x
 _atom_site_fract_y
 _atom_site_fract_z
 _atom_site_occupancy
  Hf  Hf0  1  0.730972  0.999413  0.250000  1
  Hf  Hf1  1  0.999413  0.730972  0.250000  1
  Hf  Hf2  1  0.666209  0.333514  0.000529  1
  Hf  Hf3  1  0.333514  0.666209  0.000529  1
  Hf  Hf4  1  0.333514  0.666209  0.499471  1
  Hf  Hf5  1  0.666209  0.333514  0.499471  1
  Zr  Zr6  1  0.732813  0.732813  0.750000  1
  Zr  Zr7  1  0.266706  0.001336  0.750000  1
  Zr  Zr8  1  0.001336  0.266706  0.750000  1
  Zr  Zr9  1  0.269259  0.269259  0.250000  1
  Ga  Ga10  1  0.998949  0.998949  0.003612  1
  Ga  Ga11  1  0.998949  0.998949  0.496388  1
  Sn  Sn12  1  0.611269  0.000370  0.750000  1
  Sn  Sn13  1  0.000370  0.611269  0.750000  1
  Sn  Sn14  1  0.613454  0.613454  0.250000  1
  Sn  Sn15  1  0.387902  0.998352  0.250000  1
  Sn  Sn16  1  0.998352  0.387902  0.250000  1
  Sb  Sb17  1  0.390811  0.390811  0.750000  1
