# generated using pymatgen
data_Yb5Ge2SbH
_symmetry_space_group_name_H-M   'P 1'
_cell_length_a   9.06015756
_cell_length_b   9.06015675
_cell_length_c   9.06015653
_cell_angle_alpha   128.99751629
_cell_angle_beta   128.99751333
_cell_angle_gamma   75.01457062
_symmetry_Int_Tables_number   1
_chemical_formula_structural   Yb5Ge2SbH
_chemical_formula_sum   'Yb10 Ge4 Sb2 H2'
_cell_volume   437.42099338
_cell_formula_units_Z   2
loop_
 _symmetry_equiv_pos_site_id
 _symmetry_equiv_pos_as_xyz
  1  'x, y, z'
loop_
 _atom_site_type_symbol
 _atom_site_label
 _atom_site_symmetry_multiplicity
 _atom_site_fract_x
 _atom_site_fract_y
 _atom_site_fract_z
 _atom_site_occupancy
  Yb  Yb0  1  0.500000  0.500000  0.000000  1
  Yb  Yb1  1  0.000000  0.000000  0.000000  1
  Yb  Yb2  1  0.520239  0.020239  0.825415  1
  Yb  Yb3  1  0.194825  0.694825  0.174585  1
  Yb  Yb4  1  0.020239  0.194825  0.500000  1
  Yb  Yb5  1  0.694825  0.520239  0.500000  1
  Yb  Yb6  1  0.479761  0.979761  0.174585  1
  Yb  Yb7  1  0.805175  0.305175  0.825415  1
  Yb  Yb8  1  0.979761  0.805175  0.500000  1
  Yb  Yb9  1  0.305175  0.479761  0.500000  1
  Ge  Ge10  1  0.877655  0.377655  0.255309  1
  Ge  Ge11  1  0.122345  0.622345  0.744691  1
  Ge  Ge12  1  0.377655  0.122345  0.500000  1
  Ge  Ge13  1  0.622345  0.877655  0.500000  1
  Sb  Sb14  1  0.250000  0.250000  0.000000  1
  Sb  Sb15  1  0.750000  0.750000  0.000000  1
  H  H16  1  0.250000  0.750000  0.500000  1
  H  H17  1  0.750000  0.250000  0.500000  1
