# generated using pymatgen
data_Sc8Nb9Re2Si16Rh
_symmetry_space_group_name_H-M   'P 1'
_cell_length_a   6.58297596
_cell_length_b   6.87139044
_cell_length_c   13.07649500
_cell_angle_alpha   90.00000000
_cell_angle_beta   90.00000000
_cell_angle_gamma   90.55129904
_symmetry_Int_Tables_number   1
_chemical_formula_structural   Sc8Nb9Re2Si16Rh
_chemical_formula_sum   'Sc8 Nb9 Re2 Si16 Rh1'
_cell_volume   591.47738339
_cell_formula_units_Z   1
loop_
 _symmetry_equiv_pos_site_id
 _symmetry_equiv_pos_as_xyz
  1  'x, y, z'
loop_
 _atom_site_type_symbol
 _atom_site_label
 _atom_site_symmetry_multiplicity
 _atom_site_fract_x
 _atom_site_fract_y
 _atom_site_fract_z
 _atom_site_occupancy
  Sc  Sc0  1  0.494734  0.673029  0.589023  1
  Sc  Sc1  1  0.999298  0.827164  0.909835  1
  Sc  Sc2  1  0.500384  0.326490  0.091969  1
  Sc  Sc3  1  0.998904  0.173795  0.406922  1
  Sc  Sc4  1  0.500384  0.326490  0.408031  1
  Sc  Sc5  1  0.998904  0.173795  0.093078  1
  Sc  Sc6  1  0.494734  0.673029  0.910977  1
  Sc  Sc7  1  0.999298  0.827164  0.590165  1
  Nb  Nb8  1  0.675442  0.165116  0.628141  1
  Nb  Nb9  1  0.169301  0.331337  0.873224  1
  Nb  Nb10  1  0.330094  0.831864  0.124071  1
  Nb  Nb11  1  0.829667  0.668362  0.376820  1
  Nb  Nb12  1  0.330094  0.831864  0.375929  1
  Nb  Nb13  1  0.829667  0.668362  0.123180  1
  Nb  Nb14  1  0.675442  0.165116  0.871859  1
  Nb  Nb15  1  0.169301  0.331337  0.626776  1
  Nb  Nb16  1  0.657870  0.994742  0.250000  1
  Re  Re17  1  0.340114  0.989456  0.750000  1
  Re  Re18  1  0.159032  0.503917  0.250000  1
  Si  Si19  1  0.669509  0.965390  0.461353  1
  Si  Si20  1  0.168254  0.535797  0.040712  1
  Si  Si21  1  0.334309  0.035548  0.954984  1
  Si  Si22  1  0.833248  0.463143  0.542167  1
  Si  Si23  1  0.334309  0.035548  0.545016  1
  Si  Si24  1  0.833248  0.463143  0.957833  1
  Si  Si25  1  0.669509  0.965390  0.038647  1
  Si  Si26  1  0.168254  0.535797  0.459288  1
  Si  Si27  1  0.476695  0.385171  0.750000  1
  Si  Si28  1  0.978979  0.102925  0.750000  1
  Si  Si29  1  0.526929  0.609485  0.250000  1
  Si  Si30  1  0.034162  0.884730  0.250000  1
  Si  Si31  1  0.700703  0.855171  0.750000  1
  Si  Si32  1  0.201669  0.642729  0.750000  1
  Si  Si33  1  0.290320  0.149247  0.250000  1
  Si  Si34  1  0.796589  0.361415  0.250000  1
  Rh  Rh35  1  0.830648  0.526948  0.750000  1
