# generated using pymatgen
data_Ca4Ta2AlVO12
_symmetry_space_group_name_H-M   'P 1'
_cell_length_a   5.44445471
_cell_length_b   5.54315247
_cell_length_c   7.78017510
_cell_angle_alpha   89.99263496
_cell_angle_beta   89.77568215
_cell_angle_gamma   90.23405865
_symmetry_Int_Tables_number   1
_chemical_formula_structural   Ca4Ta2AlVO12
_chemical_formula_sum   'Ca4 Ta2 Al1 V1 O12'
_cell_volume   234.79758636
_cell_formula_units_Z   1
loop_
 _symmetry_equiv_pos_site_id
 _symmetry_equiv_pos_as_xyz
  1  'x, y, z'
loop_
 _atom_site_type_symbol
 _atom_site_label
 _atom_site_symmetry_multiplicity
 _atom_site_fract_x
 _atom_site_fract_y
 _atom_site_fract_z
 _atom_site_occupancy
  Ca  Ca0  1  0.990827  0.958413  0.253042  1
  Ca  Ca1  1  0.509785  0.456795  0.255422  1
  Ca  Ca2  1  0.490216  0.543205  0.744577  1
  Ca  Ca3  1  0.009174  0.041588  0.746959  1
  Ta  Ta4  1  0.500000  0.000000  0.000000  1
  Ta  Ta5  1  0.000000  0.500000  0.500000  1
  Al  Al6  1  0.500001  0.000000  0.500000  1
  V  V7  1  0.000000  0.500000  0.000000  1
  O  O8  1  0.796810  0.202569  0.042845  1
  O  O9  1  0.698337  0.707191  0.044405  1
  O  O10  1  0.084457  0.523389  0.253436  1
  O  O11  1  0.420565  0.020811  0.254477  1
  O  O12  1  0.781531  0.211256  0.457403  1
  O  O13  1  0.710279  0.718877  0.459829  1
  O  O14  1  0.289721  0.281122  0.540170  1
  O  O15  1  0.218469  0.788744  0.542597  1
  O  O16  1  0.579435  0.979188  0.745522  1
  O  O17  1  0.915544  0.476611  0.746563  1
  O  O18  1  0.301664  0.292810  0.955595  1
  O  O19  1  0.203190  0.797430  0.957155  1
