# generated using pymatgen
data_TbPr3YSn3
_symmetry_space_group_name_H-M   'P 1'
_cell_length_a   9.24264000
_cell_length_b   9.24263910
_cell_length_c   6.74857500
_cell_angle_alpha   90.00000000
_cell_angle_beta   90.00000000
_cell_angle_gamma   120.00000322
_symmetry_Int_Tables_number   1
_chemical_formula_structural   TbPr3YSn3
_chemical_formula_sum   'Tb2 Pr6 Y2 Sn6'
_cell_volume   499.26914737
_cell_formula_units_Z   2
loop_
 _symmetry_equiv_pos_site_id
 _symmetry_equiv_pos_as_xyz
  1  'x, y, z'
loop_
 _atom_site_type_symbol
 _atom_site_label
 _atom_site_symmetry_multiplicity
 _atom_site_fract_x
 _atom_site_fract_y
 _atom_site_fract_z
 _atom_site_occupancy
  Tb  Tb0  1  0.333333  0.666667  0.500000  1
  Tb  Tb1  1  0.666667  0.333333  0.500000  1
  Pr  Pr2  1  0.757042  0.757042  0.750030  1
  Pr  Pr3  1  0.242958  0.000000  0.750030  1
  Pr  Pr4  1  0.000000  0.242958  0.750030  1
  Pr  Pr5  1  0.242958  0.242958  0.249970  1
  Pr  Pr6  1  0.757042  0.000000  0.249970  1
  Pr  Pr7  1  0.000000  0.757042  0.249970  1
  Y  Y8  1  0.666667  0.333333  0.000000  1
  Y  Y9  1  0.333333  0.666667  0.000000  1
  Sn  Sn10  1  0.397850  0.397850  0.750112  1
  Sn  Sn11  1  0.602150  0.000000  0.750112  1
  Sn  Sn12  1  0.000000  0.602150  0.750112  1
  Sn  Sn13  1  0.602150  0.602150  0.249888  1
  Sn  Sn14  1  0.397850  0.000000  0.249888  1
  Sn  Sn15  1  0.000000  0.397850  0.249888  1
