# generated using pymatgen
data_Y17Er3Ir11Ru
_symmetry_space_group_name_H-M   'P 1'
_cell_length_a   10.90441700
_cell_length_b   10.90408200
_cell_length_c   6.41295000
_cell_angle_alpha   90.00000000
_cell_angle_beta   90.00000000
_cell_angle_gamma   90.00051494
_symmetry_Int_Tables_number   1
_chemical_formula_structural   Y17Er3Ir11Ru
_chemical_formula_sum   'Y17 Er3 Ir11 Ru1'
_cell_volume   762.51679503
_cell_formula_units_Z   1
loop_
 _symmetry_equiv_pos_site_id
 _symmetry_equiv_pos_as_xyz
  1  'x, y, z'
loop_
 _atom_site_type_symbol
 _atom_site_label
 _atom_site_symmetry_multiplicity
 _atom_site_fract_x
 _atom_site_fract_y
 _atom_site_fract_z
 _atom_site_occupancy
  Y  Y0  1  0.291944  0.087123  0.377836  1
  Y  Y1  1  0.292403  0.912805  0.880557  1
  Y  Y2  1  0.707597  0.087195  0.880557  1
  Y  Y3  1  0.708056  0.912877  0.377836  1
  Y  Y4  1  0.587222  0.792487  0.880579  1
  Y  Y5  1  0.587266  0.207676  0.377790  1
  Y  Y6  1  0.412734  0.792324  0.377790  1
  Y  Y7  1  0.412778  0.207513  0.880579  1
  Y  Y8  1  0.208993  0.411524  0.621223  1
  Y  Y9  1  0.209231  0.588121  0.120812  1
  Y  Y10  1  0.790769  0.411879  0.120812  1
  Y  Y11  1  0.791007  0.588476  0.621223  1
  Y  Y12  1  0.911914  0.709304  0.120783  1
  Y  Y13  1  0.911687  0.290642  0.621167  1
  Y  Y14  1  0.088313  0.709358  0.621167  1
  Y  Y15  1  0.088086  0.290696  0.120783  1
  Y  Y16  1  0.500000  0.500000  0.499069  1
  Er  Er17  1  0.000000  0.000000  0.499078  1
  Er  Er18  1  0.000000  0.000000  0.999077  1
  Er  Er19  1  0.500000  0.500000  0.999037  1
  Ir  Ir20  1  0.848630  0.152241  0.249819  1
  Ir  Ir21  1  0.848633  0.848180  0.749685  1
  Ir  Ir22  1  0.151367  0.151820  0.749685  1
  Ir  Ir23  1  0.151370  0.847759  0.249819  1
  Ir  Ir24  1  0.652622  0.347752  0.751098  1
  Ir  Ir25  1  0.653139  0.652171  0.248405  1
  Ir  Ir26  1  0.346861  0.347829  0.248405  1
  Ir  Ir27  1  0.347378  0.652248  0.751098  1
  Ir  Ir28  1  0.500000  0.000000  0.625301  1
  Ir  Ir29  1  0.000000  0.500000  0.876002  1
  Ir  Ir30  1  0.000000  0.500000  0.376210  1
  Ru  Ru31  1  0.500000  0.000000  0.126714  1
