# generated using pymatgen
data_Lu2V3Fe9P7
_symmetry_space_group_name_H-M   'P 1'
_cell_length_a   9.08847900
_cell_length_b   9.08847951
_cell_length_c   3.60558500
_cell_angle_alpha   90.00000000
_cell_angle_beta   90.00000000
_cell_angle_gamma   120.00000177
_symmetry_Int_Tables_number   1
_chemical_formula_structural   Lu2V3Fe9P7
_chemical_formula_sum   'Lu2 V3 Fe9 P7'
_cell_volume   257.92224655
_cell_formula_units_Z   1
loop_
 _symmetry_equiv_pos_site_id
 _symmetry_equiv_pos_as_xyz
  1  'x, y, z'
loop_
 _atom_site_type_symbol
 _atom_site_label
 _atom_site_symmetry_multiplicity
 _atom_site_fract_x
 _atom_site_fract_y
 _atom_site_fract_z
 _atom_site_occupancy
  Lu  Lu0  1  0.666667  0.333333  0.000000  1
  Lu  Lu1  1  0.000000  0.000000  0.500000  1
  V  V2  1  0.552072  0.770002  0.500000  1
  V  V3  1  0.229998  0.782070  0.500000  1
  V  V4  1  0.217930  0.447928  0.500000  1
  Fe  Fe5  1  0.762080  0.719324  0.000000  1
  Fe  Fe6  1  0.280676  0.042758  0.000000  1
  Fe  Fe7  1  0.957242  0.237920  0.000000  1
  Fe  Fe8  1  0.492167  0.943709  0.000000  1
  Fe  Fe9  1  0.056291  0.548457  0.000000  1
  Fe  Fe10  1  0.451543  0.507833  0.000000  1
  Fe  Fe11  1  0.723637  0.103132  0.500000  1
  Fe  Fe12  1  0.896868  0.620506  0.500000  1
  Fe  Fe13  1  0.379494  0.276363  0.500000  1
  P  P14  1  0.457145  0.075193  0.500000  1
  P  P15  1  0.924807  0.381953  0.500000  1
  P  P16  1  0.618047  0.542855  0.500000  1
  P  P17  1  0.747671  0.964012  0.000000  1
  P  P18  1  0.035988  0.783661  0.000000  1
  P  P19  1  0.216339  0.252329  0.000000  1
  P  P20  1  0.333333  0.666667  0.000000  1
