# generated using pymatgen
data_Pr7Nd9(InIr)4
_symmetry_space_group_name_H-M   'P 1'
_cell_length_a   10.02203616
_cell_length_b   10.02203617
_cell_length_c   9.97702400
_cell_angle_alpha   60.14846078
_cell_angle_beta   60.14846074
_cell_angle_gamma   60.31415546
_symmetry_Int_Tables_number   1
_chemical_formula_structural   Pr7Nd9(InIr)4
_chemical_formula_sum   'Pr7 Nd9 In4 Ir4'
_cell_volume   711.85904783
_cell_formula_units_Z   1
loop_
 _symmetry_equiv_pos_site_id
 _symmetry_equiv_pos_as_xyz
  1  'x, y, z'
loop_
 _atom_site_type_symbol
 _atom_site_label
 _atom_site_symmetry_multiplicity
 _atom_site_fract_x
 _atom_site_fract_y
 _atom_site_fract_z
 _atom_site_occupancy
  Pr  Pr0  1  0.808373  0.808373  0.191627  1
  Pr  Pr1  1  0.941179  0.559210  0.559531  1
  Pr  Pr2  1  0.559210  0.941179  0.940080  1
  Pr  Pr3  1  0.559210  0.941179  0.559531  1
  Pr  Pr4  1  0.941179  0.559210  0.940080  1
  Pr  Pr5  1  0.559523  0.559523  0.940477  1
  Pr  Pr6  1  0.940905  0.940905  0.559095  1
  Nd  Nd7  1  0.347974  0.347974  0.347236  1
  Nd  Nd8  1  0.347974  0.347974  0.956815  1
  Nd  Nd9  1  0.348200  0.955620  0.348089  1
  Nd  Nd10  1  0.955620  0.348200  0.348089  1
  Nd  Nd11  1  0.808374  0.190878  0.191928  1
  Nd  Nd12  1  0.190878  0.808374  0.808820  1
  Nd  Nd13  1  0.190878  0.808374  0.191928  1
  Nd  Nd14  1  0.808374  0.190878  0.808820  1
  Nd  Nd15  1  0.190885  0.190885  0.809115  1
  In  In16  1  0.580540  0.580540  0.581100  1
  In  In17  1  0.580540  0.580540  0.257819  1
  In  In18  1  0.580763  0.257514  0.580861  1
  In  In19  1  0.257514  0.580763  0.580861  1
  Ir  Ir20  1  0.141592  0.141592  0.140457  1
  Ir  Ir21  1  0.141592  0.141592  0.576359  1
  Ir  Ir22  1  0.142917  0.575805  0.140639  1
  Ir  Ir23  1  0.575805  0.142917  0.140639  1
