# generated using pymatgen
data_Tm5AlSb2
_symmetry_space_group_name_H-M   'P 1'
_cell_length_a   8.75127600
_cell_length_b   8.79626418
_cell_length_c   6.33293600
_cell_angle_alpha   90.00000000
_cell_angle_beta   90.00000000
_cell_angle_gamma   119.83095861
_symmetry_Int_Tables_number   1
_chemical_formula_structural   Tm5AlSb2
_chemical_formula_sum   'Tm10 Al2 Sb4'
_cell_volume   422.90480935
_cell_formula_units_Z   2
loop_
 _symmetry_equiv_pos_site_id
 _symmetry_equiv_pos_as_xyz
  1  'x, y, z'
loop_
 _atom_site_type_symbol
 _atom_site_label
 _atom_site_symmetry_multiplicity
 _atom_site_fract_x
 _atom_site_fract_y
 _atom_site_fract_z
 _atom_site_occupancy
  Tm  Tm0  1  0.340112  0.680225  0.000000  1
  Tm  Tm1  1  0.659888  0.319775  0.500000  1
  Tm  Tm2  1  0.659888  0.319775  0.000000  1
  Tm  Tm3  1  0.340112  0.680225  0.500000  1
  Tm  Tm4  1  0.241954  0.000000  0.250000  1
  Tm  Tm5  1  0.758046  0.000000  0.750000  1
  Tm  Tm6  1  0.987866  0.232248  0.250000  1
  Tm  Tm7  1  0.755617  0.767752  0.250000  1
  Tm  Tm8  1  0.244383  0.232248  0.750000  1
  Tm  Tm9  1  0.012134  0.767752  0.750000  1
  Al  Al10  1  0.598377  0.000000  0.250000  1
  Al  Al11  1  0.401623  0.000000  0.750000  1
  Sb  Sb12  1  0.994763  0.605983  0.250000  1
  Sb  Sb13  1  0.388780  0.394017  0.250000  1
  Sb  Sb14  1  0.611220  0.605983  0.750000  1
  Sb  Sb15  1  0.005237  0.394017  0.750000  1
