# generated using pymatgen
data_Tm2Al20IrRu3
_symmetry_space_group_name_H-M   'P 1'
_cell_length_a   6.83215012
_cell_length_b   6.83706866
_cell_length_c   9.12588507
_cell_angle_alpha   90.09264395
_cell_angle_beta   90.09248756
_cell_angle_gamma   96.63879859
_symmetry_Int_Tables_number   1
_chemical_formula_structural   Tm2Al20IrRu3
_chemical_formula_sum   'Tm2 Al20 Ir1 Ru3'
_cell_volume   423.42761318
_cell_formula_units_Z   1
loop_
 _symmetry_equiv_pos_site_id
 _symmetry_equiv_pos_as_xyz
  1  'x, y, z'
loop_
 _atom_site_type_symbol
 _atom_site_label
 _atom_site_symmetry_multiplicity
 _atom_site_fract_x
 _atom_site_fract_y
 _atom_site_fract_z
 _atom_site_occupancy
  Tm  Tm0  1  0.870693  0.127689  0.750512  1
  Tm  Tm1  1  0.129307  0.872311  0.249488  1
  Al  Al2  1  0.620859  0.375833  0.551050  1
  Al  Al3  1  0.379141  0.624167  0.448950  1
  Al  Al4  1  0.376983  0.623585  0.050242  1
  Al  Al5  1  0.623017  0.376415  0.949758  1
  Al  Al6  1  0.226581  0.223678  0.498894  1
  Al  Al7  1  0.773419  0.776322  0.501106  1
  Al  Al8  1  0.774488  0.775050  0.000475  1
  Al  Al9  1  0.225512  0.224950  0.999525  1
  Al  Al10  1  0.844794  0.155842  0.099734  1
  Al  Al11  1  0.155206  0.844158  0.900266  1
  Al  Al12  1  0.156691  0.846221  0.601180  1
  Al  Al13  1  0.843309  0.153779  0.398820  1
  Al  Al14  1  0.857232  0.586735  0.751563  1
  Al  Al15  1  0.142768  0.413265  0.248437  1
  Al  Al16  1  0.414310  0.141842  0.750456  1
  Al  Al17  1  0.585690  0.858158  0.249544  1
  Al  Al18  1  0.222186  0.480438  0.752224  1
  Al  Al19  1  0.777814  0.519562  0.247776  1
  Al  Al20  1  0.519465  0.778875  0.749785  1
  Al  Al21  1  0.480535  0.221125  0.250215  1
  Ir  Ir22  1  0.000000  0.500000  0.500000  1
  Ru  Ru23  1  0.000000  0.500000  0.000000  1
  Ru  Ru24  1  0.500000  0.000000  0.000000  1
  Ru  Ru25  1  0.500000  0.000000  0.500000  1
