# generated using pymatgen
data_Sc10GaSi3As2
_symmetry_space_group_name_H-M   'P 1'
_cell_length_a   7.93352730
_cell_length_b   7.93352677
_cell_length_c   5.84858500
_cell_angle_alpha   90.00000000
_cell_angle_beta   90.00000000
_cell_angle_gamma   119.93739571
_symmetry_Int_Tables_number   1
_chemical_formula_structural   Sc10GaSi3As2
_chemical_formula_sum   'Sc10 Ga1 Si3 As2'
_cell_volume   318.99779092
_cell_formula_units_Z   1
loop_
 _symmetry_equiv_pos_site_id
 _symmetry_equiv_pos_as_xyz
  1  'x, y, z'
loop_
 _atom_site_type_symbol
 _atom_site_label
 _atom_site_symmetry_multiplicity
 _atom_site_fract_x
 _atom_site_fract_y
 _atom_site_fract_z
 _atom_site_occupancy
  Sc  Sc0  1  0.665826  0.332505  0.245837  1
  Sc  Sc1  1  0.332505  0.665826  0.245837  1
  Sc  Sc2  1  0.332505  0.665826  0.754163  1
  Sc  Sc3  1  0.665826  0.332505  0.754163  1
  Sc  Sc4  1  0.244034  0.003550  0.500000  1
  Sc  Sc5  1  0.003550  0.244034  0.500000  1
  Sc  Sc6  1  0.758579  0.758579  0.500000  1
  Sc  Sc7  1  0.756867  0.997869  0.000000  1
  Sc  Sc8  1  0.997869  0.756867  0.000000  1
  Sc  Sc9  1  0.241538  0.241538  0.000000  1
  Ga  Ga10  1  0.397675  0.397675  0.500000  1
  Si  Si11  1  0.391000  0.998253  0.000000  1
  Si  Si12  1  0.998253  0.391000  0.000000  1
  Si  Si13  1  0.604893  0.604893  0.000000  1
  As  As14  1  0.609093  0.999856  0.500000  1
  As  As15  1  0.999856  0.609093  0.500000  1
