# generated using pymatgen
data_Dy7Y3Sn5Sb
_symmetry_space_group_name_H-M   'P 1'
_cell_length_a   8.99341300
_cell_length_b   8.98752662
_cell_length_c   6.51423900
_cell_angle_alpha   90.00000000
_cell_angle_beta   90.00000000
_cell_angle_gamma   120.02481989
_symmetry_Int_Tables_number   1
_chemical_formula_structural   Dy7Y3Sn5Sb
_chemical_formula_sum   'Dy7 Y3 Sn5 Sb1'
_cell_volume   455.87982771
_cell_formula_units_Z   1
loop_
 _symmetry_equiv_pos_site_id
 _symmetry_equiv_pos_as_xyz
  1  'x, y, z'
loop_
 _atom_site_type_symbol
 _atom_site_label
 _atom_site_symmetry_multiplicity
 _atom_site_fract_x
 _atom_site_fract_y
 _atom_site_fract_z
 _atom_site_occupancy
  Dy  Dy0  1  0.761521  0.000010  0.750000  1
  Dy  Dy1  1  0.238241  0.240106  0.750000  1
  Dy  Dy2  1  0.239307  0.000025  0.250000  1
  Dy  Dy3  1  0.333185  0.665757  0.499964  1
  Dy  Dy4  1  0.667414  0.334225  0.000044  1
  Dy  Dy5  1  0.667414  0.334225  0.499956  1
  Dy  Dy6  1  0.333185  0.665757  0.000036  1
  Y  Y7  1  0.998213  0.759937  0.750000  1
  Y  Y8  1  0.000696  0.239331  0.250000  1
  Y  Y9  1  0.761324  0.760685  0.250000  1
  Sn  Sn10  1  0.395425  0.394781  0.250000  1
  Sn  Sn11  1  0.000672  0.605196  0.250000  1
  Sn  Sn12  1  0.999935  0.395393  0.750000  1
  Sn  Sn13  1  0.604460  0.604583  0.750000  1
  Sn  Sn14  1  0.605262  0.999984  0.250000  1
  Sb  Sb15  1  0.393744  0.000006  0.750000  1
