# generated using pymatgen
data_Ce2Nd2SmRu2
_symmetry_space_group_name_H-M   'P 1'
_cell_length_a   9.15236769
_cell_length_b   9.15236856
_cell_length_c   7.13932100
_cell_angle_alpha   85.67544016
_cell_angle_beta   85.67543974
_cell_angle_gamma   41.78305666
_symmetry_Int_Tables_number   1
_chemical_formula_structural   Ce2Nd2SmRu2
_chemical_formula_sum   'Ce4 Nd4 Sm2 Ru4'
_cell_volume   397.17533047
_cell_formula_units_Z   2
loop_
 _symmetry_equiv_pos_site_id
 _symmetry_equiv_pos_as_xyz
  1  'x, y, z'
loop_
 _atom_site_type_symbol
 _atom_site_label
 _atom_site_symmetry_multiplicity
 _atom_site_fract_x
 _atom_site_fract_y
 _atom_site_fract_z
 _atom_site_occupancy
  Ce  Ce0  1  0.008076  0.809482  0.902165  1
  Ce  Ce1  1  0.190518  0.991924  0.597835  1
  Ce  Ce2  1  0.991924  0.190518  0.097835  1
  Ce  Ce3  1  0.809482  0.008076  0.402165  1
  Nd  Nd4  1  0.353023  0.216066  0.823421  1
  Nd  Nd5  1  0.783934  0.646977  0.676579  1
  Nd  Nd6  1  0.646977  0.783934  0.176579  1
  Nd  Nd7  1  0.216066  0.353023  0.323421  1
  Sm  Sm8  1  0.577478  0.422522  0.750000  1
  Sm  Sm9  1  0.422522  0.577478  0.250000  1
  Ru  Ru10  1  0.142330  0.643159  0.597683  1
  Ru  Ru11  1  0.356841  0.857670  0.902317  1
  Ru  Ru12  1  0.857670  0.356841  0.402317  1
  Ru  Ru13  1  0.643159  0.142330  0.097683  1
