# generated using pymatgen
data_CeZrB6Ru
_symmetry_space_group_name_H-M   'P 1'
_cell_length_a   3.61251400
_cell_length_b   9.11050700
_cell_length_c   11.47988900
_cell_angle_alpha   90.00000000
_cell_angle_beta   90.00000000
_cell_angle_gamma   90.00000000
_symmetry_Int_Tables_number   1
_chemical_formula_structural   CeZrB6Ru
_chemical_formula_sum   'Ce4 Zr4 B24 Ru4'
_cell_volume   377.82420208
_cell_formula_units_Z   4
loop_
 _symmetry_equiv_pos_site_id
 _symmetry_equiv_pos_as_xyz
  1  'x, y, z'
loop_
 _atom_site_type_symbol
 _atom_site_label
 _atom_site_symmetry_multiplicity
 _atom_site_fract_x
 _atom_site_fract_y
 _atom_site_fract_z
 _atom_site_occupancy
  Ce  Ce0  1  0.000000  0.323952  0.413685  1
  Ce  Ce1  1  0.000000  0.676048  0.586315  1
  Ce  Ce2  1  0.000000  0.823952  0.086315  1
  Ce  Ce3  1  0.000000  0.176048  0.913685  1
  Zr  Zr4  1  0.000000  0.945554  0.374124  1
  Zr  Zr5  1  0.000000  0.054446  0.625876  1
  Zr  Zr6  1  0.000000  0.445554  0.125876  1
  Zr  Zr7  1  0.000000  0.554446  0.874124  1
  B  B8  1  0.500000  0.554600  0.433170  1
  B  B9  1  0.500000  0.445400  0.566830  1
  B  B10  1  0.500000  0.054600  0.066830  1
  B  B11  1  0.500000  0.945400  0.933170  1
  B  B12  1  0.500000  0.752735  0.418180  1
  B  B13  1  0.500000  0.247265  0.581820  1
  B  B14  1  0.500000  0.252735  0.081820  1
  B  B15  1  0.500000  0.747265  0.918180  1
  B  B16  1  0.500000  0.796043  0.264280  1
  B  B17  1  0.500000  0.203957  0.735720  1
  B  B18  1  0.500000  0.296043  0.235720  1
  B  B19  1  0.500000  0.703957  0.764280  1
  B  B20  1  0.500000  0.630920  0.182799  1
  B  B21  1  0.500000  0.369080  0.817201  1
  B  B22  1  0.500000  0.130920  0.317201  1
  B  B23  1  0.500000  0.869080  0.682799  1
  B  B24  1  0.500000  0.983016  0.213991  1
  B  B25  1  0.500000  0.016984  0.786009  1
  B  B26  1  0.500000  0.483016  0.286009  1
  B  B27  1  0.500000  0.516984  0.713991  1
  B  B28  1  0.500000  0.601442  0.027266  1
  B  B29  1  0.500000  0.398558  0.972734  1
  B  B30  1  0.500000  0.101442  0.472734  1
  B  B31  1  0.500000  0.898558  0.527266  1
  Ru  Ru32  1  0.000000  0.642869  0.319636  1
  Ru  Ru33  1  0.000000  0.357131  0.680364  1
  Ru  Ru34  1  0.000000  0.142869  0.180364  1
  Ru  Ru35  1  0.000000  0.857131  0.819636  1
