# generated using pymatgen
data_Nd2InAgPd
_symmetry_space_group_name_H-M   'P 1'
_cell_length_a   8.03867900
_cell_length_b   8.09189200
_cell_length_c   3.89647200
_cell_angle_alpha   90.00000000
_cell_angle_beta   90.00000000
_cell_angle_gamma   90.00000000
_symmetry_Int_Tables_number   1
_chemical_formula_structural   Nd2InAgPd
_chemical_formula_sum   'Nd4 In2 Ag2 Pd2'
_cell_volume   253.45818716
_cell_formula_units_Z   2
loop_
 _symmetry_equiv_pos_site_id
 _symmetry_equiv_pos_as_xyz
  1  'x, y, z'
loop_
 _atom_site_type_symbol
 _atom_site_label
 _atom_site_symmetry_multiplicity
 _atom_site_fract_x
 _atom_site_fract_y
 _atom_site_fract_z
 _atom_site_occupancy
  Nd  Nd0  1  0.326099  0.810451  0.500000  1
  Nd  Nd1  1  0.826099  0.689549  0.500000  1
  Nd  Nd2  1  0.179014  0.341743  0.500000  1
  Nd  Nd3  1  0.679014  0.158257  0.500000  1
  In  In4  1  0.000932  0.998042  0.000000  1
  In  In5  1  0.500932  0.501958  0.000000  1
  Ag  Ag6  1  0.371279  0.120846  0.000000  1
  Ag  Ag7  1  0.871279  0.379154  0.000000  1
  Pd  Pd8  1  0.122676  0.625206  0.000000  1
  Pd  Pd9  1  0.622676  0.874794  0.000000  1
