# generated using pymatgen
data_Ba2Ag3Au
_symmetry_space_group_name_H-M   'P 1'
_cell_length_a   6.57643764
_cell_length_b   6.57643762
_cell_length_c   8.81775348
_cell_angle_alpha   48.10453400
_cell_angle_beta   48.10453277
_cell_angle_gamma   44.09440862
_symmetry_Int_Tables_number   1
_chemical_formula_structural   Ba2Ag3Au
_chemical_formula_sum   'Ba2 Ag3 Au1'
_cell_volume   184.03336606
_cell_formula_units_Z   1
loop_
 _symmetry_equiv_pos_site_id
 _symmetry_equiv_pos_as_xyz
  1  'x, y, z'
loop_
 _atom_site_type_symbol
 _atom_site_label
 _atom_site_symmetry_multiplicity
 _atom_site_fract_x
 _atom_site_fract_y
 _atom_site_fract_z
 _atom_site_occupancy
  Ba  Ba0  1  0.000792  0.000792  0.747462  1
  Ba  Ba1  1  0.999031  0.999031  0.252894  1
  Ag  Ag2  1  0.668040  0.668040  0.331075  1
  Ag  Ag3  1  0.666535  0.666535  0.833507  1
  Ag  Ag4  1  0.332492  0.332492  0.166087  1
  Au  Au5  1  0.333109  0.333109  0.668975  1
