# generated using pymatgen
data_Tb4TlPb11
_symmetry_space_group_name_H-M   'P 1'
_cell_length_a   9.89635900
_cell_length_b   6.89339491
_cell_length_c   6.89634905
_cell_angle_alpha   89.94238659
_cell_angle_beta   90.00000000
_cell_angle_gamma   90.00000000
_symmetry_Int_Tables_number   1
_chemical_formula_structural   Tb4TlPb11
_chemical_formula_sum   'Tb4 Tl1 Pb11'
_cell_volume   470.46532013
_cell_formula_units_Z   1
loop_
 _symmetry_equiv_pos_site_id
 _symmetry_equiv_pos_as_xyz
  1  'x, y, z'
loop_
 _atom_site_type_symbol
 _atom_site_label
 _atom_site_symmetry_multiplicity
 _atom_site_fract_x
 _atom_site_fract_y
 _atom_site_fract_z
 _atom_site_occupancy
  Tb  Tb0  1  0.250000  0.002090  0.001072  1
  Tb  Tb1  1  0.250000  0.498457  0.502510  1
  Tb  Tb2  1  0.750000  0.998056  0.997777  1
  Tb  Tb3  1  0.750000  0.500725  0.498657  1
  Tl  Tl4  1  0.750000  0.497542  0.998336  1
  Pb  Pb5  1  0.998135  0.249185  0.749411  1
  Pb  Pb6  1  0.501946  0.251716  0.248438  1
  Pb  Pb7  1  0.502282  0.751191  0.251100  1
  Pb  Pb8  1  0.998037  0.748536  0.751302  1
  Pb  Pb9  1  0.997718  0.751191  0.251100  1
  Pb  Pb10  1  0.501963  0.748536  0.751302  1
  Pb  Pb11  1  0.501865  0.249185  0.749411  1
  Pb  Pb12  1  0.998054  0.251716  0.248438  1
  Pb  Pb13  1  0.250000  0.998733  0.500461  1
  Pb  Pb14  1  0.250000  0.502015  0.002077  1
  Pb  Pb15  1  0.750000  0.001126  0.498605  1
