# generated using pymatgen
data_Ba4YMnO8
_symmetry_space_group_name_H-M   'P 1'
_cell_length_a   7.42647813
_cell_length_b   7.42647715
_cell_length_c   5.91881800
_cell_angle_alpha   90.00000000
_cell_angle_beta   90.00000000
_cell_angle_gamma   133.12496301
_symmetry_Int_Tables_number   1
_chemical_formula_structural   Ba4YMnO8
_chemical_formula_sum   'Ba4 Y1 Mn1 O8'
_cell_volume   238.25553043
_cell_formula_units_Z   1
loop_
 _symmetry_equiv_pos_site_id
 _symmetry_equiv_pos_as_xyz
  1  'x, y, z'
loop_
 _atom_site_type_symbol
 _atom_site_label
 _atom_site_symmetry_multiplicity
 _atom_site_fract_x
 _atom_site_fract_y
 _atom_site_fract_z
 _atom_site_occupancy
  Ba  Ba0  1  0.357332  0.642668  0.000000  1
  Ba  Ba1  1  0.855073  0.144927  0.500000  1
  Ba  Ba2  1  0.144927  0.855073  0.500000  1
  Ba  Ba3  1  0.642668  0.357332  0.000000  1
  Y  Y4  1  0.000000  0.000000  0.000000  1
  Mn  Mn5  1  0.500000  0.500000  0.500000  1
  O  O6  1  0.266427  0.266427  0.730427  1
  O  O7  1  0.733573  0.733573  0.269573  1
  O  O8  1  0.733573  0.733573  0.730427  1
  O  O9  1  0.266427  0.266427  0.269573  1
  O  O10  1  0.165763  0.834237  0.000000  1
  O  O11  1  0.648173  0.351827  0.500000  1
  O  O12  1  0.351827  0.648173  0.500000  1
  O  O13  1  0.834237  0.165763  0.000000  1
