# generated using pymatgen
data_TbTm11Pb10
_symmetry_space_group_name_H-M   'P 1'
_cell_length_a   6.63949056
_cell_length_b   9.33832050
_cell_length_c   11.61472538
_cell_angle_alpha   113.68567006
_cell_angle_beta   106.60798987
_cell_angle_gamma   90.00000240
_symmetry_Int_Tables_number   1
_chemical_formula_structural   TbTm11Pb10
_chemical_formula_sum   'Tb1 Tm11 Pb10'
_cell_volume   626.52688544
_cell_formula_units_Z   1
loop_
 _symmetry_equiv_pos_site_id
 _symmetry_equiv_pos_as_xyz
  1  'x, y, z'
loop_
 _atom_site_type_symbol
 _atom_site_label
 _atom_site_symmetry_multiplicity
 _atom_site_fract_x
 _atom_site_fract_y
 _atom_site_fract_z
 _atom_site_occupancy
  Tb  Tb0  1  0.361825  0.974687  0.723648  1
  Tm  Tm1  1  0.554941  0.304674  0.609702  1
  Tm  Tm2  1  0.445004  0.694805  0.389784  1
  Tm  Tm3  1  0.944779  0.694805  0.389784  1
  Tm  Tm4  1  0.054763  0.304674  0.609702  1
  Tm  Tm5  1  0.440006  0.681083  0.880012  1
  Tm  Tm6  1  0.559929  0.319495  0.119857  1
  Tm  Tm7  1  0.940320  0.200639  0.880641  1
  Tm  Tm8  1  0.059959  0.799712  0.119918  1
  Tm  Tm9  1  0.138131  0.250104  0.276262  1
  Tm  Tm10  1  0.861915  0.749173  0.723831  1
  Tm  Tm11  1  0.638130  0.025593  0.276259  1
  Pb  Pb12  1  0.292483  0.595311  0.584967  1
  Pb  Pb13  1  0.706827  0.401982  0.413653  1
  Pb  Pb14  1  0.793236  0.988322  0.586472  1
  Pb  Pb15  1  0.206713  0.011492  0.413426  1
  Pb  Pb16  1  0.249769  0.000281  0.000605  1
  Pb  Pb17  1  0.750836  0.000281  0.000605  1
  Pb  Pb18  1  0.074017  0.476963  0.148037  1
  Pb  Pb19  1  0.926065  0.522624  0.852129  1
  Pb  Pb20  1  0.573732  0.670693  0.147465  1
  Pb  Pb21  1  0.426622  0.332607  0.853242  1
