# generated using pymatgen
data_CaPr6RuBr12
_symmetry_space_group_name_H-M   'P 1'
_cell_length_a   9.63729659
_cell_length_b   9.63729586
_cell_length_c   9.63729586
_cell_angle_alpha   107.14461074
_cell_angle_beta   107.14459809
_cell_angle_gamma   107.14458253
_symmetry_Int_Tables_number   1
_chemical_formula_structural   CaPr6RuBr12
_chemical_formula_sum   'Ca1 Pr6 Ru1 Br12'
_cell_volume   742.47767475
_cell_formula_units_Z   1
loop_
 _symmetry_equiv_pos_site_id
 _symmetry_equiv_pos_as_xyz
  1  'x, y, z'
loop_
 _atom_site_type_symbol
 _atom_site_label
 _atom_site_symmetry_multiplicity
 _atom_site_fract_x
 _atom_site_fract_y
 _atom_site_fract_z
 _atom_site_occupancy
  Ca  Ca0  1  0.500000  0.500000  0.500000  1
  Pr  Pr1  1  0.105404  0.315491  0.025830  1
  Pr  Pr2  1  0.315491  0.025831  0.105403  1
  Pr  Pr3  1  0.025831  0.105403  0.315492  1
  Pr  Pr4  1  0.974170  0.894597  0.684509  1
  Pr  Pr5  1  0.684509  0.974170  0.894597  1
  Pr  Pr6  1  0.894596  0.684509  0.974170  1
  Ru  Ru7  1  0.000000  0.000000  0.000000  1
  Br  Br8  1  0.221177  0.684801  0.073847  1
  Br  Br9  1  0.457584  0.380213  0.167336  1
  Br  Br10  1  0.684802  0.073847  0.221177  1
  Br  Br11  1  0.926154  0.778823  0.315199  1
  Br  Br12  1  0.167336  0.457584  0.380213  1
  Br  Br13  1  0.380213  0.167336  0.457584  1
  Br  Br14  1  0.619787  0.832664  0.542417  1
  Br  Br15  1  0.832665  0.542416  0.619787  1
  Br  Br16  1  0.073847  0.221177  0.684802  1
  Br  Br17  1  0.315199  0.926154  0.778823  1
  Br  Br18  1  0.542416  0.619787  0.832665  1
  Br  Br19  1  0.778823  0.315199  0.926153  1
