# generated using pymatgen
data_NaSr5(FeN3)2
_symmetry_space_group_name_H-M   'P 1'
_cell_length_a   7.62251699
_cell_length_b   7.52906570
_cell_length_c   5.27530500
_cell_angle_alpha   90.00000000
_cell_angle_beta   90.00000000
_cell_angle_gamma   118.73376101
_symmetry_Int_Tables_number   1
_chemical_formula_structural   NaSr5(FeN3)2
_chemical_formula_sum   'Na1 Sr5 Fe2 N6'
_cell_volume   265.47206528
_cell_formula_units_Z   1
loop_
 _symmetry_equiv_pos_site_id
 _symmetry_equiv_pos_as_xyz
  1  'x, y, z'
loop_
 _atom_site_type_symbol
 _atom_site_label
 _atom_site_symmetry_multiplicity
 _atom_site_fract_x
 _atom_site_fract_y
 _atom_site_fract_z
 _atom_site_occupancy
  Na  Na0  1  0.293369  0.925883  0.750000  1
  Sr  Sr1  1  0.624943  0.720060  0.750000  1
  Sr  Sr2  1  0.088435  0.374541  0.750000  1
  Sr  Sr3  1  0.718997  0.086021  0.250000  1
  Sr  Sr4  1  0.357345  0.261153  0.250000  1
  Sr  Sr5  1  0.922339  0.648402  0.250000  1
  Fe  Fe6  1  0.335293  0.666740  0.250000  1
  Fe  Fe7  1  0.658678  0.323824  0.750000  1
  N  N8  1  0.309702  0.881857  0.250000  1
  N  N9  1  0.576213  0.693092  0.250000  1
  N  N10  1  0.120575  0.428113  0.250000  1
  N  N11  1  0.708087  0.120309  0.750000  1
  N  N12  1  0.422867  0.306932  0.750000  1
  N  N13  1  0.863156  0.563073  0.750000  1
