# generated using pymatgen
data_Dy2Y2HgRh
_symmetry_space_group_name_H-M   'P 1'
_cell_length_a   9.61099735
_cell_length_b   9.61099777
_cell_length_c   9.61788500
_cell_angle_alpha   59.97629570
_cell_angle_beta   59.97629425
_cell_angle_gamma   60.04741375
_symmetry_Int_Tables_number   1
_chemical_formula_structural   Dy2Y2HgRh
_chemical_formula_sum   'Dy8 Y8 Hg4 Rh4'
_cell_volume   628.20455570
_cell_formula_units_Z   4
loop_
 _symmetry_equiv_pos_site_id
 _symmetry_equiv_pos_as_xyz
  1  'x, y, z'
loop_
 _atom_site_type_symbol
 _atom_site_label
 _atom_site_symmetry_multiplicity
 _atom_site_fract_x
 _atom_site_fract_y
 _atom_site_fract_z
 _atom_site_occupancy
  Dy  Dy0  1  0.601245  0.601245  0.601286  1
  Dy  Dy1  1  0.601245  0.601245  0.196224  1
  Dy  Dy2  1  0.601286  0.196224  0.601245  1
  Dy  Dy3  1  0.196224  0.601286  0.601245  1
  Dy  Dy4  1  0.060587  0.439413  0.439413  1
  Dy  Dy5  1  0.439413  0.060587  0.060587  1
  Dy  Dy6  1  0.439413  0.060587  0.439413  1
  Dy  Dy7  1  0.060587  0.439413  0.060587  1
  Y  Y8  1  0.439508  0.439508  0.060492  1
  Y  Y9  1  0.060492  0.060492  0.439508  1
  Y  Y10  1  0.186945  0.813055  0.813055  1
  Y  Y11  1  0.813055  0.186945  0.186945  1
  Y  Y12  1  0.813055  0.186945  0.813055  1
  Y  Y13  1  0.186945  0.813055  0.186945  1
  Y  Y14  1  0.812924  0.812924  0.187076  1
  Y  Y15  1  0.187076  0.187076  0.812924  1
  Hg  Hg16  1  0.834691  0.834691  0.834640  1
  Hg  Hg17  1  0.834691  0.834691  0.495977  1
  Hg  Hg18  1  0.834640  0.495977  0.834691  1
  Hg  Hg19  1  0.495977  0.834640  0.834691  1
  Rh  Rh20  1  0.392563  0.392563  0.393916  1
  Rh  Rh21  1  0.392563  0.392563  0.820959  1
  Rh  Rh22  1  0.393916  0.820959  0.392563  1
  Rh  Rh23  1  0.820959  0.393916  0.392563  1
