# generated using pymatgen
data_La4Ce(TcB3)2
_symmetry_space_group_name_H-M   'P 1'
_cell_length_a   5.64165391
_cell_length_b   5.64165390
_cell_length_c   8.65862185
_cell_angle_alpha   70.98702070
_cell_angle_beta   70.98702202
_cell_angle_gamma   59.99999683
_symmetry_Int_Tables_number   1
_chemical_formula_structural   La4Ce(TcB3)2
_chemical_formula_sum   'La4 Ce1 Tc2 B6'
_cell_volume   221.13594695
_cell_formula_units_Z   1
loop_
 _symmetry_equiv_pos_site_id
 _symmetry_equiv_pos_as_xyz
  1  'x, y, z'
loop_
 _atom_site_type_symbol
 _atom_site_label
 _atom_site_symmetry_multiplicity
 _atom_site_fract_x
 _atom_site_fract_y
 _atom_site_fract_z
 _atom_site_occupancy
  La  La0  1  0.748139  0.748139  0.755581  1
  La  La1  1  0.251861  0.251861  0.244419  1
  La  La2  1  0.584882  0.584882  0.245352  1
  La  La3  1  0.415118  0.415118  0.754648  1
  Ce  Ce4  1  0.000000  0.000000  0.000000  1
  Tc  Tc5  1  0.888914  0.888914  0.333261  1
  Tc  Tc6  1  0.111086  0.111086  0.666740  1
  B  B7  1  0.500000  0.169126  0.500000  1
  B  B8  1  0.830874  0.500000  0.500000  1
  B  B9  1  0.169126  0.830874  0.500000  1
  B  B10  1  0.169126  0.500000  0.500000  1
  B  B11  1  0.830874  0.169126  0.500000  1
  B  B12  1  0.500000  0.830874  0.500000  1
