# generated using pymatgen
data_Eu(TcO4)2
_symmetry_space_group_name_H-M   'P 1'
_cell_length_a   6.26937600
_cell_length_b   6.26937697
_cell_length_c   6.37958300
_cell_angle_alpha   90.00000000
_cell_angle_beta   90.00000000
_cell_angle_gamma   120.00000403
_symmetry_Int_Tables_number   1
_chemical_formula_structural   Eu(TcO4)2
_chemical_formula_sum   'Eu1 Tc2 O8'
_cell_volume   217.15588695
_cell_formula_units_Z   1
loop_
 _symmetry_equiv_pos_site_id
 _symmetry_equiv_pos_as_xyz
  1  'x, y, z'
loop_
 _atom_site_type_symbol
 _atom_site_label
 _atom_site_symmetry_multiplicity
 _atom_site_fract_x
 _atom_site_fract_y
 _atom_site_fract_z
 _atom_site_occupancy
  Eu  Eu0  1  0.000000  0.000000  0.500000  1
  Tc  Tc1  1  0.333333  0.666667  0.800900  1
  Tc  Tc2  1  0.666667  0.333333  0.199100  1
  O  O3  1  0.217509  0.853244  0.709287  1
  O  O4  1  0.146756  0.364265  0.709287  1
  O  O5  1  0.333333  0.666667  0.070331  1
  O  O6  1  0.364265  0.217509  0.290713  1
  O  O7  1  0.635735  0.782491  0.709287  1
  O  O8  1  0.666667  0.333333  0.929669  1
  O  O9  1  0.853244  0.635735  0.290713  1
  O  O10  1  0.782491  0.146756  0.290713  1
