# generated using pymatgen
data_TbTm7(Sc3Sn4)4
_symmetry_space_group_name_H-M   'P 1'
_cell_length_a   7.66230200
_cell_length_b   7.91718219
_cell_length_c   14.78547712
_cell_angle_alpha   89.99425557
_cell_angle_beta   90.10156294
_cell_angle_gamma   89.95999777
_symmetry_Int_Tables_number   1
_chemical_formula_structural   TbTm7(Sc3Sn4)4
_chemical_formula_sum   'Tb1 Tm7 Sc12 Sn16'
_cell_volume   896.94219976
_cell_formula_units_Z   1
loop_
 _symmetry_equiv_pos_site_id
 _symmetry_equiv_pos_as_xyz
  1  'x, y, z'
loop_
 _atom_site_type_symbol
 _atom_site_label
 _atom_site_symmetry_multiplicity
 _atom_site_fract_x
 _atom_site_fract_y
 _atom_site_fract_z
 _atom_site_occupancy
  Tb  Tb0  1  0.506561  0.677696  0.593442  1
  Tm  Tm1  1  0.992025  0.178319  0.093569  1
  Tm  Tm2  1  0.007979  0.821793  0.907311  1
  Tm  Tm3  1  0.508845  0.678173  0.906157  1
  Tm  Tm4  1  0.008075  0.822338  0.593571  1
  Tm  Tm5  1  0.491570  0.321960  0.093540  1
  Tm  Tm6  1  0.991167  0.177855  0.405643  1
  Tm  Tm7  1  0.492302  0.321506  0.405848  1
  Sc  Sc8  1  0.168498  0.495245  0.750462  1
  Sc  Sc9  1  0.831817  0.504217  0.249630  1
  Sc  Sc10  1  0.331540  0.995907  0.249765  1
  Sc  Sc11  1  0.668497  0.004077  0.750329  1
  Sc  Sc12  1  0.339664  0.160230  0.627312  1
  Sc  Sc13  1  0.660798  0.840350  0.372517  1
  Sc  Sc14  1  0.160649  0.660766  0.372254  1
  Sc  Sc15  1  0.660079  0.839371  0.127230  1
  Sc  Sc16  1  0.839757  0.339004  0.627727  1
  Sc  Sc17  1  0.340029  0.160741  0.873193  1
  Sc  Sc18  1  0.840526  0.339537  0.872923  1
  Sc  Sc19  1  0.160051  0.660379  0.127469  1
  Sn  Sn20  1  0.031244  0.122337  0.750358  1
  Sn  Sn21  1  0.968792  0.877673  0.249765  1
  Sn  Sn22  1  0.469421  0.622981  0.250119  1
  Sn  Sn23  1  0.531122  0.376398  0.750023  1
  Sn  Sn24  1  0.309610  0.848161  0.751287  1
  Sn  Sn25  1  0.688608  0.152845  0.249583  1
  Sn  Sn26  1  0.189096  0.347281  0.249775  1
  Sn  Sn27  1  0.812440  0.652470  0.750588  1
  Sn  Sn28  1  0.181648  0.456483  0.541953  1
  Sn  Sn29  1  0.817093  0.541648  0.457117  1
  Sn  Sn30  1  0.314510  0.958775  0.457418  1
  Sn  Sn31  1  0.814915  0.541934  0.042236  1
  Sn  Sn32  1  0.685352  0.043488  0.541855  1
  Sn  Sn33  1  0.185690  0.457917  0.957872  1
  Sn  Sn34  1  0.684973  0.042530  0.957833  1
  Sn  Sn35  1  0.315055  0.957622  0.042323  1
