# generated using pymatgen
data_Tm4Al18Ni3Ru2Rh
_symmetry_space_group_name_H-M   'P 1'
_cell_length_a   7.47661759
_cell_length_b   7.47661265
_cell_length_c   9.32573404
_cell_angle_alpha   89.89937729
_cell_angle_beta   89.89941695
_cell_angle_gamma   119.95215141
_symmetry_Int_Tables_number   1
_chemical_formula_structural   Tm4Al18Ni3Ru2Rh
_chemical_formula_sum   'Tm4 Al18 Ni3 Ru2 Rh1'
_cell_volume   451.67934155
_cell_formula_units_Z   1
loop_
 _symmetry_equiv_pos_site_id
 _symmetry_equiv_pos_as_xyz
  1  'x, y, z'
loop_
 _atom_site_type_symbol
 _atom_site_label
 _atom_site_symmetry_multiplicity
 _atom_site_fract_x
 _atom_site_fract_y
 _atom_site_fract_z
 _atom_site_occupancy
  Tm  Tm0  1  0.997207  0.669324  0.249654  1
  Tm  Tm1  1  0.008029  0.335438  0.750466  1
  Tm  Tm2  1  0.664561  0.991971  0.249534  1
  Tm  Tm3  1  0.330676  0.002792  0.750346  1
  Al  Al4  1  0.120464  0.119192  0.249375  1
  Al  Al5  1  0.880808  0.879536  0.750625  1
  Al  Al6  1  0.995509  0.332052  0.073988  1
  Al  Al7  1  0.998468  0.666152  0.926116  1
  Al  Al8  1  0.000798  0.667832  0.574244  1
  Al  Al9  1  0.332168  0.999202  0.425756  1
  Al  Al10  1  0.000146  0.332256  0.425540  1
  Al  Al11  1  0.667744  0.999854  0.574460  1
  Al  Al12  1  0.667948  0.004491  0.926012  1
  Al  Al13  1  0.333848  0.001532  0.073884  1
  Al  Al14  1  0.330399  0.331553  0.548996  1
  Al  Al15  1  0.668447  0.669601  0.451004  1
  Al  Al16  1  0.668101  0.668757  0.048663  1
  Al  Al17  1  0.331243  0.331899  0.951337  1
  Al  Al18  1  0.338289  0.546820  0.249643  1
  Al  Al19  1  0.662850  0.449415  0.753226  1
  Al  Al20  1  0.550585  0.337150  0.246774  1
  Al  Al21  1  0.453180  0.661711  0.750357  1
  Ni  Ni22  1  0.671297  0.328702  0.000000  1
  Ni  Ni23  1  0.000352  0.999648  0.000000  1
  Ni  Ni24  1  0.999995  0.000007  0.500000  1
  Ru  Ru25  1  0.326888  0.673112  0.000000  1
  Ru  Ru26  1  0.327848  0.672153  0.500000  1
  Rh  Rh27  1  0.672149  0.327852  0.500000  1
