# generated using pymatgen
data_Ta12Ga8Ni3WC4
_symmetry_space_group_name_H-M   'P 1'
_cell_length_a   8.24471830
_cell_length_b   8.27908280
_cell_length_c   8.24471700
_cell_angle_alpha   60.13720457
_cell_angle_beta   59.99999316
_cell_angle_gamma   60.13720683
_symmetry_Int_Tables_number   1
_chemical_formula_structural   Ta12Ga8Ni3WC4
_chemical_formula_sum   'Ta12 Ga8 Ni3 W1 C4'
_cell_volume   398.76436487
_cell_formula_units_Z   1
loop_
 _symmetry_equiv_pos_site_id
 _symmetry_equiv_pos_as_xyz
  1  'x, y, z'
loop_
 _atom_site_type_symbol
 _atom_site_label
 _atom_site_symmetry_multiplicity
 _atom_site_fract_x
 _atom_site_fract_y
 _atom_site_fract_z
 _atom_site_occupancy
  Ta  Ta0  1  0.563267  0.935824  0.563267  1
  Ta  Ta1  1  0.309688  0.680025  0.700598  1
  Ta  Ta2  1  0.686733  0.314176  0.312357  1
  Ta  Ta3  1  0.309688  0.680025  0.309688  1
  Ta  Ta4  1  0.700598  0.680025  0.309688  1
  Ta  Ta5  1  0.312357  0.314176  0.686733  1
  Ta  Ta6  1  0.549402  0.569975  0.940312  1
  Ta  Ta7  1  0.940312  0.569975  0.549402  1
  Ta  Ta8  1  0.563267  0.935824  0.937643  1
  Ta  Ta9  1  0.937643  0.935824  0.563267  1
  Ta  Ta10  1  0.686733  0.314176  0.686733  1
  Ta  Ta11  1  0.940312  0.569975  0.940312  1
  Ga  Ga12  1  0.909199  0.930040  0.909199  1
  Ga  Ga13  1  0.998436  0.319960  0.340801  1
  Ga  Ga14  1  0.337093  0.988718  0.337093  1
  Ga  Ga15  1  0.340801  0.319960  0.998436  1
  Ga  Ga16  1  0.912907  0.261282  0.912907  1
  Ga  Ga17  1  0.909199  0.930040  0.251564  1
  Ga  Ga18  1  0.251564  0.930040  0.909199  1
  Ga  Ga19  1  0.340801  0.319960  0.340801  1
  Ni  Ni20  1  0.125000  0.125000  0.125000  1
  Ni  Ni21  1  0.625000  0.125000  0.125000  1
  Ni  Ni22  1  0.125000  0.125000  0.625000  1
  W  W23  1  0.125000  0.625000  0.125000  1
  C  C24  1  0.625000  0.625000  0.625000  1
  C  C25  1  0.125000  0.625000  0.625000  1
  C  C26  1  0.625000  0.125000  0.625000  1
  C  C27  1  0.625000  0.625000  0.125000  1
