# generated using pymatgen
data_CaLa16(LuIr4)3
_symmetry_space_group_name_H-M   'P 1'
_cell_length_a   11.36421300
_cell_length_b   11.36421300
_cell_length_c   6.54866700
_cell_angle_alpha   90.00000000
_cell_angle_beta   90.00000000
_cell_angle_gamma   90.00000000
_symmetry_Int_Tables_number   1
_chemical_formula_structural   CaLa16(LuIr4)3
_chemical_formula_sum   'Ca1 La16 Lu3 Ir12'
_cell_volume   845.72980733
_cell_formula_units_Z   1
loop_
 _symmetry_equiv_pos_site_id
 _symmetry_equiv_pos_as_xyz
  1  'x, y, z'
loop_
 _atom_site_type_symbol
 _atom_site_label
 _atom_site_symmetry_multiplicity
 _atom_site_fract_x
 _atom_site_fract_y
 _atom_site_fract_z
 _atom_site_occupancy
  Ca  Ca0  1  0.000000  0.000000  0.500000  1
  La  La1  1  0.088287  0.288553  0.106299  1
  La  La2  1  0.786593  0.411569  0.106514  1
  La  La3  1  0.213407  0.588431  0.106514  1
  La  La4  1  0.911713  0.711447  0.106299  1
  La  La5  1  0.411907  0.786285  0.391742  1
  La  La6  1  0.588093  0.213715  0.391742  1
  La  La7  1  0.287478  0.087747  0.393899  1
  La  La8  1  0.712522  0.912253  0.393899  1
  La  La9  1  0.411569  0.213407  0.893486  1
  La  La10  1  0.711447  0.088287  0.893701  1
  La  La11  1  0.288553  0.911713  0.893701  1
  La  La12  1  0.588431  0.786593  0.893486  1
  La  La13  1  0.087747  0.712522  0.606101  1
  La  La14  1  0.912253  0.287478  0.606101  1
  La  La15  1  0.213715  0.411907  0.608258  1
  La  La16  1  0.786285  0.588093  0.608258  1
  Lu  Lu17  1  0.000000  0.000000  0.000000  1
  Lu  Lu18  1  0.500000  0.500000  0.000000  1
  Lu  Lu19  1  0.500000  0.500000  0.500000  1
  Ir  Ir20  1  0.150251  0.846148  0.237690  1
  Ir  Ir21  1  0.355250  0.353711  0.251881  1
  Ir  Ir22  1  0.644750  0.646289  0.251881  1
  Ir  Ir23  1  0.849749  0.153852  0.237690  1
  Ir  Ir24  1  0.353711  0.644750  0.748119  1
  Ir  Ir25  1  0.153852  0.150251  0.762310  1
  Ir  Ir26  1  0.846148  0.849749  0.762310  1
  Ir  Ir27  1  0.646289  0.355250  0.748119  1
  Ir  Ir28  1  0.000000  0.500000  0.374949  1
  Ir  Ir29  1  0.500000  0.000000  0.127700  1
  Ir  Ir30  1  0.500000  0.000000  0.625051  1
  Ir  Ir31  1  0.000000  0.500000  0.872300  1
