# generated using pymatgen
data_Tb4YBi2Ru
_symmetry_space_group_name_H-M   'P 1'
_cell_length_a   7.99762600
_cell_length_b   9.01677600
_cell_length_c   12.53650100
_cell_angle_alpha   90.00000000
_cell_angle_beta   90.00000000
_cell_angle_gamma   90.00000000
_symmetry_Int_Tables_number   1
_chemical_formula_structural   Tb4YBi2Ru
_chemical_formula_sum   'Tb16 Y4 Bi8 Ru4'
_cell_volume   904.04221656
_cell_formula_units_Z   4
loop_
 _symmetry_equiv_pos_site_id
 _symmetry_equiv_pos_as_xyz
  1  'x, y, z'
loop_
 _atom_site_type_symbol
 _atom_site_label
 _atom_site_symmetry_multiplicity
 _atom_site_fract_x
 _atom_site_fract_y
 _atom_site_fract_z
 _atom_site_occupancy
  Tb  Tb0  1  0.375652  0.750000  0.692910  1
  Tb  Tb1  1  0.624348  0.250000  0.307090  1
  Tb  Tb2  1  0.875652  0.250000  0.807090  1
  Tb  Tb3  1  0.124348  0.750000  0.192910  1
  Tb  Tb4  1  0.946069  0.750000  0.504305  1
  Tb  Tb5  1  0.053931  0.250000  0.495695  1
  Tb  Tb6  1  0.446069  0.250000  0.995695  1
  Tb  Tb7  1  0.553931  0.750000  0.004305  1
  Tb  Tb8  1  0.675873  0.041496  0.564004  1
  Tb  Tb9  1  0.324127  0.958504  0.435996  1
  Tb  Tb10  1  0.175873  0.958504  0.935996  1
  Tb  Tb11  1  0.324127  0.541496  0.435996  1
  Tb  Tb12  1  0.824127  0.041496  0.064004  1
  Tb  Tb13  1  0.675873  0.458504  0.564004  1
  Tb  Tb14  1  0.824127  0.458504  0.064004  1
  Tb  Tb15  1  0.175873  0.541496  0.935996  1
  Y  Y16  1  0.843085  0.750000  0.792377  1
  Y  Y17  1  0.156915  0.250000  0.207623  1
  Y  Y18  1  0.343085  0.250000  0.707623  1
  Y  Y19  1  0.656915  0.750000  0.292377  1
  Bi  Bi20  1  0.570474  0.493212  0.827422  1
  Bi  Bi21  1  0.429526  0.506788  0.172578  1
  Bi  Bi22  1  0.070474  0.506788  0.672578  1
  Bi  Bi23  1  0.429526  0.993212  0.172578  1
  Bi  Bi24  1  0.929526  0.493212  0.327422  1
  Bi  Bi25  1  0.570474  0.006788  0.827422  1
  Bi  Bi26  1  0.929526  0.006788  0.327422  1
  Bi  Bi27  1  0.070474  0.993212  0.672578  1
  Ru  Ru28  1  0.574370  0.750000  0.512405  1
  Ru  Ru29  1  0.425630  0.250000  0.487595  1
  Ru  Ru30  1  0.074370  0.250000  0.987595  1
  Ru  Ru31  1  0.925630  0.750000  0.012405  1
