# generated using pymatgen
data_Mg2Fe4Co6Ni2P7
_symmetry_space_group_name_H-M   'P 1'
_cell_length_a   8.96301769
_cell_length_b   8.92052824
_cell_length_c   3.53404000
_cell_angle_alpha   90.00000000
_cell_angle_beta   90.00000000
_cell_angle_gamma   120.24376790
_symmetry_Int_Tables_number   1
_chemical_formula_structural   Mg2Fe4Co6Ni2P7
_chemical_formula_sum   'Mg2 Fe4 Co6 Ni2 P7'
_cell_volume   244.10399240
_cell_formula_units_Z   1
loop_
 _symmetry_equiv_pos_site_id
 _symmetry_equiv_pos_as_xyz
  1  'x, y, z'
loop_
 _atom_site_type_symbol
 _atom_site_label
 _atom_site_symmetry_multiplicity
 _atom_site_fract_x
 _atom_site_fract_y
 _atom_site_fract_z
 _atom_site_occupancy
  Mg  Mg0  1  0.003263  0.003128  0.000000  1
  Mg  Mg1  1  0.333202  0.665910  0.500000  1
  Fe  Fe2  1  0.887761  0.427780  0.500000  1
  Fe  Fe3  1  0.541090  0.111689  0.500000  1
  Fe  Fe4  1  0.570573  0.458899  0.500000  1
  Fe  Fe5  1  0.389963  0.214738  0.000000  1
  Co  Co6  1  0.785140  0.172580  0.000000  1
  Co  Co7  1  0.826199  0.610831  0.000000  1
  Co  Co8  1  0.604716  0.709458  0.000000  1
  Co  Co9  1  0.289783  0.893999  0.000000  1
  Co  Co10  1  0.103370  0.395094  0.000000  1
  Co  Co11  1  0.225903  0.279040  0.500000  1
  Ni  Ni12  1  0.051154  0.776363  0.500000  1
  Ni  Ni13  1  0.724008  0.948721  0.500000  1
  P  P14  1  0.265478  0.049380  0.500000  1
  P  P15  1  0.959063  0.221349  0.500000  1
  P  P16  1  0.779699  0.735281  0.500000  1
  P  P17  1  0.373394  0.451046  0.000000  1
  P  P18  1  0.543444  0.921142  0.000000  1
  P  P19  1  0.077258  0.622591  0.000000  1
  P  P20  1  0.665542  0.330980  0.000000  1
