# generated using pymatgen
data_Tb2DyErAl2
_symmetry_space_group_name_H-M   'P 1'
_cell_length_a   5.11679400
_cell_length_b   6.55667200
_cell_length_c   9.43371800
_cell_angle_alpha   90.00000000
_cell_angle_beta   90.00000000
_cell_angle_gamma   90.00000000
_symmetry_Int_Tables_number   1
_chemical_formula_structural   Tb2DyErAl2
_chemical_formula_sum   'Tb4 Dy2 Er2 Al4'
_cell_volume   316.49312543
_cell_formula_units_Z   2
loop_
 _symmetry_equiv_pos_site_id
 _symmetry_equiv_pos_as_xyz
  1  'x, y, z'
loop_
 _atom_site_type_symbol
 _atom_site_label
 _atom_site_symmetry_multiplicity
 _atom_site_fract_x
 _atom_site_fract_y
 _atom_site_fract_z
 _atom_site_occupancy
  Tb  Tb0  1  0.250000  0.809609  0.928009  1
  Tb  Tb1  1  0.250000  0.309609  0.571991  1
  Tb  Tb2  1  0.750000  0.190437  0.074004  1
  Tb  Tb3  1  0.750000  0.690437  0.425996  1
  Dy  Dy4  1  0.750000  0.027628  0.711028  1
  Dy  Dy5  1  0.750000  0.527628  0.788972  1
  Er  Er6  1  0.250000  0.972899  0.289426  1
  Er  Er7  1  0.250000  0.472899  0.210574  1
  Al  Al8  1  0.250000  0.290664  0.898291  1
  Al  Al9  1  0.250000  0.790664  0.601709  1
  Al  Al10  1  0.750000  0.708764  0.102625  1
  Al  Al11  1  0.750000  0.208764  0.397375  1
