# generated using pymatgen
data_Na2Zr3OF12
_symmetry_space_group_name_H-M   'P 1'
_cell_length_a   10.15982737
_cell_length_b   10.15982748
_cell_length_c   10.15982755
_cell_angle_alpha   44.78639319
_cell_angle_beta   44.78638961
_cell_angle_gamma   44.78639300
_symmetry_Int_Tables_number   1
_chemical_formula_structural   Na2Zr3OF12
_chemical_formula_sum   'Na4 Zr6 O2 F24'
_cell_volume   473.48884012
_cell_formula_units_Z   2
loop_
 _symmetry_equiv_pos_site_id
 _symmetry_equiv_pos_as_xyz
  1  'x, y, z'
loop_
 _atom_site_type_symbol
 _atom_site_label
 _atom_site_symmetry_multiplicity
 _atom_site_fract_x
 _atom_site_fract_y
 _atom_site_fract_z
 _atom_site_occupancy
  Na  Na0  1  0.000000  0.000000  0.000000  1
  Na  Na1  1  0.500000  0.500000  0.500000  1
  Na  Na2  1  0.141492  0.141492  0.141492  1
  Na  Na3  1  0.858508  0.858508  0.858508  1
  Zr  Zr4  1  0.581866  0.581866  0.036388  1
  Zr  Zr5  1  0.036388  0.581866  0.581866  1
  Zr  Zr6  1  0.581866  0.036388  0.581866  1
  Zr  Zr7  1  0.418134  0.963612  0.418134  1
  Zr  Zr8  1  0.963612  0.418134  0.418134  1
  Zr  Zr9  1  0.418134  0.418134  0.963612  1
  O  O10  1  0.717538  0.717538  0.717538  1
  O  O11  1  0.282462  0.282462  0.282462  1
  F  F12  1  0.696503  0.696503  0.364091  1
  F  F13  1  0.364091  0.696503  0.696503  1
  F  F14  1  0.696503  0.364091  0.696503  1
  F  F15  1  0.303497  0.635909  0.303497  1
  F  F16  1  0.303497  0.303497  0.635909  1
  F  F17  1  0.635909  0.303497  0.303497  1
  F  F18  1  0.922655  0.922655  0.401021  1
  F  F19  1  0.401021  0.922655  0.922655  1
  F  F20  1  0.653137  0.346863  0.000000  1
  F  F21  1  0.346863  0.000000  0.653137  1
  F  F22  1  0.000000  0.653137  0.346863  1
  F  F23  1  0.346863  0.653137  0.000000  1
  F  F24  1  0.653137  0.000000  0.346863  1
  F  F25  1  0.000000  0.346863  0.653137  1
  F  F26  1  0.910304  0.334767  0.334767  1
  F  F27  1  0.334767  0.334767  0.910304  1
  F  F28  1  0.334767  0.910304  0.334767  1
  F  F29  1  0.665233  0.089696  0.665233  1
  F  F30  1  0.089696  0.665233  0.665233  1
  F  F31  1  0.665233  0.665233  0.089696  1
  F  F32  1  0.598979  0.077345  0.077345  1
  F  F33  1  0.077345  0.077345  0.598979  1
  F  F34  1  0.077345  0.598979  0.077345  1
  F  F35  1  0.922655  0.401021  0.922655  1
