# generated using pymatgen
data_LiCa3Ag2As3
_symmetry_space_group_name_H-M   'P 1'
_cell_length_a   7.22514937
_cell_length_b   7.17610232
_cell_length_c   4.29651800
_cell_angle_alpha   90.00000000
_cell_angle_beta   90.00000000
_cell_angle_gamma   119.77569656
_symmetry_Int_Tables_number   1
_chemical_formula_structural   LiCa3Ag2As3
_chemical_formula_sum   'Li1 Ca3 Ag2 As3'
_cell_volume   193.35699775
_cell_formula_units_Z   1
loop_
 _symmetry_equiv_pos_site_id
 _symmetry_equiv_pos_as_xyz
  1  'x, y, z'
loop_
 _atom_site_type_symbol
 _atom_site_label
 _atom_site_symmetry_multiplicity
 _atom_site_fract_x
 _atom_site_fract_y
 _atom_site_fract_z
 _atom_site_occupancy
  Li  Li0  1  0.000000  0.235794  0.000000  1
  Ca  Ca1  1  0.000000  0.591298  0.500000  1
  Ca  Ca2  1  0.420740  0.416696  0.500000  1
  Ca  Ca3  1  0.579260  0.995956  0.500000  1
  Ag  Ag4  1  0.752356  0.753594  0.000000  1
  Ag  Ag5  1  0.247644  0.001238  0.000000  1
  As  As6  1  0.000000  0.013473  0.500000  1
  As  As7  1  0.327604  0.659778  0.000000  1
  As  As8  1  0.672396  0.332173  0.000000  1
