# generated using pymatgen
data_Ho4Lu(Tl2Au)2
_symmetry_space_group_name_H-M   'P 1'
_cell_length_a   3.64761300
_cell_length_b   8.18604663
_cell_length_c   18.33017700
_cell_angle_alpha   89.92179091
_cell_angle_beta   90.00000000
_cell_angle_gamma   90.00000000
_symmetry_Int_Tables_number   1
_chemical_formula_structural   Ho4Lu(Tl2Au)2
_chemical_formula_sum   'Ho8 Lu2 Tl8 Au4'
_cell_volume   547.32996183
_cell_formula_units_Z   2
loop_
 _symmetry_equiv_pos_site_id
 _symmetry_equiv_pos_as_xyz
  1  'x, y, z'
loop_
 _atom_site_type_symbol
 _atom_site_label
 _atom_site_symmetry_multiplicity
 _atom_site_fract_x
 _atom_site_fract_y
 _atom_site_fract_z
 _atom_site_occupancy
  Ho  Ho0  1  0.000000  0.379939  0.918516  1
  Ho  Ho1  1  0.000000  0.620061  0.081484  1
  Ho  Ho2  1  0.000000  0.238775  0.216933  1
  Ho  Ho3  1  0.000000  0.761225  0.783067  1
  Ho  Ho4  1  0.000000  0.259927  0.715104  1
  Ho  Ho5  1  0.000000  0.740073  0.284896  1
  Ho  Ho6  1  0.000000  0.000000  0.000000  1
  Ho  Ho7  1  0.000000  0.500000  0.500000  1
  Lu  Lu8  1  0.000000  0.119639  0.418189  1
  Lu  Lu9  1  0.000000  0.880361  0.581811  1
  Tl  Tl10  1  0.500000  0.417068  0.355526  1
  Tl  Tl11  1  0.500000  0.582932  0.644474  1
  Tl  Tl12  1  0.500000  0.080691  0.853894  1
  Tl  Tl13  1  0.500000  0.919309  0.146106  1
  Tl  Tl14  1  0.500000  0.290893  0.064209  1
  Tl  Tl15  1  0.500000  0.709107  0.935791  1
  Tl  Tl16  1  0.500000  0.205158  0.561343  1
  Tl  Tl17  1  0.500000  0.794842  0.438657  1
  Au  Au18  1  0.500000  0.030607  0.304733  1
  Au  Au19  1  0.500000  0.969393  0.695267  1
  Au  Au20  1  0.500000  0.470146  0.802048  1
  Au  Au21  1  0.500000  0.529854  0.197952  1
