# generated using pymatgen
data_Dy7Hf9(Si4W)4
_symmetry_space_group_name_H-M   'P 1'
_cell_length_a   7.13053156
_cell_length_b   7.12588070
_cell_length_c   13.03424262
_cell_angle_alpha   90.15175812
_cell_angle_beta   90.02413123
_cell_angle_gamma   89.96171549
_symmetry_Int_Tables_number   1
_chemical_formula_structural   Dy7Hf9(Si4W)4
_chemical_formula_sum   'Dy7 Hf9 Si16 W4'
_cell_volume   662.28450686
_cell_formula_units_Z   1
loop_
 _symmetry_equiv_pos_site_id
 _symmetry_equiv_pos_as_xyz
  1  'x, y, z'
loop_
 _atom_site_type_symbol
 _atom_site_label
 _atom_site_symmetry_multiplicity
 _atom_site_fract_x
 _atom_site_fract_y
 _atom_site_fract_z
 _atom_site_occupancy
  Dy  Dy0  1  0.498849  0.154914  0.533284  1
  Dy  Dy1  1  0.501414  0.845951  0.035361  1
  Dy  Dy2  1  0.656110  0.002301  0.282996  1
  Dy  Dy3  1  0.345344  0.998444  0.784773  1
  Dy  Dy4  1  0.844894  0.501402  0.966684  1
  Dy  Dy5  1  0.153871  0.498258  0.466025  1
  Dy  Dy6  1  0.001326  0.655043  0.715640  1
  Hf  Hf7  1  0.005294  0.347783  0.215399  1
  Hf  Hf8  1  0.493642  0.353401  0.124999  1
  Hf  Hf9  1  0.505789  0.646598  0.623240  1
  Hf  Hf10  1  0.853256  0.007650  0.875599  1
  Hf  Hf11  1  0.143992  0.993654  0.372008  1
  Hf  Hf12  1  0.646824  0.503796  0.374102  1
  Hf  Hf13  1  0.352969  0.494085  0.877446  1
  Hf  Hf14  1  0.005535  0.854513  0.127190  1
  Hf  Hf15  1  0.993212  0.147004  0.625143  1
  Si  Si16  1  0.803301  0.145588  0.071811  1
  Si  Si17  1  0.201510  0.860040  0.566090  1
  Si  Si18  1  0.640030  0.701494  0.816762  1
  Si  Si19  1  0.353892  0.300063  0.315839  1
  Si  Si20  1  0.860589  0.203912  0.430300  1
  Si  Si21  1  0.139561  0.797610  0.934049  1
  Si  Si22  1  0.707537  0.636357  0.181675  1
  Si  Si23  1  0.298859  0.359702  0.683418  1
  Si  Si24  1  0.551650  0.205186  0.934292  1
  Si  Si25  1  0.448934  0.794805  0.432622  1
  Si  Si26  1  0.704463  0.949215  0.683620  1
  Si  Si27  1  0.293610  0.053802  0.183373  1
  Si  Si28  1  0.795536  0.449536  0.565776  1
  Si  Si29  1  0.201444  0.548026  0.068499  1
  Si  Si30  1  0.950893  0.698036  0.315008  1
  Si  Si31  1  0.050922  0.295756  0.816452  1
  W  W32  1  0.675860  0.323814  0.750030  1
  W  W33  1  0.320731  0.672322  0.249879  1
  W  W34  1  0.824364  0.822497  0.498609  1
  W  W35  1  0.173992  0.177440  0.002010  1
