# generated using pymatgen
data_Na16HfSiAs8
_symmetry_space_group_name_H-M   'P 1'
_cell_length_a   9.85440692
_cell_length_b   9.85440616
_cell_length_c   9.85440700
_cell_angle_alpha   60.00000055
_cell_angle_beta   60.00000310
_cell_angle_gamma   60.00000146
_symmetry_Int_Tables_number   1
_chemical_formula_structural   Na16HfSiAs8
_chemical_formula_sum   'Na16 Hf1 Si1 As8'
_cell_volume   676.66928615
_cell_formula_units_Z   1
loop_
 _symmetry_equiv_pos_site_id
 _symmetry_equiv_pos_as_xyz
  1  'x, y, z'
loop_
 _atom_site_type_symbol
 _atom_site_label
 _atom_site_symmetry_multiplicity
 _atom_site_fract_x
 _atom_site_fract_y
 _atom_site_fract_z
 _atom_site_occupancy
  Na  Na0  1  0.628798  0.628798  0.113608  1
  Na  Na1  1  0.628798  0.113608  0.628798  1
  Na  Na2  1  0.113608  0.628798  0.628798  1
  Na  Na3  1  0.628798  0.628798  0.628798  1
  Na  Na4  1  0.030290  0.469710  0.469710  1
  Na  Na5  1  0.773352  0.226648  0.226648  1
  Na  Na6  1  0.469710  0.030290  0.469710  1
  Na  Na7  1  0.469710  0.469710  0.030290  1
  Na  Na8  1  0.030290  0.030290  0.469710  1
  Na  Na9  1  0.030290  0.469710  0.030290  1
  Na  Na10  1  0.469710  0.030290  0.030290  1
  Na  Na11  1  0.773352  0.226648  0.773352  1
  Na  Na12  1  0.226648  0.773352  0.226648  1
  Na  Na13  1  0.226648  0.226648  0.773352  1
  Na  Na14  1  0.773352  0.773352  0.226648  1
  Na  Na15  1  0.226648  0.773352  0.773352  1
  Hf  Hf16  1  0.500000  0.500000  0.500000  1
  Si  Si17  1  0.750000  0.750000  0.750000  1
  As  As18  1  0.852169  0.852169  0.443494  1
  As  As19  1  0.852169  0.443494  0.852169  1
  As  As20  1  0.392020  0.392020  0.823938  1
  As  As21  1  0.392020  0.823938  0.392020  1
  As  As22  1  0.823938  0.392020  0.392020  1
  As  As23  1  0.852169  0.852169  0.852169  1
  As  As24  1  0.443494  0.852169  0.852169  1
  As  As25  1  0.392020  0.392020  0.392020  1
