# generated using pymatgen
data_TbHo2GaSn6
_symmetry_space_group_name_H-M   'P 1'
_cell_length_a   13.11937500
_cell_length_b   13.11937583
_cell_length_c   4.34361300
_cell_angle_alpha   90.00000000
_cell_angle_beta   90.00000000
_cell_angle_gamma   160.07380536
_symmetry_Int_Tables_number   1
_chemical_formula_structural   TbHo2GaSn6
_chemical_formula_sum   'Tb1 Ho2 Ga1 Sn6'
_cell_volume   254.79388806
_cell_formula_units_Z   1
loop_
 _symmetry_equiv_pos_site_id
 _symmetry_equiv_pos_as_xyz
  1  'x, y, z'
loop_
 _atom_site_type_symbol
 _atom_site_label
 _atom_site_symmetry_multiplicity
 _atom_site_fract_x
 _atom_site_fract_y
 _atom_site_fract_z
 _atom_site_occupancy
  Tb  Tb0  1  0.000000  0.000000  0.500000  1
  Ho  Ho1  1  0.310948  0.689052  0.000000  1
  Ho  Ho2  1  0.689052  0.310948  0.000000  1
  Ga  Ga3  1  0.500000  0.500000  0.000000  1
  Sn  Sn4  1  0.404896  0.595104  0.500000  1
  Sn  Sn5  1  0.595104  0.404896  0.500000  1
  Sn  Sn6  1  0.093111  0.906889  0.000000  1
  Sn  Sn7  1  0.906889  0.093111  0.000000  1
  Sn  Sn8  1  0.210860  0.789140  0.500000  1
  Sn  Sn9  1  0.789140  0.210860  0.500000  1
