# generated using pymatgen
data_Lu17Mg3(InGa2)4
_symmetry_space_group_name_H-M   'P 1'
_cell_length_a   7.41858900
_cell_length_b   7.41858900
_cell_length_c   14.10754300
_cell_angle_alpha   90.00000000
_cell_angle_beta   90.00000000
_cell_angle_gamma   90.00000000
_symmetry_Int_Tables_number   1
_chemical_formula_structural   Lu17Mg3(InGa2)4
_chemical_formula_sum   'Lu17 Mg3 In4 Ga8'
_cell_volume   776.41515728
_cell_formula_units_Z   1
loop_
 _symmetry_equiv_pos_site_id
 _symmetry_equiv_pos_as_xyz
  1  'x, y, z'
loop_
 _atom_site_type_symbol
 _atom_site_label
 _atom_site_symmetry_multiplicity
 _atom_site_fract_x
 _atom_site_fract_y
 _atom_site_fract_z
 _atom_site_occupancy
  Lu  Lu0  1  0.833454  0.833875  0.892124  1
  Lu  Lu1  1  0.168094  0.164574  0.607846  1
  Lu  Lu2  1  0.835330  0.170028  0.393821  1
  Lu  Lu3  1  0.164670  0.829972  0.393821  1
  Lu  Lu4  1  0.329972  0.335330  0.393821  1
  Lu  Lu5  1  0.833428  0.168405  0.106264  1
  Lu  Lu6  1  0.333875  0.666546  0.892124  1
  Lu  Lu7  1  0.166572  0.831595  0.106264  1
  Lu  Lu8  1  0.335426  0.668094  0.607846  1
  Lu  Lu9  1  0.668405  0.666572  0.106264  1
  Lu  Lu10  1  0.664574  0.331906  0.607846  1
  Lu  Lu11  1  0.831906  0.835426  0.607846  1
  Lu  Lu12  1  0.666125  0.333454  0.892124  1
  Lu  Lu13  1  0.166546  0.166125  0.892124  1
  Lu  Lu14  1  0.500000  0.000000  0.251212  1
  Lu  Lu15  1  0.670028  0.664670  0.393821  1
  Lu  Lu16  1  0.331595  0.333428  0.106264  1
  Mg  Mg17  1  0.500000  0.000000  0.750899  1
  Mg  Mg18  1  0.000000  0.500000  0.248310  1
  Mg  Mg19  1  0.000000  0.500000  0.748646  1
  In  In20  1  0.000000  0.500000  0.000323  1
  In  In21  1  0.500000  0.000000  0.998439  1
  In  In22  1  0.500000  0.000000  0.499639  1
  In  In23  1  0.000000  0.500000  0.502171  1
  Ga  Ga24  1  0.625596  0.373479  0.250048  1
  Ga  Ga25  1  0.374404  0.626521  0.250048  1
  Ga  Ga26  1  0.126521  0.125596  0.250048  1
  Ga  Ga27  1  0.372221  0.373130  0.749985  1
  Ga  Ga28  1  0.126870  0.872221  0.749985  1
  Ga  Ga29  1  0.873479  0.874404  0.250048  1
  Ga  Ga30  1  0.627779  0.626870  0.749985  1
  Ga  Ga31  1  0.873130  0.127779  0.749985  1
