# generated using pymatgen
data_EuDyEr2(ZnSn)4
_symmetry_space_group_name_H-M   'P 1'
_cell_length_a   4.53572200
_cell_length_b   4.53572245
_cell_length_c   15.98882200
_cell_angle_alpha   90.00000000
_cell_angle_beta   90.00000000
_cell_angle_gamma   119.99999669
_symmetry_Int_Tables_number   1
_chemical_formula_structural   EuDyEr2(ZnSn)4
_chemical_formula_sum   'Eu1 Dy1 Er2 Zn4 Sn4'
_cell_volume   284.86560404
_cell_formula_units_Z   1
loop_
 _symmetry_equiv_pos_site_id
 _symmetry_equiv_pos_as_xyz
  1  'x, y, z'
loop_
 _atom_site_type_symbol
 _atom_site_label
 _atom_site_symmetry_multiplicity
 _atom_site_fract_x
 _atom_site_fract_y
 _atom_site_fract_z
 _atom_site_occupancy
  Eu  Eu0  1  0.000000  0.000000  0.000000  1
  Dy  Dy1  1  0.000000  0.000000  0.500000  1
  Er  Er2  1  0.000000  0.000000  0.257807  1
  Er  Er3  1  0.000000  0.000000  0.742193  1
  Zn  Zn4  1  0.333333  0.666667  0.171722  1
  Zn  Zn5  1  0.666667  0.333333  0.828278  1
  Zn  Zn6  1  0.666667  0.333333  0.657225  1
  Zn  Zn7  1  0.333333  0.666667  0.342775  1
  Sn  Sn8  1  0.333333  0.666667  0.607926  1
  Sn  Sn9  1  0.666667  0.333333  0.392074  1
  Sn  Sn10  1  0.666667  0.333333  0.125537  1
  Sn  Sn11  1  0.333333  0.666667  0.874463  1
