# generated using pymatgen
data_Dy2Lu6In3Co
_symmetry_space_group_name_H-M   'P 1'
_cell_length_a   10.16907600
_cell_length_b   10.16184716
_cell_length_c   6.92644902
_cell_angle_alpha   89.99333540
_cell_angle_beta   90.00000000
_cell_angle_gamma   120.02353473
_symmetry_Int_Tables_number   1
_chemical_formula_structural   Dy2Lu6In3Co
_chemical_formula_sum   'Dy4 Lu12 In6 Co2'
_cell_volume   619.71552914
_cell_formula_units_Z   2
loop_
 _symmetry_equiv_pos_site_id
 _symmetry_equiv_pos_as_xyz
  1  'x, y, z'
loop_
 _atom_site_type_symbol
 _atom_site_label
 _atom_site_symmetry_multiplicity
 _atom_site_fract_x
 _atom_site_fract_y
 _atom_site_fract_z
 _atom_site_occupancy
  Dy  Dy0  1  0.534103  0.068206  0.520451  1
  Dy  Dy1  1  0.932728  0.466425  0.521137  1
  Dy  Dy2  1  0.533698  0.466425  0.521137  1
  Dy  Dy3  1  0.465347  0.930694  0.020913  1
  Lu  Lu4  1  0.070139  0.534950  0.021785  1
  Lu  Lu5  1  0.464811  0.534950  0.021785  1
  Lu  Lu6  1  0.178925  0.357849  0.730190  1
  Lu  Lu7  1  0.642396  0.820650  0.728462  1
  Lu  Lu8  1  0.178254  0.820650  0.728462  1
  Lu  Lu9  1  0.821070  0.642141  0.225664  1
  Lu  Lu10  1  0.357016  0.179423  0.226425  1
  Lu  Lu11  1  0.822407  0.179423  0.226425  1
  Lu  Lu12  1  0.667135  0.334269  0.914614  1
  Lu  Lu13  1  0.332837  0.665675  0.414025  1
  Lu  Lu14  1  0.999945  0.999891  0.508648  1
  Lu  Lu15  1  0.000060  0.000119  0.009057  1
  In  In16  1  0.837843  0.675687  0.771105  1
  In  In17  1  0.324708  0.162372  0.771654  1
  In  In18  1  0.837664  0.162372  0.771654  1
  In  In19  1  0.163278  0.326556  0.270511  1
  In  In20  1  0.674565  0.836704  0.270903  1
  In  In21  1  0.162139  0.836704  0.270903  1
  Co  Co22  1  0.666522  0.333042  0.294010  1
  Co  Co23  1  0.332410  0.664822  0.795758  1
