# generated using pymatgen
data_Ho12Ni6Bi
_symmetry_space_group_name_H-M   'P 1'
_cell_length_a   8.41394227
_cell_length_b   8.41394185
_cell_length_c   8.41394200
_cell_angle_alpha   109.47121859
_cell_angle_beta   109.47121757
_cell_angle_gamma   109.47122131
_symmetry_Int_Tables_number   1
_chemical_formula_structural   Ho12Ni6Bi
_chemical_formula_sum   'Ho12 Ni6 Bi1'
_cell_volume   458.53942422
_cell_formula_units_Z   1
loop_
 _symmetry_equiv_pos_site_id
 _symmetry_equiv_pos_as_xyz
  1  'x, y, z'
loop_
 _atom_site_type_symbol
 _atom_site_label
 _atom_site_symmetry_multiplicity
 _atom_site_fract_x
 _atom_site_fract_y
 _atom_site_fract_z
 _atom_site_occupancy
  Ho  Ho0  1  0.811582  0.692978  0.504562  1
  Ho  Ho1  1  0.188418  0.307022  0.495438  1
  Ho  Ho2  1  0.188418  0.692978  0.881396  1
  Ho  Ho3  1  0.811582  0.307022  0.118604  1
  Ho  Ho4  1  0.692978  0.504562  0.811582  1
  Ho  Ho5  1  0.307022  0.495438  0.188418  1
  Ho  Ho6  1  0.692978  0.881396  0.188418  1
  Ho  Ho7  1  0.307022  0.118604  0.811582  1
  Ho  Ho8  1  0.504562  0.811582  0.692978  1
  Ho  Ho9  1  0.495438  0.188418  0.307022  1
  Ho  Ho10  1  0.118604  0.811582  0.307022  1
  Ho  Ho11  1  0.881396  0.188418  0.692978  1
  Ni  Ni12  1  0.874638  0.374638  0.500000  1
  Ni  Ni13  1  0.125362  0.625362  0.500000  1
  Ni  Ni14  1  0.374638  0.500000  0.874638  1
  Ni  Ni15  1  0.625362  0.500000  0.125362  1
  Ni  Ni16  1  0.500000  0.874638  0.374638  1
  Ni  Ni17  1  0.500000  0.125362  0.625362  1
  Bi  Bi18  1  0.000000  0.000000  0.000000  1
