# generated using pymatgen
data_ScTi3Zn2(Co5B2)2
_symmetry_space_group_name_H-M   'P 1'
_cell_length_a   8.56991071
_cell_length_b   8.56991071
_cell_length_c   2.94334200
_cell_angle_alpha   90.00000000
_cell_angle_beta   90.00000000
_cell_angle_gamma   89.23751800
_symmetry_Int_Tables_number   1
_chemical_formula_structural   ScTi3Zn2(Co5B2)2
_chemical_formula_sum   'Sc1 Ti3 Zn2 Co10 B4'
_cell_volume   216.14981321
_cell_formula_units_Z   1
loop_
 _symmetry_equiv_pos_site_id
 _symmetry_equiv_pos_as_xyz
  1  'x, y, z'
loop_
 _atom_site_type_symbol
 _atom_site_label
 _atom_site_symmetry_multiplicity
 _atom_site_fract_x
 _atom_site_fract_y
 _atom_site_fract_z
 _atom_site_occupancy
  Sc  Sc0  1  0.823485  0.323485  0.000000  1
  Ti  Ti1  1  0.324039  0.174819  0.000000  1
  Ti  Ti2  1  0.674819  0.824039  0.000000  1
  Ti  Ti3  1  0.175987  0.675987  0.000000  1
  Zn  Zn4  1  0.999450  0.003199  0.000000  1
  Zn  Zn5  1  0.503199  0.499450  0.000000  1
  Co  Co6  1  0.496721  0.996721  0.500000  1
  Co  Co7  1  0.005257  0.505257  0.500000  1
  Co  Co8  1  0.080940  0.220865  0.500000  1
  Co  Co9  1  0.219999  0.928794  0.500000  1
  Co  Co10  1  0.773047  0.059311  0.500000  1
  Co  Co11  1  0.930931  0.782170  0.500000  1
  Co  Co12  1  0.428794  0.719999  0.500000  1
  Co  Co13  1  0.559311  0.273047  0.500000  1
  Co  Co14  1  0.720865  0.580940  0.500000  1
  Co  Co15  1  0.282170  0.430931  0.500000  1
  B  B16  1  0.617745  0.117745  0.000000  1
  B  B17  1  0.126203  0.380622  0.000000  1
  B  B18  1  0.880622  0.626203  0.000000  1
  B  B19  1  0.376416  0.876416  0.000000  1
