# generated using pymatgen
data_Hf3Pa(InPd2)2
_symmetry_space_group_name_H-M   'P 1'
_cell_length_a   7.48209269
_cell_length_b   7.48209269
_cell_length_c   7.08649600
_cell_angle_alpha   90.00000000
_cell_angle_beta   90.00000000
_cell_angle_gamma   92.13344184
_symmetry_Int_Tables_number   1
_chemical_formula_structural   Hf3Pa(InPd2)2
_chemical_formula_sum   'Hf6 Pa2 In4 Pd8'
_cell_volume   396.43918337
_cell_formula_units_Z   2
loop_
 _symmetry_equiv_pos_site_id
 _symmetry_equiv_pos_as_xyz
  1  'x, y, z'
loop_
 _atom_site_type_symbol
 _atom_site_label
 _atom_site_symmetry_multiplicity
 _atom_site_fract_x
 _atom_site_fract_y
 _atom_site_fract_z
 _atom_site_occupancy
  Hf  Hf0  1  0.646973  0.353027  0.500000  1
  Hf  Hf1  1  0.353027  0.646973  0.500000  1
  Hf  Hf2  1  0.685281  0.314719  0.000000  1
  Hf  Hf3  1  0.314719  0.685281  0.000000  1
  Hf  Hf4  1  0.810100  0.810100  0.500000  1
  Hf  Hf5  1  0.189900  0.189900  0.500000  1
  Pa  Pa6  1  0.140980  0.140980  0.000000  1
  Pa  Pa7  1  0.859020  0.859020  0.000000  1
  In  In8  1  0.500000  0.000000  0.259469  1
  In  In9  1  0.500000  0.000000  0.740531  1
  In  In10  1  0.000000  0.500000  0.259469  1
  In  In11  1  0.000000  0.500000  0.740531  1
  Pd  Pd12  1  0.367944  0.367944  0.210564  1
  Pd  Pd13  1  0.632056  0.632056  0.789436  1
  Pd  Pd14  1  0.632056  0.632056  0.210564  1
  Pd  Pd15  1  0.864860  0.135140  0.703466  1
  Pd  Pd16  1  0.864860  0.135140  0.296534  1
  Pd  Pd17  1  0.367944  0.367944  0.789436  1
  Pd  Pd18  1  0.135140  0.864860  0.296534  1
  Pd  Pd19  1  0.135140  0.864860  0.703466  1
