# generated using pymatgen
data_V12Re5TcMo6
_symmetry_space_group_name_H-M   'P 1'
_cell_length_a   4.31262400
_cell_length_b   6.10173500
_cell_length_c   13.02449300
_cell_angle_alpha   90.00000000
_cell_angle_beta   89.99996903
_cell_angle_gamma   90.00000000
_symmetry_Int_Tables_number   1
_chemical_formula_structural   V12Re5TcMo6
_chemical_formula_sum   'V12 Re5 Tc1 Mo6'
_cell_volume   342.73287521
_cell_formula_units_Z   1
loop_
 _symmetry_equiv_pos_site_id
 _symmetry_equiv_pos_as_xyz
  1  'x, y, z'
loop_
 _atom_site_type_symbol
 _atom_site_label
 _atom_site_symmetry_multiplicity
 _atom_site_fract_x
 _atom_site_fract_y
 _atom_site_fract_z
 _atom_site_occupancy
  V  V0  1  0.500000  0.249990  0.999909  1
  V  V1  1  0.500000  0.750011  0.999909  1
  V  V2  1  0.000023  0.250278  0.166656  1
  V  V3  1  0.000023  0.749723  0.166656  1
  V  V4  1  0.500046  0.249940  0.333330  1
  V  V5  1  0.500046  0.750059  0.333330  1
  V  V6  1  0.000001  0.250288  0.500005  1
  V  V7  1  0.000001  0.749711  0.500005  1
  V  V8  1  0.499954  0.249995  0.666762  1
  V  V9  1  0.499954  0.750004  0.666762  1
  V  V10  1  0.999980  0.250469  0.833336  1
  V  V11  1  0.999980  0.749532  0.833336  1
  Re  Re12  1  0.000001  0.000000  0.999871  1
  Re  Re13  1  0.500036  0.500000  0.166580  1
  Re  Re14  1  0.000023  0.000000  0.333323  1
  Re  Re15  1  0.499998  0.500000  0.500062  1
  Re  Re16  1  0.999972  0.000000  0.666809  1
  Tc  Tc17  1  0.499959  0.500000  0.833356  1
  Mo  Mo18  1  0.000001  0.500000  0.000064  1
  Mo  Mo19  1  0.500035  0.000000  0.166611  1
  Mo  Mo20  1  0.000026  0.500000  0.333319  1
  Mo  Mo21  1  0.500000  0.000000  0.500031  1
  Mo  Mo22  1  0.999974  0.500000  0.666616  1
  Mo  Mo23  1  0.499964  0.000000  0.833357  1
