# generated using pymatgen
data_Ho2PdPtO7
_symmetry_space_group_name_H-M   'P 1'
_cell_length_a   7.23716035
_cell_length_b   7.23702346
_cell_length_c   7.23715911
_cell_angle_alpha   60.00061760
_cell_angle_beta   59.98199494
_cell_angle_gamma   60.00062391
_symmetry_Int_Tables_number   1
_chemical_formula_structural   Ho2PdPtO7
_chemical_formula_sum   'Ho4 Pd2 Pt2 O14'
_cell_volume   267.99472211
_cell_formula_units_Z   2
loop_
 _symmetry_equiv_pos_site_id
 _symmetry_equiv_pos_as_xyz
  1  'x, y, z'
loop_
 _atom_site_type_symbol
 _atom_site_label
 _atom_site_symmetry_multiplicity
 _atom_site_fract_x
 _atom_site_fract_y
 _atom_site_fract_z
 _atom_site_occupancy
  Ho  Ho0  1  0.625000  0.625000  0.125000  1
  Ho  Ho1  1  0.625000  0.625000  0.625000  1
  Ho  Ho2  1  0.625000  0.125000  0.625000  1
  Ho  Ho3  1  0.125000  0.625000  0.625000  1
  Pd  Pd4  1  0.125000  0.125000  0.125000  1
  Pd  Pd5  1  0.125000  0.625000  0.125000  1
  Pt  Pt6  1  0.625000  0.125000  0.125000  1
  Pt  Pt7  1  0.125000  0.125000  0.625000  1
  O  O8  1  0.033379  0.465389  0.467727  1
  O  O9  1  0.782273  0.784611  0.216621  1
  O  O10  1  0.782273  0.216494  0.216621  1
  O  O11  1  0.467057  0.032943  0.467057  1
  O  O12  1  0.749910  0.750090  0.749910  1
  O  O13  1  0.033379  0.033506  0.467727  1
  O  O14  1  0.033719  0.466281  0.033719  1
  O  O15  1  0.782943  0.217057  0.782943  1
  O  O16  1  0.216281  0.783719  0.216281  1
  O  O17  1  0.216621  0.216494  0.782273  1
  O  O18  1  0.500090  0.499910  0.500090  1
  O  O19  1  0.467727  0.033506  0.033379  1
  O  O20  1  0.467727  0.465389  0.033379  1
  O  O21  1  0.216621  0.784611  0.782273  1
