# generated using pymatgen
data_Os4RuRhW2
_symmetry_space_group_name_H-M   'P 1'
_cell_length_a   5.55424670
_cell_length_b   5.55424782
_cell_length_c   4.40236200
_cell_angle_alpha   90.00000000
_cell_angle_beta   90.00000000
_cell_angle_gamma   119.98876572
_symmetry_Int_Tables_number   1
_chemical_formula_structural   Os4RuRhW2
_chemical_formula_sum   'Os4 Ru1 Rh1 W2'
_cell_volume   117.62941980
_cell_formula_units_Z   1
loop_
 _symmetry_equiv_pos_site_id
 _symmetry_equiv_pos_as_xyz
  1  'x, y, z'
loop_
 _atom_site_type_symbol
 _atom_site_label
 _atom_site_symmetry_multiplicity
 _atom_site_fract_x
 _atom_site_fract_y
 _atom_site_fract_z
 _atom_site_occupancy
  Os  Os0  1  0.174439  0.333893  0.250000  1
  Os  Os1  1  0.666107  0.825561  0.250000  1
  Os  Os2  1  0.828303  0.666920  0.750000  1
  Os  Os3  1  0.333080  0.171697  0.750000  1
  Ru  Ru4  1  0.833520  0.166480  0.750000  1
  Rh  Rh5  1  0.165249  0.834751  0.250000  1
  W  W6  1  0.335401  0.664599  0.750000  1
  W  W7  1  0.663900  0.336100  0.250000  1
