# generated using pymatgen
data_Rb3AcO8
_symmetry_space_group_name_H-M   'P 1'
_cell_length_a   6.96862459
_cell_length_b   6.96507639
_cell_length_c   6.96921118
_cell_angle_alpha   114.22359491
_cell_angle_beta   114.24190052
_cell_angle_gamma   100.30864823
_symmetry_Int_Tables_number   1
_chemical_formula_structural   Rb3AcO8
_chemical_formula_sum   'Rb3 Ac1 O8'
_cell_volume   255.55301878
_cell_formula_units_Z   1
loop_
 _symmetry_equiv_pos_site_id
 _symmetry_equiv_pos_as_xyz
  1  'x, y, z'
loop_
 _atom_site_type_symbol
 _atom_site_label
 _atom_site_symmetry_multiplicity
 _atom_site_fract_x
 _atom_site_fract_y
 _atom_site_fract_z
 _atom_site_occupancy
  Rb  Rb0  1  0.499948  0.499870  0.000198  1
  Rb  Rb1  1  0.750087  0.249437  0.500049  1
  Rb  Rb2  1  0.249680  0.750140  0.500335  1
  Ac  Ac3  1  0.000795  0.000119  0.999644  1
  O  O4  1  0.693644  0.151908  0.999981  1
  O  O5  1  0.944139  0.630820  0.000004  1
  O  O6  1  0.151891  0.693974  0.999980  1
  O  O7  1  0.630577  0.944463  0.000000  1
  O  O8  1  0.369201  0.369160  0.313056  1
  O  O9  1  0.305626  0.305678  0.457267  1
  O  O10  1  0.848177  0.848239  0.542572  1
  O  O11  1  0.056238  0.056197  0.686917  1
