# generated using pymatgen
data_Na2La4HoAu10
_symmetry_space_group_name_H-M   'P 1'
_cell_length_a   8.83099668
_cell_length_b   8.83099810
_cell_length_c   10.69340900
_cell_angle_alpha   90.00000000
_cell_angle_beta   90.00000000
_cell_angle_gamma   106.01089043
_symmetry_Int_Tables_number   1
_chemical_formula_structural   Na2La4HoAu10
_chemical_formula_sum   'Na4 La8 Ho2 Au20'
_cell_volume   801.59250647
_cell_formula_units_Z   2
loop_
 _symmetry_equiv_pos_site_id
 _symmetry_equiv_pos_as_xyz
  1  'x, y, z'
loop_
 _atom_site_type_symbol
 _atom_site_label
 _atom_site_symmetry_multiplicity
 _atom_site_fract_x
 _atom_site_fract_y
 _atom_site_fract_z
 _atom_site_occupancy
  Na  Na0  1  0.514737  0.014737  0.250000  1
  Na  Na1  1  0.985263  0.485263  0.750000  1
  Na  Na2  1  0.014737  0.514737  0.250000  1
  Na  Na3  1  0.485263  0.985263  0.750000  1
  La  La4  1  0.702376  0.297624  0.000000  1
  La  La5  1  0.202376  0.797624  0.500000  1
  La  La6  1  0.802618  0.802618  0.298638  1
  La  La7  1  0.302618  0.302618  0.201362  1
  La  La8  1  0.797624  0.202376  0.500000  1
  La  La9  1  0.297624  0.702376  0.000000  1
  La  La10  1  0.697382  0.697382  0.798638  1
  La  La11  1  0.197382  0.197382  0.701362  1
  Ho  Ho12  1  0.000000  0.000000  0.000000  1
  Ho  Ho13  1  0.500000  0.500000  0.500000  1
  Au  Au14  1  0.152617  0.430834  0.486405  1
  Au  Au15  1  0.902399  0.902399  0.594369  1
  Au  Au16  1  0.569166  0.847383  0.513595  1
  Au  Au17  1  0.882237  0.161054  0.208746  1
  Au  Au18  1  0.382237  0.661054  0.291254  1
  Au  Au19  1  0.661054  0.382237  0.291254  1
  Au  Au20  1  0.402399  0.402399  0.905631  1
  Au  Au21  1  0.930834  0.652617  0.013595  1
  Au  Au22  1  0.338946  0.617763  0.708746  1
  Au  Au23  1  0.347383  0.069166  0.986405  1
  Au  Au24  1  0.597601  0.597601  0.094369  1
  Au  Au25  1  0.652617  0.930834  0.013595  1
  Au  Au26  1  0.097601  0.097601  0.405631  1
  Au  Au27  1  0.617763  0.338946  0.708746  1
  Au  Au28  1  0.117763  0.838946  0.791254  1
  Au  Au29  1  0.069166  0.347383  0.986405  1
  Au  Au30  1  0.847383  0.569166  0.513595  1
  Au  Au31  1  0.161054  0.882237  0.208746  1
  Au  Au32  1  0.430834  0.152617  0.486405  1
  Au  Au33  1  0.838946  0.117763  0.791254  1
