# generated using pymatgen
data_Li2TbErSi4
_symmetry_space_group_name_H-M   'P 1'
_cell_length_a   3.79704400
_cell_length_b   7.58922211
_cell_length_c   10.15915760
_cell_angle_alpha   89.98885935
_cell_angle_beta   90.00000000
_cell_angle_gamma   90.00000000
_symmetry_Int_Tables_number   1
_chemical_formula_structural   Li2TbErSi4
_chemical_formula_sum   'Li4 Tb2 Er2 Si8'
_cell_volume   292.75247966
_cell_formula_units_Z   2
loop_
 _symmetry_equiv_pos_site_id
 _symmetry_equiv_pos_as_xyz
  1  'x, y, z'
loop_
 _atom_site_type_symbol
 _atom_site_label
 _atom_site_symmetry_multiplicity
 _atom_site_fract_x
 _atom_site_fract_y
 _atom_site_fract_z
 _atom_site_occupancy
  Li  Li0  1  0.250000  0.991543  0.390674  1
  Li  Li1  1  0.750000  0.008457  0.609326  1
  Li  Li2  1  0.250000  0.489515  0.107552  1
  Li  Li3  1  0.750000  0.510485  0.892448  1
  Tb  Tb4  1  0.250000  0.639482  0.636307  1
  Tb  Tb5  1  0.750000  0.360518  0.363693  1
  Er  Er6  1  0.250000  0.136916  0.863725  1
  Er  Er7  1  0.750000  0.863084  0.136275  1
  Si  Si8  1  0.750000  0.266071  0.065150  1
  Si  Si9  1  0.250000  0.733929  0.934850  1
  Si  Si10  1  0.750000  0.770242  0.430684  1
  Si  Si11  1  0.250000  0.229758  0.569316  1
  Si  Si12  1  0.750000  0.843827  0.821703  1
  Si  Si13  1  0.250000  0.156173  0.178297  1
  Si  Si14  1  0.750000  0.341402  0.681462  1
  Si  Si15  1  0.250000  0.658598  0.318538  1
