# generated using pymatgen
data_Tb20Si4SnBi7
_symmetry_space_group_name_H-M   'P 1'
_cell_length_a   8.07229485
_cell_length_b   9.19176895
_cell_length_c   12.22159833
_cell_angle_alpha   90.02871206
_cell_angle_beta   89.91353872
_cell_angle_gamma   89.94100855
_symmetry_Int_Tables_number   1
_chemical_formula_structural   Tb20Si4SnBi7
_chemical_formula_sum   'Tb20 Si4 Sn1 Bi7'
_cell_volume   906.82470270
_cell_formula_units_Z   1
loop_
 _symmetry_equiv_pos_site_id
 _symmetry_equiv_pos_as_xyz
  1  'x, y, z'
loop_
 _atom_site_type_symbol
 _atom_site_label
 _atom_site_symmetry_multiplicity
 _atom_site_fract_x
 _atom_site_fract_y
 _atom_site_fract_z
 _atom_site_occupancy
  Tb  Tb0  1  0.838713  0.746785  0.788877  1
  Tb  Tb1  1  0.156498  0.249836  0.209417  1
  Tb  Tb2  1  0.344698  0.254118  0.713369  1
  Tb  Tb3  1  0.657287  0.750523  0.288830  1
  Tb  Tb4  1  0.372071  0.746353  0.706735  1
  Tb  Tb5  1  0.630556  0.249512  0.295186  1
  Tb  Tb6  1  0.862196  0.254118  0.794746  1
  Tb  Tb7  1  0.131604  0.750094  0.205241  1
  Tb  Tb8  1  0.957770  0.750714  0.499624  1
  Tb  Tb9  1  0.044155  0.249257  0.500736  1
  Tb  Tb10  1  0.460498  0.255395  0.997638  1
  Tb  Tb11  1  0.543423  0.744572  0.997361  1
  Tb  Tb12  1  0.682525  0.049470  0.565407  1
  Tb  Tb13  1  0.318162  0.949972  0.434710  1
  Tb  Tb14  1  0.183358  0.950662  0.936006  1
  Tb  Tb15  1  0.317636  0.549902  0.435565  1
  Tb  Tb16  1  0.816721  0.048711  0.063717  1
  Tb  Tb17  1  0.680836  0.450685  0.568240  1
  Tb  Tb18  1  0.816444  0.450729  0.063263  1
  Tb  Tb19  1  0.185724  0.547466  0.934923  1
  Si  Si20  1  0.580558  0.750412  0.517866  1
  Si  Si21  1  0.420092  0.249776  0.482861  1
  Si  Si22  1  0.079385  0.249197  0.980051  1
  Si  Si23  1  0.922150  0.750027  0.017997  1
  Sn  Sn24  1  0.572680  0.491558  0.828071  1
  Bi  Bi25  1  0.426072  0.509846  0.174409  1
  Bi  Bi26  1  0.073359  0.510620  0.672305  1
  Bi  Bi27  1  0.426522  0.990368  0.170913  1
  Bi  Bi28  1  0.925733  0.489413  0.327458  1
  Bi  Bi29  1  0.572945  0.009430  0.827520  1
  Bi  Bi30  1  0.926136  0.010831  0.326845  1
  Bi  Bi31  1  0.073492  0.989651  0.674115  1
