# generated using pymatgen
data_Ho9Sc10Si16Mo
_symmetry_space_group_name_H-M   'P 1'
_cell_length_a   7.04376405
_cell_length_b   7.37900320
_cell_length_c   13.94262377
_cell_angle_alpha   90.13654198
_cell_angle_beta   90.13726537
_cell_angle_gamma   89.63695807
_symmetry_Int_Tables_number   1
_chemical_formula_structural   Ho9Sc10Si16Mo
_chemical_formula_sum   'Ho9 Sc10 Si16 Mo1'
_cell_volume   724.66256115
_cell_formula_units_Z   1
loop_
 _symmetry_equiv_pos_site_id
 _symmetry_equiv_pos_as_xyz
  1  'x, y, z'
loop_
 _atom_site_type_symbol
 _atom_site_label
 _atom_site_symmetry_multiplicity
 _atom_site_fract_x
 _atom_site_fract_y
 _atom_site_fract_z
 _atom_site_occupancy
  Ho  Ho0  1  0.990075  0.682032  0.600406  1
  Ho  Ho1  1  0.013526  0.323021  0.404948  1
  Ho  Ho2  1  0.514477  0.178084  0.401538  1
  Ho  Ho3  1  0.012590  0.322297  0.093892  1
  Ho  Ho4  1  0.484866  0.824184  0.598103  1
  Ho  Ho5  1  0.991208  0.681991  0.902110  1
  Ho  Ho6  1  0.485928  0.825688  0.903978  1
  Ho  Ho7  1  0.511958  0.177743  0.095866  1
  Ho  Ho8  1  0.327297  0.322006  0.625995  1
  Sc  Sc9  1  0.842943  0.004120  0.249362  1
  Sc  Sc10  1  0.343148  0.497358  0.248537  1
  Sc  Sc11  1  0.657824  0.507513  0.751701  1
  Sc  Sc12  1  0.673499  0.677462  0.372283  1
  Sc  Sc13  1  0.173692  0.827788  0.374373  1
  Sc  Sc14  1  0.672648  0.675811  0.125705  1
  Sc  Sc15  1  0.826625  0.168542  0.629761  1
  Sc  Sc16  1  0.326402  0.319626  0.873657  1
  Sc  Sc17  1  0.825941  0.168443  0.873193  1
  Sc  Sc18  1  0.173237  0.826799  0.123794  1
  Si  Si19  1  0.024959  0.379868  0.754190  1
  Si  Si20  1  0.973942  0.614756  0.249187  1
  Si  Si21  1  0.470584  0.886262  0.249186  1
  Si  Si22  1  0.521400  0.097818  0.752801  1
  Si  Si23  1  0.281645  0.643111  0.751678  1
  Si  Si24  1  0.718454  0.370857  0.249284  1
  Si  Si25  1  0.214707  0.130641  0.249070  1
  Si  Si26  1  0.791755  0.870189  0.751326  1
  Si  Si27  1  0.147868  0.027284  0.545523  1
  Si  Si28  1  0.842841  0.964575  0.461856  1
  Si  Si29  1  0.349447  0.538359  0.457603  1
  Si  Si30  1  0.842952  0.964692  0.038271  1
  Si  Si31  1  0.666265  0.466091  0.536586  1
  Si  Si32  1  0.154617  0.033027  0.953405  1
  Si  Si33  1  0.656637  0.465487  0.960763  1
  Si  Si34  1  0.345013  0.534742  0.037427  1
  Mo  Mo35  1  0.149034  0.001729  0.752639  1
