# generated using pymatgen
data_ErPa3Zn4Ir3Rh
_symmetry_space_group_name_H-M   'P 1'
_cell_length_a   3.96381200
_cell_length_b   7.00180103
_cell_length_c   8.30957122
_cell_angle_alpha   90.04142904
_cell_angle_beta   90.00000000
_cell_angle_gamma   90.00000000
_symmetry_Int_Tables_number   1
_chemical_formula_structural   ErPa3Zn4Ir3Rh
_chemical_formula_sum   'Er1 Pa3 Zn4 Ir3 Rh1'
_cell_volume   230.62230813
_cell_formula_units_Z   1
loop_
 _symmetry_equiv_pos_site_id
 _symmetry_equiv_pos_as_xyz
  1  'x, y, z'
loop_
 _atom_site_type_symbol
 _atom_site_label
 _atom_site_symmetry_multiplicity
 _atom_site_fract_x
 _atom_site_fract_y
 _atom_site_fract_z
 _atom_site_occupancy
  Er  Er0  1  0.250000  0.056245  0.311824  1
  Pa  Pa1  1  0.250000  0.555218  0.188014  1
  Pa  Pa2  1  0.750000  0.450784  0.813530  1
  Pa  Pa3  1  0.750000  0.949742  0.681910  1
  Zn  Zn4  1  0.250000  0.619690  0.555826  1
  Zn  Zn5  1  0.750000  0.364091  0.441687  1
  Zn  Zn6  1  0.750000  0.884992  0.061064  1
  Zn  Zn7  1  0.250000  0.121707  0.946618  1
  Ir  Ir8  1  0.250000  0.733431  0.867380  1
  Ir  Ir9  1  0.750000  0.282720  0.123000  1
  Ir  Ir10  1  0.250000  0.230600  0.640347  1
  Rh  Rh11  1  0.750000  0.750780  0.368801  1
