# generated using pymatgen
data_Ag3BiRu2(PtO7)2
_symmetry_space_group_name_H-M   'P 1'
_cell_length_a   7.29542351
_cell_length_b   7.17962561
_cell_length_c   7.21178971
_cell_angle_alpha   60.14743339
_cell_angle_beta   60.45347942
_cell_angle_gamma   60.52369582
_symmetry_Int_Tables_number   1
_chemical_formula_structural   Ag3BiRu2(PtO7)2
_chemical_formula_sum   'Ag3 Bi1 Ru2 Pt2 O14'
_cell_volume   269.36224978
_cell_formula_units_Z   1
loop_
 _symmetry_equiv_pos_site_id
 _symmetry_equiv_pos_as_xyz
  1  'x, y, z'
loop_
 _atom_site_type_symbol
 _atom_site_label
 _atom_site_symmetry_multiplicity
 _atom_site_fract_x
 _atom_site_fract_y
 _atom_site_fract_z
 _atom_site_occupancy
  Ag  Ag0  1  0.125000  0.125000  0.625000  1
  Ag  Ag1  1  0.125000  0.625000  0.125000  1
  Ag  Ag2  1  0.125000  0.125000  0.125000  1
  Bi  Bi3  1  0.625000  0.125000  0.125000  1
  Ru  Ru4  1  0.625000  0.625000  0.125000  1
  Ru  Ru5  1  0.125000  0.625000  0.625000  1
  Pt  Pt6  1  0.625000  0.125000  0.625000  1
  Pt  Pt7  1  0.625000  0.625000  0.625000  1
  O  O8  1  0.236725  0.255180  0.252913  1
  O  O9  1  0.013275  0.994820  0.997087  1
  O  O10  1  0.535949  0.962768  0.538517  1
  O  O11  1  0.328775  0.674845  0.321533  1
  O  O12  1  0.545351  0.540214  0.959364  1
  O  O13  1  0.954498  0.560835  0.536631  1
  O  O14  1  0.545351  0.955071  0.959364  1
  O  O15  1  0.954498  0.948035  0.536631  1
  O  O16  1  0.921225  0.575155  0.928467  1
  O  O17  1  0.704649  0.294929  0.290636  1
  O  O18  1  0.295502  0.689165  0.713369  1
  O  O19  1  0.714051  0.287232  0.711483  1
  O  O20  1  0.295502  0.301965  0.713369  1
  O  O21  1  0.704649  0.709786  0.290636  1
