# generated using pymatgen
data_VRe5As14
_symmetry_space_group_name_H-M   'P 1'
_cell_length_a   7.63880579
_cell_length_b   7.63880518
_cell_length_c   7.63880550
_cell_angle_alpha   109.98741855
_cell_angle_beta   109.21374377
_cell_angle_gamma   109.21373343
_symmetry_Int_Tables_number   1
_chemical_formula_structural   VRe5As14
_chemical_formula_sum   'V1 Re5 As14'
_cell_volume   343.10576167
_cell_formula_units_Z   1
loop_
 _symmetry_equiv_pos_site_id
 _symmetry_equiv_pos_as_xyz
  1  'x, y, z'
loop_
 _atom_site_type_symbol
 _atom_site_label
 _atom_site_symmetry_multiplicity
 _atom_site_fract_x
 _atom_site_fract_y
 _atom_site_fract_z
 _atom_site_occupancy
  V  V0  1  0.000000  0.340548  0.340548  1
  Re  Re1  1  0.000000  0.662026  0.662026  1
  Re  Re2  1  0.340072  0.000895  0.340968  1
  Re  Re3  1  0.340072  0.340968  0.000895  1
  Re  Re4  1  0.659927  0.000895  0.660822  1
  Re  Re5  1  0.659927  0.660822  0.000895  1
  As  As6  1  0.325812  0.331438  0.331438  1
  As  As7  1  0.000000  0.999959  0.667487  1
  As  As8  1  0.674190  0.005626  0.005626  1
  As  As9  1  0.000000  0.667487  0.999959  1
  As  As10  1  0.667527  0.667487  0.667487  1
  As  As11  1  0.000000  0.005626  0.331438  1
  As  As12  1  0.000000  0.331438  0.005626  1
  As  As13  1  0.332475  0.999959  0.999959  1
  As  As14  1  0.500000  0.750580  0.250580  1
  As  As15  1  0.500000  0.250580  0.750580  1
  As  As16  1  0.248673  0.495918  0.744590  1
  As  As17  1  0.751329  0.247247  0.495918  1
  As  As18  1  0.751329  0.495918  0.247247  1
  As  As19  1  0.248673  0.744590  0.495918  1
