# generated using pymatgen
data_UGaSiIr2
_symmetry_space_group_name_H-M   'P 1'
_cell_length_a   3.98787300
_cell_length_b   3.98787300
_cell_length_c   10.78844300
_cell_angle_alpha   90.00000000
_cell_angle_beta   90.00000000
_cell_angle_gamma   90.00000000
_symmetry_Int_Tables_number   1
_chemical_formula_structural   UGaSiIr2
_chemical_formula_sum   'U2 Ga2 Si2 Ir4'
_cell_volume   171.57002301
_cell_formula_units_Z   2
loop_
 _symmetry_equiv_pos_site_id
 _symmetry_equiv_pos_as_xyz
  1  'x, y, z'
loop_
 _atom_site_type_symbol
 _atom_site_label
 _atom_site_symmetry_multiplicity
 _atom_site_fract_x
 _atom_site_fract_y
 _atom_site_fract_z
 _atom_site_occupancy
  U  U0  1  0.000000  0.500000  0.247561  1
  U  U1  1  0.500000  0.000000  0.752439  1
  Ga  Ga2  1  0.500000  0.500000  0.500000  1
  Ga  Ga3  1  0.000000  0.000000  0.500000  1
  Si  Si4  1  0.000000  0.500000  0.877055  1
  Si  Si5  1  0.500000  0.000000  0.122945  1
  Ir  Ir6  1  0.500000  0.000000  0.338761  1
  Ir  Ir7  1  0.000000  0.500000  0.661239  1
  Ir  Ir8  1  0.500000  0.500000  0.000000  1
  Ir  Ir9  1  0.000000  0.000000  0.000000  1
