# generated using pymatgen
data_Er10FeAg3
_symmetry_space_group_name_H-M   'P 1'
_cell_length_a   9.36363200
_cell_length_b   9.36363357
_cell_length_c   9.51155100
_cell_angle_alpha   90.00000000
_cell_angle_beta   90.00000000
_cell_angle_gamma   119.99999444
_symmetry_Int_Tables_number   1
_chemical_formula_structural   Er10FeAg3
_chemical_formula_sum   'Er20 Fe2 Ag6'
_cell_volume   722.22205089
_cell_formula_units_Z   2
loop_
 _symmetry_equiv_pos_site_id
 _symmetry_equiv_pos_as_xyz
  1  'x, y, z'
loop_
 _atom_site_type_symbol
 _atom_site_label
 _atom_site_symmetry_multiplicity
 _atom_site_fract_x
 _atom_site_fract_y
 _atom_site_fract_z
 _atom_site_occupancy
  Er  Er0  1  0.000000  0.000000  0.500000  1
  Er  Er1  1  0.000000  0.000000  0.000000  1
  Er  Er2  1  0.542200  0.457800  0.250000  1
  Er  Er3  1  0.542200  0.084402  0.250000  1
  Er  Er4  1  0.915598  0.457800  0.250000  1
  Er  Er5  1  0.457800  0.542200  0.750000  1
  Er  Er6  1  0.457800  0.915598  0.750000  1
  Er  Er7  1  0.084402  0.542200  0.750000  1
  Er  Er8  1  0.211301  0.788699  0.437227  1
  Er  Er9  1  0.211301  0.422603  0.437227  1
  Er  Er10  1  0.577397  0.788699  0.437227  1
  Er  Er11  1  0.788699  0.211301  0.562773  1
  Er  Er12  1  0.788699  0.577397  0.562773  1
  Er  Er13  1  0.422603  0.211301  0.562773  1
  Er  Er14  1  0.788699  0.211301  0.937227  1
  Er  Er15  1  0.788699  0.577397  0.937227  1
  Er  Er16  1  0.422603  0.211301  0.937227  1
  Er  Er17  1  0.211301  0.788699  0.062773  1
  Er  Er18  1  0.211301  0.422603  0.062773  1
  Er  Er19  1  0.577397  0.788699  0.062773  1
  Fe  Fe20  1  0.333333  0.666667  0.250000  1
  Fe  Fe21  1  0.666667  0.333333  0.750000  1
  Ag  Ag22  1  0.883963  0.116037  0.250000  1
  Ag  Ag23  1  0.883963  0.767926  0.250000  1
  Ag  Ag24  1  0.232074  0.116037  0.250000  1
  Ag  Ag25  1  0.116037  0.883963  0.750000  1
  Ag  Ag26  1  0.116037  0.232074  0.750000  1
  Ag  Ag27  1  0.767926  0.883963  0.750000  1
