# generated using pymatgen
data_Tb2CeIn5
_symmetry_space_group_name_H-M   'P 1'
_cell_length_a   6.50721405
_cell_length_b   6.50721459
_cell_length_c   10.34645800
_cell_angle_alpha   90.00000000
_cell_angle_beta   90.00000000
_cell_angle_gamma   102.45111667
_symmetry_Int_Tables_number   1
_chemical_formula_structural   Tb2CeIn5
_chemical_formula_sum   'Tb4 Ce2 In10'
_cell_volume   427.80456337
_cell_formula_units_Z   2
loop_
 _symmetry_equiv_pos_site_id
 _symmetry_equiv_pos_as_xyz
  1  'x, y, z'
loop_
 _atom_site_type_symbol
 _atom_site_label
 _atom_site_symmetry_multiplicity
 _atom_site_fract_x
 _atom_site_fract_y
 _atom_site_fract_z
 _atom_site_occupancy
  Tb  Tb0  1  0.623114  0.623937  0.250000  1
  Tb  Tb1  1  0.376063  0.376886  0.750000  1
  Tb  Tb2  1  0.793999  0.206001  0.500000  1
  Tb  Tb3  1  0.793999  0.206001  0.000000  1
  Ce  Ce4  1  0.207434  0.792566  0.500000  1
  Ce  Ce5  1  0.207434  0.792566  0.000000  1
  In  In6  1  0.007732  0.006316  0.250000  1
  In  In7  1  0.993684  0.992268  0.750000  1
  In  In8  1  0.303947  0.304353  0.046268  1
  In  In9  1  0.695647  0.696053  0.953732  1
  In  In10  1  0.303947  0.304353  0.453732  1
  In  In11  1  0.695647  0.696053  0.546268  1
  In  In12  1  0.501076  0.069842  0.250000  1
  In  In13  1  0.930158  0.498924  0.750000  1
  In  In14  1  0.501421  0.935301  0.750000  1
  In  In15  1  0.064699  0.498579  0.250000  1
