# generated using pymatgen
data_Tb16Cd4Ru3Pt
_symmetry_space_group_name_H-M   'P 1'
_cell_length_a   9.64249851
_cell_length_b   9.69312112
_cell_length_c   9.69312200
_cell_angle_alpha   59.99999700
_cell_angle_beta   59.82617763
_cell_angle_gamma   59.82617722
_symmetry_Int_Tables_number   1
_chemical_formula_structural   Tb16Cd4Ru3Pt
_chemical_formula_sum   'Tb16 Cd4 Ru3 Pt1'
_cell_volume   638.93377623
_cell_formula_units_Z   1
loop_
 _symmetry_equiv_pos_site_id
 _symmetry_equiv_pos_as_xyz
  1  'x, y, z'
loop_
 _atom_site_type_symbol
 _atom_site_label
 _atom_site_symmetry_multiplicity
 _atom_site_fract_x
 _atom_site_fract_y
 _atom_site_fract_z
 _atom_site_occupancy
  Tb  Tb0  1  0.345179  0.351020  0.351020  1
  Tb  Tb1  1  0.345179  0.351020  0.952782  1
  Tb  Tb2  1  0.345179  0.952782  0.351020  1
  Tb  Tb3  1  0.959464  0.346845  0.346845  1
  Tb  Tb4  1  0.815609  0.188955  0.188955  1
  Tb  Tb5  1  0.189888  0.811124  0.811124  1
  Tb  Tb6  1  0.189888  0.811124  0.187863  1
  Tb  Tb7  1  0.815609  0.188955  0.806482  1
  Tb  Tb8  1  0.189888  0.187863  0.811124  1
  Tb  Tb9  1  0.815609  0.806482  0.188955  1
  Tb  Tb10  1  0.935712  0.562787  0.562787  1
  Tb  Tb11  1  0.559072  0.937563  0.937563  1
  Tb  Tb12  1  0.559072  0.937563  0.565802  1
  Tb  Tb13  1  0.935712  0.562787  0.938714  1
  Tb  Tb14  1  0.559072  0.565802  0.937563  1
  Tb  Tb15  1  0.935712  0.938714  0.562787  1
  Cd  Cd16  1  0.580567  0.579867  0.579867  1
  Cd  Cd17  1  0.580567  0.579867  0.259698  1
  Cd  Cd18  1  0.580567  0.259698  0.579867  1
  Cd  Cd19  1  0.257865  0.580711  0.580711  1
  Ru  Ru20  1  0.143831  0.139106  0.139106  1
  Ru  Ru21  1  0.143831  0.139106  0.577958  1
  Ru  Ru22  1  0.143831  0.577958  0.139106  1
  Pt  Pt23  1  0.573095  0.142302  0.142302  1
