# generated using pymatgen
data_Nd3Sm5(Si3Au)4
_symmetry_space_group_name_H-M   'P 1'
_cell_length_a   8.26748300
_cell_length_b   8.27347537
_cell_length_c   8.56690700
_cell_angle_alpha   90.00000000
_cell_angle_beta   90.00000000
_cell_angle_gamma   119.97605565
_symmetry_Int_Tables_number   1
_chemical_formula_structural   Nd3Sm5(Si3Au)4
_chemical_formula_sum   'Nd3 Sm5 Si12 Au4'
_cell_volume   507.59894267
_cell_formula_units_Z   1
loop_
 _symmetry_equiv_pos_site_id
 _symmetry_equiv_pos_as_xyz
  1  'x, y, z'
loop_
 _atom_site_type_symbol
 _atom_site_label
 _atom_site_symmetry_multiplicity
 _atom_site_fract_x
 _atom_site_fract_y
 _atom_site_fract_z
 _atom_site_occupancy
  Nd  Nd0  1  0.500706  0.001412  0.250000  1
  Nd  Nd1  1  0.999989  0.999976  0.750000  1
  Nd  Nd2  1  0.000001  0.000003  0.250000  1
  Sm  Sm3  1  0.499310  0.500689  0.750000  1
  Sm  Sm4  1  0.500653  0.499401  0.250000  1
  Sm  Sm5  1  0.001378  0.500689  0.750000  1
  Sm  Sm6  1  0.998749  0.499402  0.250000  1
  Sm  Sm7  1  0.499315  0.998629  0.750000  1
  Si  Si8  1  0.835862  0.164347  0.998475  1
  Si  Si9  1  0.164142  0.835649  0.999876  1
  Si  Si10  1  0.328486  0.164347  0.998475  1
  Si  Si11  1  0.164142  0.835649  0.500124  1
  Si  Si12  1  0.671506  0.835649  0.999876  1
  Si  Si13  1  0.835862  0.164347  0.501525  1
  Si  Si14  1  0.835808  0.671617  0.999387  1
  Si  Si15  1  0.671506  0.835649  0.500124  1
  Si  Si16  1  0.164167  0.328333  0.000703  1
  Si  Si17  1  0.328486  0.164347  0.501525  1
  Si  Si18  1  0.164167  0.328333  0.499297  1
  Si  Si19  1  0.835808  0.671617  0.500613  1
  Au  Au20  1  0.667095  0.334190  0.996335  1
  Au  Au21  1  0.332883  0.665765  0.000176  1
  Au  Au22  1  0.332883  0.665765  0.499824  1
  Au  Au23  1  0.667095  0.334190  0.503665  1
