# generated using pymatgen
data_Zr6Al7Cu13Pd3
_symmetry_space_group_name_H-M   'P 1'
_cell_length_a   8.51201933
_cell_length_b   8.51201949
_cell_length_c   8.51201979
_cell_angle_alpha   60.06072703
_cell_angle_beta   60.06072490
_cell_angle_gamma   60.06072221
_symmetry_Int_Tables_number   1
_chemical_formula_structural   Zr6Al7Cu13Pd3
_chemical_formula_sum   'Zr6 Al7 Cu13 Pd3'
_cell_volume   436.69691669
_cell_formula_units_Z   1
loop_
 _symmetry_equiv_pos_site_id
 _symmetry_equiv_pos_as_xyz
  1  'x, y, z'
loop_
 _atom_site_type_symbol
 _atom_site_label
 _atom_site_symmetry_multiplicity
 _atom_site_fract_x
 _atom_site_fract_y
 _atom_site_fract_z
 _atom_site_occupancy
  Zr  Zr0  1  0.704400  0.704400  0.296729  1
  Zr  Zr1  1  0.296483  0.704131  0.296483  1
  Zr  Zr2  1  0.704131  0.296483  0.296483  1
  Zr  Zr3  1  0.296483  0.296483  0.704131  1
  Zr  Zr4  1  0.704400  0.296729  0.704400  1
  Zr  Zr5  1  0.296729  0.704400  0.704400  1
  Al  Al6  1  0.997172  0.997172  0.997172  1
  Al  Al7  1  0.000745  0.000745  0.500174  1
  Al  Al8  1  0.499916  0.000909  0.499916  1
  Al  Al9  1  0.000909  0.499916  0.499916  1
  Al  Al10  1  0.499916  0.499916  0.000909  1
  Al  Al11  1  0.000745  0.500174  0.000745  1
  Al  Al12  1  0.500174  0.000745  0.000745  1
  Cu  Cu13  1  0.879711  0.879711  0.879711  1
  Cu  Cu14  1  0.119699  0.119699  0.637850  1
  Cu  Cu15  1  0.119699  0.637850  0.119699  1
  Cu  Cu16  1  0.637850  0.119699  0.119699  1
  Cu  Cu17  1  0.120192  0.120192  0.120192  1
  Cu  Cu18  1  0.671554  0.671554  0.990500  1
  Cu  Cu19  1  0.671554  0.990500  0.671554  1
  Cu  Cu20  1  0.990500  0.671554  0.671554  1
  Cu  Cu21  1  0.668598  0.668598  0.668598  1
  Cu  Cu22  1  0.328938  0.328938  0.013017  1
  Cu  Cu23  1  0.328938  0.013017  0.328938  1
  Cu  Cu24  1  0.013017  0.328938  0.328938  1
  Cu  Cu25  1  0.329596  0.329596  0.329596  1
  Pd  Pd26  1  0.883007  0.883007  0.351937  1
  Pd  Pd27  1  0.883007  0.351937  0.883007  1
  Pd  Pd28  1  0.351937  0.883007  0.883007  1
