# generated using pymatgen
data_Ba6SnBiPb7Au
_symmetry_space_group_name_H-M   'P 1'
_cell_length_a   9.43943466
_cell_length_b   9.47992182
_cell_length_c   9.49566509
_cell_angle_alpha   120.05800158
_cell_angle_beta   119.99053991
_cell_angle_gamma   89.75897571
_symmetry_Int_Tables_number   1
_chemical_formula_structural   Ba6SnBiPb7Au
_chemical_formula_sum   'Ba6 Sn1 Bi1 Pb7 Au1'
_cell_volume   601.65645722
_cell_formula_units_Z   1
loop_
 _symmetry_equiv_pos_site_id
 _symmetry_equiv_pos_as_xyz
  1  'x, y, z'
loop_
 _atom_site_type_symbol
 _atom_site_label
 _atom_site_symmetry_multiplicity
 _atom_site_fract_x
 _atom_site_fract_y
 _atom_site_fract_z
 _atom_site_occupancy
  Ba  Ba0  1  0.252415  0.252624  0.506501  1
  Ba  Ba1  1  0.745689  0.745706  0.489825  1
  Ba  Ba2  1  0.666963  0.163745  0.003126  1
  Ba  Ba3  1  0.338439  0.836160  0.002689  1
  Ba  Ba4  1  0.835301  0.669892  0.003340  1
  Ba  Ba5  1  0.163468  0.334738  0.999472  1
  Sn  Sn6  1  0.832749  0.051705  0.386325  1
  Bi  Bi7  1  0.000948  0.999641  0.998417  1
  Pb  Pb8  1  0.332920  0.831258  0.378016  1
  Pb  Pb9  1  0.669436  0.169478  0.622676  1
  Pb  Pb10  1  0.045566  0.546608  0.378092  1
  Pb  Pb11  1  0.547436  0.331257  0.378279  1
  Pb  Pb12  1  0.162084  0.952390  0.614966  1
  Pb  Pb13  1  0.955055  0.450611  0.622010  1
  Pb  Pb14  1  0.452303  0.665481  0.617252  1
  Au  Au15  1  0.499229  0.498706  0.999011  1
