# generated using pymatgen
data_Pr2Fe2Si2C
_symmetry_space_group_name_H-M   'P 1'
_cell_length_a   5.78981198
_cell_length_b   5.78981217
_cell_length_c   7.02557148
_cell_angle_alpha   54.45289233
_cell_angle_beta   54.45288801
_cell_angle_gamma   40.49154982
_symmetry_Int_Tables_number   1
_chemical_formula_structural   Pr2Fe2Si2C
_chemical_formula_sum   'Pr2 Fe2 Si2 C1'
_cell_volume   120.02714464
_cell_formula_units_Z   1
loop_
 _symmetry_equiv_pos_site_id
 _symmetry_equiv_pos_as_xyz
  1  'x, y, z'
loop_
 _atom_site_type_symbol
 _atom_site_label
 _atom_site_symmetry_multiplicity
 _atom_site_fract_x
 _atom_site_fract_y
 _atom_site_fract_z
 _atom_site_occupancy
  Pr  Pr0  1  0.440672  0.440672  0.302243  1
  Pr  Pr1  1  0.559328  0.559328  0.697757  1
  Fe  Fe2  1  0.806016  0.806016  0.085945  1
  Fe  Fe3  1  0.193984  0.193984  0.914055  1
  Si  Si4  1  0.819954  0.819954  0.744835  1
  Si  Si5  1  0.180046  0.180046  0.255165  1
  C  C6  1  0.000000  0.000000  0.000000  1
