# generated using pymatgen
data_Er15Tm5Sn16
_symmetry_space_group_name_H-M   'P 1'
_cell_length_a   7.99866604
_cell_length_b   8.08023104
_cell_length_c   15.33110400
_cell_angle_alpha   90.00208499
_cell_angle_beta   90.00107529
_cell_angle_gamma   90.01137441
_symmetry_Int_Tables_number   1
_chemical_formula_structural   Er15Tm5Sn16
_chemical_formula_sum   'Er15 Tm5 Sn16'
_cell_volume   990.86562986
_cell_formula_units_Z   1
loop_
 _symmetry_equiv_pos_site_id
 _symmetry_equiv_pos_as_xyz
  1  'x, y, z'
loop_
 _atom_site_type_symbol
 _atom_site_label
 _atom_site_symmetry_multiplicity
 _atom_site_fract_x
 _atom_site_fract_y
 _atom_site_fract_z
 _atom_site_occupancy
  Er  Er0  1  0.877969  0.660638  0.621015  1
  Er  Er1  1  0.622021  0.160594  0.379045  1
  Er  Er2  1  0.122059  0.339371  0.120918  1
  Er  Er3  1  0.622045  0.160650  0.120984  1
  Er  Er4  1  0.122035  0.339363  0.379035  1
  Er  Er5  1  0.377988  0.839372  0.621005  1
  Er  Er6  1  0.878003  0.660610  0.879008  1
  Er  Er7  1  0.533604  0.322720  0.900156  1
  Er  Er8  1  0.033639  0.177212  0.599877  1
  Er  Er9  1  0.466381  0.677241  0.400186  1
  Er  Er10  1  0.966341  0.822721  0.099836  1
  Er  Er11  1  0.466362  0.677284  0.099742  1
  Er  Er12  1  0.966384  0.822757  0.400171  1
  Er  Er13  1  0.533609  0.322777  0.599881  1
  Er  Er14  1  0.033652  0.177190  0.900128  1
  Tm  Tm15  1  0.377910  0.839477  0.878972  1
  Tm  Tm16  1  0.209259  0.504452  0.750052  1
  Tm  Tm17  1  0.709139  0.995593  0.750038  1
  Tm  Tm18  1  0.790759  0.495620  0.250009  1
  Tm  Tm19  1  0.290768  0.004364  0.249991  1
  Sn  Sn20  1  0.282949  0.032920  0.042383  1
  Sn  Sn21  1  0.782883  0.466856  0.457468  1
  Sn  Sn22  1  0.717136  0.966866  0.542551  1
  Sn  Sn23  1  0.217265  0.533420  0.957395  1
  Sn  Sn24  1  0.716819  0.966780  0.957408  1
  Sn  Sn25  1  0.217112  0.533138  0.542557  1
  Sn  Sn26  1  0.282884  0.033138  0.457455  1
  Sn  Sn27  1  0.782874  0.466867  0.042540  1
  Sn  Sn28  1  0.574901  0.622814  0.750074  1
  Sn  Sn29  1  0.075187  0.877351  0.750073  1
  Sn  Sn30  1  0.424915  0.377435  0.249996  1
  Sn  Sn31  1  0.924919  0.122557  0.249998  1
  Sn  Sn32  1  0.342764  0.148599  0.750044  1
  Sn  Sn33  1  0.842779  0.351274  0.750003  1
  Sn  Sn34  1  0.657344  0.851353  0.250002  1
  Sn  Sn35  1  0.157342  0.648623  0.250004  1
