# generated using pymatgen
data_Ho10Ir5Au
_symmetry_space_group_name_H-M   'P 1'
_cell_length_a   10.99669137
_cell_length_b   10.92556600
_cell_length_c   6.31192344
_cell_angle_alpha   90.00000000
_cell_angle_beta   89.88358330
_cell_angle_gamma   90.00000000
_symmetry_Int_Tables_number   1
_chemical_formula_structural   Ho10Ir5Au
_chemical_formula_sum   'Ho20 Ir10 Au2'
_cell_volume   758.34496416
_cell_formula_units_Z   2
loop_
 _symmetry_equiv_pos_site_id
 _symmetry_equiv_pos_as_xyz
  1  'x, y, z'
loop_
 _atom_site_type_symbol
 _atom_site_label
 _atom_site_symmetry_multiplicity
 _atom_site_fract_x
 _atom_site_fract_y
 _atom_site_fract_z
 _atom_site_occupancy
  Ho  Ho0  1  0.292542  0.088462  0.372110  1
  Ho  Ho1  1  0.292542  0.911538  0.872110  1
  Ho  Ho2  1  0.697978  0.092314  0.865707  1
  Ho  Ho3  1  0.697978  0.907686  0.365707  1
  Ho  Ho4  1  0.577995  0.789440  0.877170  1
  Ho  Ho5  1  0.577995  0.210560  0.377170  1
  Ho  Ho6  1  0.408132  0.790778  0.377223  1
  Ho  Ho7  1  0.408132  0.209222  0.877223  1
  Ho  Ho8  1  0.209710  0.411040  0.621326  1
  Ho  Ho9  1  0.209710  0.588960  0.121326  1
  Ho  Ho10  1  0.788986  0.419571  0.123071  1
  Ho  Ho11  1  0.788986  0.580429  0.623071  1
  Ho  Ho12  1  0.917437  0.705081  0.138904  1
  Ho  Ho13  1  0.917437  0.294919  0.638904  1
  Ho  Ho14  1  0.096301  0.702521  0.624025  1
  Ho  Ho15  1  0.096301  0.297479  0.124025  1
  Ho  Ho16  1  0.009738  0.997581  0.499847  1
  Ho  Ho17  1  0.009738  0.002419  0.999847  1
  Ho  Ho18  1  0.499702  0.498881  0.000613  1
  Ho  Ho19  1  0.499702  0.501119  0.500613  1
  Ir  Ir20  1  0.153816  0.153880  0.750163  1
  Ir  Ir21  1  0.153816  0.846120  0.250163  1
  Ir  Ir22  1  0.655441  0.346022  0.748356  1
  Ir  Ir23  1  0.655441  0.653978  0.248356  1
  Ir  Ir24  1  0.347112  0.346188  0.251496  1
  Ir  Ir25  1  0.347112  0.653812  0.751496  1
  Ir  Ir26  1  0.500016  0.999771  0.121563  1
  Ir  Ir27  1  0.500016  0.000229  0.621563  1
  Ir  Ir28  1  0.999641  0.500916  0.878249  1
  Ir  Ir29  1  0.999641  0.499084  0.378249  1
  Au  Au30  1  0.845452  0.154802  0.250178  1
  Au  Au31  1  0.845452  0.845198  0.750178  1
