# generated using pymatgen
data_Ho3Er(CI)2
_symmetry_space_group_name_H-M   'P 1'
_cell_length_a   3.75174400
_cell_length_b   3.75174434
_cell_length_c   14.66261100
_cell_angle_alpha   90.00000000
_cell_angle_beta   90.00000000
_cell_angle_gamma   119.99999704
_symmetry_Int_Tables_number   1
_chemical_formula_structural   Ho3Er(CI)2
_chemical_formula_sum   'Ho3 Er1 C2 I2'
_cell_volume   178.73449998
_cell_formula_units_Z   1
loop_
 _symmetry_equiv_pos_site_id
 _symmetry_equiv_pos_as_xyz
  1  'x, y, z'
loop_
 _atom_site_type_symbol
 _atom_site_label
 _atom_site_symmetry_multiplicity
 _atom_site_fract_x
 _atom_site_fract_y
 _atom_site_fract_z
 _atom_site_occupancy
  Ho  Ho0  1  0.333333  0.666667  0.584594  1
  Ho  Ho1  1  0.666667  0.333333  0.414775  1
  Ho  Ho2  1  0.666667  0.333333  0.085289  1
  Er  Er3  1  0.333333  0.666667  0.915755  1
  C  C4  1  0.000000  0.000000  0.999436  1
  C  C5  1  0.000000  0.000000  0.499695  1
  I  I6  1  0.333333  0.666667  0.250140  1
  I  I7  1  0.666667  0.333333  0.750315  1
