# generated using pymatgen
data_Ta15NbAl2(CoTe8)2
_symmetry_space_group_name_H-M   'P 1'
_cell_length_a   4.86276511
_cell_length_b   11.11806810
_cell_length_c   19.35021204
_cell_angle_alpha   90.00105994
_cell_angle_beta   89.92500060
_cell_angle_gamma   90.01546791
_symmetry_Int_Tables_number   1
_chemical_formula_structural   Ta15NbAl2(CoTe8)2
_chemical_formula_sum   'Ta15 Nb1 Al2 Co2 Te16'
_cell_volume   1046.15964309
_cell_formula_units_Z   1
loop_
 _symmetry_equiv_pos_site_id
 _symmetry_equiv_pos_as_xyz
  1  'x, y, z'
loop_
 _atom_site_type_symbol
 _atom_site_label
 _atom_site_symmetry_multiplicity
 _atom_site_fract_x
 _atom_site_fract_y
 _atom_site_fract_z
 _atom_site_occupancy
  Ta  Ta0  1  0.498385  0.436983  0.615355  1
  Ta  Ta1  1  0.499938  0.063018  0.115068  1
  Ta  Ta2  1  0.501000  0.937118  0.884898  1
  Ta  Ta3  1  0.498671  0.701705  0.536133  1
  Ta  Ta4  1  0.498593  0.298391  0.463676  1
  Ta  Ta5  1  0.502929  0.201141  0.963897  1
  Ta  Ta6  1  0.502393  0.798752  0.036077  1
  Ta  Ta7  1  0.999120  0.686729  0.443379  1
  Ta  Ta8  1  0.003155  0.313309  0.555751  1
  Ta  Ta9  1  0.997601  0.186926  0.055946  1
  Ta  Ta10  1  0.997982  0.813111  0.943997  1
  Ta  Ta11  1  0.998578  0.403097  0.392546  1
  Ta  Ta12  1  0.002797  0.597920  0.606735  1
  Ta  Ta13  1  0.998111  0.902291  0.106891  1
  Ta  Ta14  1  0.999352  0.097597  0.893082  1
  Nb  Nb15  1  0.498162  0.563907  0.382953  1
  Al  Al16  1  0.253297  0.500657  0.498816  1
  Al  Al17  1  0.750261  0.000008  0.999989  1
  Co  Co18  1  0.752983  0.497603  0.504331  1
  Co  Co19  1  0.250146  0.999693  0.000495  1
  Te  Te20  1  0.992595  0.841824  0.561170  1
  Te  Te21  1  0.992730  0.158683  0.438150  1
  Te  Te22  1  0.008698  0.341812  0.938410  1
  Te  Te23  1  0.007899  0.658159  0.061590  1
  Te  Te24  1  0.503675  0.332773  0.318139  1
  Te  Te25  1  0.509065  0.665504  0.682230  1
  Te  Te26  1  0.491376  0.834643  0.181924  1
  Te  Te27  1  0.493692  0.165459  0.818060  1
  Te  Te28  1  0.504053  0.818562  0.405298  1
  Te  Te29  1  0.509315  0.182351  0.595534  1
  Te  Te30  1  0.491520  0.317426  0.095347  1
  Te  Te31  1  0.492257  0.682639  0.904659  1
  Te  Te32  1  0.994883  0.607061  0.303504  1
  Te  Te33  1  0.991125  0.393264  0.696021  1
  Te  Te34  1  0.006086  0.106661  0.195871  1
  Te  Te35  1  0.007580  0.893224  0.804076  1
