# generated using pymatgen
data_CeNbReB6
_symmetry_space_group_name_H-M   'P 1'
_cell_length_a   3.59457200
_cell_length_b   9.01376100
_cell_length_c   11.39734200
_cell_angle_alpha   90.00000000
_cell_angle_beta   90.00000000
_cell_angle_gamma   90.00000000
_symmetry_Int_Tables_number   1
_chemical_formula_structural   CeNbReB6
_chemical_formula_sum   'Ce4 Nb4 Re4 B24'
_cell_volume   369.28086629
_cell_formula_units_Z   4
loop_
 _symmetry_equiv_pos_site_id
 _symmetry_equiv_pos_as_xyz
  1  'x, y, z'
loop_
 _atom_site_type_symbol
 _atom_site_label
 _atom_site_symmetry_multiplicity
 _atom_site_fract_x
 _atom_site_fract_y
 _atom_site_fract_z
 _atom_site_occupancy
  Ce  Ce0  1  0.000000  0.322739  0.413296  1
  Ce  Ce1  1  0.000000  0.677261  0.586704  1
  Ce  Ce2  1  0.000000  0.822739  0.086704  1
  Ce  Ce3  1  0.000000  0.177261  0.913296  1
  Nb  Nb4  1  0.000000  0.946393  0.375349  1
  Nb  Nb5  1  0.000000  0.053607  0.624651  1
  Nb  Nb6  1  0.000000  0.446393  0.124651  1
  Nb  Nb7  1  0.000000  0.553607  0.875349  1
  Re  Re8  1  0.000000  0.644334  0.318465  1
  Re  Re9  1  0.000000  0.355666  0.681535  1
  Re  Re10  1  0.000000  0.144334  0.181535  1
  Re  Re11  1  0.000000  0.855666  0.818465  1
  B  B12  1  0.500000  0.554748  0.433191  1
  B  B13  1  0.500000  0.445252  0.566809  1
  B  B14  1  0.500000  0.054748  0.066809  1
  B  B15  1  0.500000  0.945252  0.933191  1
  B  B16  1  0.500000  0.755083  0.418189  1
  B  B17  1  0.500000  0.244917  0.581811  1
  B  B18  1  0.500000  0.255083  0.081811  1
  B  B19  1  0.500000  0.744917  0.918189  1
  B  B20  1  0.500000  0.797176  0.263768  1
  B  B21  1  0.500000  0.202824  0.736232  1
  B  B22  1  0.500000  0.297176  0.236232  1
  B  B23  1  0.500000  0.702824  0.763768  1
  B  B24  1  0.500000  0.629335  0.181814  1
  B  B25  1  0.500000  0.370665  0.818186  1
  B  B26  1  0.500000  0.129335  0.318186  1
  B  B27  1  0.500000  0.870665  0.681814  1
  B  B28  1  0.500000  0.981895  0.214539  1
  B  B29  1  0.500000  0.018105  0.785461  1
  B  B30  1  0.500000  0.481895  0.285461  1
  B  B31  1  0.500000  0.518105  0.714539  1
  B  B32  1  0.500000  0.598811  0.026413  1
  B  B33  1  0.500000  0.401189  0.973587  1
  B  B34  1  0.500000  0.098811  0.473587  1
  B  B35  1  0.500000  0.901189  0.526413  1
