# generated using pymatgen
data_TbHoBe25Ni
_symmetry_space_group_name_H-M   'P 1'
_cell_length_a   7.20629175
_cell_length_b   7.22520466
_cell_length_c   7.24738001
_cell_angle_alpha   59.72498371
_cell_angle_beta   59.98290992
_cell_angle_gamma   59.85661592
_symmetry_Int_Tables_number   1
_chemical_formula_structural   TbHoBe25Ni
_chemical_formula_sum   'Tb1 Ho1 Be25 Ni1'
_cell_volume   265.94424075
_cell_formula_units_Z   1
loop_
 _symmetry_equiv_pos_site_id
 _symmetry_equiv_pos_as_xyz
  1  'x, y, z'
loop_
 _atom_site_type_symbol
 _atom_site_label
 _atom_site_symmetry_multiplicity
 _atom_site_fract_x
 _atom_site_fract_y
 _atom_site_fract_z
 _atom_site_occupancy
  Tb  Tb0  1  0.750349  0.749530  0.751913  1
  Ho  Ho1  1  0.250456  0.249374  0.252045  1
  Be  Be2  1  0.499110  0.500888  0.500511  1
  Be  Be3  1  0.000418  0.999590  0.001641  1
  Be  Be4  1  0.064428  0.288238  0.711432  1
  Be  Be5  1  0.711502  0.935863  0.064346  1
  Be  Be6  1  0.065330  0.934990  0.288270  1
  Be  Be7  1  0.933502  0.066809  0.713902  1
  Be  Be8  1  0.935628  0.289922  0.064068  1
  Be  Be9  1  0.709678  0.064726  0.289300  1
  Be  Be10  1  0.563483  0.791867  0.435486  1
  Be  Be11  1  0.438620  0.792217  0.205630  1
  Be  Be12  1  0.792779  0.438503  0.563466  1
  Be  Be13  1  0.438577  0.207944  0.562323  1
  Be  Be14  1  0.792400  0.561052  0.209238  1
  Be  Be15  1  0.561199  0.207489  0.795103  1
  Be  Be16  1  0.208522  0.436231  0.791150  1
  Be  Be17  1  0.208125  0.561019  0.436118  1
  Be  Be18  1  0.708471  0.291174  0.936061  1
  Be  Be19  1  0.289198  0.064198  0.933066  1
  Be  Be20  1  0.289087  0.937441  0.710196  1
  Be  Be21  1  0.062987  0.710512  0.937073  1
  Be  Be22  1  0.936101  0.710461  0.286263  1
  Be  Be23  1  0.291878  0.707731  0.063950  1
  Be  Be24  1  0.564736  0.434862  0.207744  1
  Be  Be25  1  0.796440  0.204015  0.439695  1
  Be  Be26  1  0.434276  0.565330  0.790021  1
  Ni  Ni27  1  0.202721  0.798022  0.559991  1
