# generated using pymatgen
data_TmLu3SiI6
_symmetry_space_group_name_H-M   'P 1'
_cell_length_a   4.15891500
_cell_length_b   13.74316898
_cell_length_c   14.52352022
_cell_angle_alpha   89.91272540
_cell_angle_beta   90.00000000
_cell_angle_gamma   90.00000000
_symmetry_Int_Tables_number   1
_chemical_formula_structural   TmLu3SiI6
_chemical_formula_sum   'Tm2 Lu6 Si2 I12'
_cell_volume   830.11511284
_cell_formula_units_Z   2
loop_
 _symmetry_equiv_pos_site_id
 _symmetry_equiv_pos_as_xyz
  1  'x, y, z'
loop_
 _atom_site_type_symbol
 _atom_site_label
 _atom_site_symmetry_multiplicity
 _atom_site_fract_x
 _atom_site_fract_y
 _atom_site_fract_z
 _atom_site_occupancy
  Tm  Tm0  1  0.000000  0.109809  0.573383  1
  Tm  Tm1  1  0.000000  0.890191  0.426617  1
  Lu  Lu2  1  0.500000  0.113410  0.348495  1
  Lu  Lu3  1  0.500000  0.886590  0.651505  1
  Lu  Lu4  1  0.500000  0.613251  0.151374  1
  Lu  Lu5  1  0.500000  0.386749  0.848626  1
  Lu  Lu6  1  0.000000  0.608658  0.927061  1
  Lu  Lu7  1  0.000000  0.391342  0.072939  1
  Si  Si8  1  0.500000  0.000000  0.500000  1
  Si  Si9  1  0.500000  0.500000  0.000000  1
  I  I10  1  0.500000  0.248361  0.162291  1
  I  I11  1  0.500000  0.751639  0.837709  1
  I  I12  1  0.500000  0.746382  0.336699  1
  I  I13  1  0.500000  0.253618  0.663301  1
  I  I14  1  0.000000  0.258686  0.413325  1
  I  I15  1  0.000000  0.741314  0.586675  1
  I  I16  1  0.000000  0.758238  0.085554  1
  I  I17  1  0.000000  0.241762  0.914446  1
  I  I18  1  0.000000  0.001166  0.239691  1
  I  I19  1  0.000000  0.998834  0.760309  1
  I  I20  1  0.000000  0.500064  0.259378  1
  I  I21  1  0.000000  0.499936  0.740622  1
