# generated using pymatgen
data_Sm6RhI10
_symmetry_space_group_name_H-M   'P 1'
_cell_length_a   7.88642058
_cell_length_b   9.83397964
_cell_length_c   9.98352605
_cell_angle_alpha   107.45701521
_cell_angle_beta   97.22912211
_cell_angle_gamma   104.56545197
_symmetry_Int_Tables_number   1
_chemical_formula_structural   Sm6RhI10
_chemical_formula_sum   'Sm6 Rh1 I10'
_cell_volume   697.67757341
_cell_formula_units_Z   1
loop_
 _symmetry_equiv_pos_site_id
 _symmetry_equiv_pos_as_xyz
  1  'x, y, z'
loop_
 _atom_site_type_symbol
 _atom_site_label
 _atom_site_symmetry_multiplicity
 _atom_site_fract_x
 _atom_site_fract_y
 _atom_site_fract_z
 _atom_site_occupancy
  Sm  Sm0  1  0.532019  0.218986  0.415785  1
  Sm  Sm1  1  0.467981  0.781014  0.584215  1
  Sm  Sm2  1  0.146841  0.372536  0.330297  1
  Sm  Sm3  1  0.853159  0.627464  0.669703  1
  Sm  Sm4  1  0.616871  0.543889  0.258451  1
  Sm  Sm5  1  0.383129  0.456111  0.741549  1
  Rh  Rh6  1  0.500000  0.500000  0.500000  1
  I  I7  1  0.148658  0.046503  0.227551  1
  I  I8  1  0.851342  0.953497  0.772449  1
  I  I9  1  0.241613  0.412655  0.040083  1
  I  I10  1  0.758387  0.587345  0.959917  1
  I  I11  1  0.716289  0.242057  0.152634  1
  I  I12  1  0.283711  0.757943  0.847366  1
  I  I13  1  0.045607  0.684556  0.410143  1
  I  I14  1  0.954393  0.315444  0.589857  1
  I  I15  1  0.414026  0.127555  0.677739  1
  I  I16  1  0.585974  0.872445  0.322261  1
