# generated using pymatgen
data_Ce3HfZn2Ir3
_symmetry_space_group_name_H-M   'P 1'
_cell_length_a   7.37441681
_cell_length_b   7.17784746
_cell_length_c   4.09603000
_cell_angle_alpha   90.00000000
_cell_angle_beta   90.00000000
_cell_angle_gamma   119.12208175
_symmetry_Int_Tables_number   1
_chemical_formula_structural   Ce3HfZn2Ir3
_chemical_formula_sum   'Ce3 Hf1 Zn2 Ir3'
_cell_volume   189.40440073
_cell_formula_units_Z   1
loop_
 _symmetry_equiv_pos_site_id
 _symmetry_equiv_pos_as_xyz
  1  'x, y, z'
loop_
 _atom_site_type_symbol
 _atom_site_label
 _atom_site_symmetry_multiplicity
 _atom_site_fract_x
 _atom_site_fract_y
 _atom_site_fract_z
 _atom_site_occupancy
  Ce  Ce0  1  0.436159  0.424211  0.000000  1
  Ce  Ce1  1  0.563841  0.988051  0.000000  1
  Ce  Ce2  1  0.000000  0.609118  0.000000  1
  Hf  Hf3  1  0.000000  0.234221  0.500000  1
  Zn  Zn4  1  0.751856  0.757451  0.500000  1
  Zn  Zn5  1  0.248144  0.005594  0.500000  1
  Ir  Ir6  1  0.000000  0.008131  0.000000  1
  Ir  Ir7  1  0.678337  0.325780  0.500000  1
  Ir  Ir8  1  0.321663  0.647444  0.500000  1
