# generated using pymatgen
data_Cs2SmInBr6
_symmetry_space_group_name_H-M   'P 1'
_cell_length_a   8.39068135
_cell_length_b   8.39068223
_cell_length_c   8.62339455
_cell_angle_alpha   119.65134884
_cell_angle_beta   119.65135296
_cell_angle_gamma   59.97254837
_symmetry_Int_Tables_number   1
_chemical_formula_structural   Cs2SmInBr6
_chemical_formula_sum   'Cs2 Sm1 In1 Br6'
_cell_volume   431.45480682
_cell_formula_units_Z   1
loop_
 _symmetry_equiv_pos_site_id
 _symmetry_equiv_pos_as_xyz
  1  'x, y, z'
loop_
 _atom_site_type_symbol
 _atom_site_label
 _atom_site_symmetry_multiplicity
 _atom_site_fract_x
 _atom_site_fract_y
 _atom_site_fract_z
 _atom_site_occupancy
  Cs  Cs0  1  0.247531  0.247531  0.237955  1
  Cs  Cs1  1  0.752469  0.752469  0.762046  1
  Sm  Sm2  1  0.500000  0.500000  0.000000  1
  In  In3  1  0.000000  0.000000  0.499999  1
  Br  Br4  1  0.694285  0.214044  0.183616  1
  Br  Br5  1  0.214044  0.694285  0.183616  1
  Br  Br6  1  0.731497  0.731497  0.311689  1
  Br  Br7  1  0.268503  0.268503  0.688311  1
  Br  Br8  1  0.785956  0.305716  0.816383  1
  Br  Br9  1  0.305716  0.785956  0.816383  1
