# generated using pymatgen
data_Mg4Si3PRu4
_symmetry_space_group_name_H-M   'P 1'
_cell_length_a   3.98277000
_cell_length_b   6.67711329
_cell_length_c   6.97019078
_cell_angle_alpha   89.91610757
_cell_angle_beta   90.00000000
_cell_angle_gamma   90.00000000
_symmetry_Int_Tables_number   1
_chemical_formula_structural   Mg4Si3PRu4
_chemical_formula_sum   'Mg4 Si3 P1 Ru4'
_cell_volume   185.36091788
_cell_formula_units_Z   1
loop_
 _symmetry_equiv_pos_site_id
 _symmetry_equiv_pos_as_xyz
  1  'x, y, z'
loop_
 _atom_site_type_symbol
 _atom_site_label
 _atom_site_symmetry_multiplicity
 _atom_site_fract_x
 _atom_site_fract_y
 _atom_site_fract_z
 _atom_site_occupancy
  Mg  Mg0  1  0.250000  0.009707  0.833338  1
  Mg  Mg1  1  0.250000  0.513969  0.668503  1
  Mg  Mg2  1  0.750000  0.987872  0.166586  1
  Mg  Mg3  1  0.750000  0.487463  0.331574  1
  Si  Si4  1  0.250000  0.296145  0.126677  1
  Si  Si5  1  0.250000  0.798318  0.372355  1
  Si  Si6  1  0.750000  0.700836  0.872157  1
  P  P7  1  0.750000  0.200840  0.627026  1
  Ru  Ru8  1  0.250000  0.157398  0.453869  1
  Ru  Ru9  1  0.250000  0.654158  0.054817  1
  Ru  Ru10  1  0.750000  0.852152  0.553984  1
  Ru  Ru11  1  0.750000  0.341144  0.939112  1
