# generated using pymatgen
data_Dy16CdHg3(IrPt)2
_symmetry_space_group_name_H-M   'P 1'
_cell_length_a   9.62547742
_cell_length_b   9.63269554
_cell_length_c   9.61178400
_cell_angle_alpha   60.07178658
_cell_angle_beta   60.04704883
_cell_angle_gamma   60.16506707
_symmetry_Int_Tables_number   1
_chemical_formula_structural   Dy16CdHg3(IrPt)2
_chemical_formula_sum   'Dy16 Cd1 Hg3 Ir2 Pt2'
_cell_volume   631.52181943
_cell_formula_units_Z   1
loop_
 _symmetry_equiv_pos_site_id
 _symmetry_equiv_pos_as_xyz
  1  'x, y, z'
loop_
 _atom_site_type_symbol
 _atom_site_label
 _atom_site_symmetry_multiplicity
 _atom_site_fract_x
 _atom_site_fract_y
 _atom_site_fract_z
 _atom_site_occupancy
  Dy  Dy0  1  0.602194  0.601792  0.597251  1
  Dy  Dy1  1  0.602194  0.601792  0.198764  1
  Dy  Dy2  1  0.607764  0.190476  0.600880  1
  Dy  Dy3  1  0.187567  0.608273  0.602080  1
  Dy  Dy4  1  0.056033  0.440546  0.441307  1
  Dy  Dy5  1  0.439420  0.057003  0.062830  1
  Dy  Dy6  1  0.439420  0.057003  0.440746  1
  Dy  Dy7  1  0.056033  0.440546  0.062114  1
  Dy  Dy8  1  0.440648  0.441301  0.059026  1
  Dy  Dy9  1  0.060632  0.060806  0.439281  1
  Dy  Dy10  1  0.187319  0.814261  0.811631  1
  Dy  Dy11  1  0.813418  0.188328  0.186693  1
  Dy  Dy12  1  0.813418  0.188328  0.811562  1
  Dy  Dy13  1  0.187319  0.814261  0.186790  1
  Dy  Dy14  1  0.812176  0.813016  0.187404  1
  Dy  Dy15  1  0.186581  0.187813  0.812804  1
  Cd  Cd16  1  0.508198  0.829871  0.830965  1
  Hg  Hg17  1  0.834167  0.836135  0.836355  1
  Hg  Hg18  1  0.834167  0.836135  0.493343  1
  Hg  Hg19  1  0.834128  0.492576  0.836648  1
  Ir  Ir20  1  0.390490  0.822846  0.393332  1
  Ir  Ir21  1  0.822779  0.391307  0.392957  1
  Pt  Pt22  1  0.391968  0.392793  0.395775  1
  Pt  Pt23  1  0.391968  0.392793  0.819464  1
