# generated using pymatgen
data_Dy2HoCr(Co4P3)2
_symmetry_space_group_name_H-M   'P 1'
_cell_length_a   3.69354700
_cell_length_b   10.53743400
_cell_length_c   12.19615300
_cell_angle_alpha   90.00000000
_cell_angle_beta   90.00000000
_cell_angle_gamma   90.00000000
_symmetry_Int_Tables_number   1
_chemical_formula_structural   Dy2HoCr(Co4P3)2
_chemical_formula_sum   'Dy4 Ho2 Cr2 Co16 P12'
_cell_volume   474.68046722
_cell_formula_units_Z   2
loop_
 _symmetry_equiv_pos_site_id
 _symmetry_equiv_pos_as_xyz
  1  'x, y, z'
loop_
 _atom_site_type_symbol
 _atom_site_label
 _atom_site_symmetry_multiplicity
 _atom_site_fract_x
 _atom_site_fract_y
 _atom_site_fract_z
 _atom_site_occupancy
  Dy  Dy0  1  0.000000  0.500000  0.522450  1
  Dy  Dy1  1  0.500000  0.000000  0.477184  1
  Dy  Dy2  1  0.000000  0.682102  0.795404  1
  Dy  Dy3  1  0.000000  0.317898  0.795404  1
  Ho  Ho4  1  0.500000  0.817978  0.204573  1
  Ho  Ho5  1  0.500000  0.182022  0.204573  1
  Cr  Cr6  1  0.500000  0.500000  0.155625  1
  Cr  Cr7  1  0.000000  0.000000  0.844245  1
  Co  Co8  1  0.500000  0.500000  0.702000  1
  Co  Co9  1  0.000000  0.000000  0.297859  1
  Co  Co10  1  0.000000  0.500000  0.987237  1
  Co  Co11  1  0.500000  0.000000  0.013620  1
  Co  Co12  1  0.500000  0.332369  0.992714  1
  Co  Co13  1  0.500000  0.667631  0.992714  1
  Co  Co14  1  0.000000  0.167052  0.007940  1
  Co  Co15  1  0.000000  0.832948  0.007940  1
  Co  Co16  1  0.500000  0.296081  0.430375  1
  Co  Co17  1  0.500000  0.703919  0.430375  1
  Co  Co18  1  0.000000  0.203856  0.569096  1
  Co  Co19  1  0.000000  0.796144  0.569096  1
  Co  Co20  1  0.500000  0.879346  0.708829  1
  Co  Co21  1  0.500000  0.120654  0.708829  1
  Co  Co22  1  0.000000  0.620876  0.290996  1
  Co  Co23  1  0.000000  0.379124  0.290996  1
  P  P24  1  0.500000  0.500000  0.882180  1
  P  P25  1  0.000000  0.000000  0.118271  1
  P  P26  1  0.500000  0.500000  0.344103  1
  P  P27  1  0.000000  0.000000  0.656263  1
  P  P28  1  0.500000  0.311197  0.615799  1
  P  P29  1  0.500000  0.688803  0.615799  1
  P  P30  1  0.000000  0.188755  0.383551  1
  P  P31  1  0.000000  0.811245  0.383551  1
  P  P32  1  0.500000  0.848055  0.892372  1
  P  P33  1  0.500000  0.151945  0.892372  1
  P  P34  1  0.000000  0.652608  0.107833  1
  P  P35  1  0.000000  0.347392  0.107833  1
