# generated using pymatgen
data_RbTiCuP2
_symmetry_space_group_name_H-M   'P 1'
_cell_length_a   7.69311050
_cell_length_b   7.69311048
_cell_length_c   7.69311026
_cell_angle_alpha   149.82554077
_cell_angle_beta   149.82553889
_cell_angle_gamma   43.19755431
_symmetry_Int_Tables_number   1
_chemical_formula_structural   RbTiCuP2
_chemical_formula_sum   'Rb1 Ti1 Cu1 P2'
_cell_volume   114.72572624
_cell_formula_units_Z   1
loop_
 _symmetry_equiv_pos_site_id
 _symmetry_equiv_pos_as_xyz
  1  'x, y, z'
loop_
 _atom_site_type_symbol
 _atom_site_label
 _atom_site_symmetry_multiplicity
 _atom_site_fract_x
 _atom_site_fract_y
 _atom_site_fract_z
 _atom_site_occupancy
  Rb  Rb0  1  0.000000  0.000000  0.000000  1
  Ti  Ti1  1  0.750000  0.250000  0.500000  1
  Cu  Cu2  1  0.250000  0.750000  0.500000  1
  P  P3  1  0.342126  0.342126  0.000000  1
  P  P4  1  0.657874  0.657874  0.000000  1
