# generated using pymatgen
data_Nd4Ni3PdO12
_symmetry_space_group_name_H-M   'P 1'
_cell_length_a   5.46310603
_cell_length_b   5.64397627
_cell_length_c   7.77599270
_cell_angle_alpha   90.29883566
_cell_angle_beta   89.89250464
_cell_angle_gamma   90.24507657
_symmetry_Int_Tables_number   1
_chemical_formula_structural   Nd4Ni3PdO12
_chemical_formula_sum   'Nd4 Ni3 Pd1 O12'
_cell_volume   239.75629929
_cell_formula_units_Z   1
loop_
 _symmetry_equiv_pos_site_id
 _symmetry_equiv_pos_as_xyz
  1  'x, y, z'
loop_
 _atom_site_type_symbol
 _atom_site_label
 _atom_site_symmetry_multiplicity
 _atom_site_fract_x
 _atom_site_fract_y
 _atom_site_fract_z
 _atom_site_occupancy
  Nd  Nd0  1  0.017748  0.938990  0.755549  1
  Nd  Nd1  1  0.487334  0.444137  0.756269  1
  Nd  Nd2  1  0.512666  0.555863  0.243731  1
  Nd  Nd3  1  0.982252  0.061010  0.244451  1
  Ni  Ni4  1  0.000000  0.500000  0.000000  1
  Ni  Ni5  1  0.000000  0.500000  0.500000  1
  Ni  Ni6  1  0.500000  0.000000  0.000000  1
  Pd  Pd7  1  0.500000  0.000000  0.500000  1
  O  O8  1  0.698649  0.295154  0.445202  1
  O  O9  1  0.793173  0.787510  0.044233  1
  O  O10  1  0.202841  0.203280  0.553958  1
  O  O11  1  0.287073  0.704917  0.955665  1
  O  O12  1  0.301351  0.704846  0.554798  1
  O  O13  1  0.206827  0.212490  0.955767  1
  O  O14  1  0.797159  0.796720  0.446042  1
  O  O15  1  0.712927  0.295083  0.044335  1
  O  O16  1  0.086945  0.477820  0.247591  1
  O  O17  1  0.402762  0.973483  0.250357  1
  O  O18  1  0.597238  0.026517  0.749643  1
  O  O19  1  0.913055  0.522180  0.752409  1
