# generated using pymatgen
data_U4Mn7Si6
_symmetry_space_group_name_H-M   'P 1'
_cell_length_a   6.84991593
_cell_length_b   6.84843486
_cell_length_c   6.84959402
_cell_angle_alpha   109.46707469
_cell_angle_beta   109.47546931
_cell_angle_gamma   109.46757947
_symmetry_Int_Tables_number   1
_chemical_formula_structural   U4Mn7Si6
_chemical_formula_sum   'U4 Mn7 Si6'
_cell_volume   247.36512623
_cell_formula_units_Z   1
loop_
 _symmetry_equiv_pos_site_id
 _symmetry_equiv_pos_as_xyz
  1  'x, y, z'
loop_
 _atom_site_type_symbol
 _atom_site_label
 _atom_site_symmetry_multiplicity
 _atom_site_fract_x
 _atom_site_fract_y
 _atom_site_fract_z
 _atom_site_occupancy
  U  U0  1  0.500001  0.000000  0.000000  1
  U  U1  1  0.000000  0.500001  0.000000  1
  U  U2  1  0.000000  0.000000  0.500001  1
  U  U3  1  0.500001  0.500001  0.500001  1
  Mn  Mn4  1  0.000000  0.000000  0.000000  1
  Mn  Mn5  1  0.749989  0.499994  0.250010  1
  Mn  Mn6  1  0.500018  0.750013  0.250003  1
  Mn  Mn7  1  0.749993  0.249989  0.499974  1
  Mn  Mn8  1  0.250007  0.750011  0.500026  1
  Mn  Mn9  1  0.499982  0.249987  0.749997  1
  Mn  Mn10  1  0.250011  0.500006  0.749990  1
  Si  Si11  1  0.317564  0.317545  0.999994  1
  Si  Si12  1  0.682437  0.682456  0.000006  1
  Si  Si13  1  0.317567  0.000007  0.317562  1
  Si  Si14  1  0.999992  0.317563  0.317576  1
  Si  Si15  1  0.682434  0.999993  0.682439  1
  Si  Si16  1  0.000008  0.682438  0.682425  1
