# generated using pymatgen
data_Nd6MgCd22Sb
_symmetry_space_group_name_H-M   'P 1'
_cell_length_a   10.12269026
_cell_length_b   10.12269021
_cell_length_c   10.12269000
_cell_angle_alpha   60.00000070
_cell_angle_beta   60.00000086
_cell_angle_gamma   60.00000041
_symmetry_Int_Tables_number   1
_chemical_formula_structural   Nd6MgCd22Sb
_chemical_formula_sum   'Nd6 Mg1 Cd22 Sb1'
_cell_volume   733.45393080
_cell_formula_units_Z   1
loop_
 _symmetry_equiv_pos_site_id
 _symmetry_equiv_pos_as_xyz
  1  'x, y, z'
loop_
 _atom_site_type_symbol
 _atom_site_label
 _atom_site_symmetry_multiplicity
 _atom_site_fract_x
 _atom_site_fract_y
 _atom_site_fract_z
 _atom_site_occupancy
  Nd  Nd0  1  0.783146  0.783146  0.216854  1
  Nd  Nd1  1  0.216854  0.783146  0.216854  1
  Nd  Nd2  1  0.783146  0.216854  0.216854  1
  Nd  Nd3  1  0.216854  0.216854  0.783146  1
  Nd  Nd4  1  0.783146  0.216854  0.783146  1
  Nd  Nd5  1  0.216854  0.783146  0.783146  1
  Mg  Mg6  1  0.500000  0.500000  0.500000  1
  Cd  Cd7  1  0.834990  0.834990  0.495029  1
  Cd  Cd8  1  0.834990  0.495029  0.834990  1
  Cd  Cd9  1  0.495029  0.834990  0.834990  1
  Cd  Cd10  1  0.834990  0.834990  0.834990  1
  Cd  Cd11  1  0.165010  0.165010  0.504971  1
  Cd  Cd12  1  0.165010  0.504971  0.165010  1
  Cd  Cd13  1  0.504971  0.165010  0.165010  1
  Cd  Cd14  1  0.165010  0.165010  0.165010  1
  Cd  Cd15  1  0.622303  0.622303  0.133092  1
  Cd  Cd16  1  0.622303  0.133092  0.622303  1
  Cd  Cd17  1  0.133092  0.622303  0.622303  1
  Cd  Cd18  1  0.622303  0.622303  0.622303  1
  Cd  Cd19  1  0.377697  0.377697  0.866908  1
  Cd  Cd20  1  0.377697  0.866908  0.377697  1
  Cd  Cd21  1  0.866908  0.377697  0.377697  1
  Cd  Cd22  1  0.377697  0.377697  0.377697  1
  Cd  Cd23  1  0.000000  0.000000  0.500000  1
  Cd  Cd24  1  0.500000  0.000000  0.500000  1
  Cd  Cd25  1  0.000000  0.500000  0.500000  1
  Cd  Cd26  1  0.500000  0.500000  0.000000  1
  Cd  Cd27  1  0.000000  0.500000  0.000000  1
  Cd  Cd28  1  0.500000  0.000000  0.000000  1
  Sb  Sb29  1  0.000000  0.000000  0.000000  1
