# generated using pymatgen
data_SmZr(Ga3Ni)6
_symmetry_space_group_name_H-M   'P 1'
_cell_length_a   10.09971983
_cell_length_b   10.09972001
_cell_length_c   10.09971877
_cell_angle_alpha   42.24821653
_cell_angle_beta   42.24822383
_cell_angle_gamma   42.24822369
_symmetry_Int_Tables_number   1
_chemical_formula_structural   SmZr(Ga3Ni)6
_chemical_formula_sum   'Sm1 Zr1 Ga18 Ni6'
_cell_volume   421.47282634
_cell_formula_units_Z   1
loop_
 _symmetry_equiv_pos_site_id
 _symmetry_equiv_pos_as_xyz
  1  'x, y, z'
loop_
 _atom_site_type_symbol
 _atom_site_label
 _atom_site_symmetry_multiplicity
 _atom_site_fract_x
 _atom_site_fract_y
 _atom_site_fract_z
 _atom_site_occupancy
  Sm  Sm0  1  0.832890  0.832890  0.832890  1
  Zr  Zr1  1  0.167586  0.167586  0.167586  1
  Ga  Ga2  1  0.051490  0.051490  0.051490  1
  Ga  Ga3  1  0.715799  0.490696  0.293487  1
  Ga  Ga4  1  0.665823  0.333422  0.000772  1
  Ga  Ga5  1  0.104800  0.431393  0.767111  1
  Ga  Ga6  1  0.431393  0.767111  0.104800  1
  Ga  Ga7  1  0.386168  0.386168  0.386168  1
  Ga  Ga8  1  0.333422  0.000772  0.665823  1
  Ga  Ga9  1  0.614133  0.614133  0.614133  1
  Ga  Ga10  1  0.235869  0.563100  0.897411  1
  Ga  Ga11  1  0.563100  0.897411  0.235869  1
  Ga  Ga12  1  0.490696  0.293487  0.715799  1
  Ga  Ga13  1  0.767111  0.104800  0.431393  1
  Ga  Ga14  1  0.948863  0.948863  0.948863  1
  Ga  Ga15  1  0.293487  0.715799  0.490696  1
  Ga  Ga16  1  0.000772  0.665823  0.333422  1
  Ga  Ga17  1  0.716751  0.716751  0.716751  1
  Ga  Ga18  1  0.282303  0.282303  0.282303  1
  Ga  Ga19  1  0.897411  0.235869  0.563100  1
  Ni  Ni20  1  0.242092  0.921608  0.581688  1
  Ni  Ni21  1  0.921608  0.581688  0.242092  1
  Ni  Ni22  1  0.757705  0.418096  0.078945  1
  Ni  Ni23  1  0.078945  0.757705  0.418096  1
  Ni  Ni24  1  0.418096  0.078945  0.757705  1
  Ni  Ni25  1  0.581688  0.242092  0.921608  1
