# generated using pymatgen
data_BaCrF4
_symmetry_space_group_name_H-M   'P 1'
_cell_length_a   7.15251885
_cell_length_b   7.15251820
_cell_length_c   7.15251920
_cell_angle_alpha   129.53955216
_cell_angle_beta   129.53954649
_cell_angle_gamma   74.14395216
_symmetry_Int_Tables_number   1
_chemical_formula_structural   BaCrF4
_chemical_formula_sum   'Ba2 Cr2 F8'
_cell_volume   212.18570173
_cell_formula_units_Z   2
loop_
 _symmetry_equiv_pos_site_id
 _symmetry_equiv_pos_as_xyz
  1  'x, y, z'
loop_
 _atom_site_type_symbol
 _atom_site_label
 _atom_site_symmetry_multiplicity
 _atom_site_fract_x
 _atom_site_fract_y
 _atom_site_fract_z
 _atom_site_occupancy
  Ba  Ba0  1  0.250000  0.250000  0.000000  1
  Ba  Ba1  1  0.750000  0.750000  0.000000  1
  Cr  Cr2  1  0.500000  0.000000  0.500000  1
  Cr  Cr3  1  0.000000  0.500000  0.500000  1
  F  F4  1  0.954697  0.454697  0.164974  1
  F  F5  1  0.710277  0.210277  0.164974  1
  F  F6  1  0.045303  0.545303  0.835026  1
  F  F7  1  0.545303  0.710277  0.500000  1
  F  F8  1  0.289723  0.789723  0.835026  1
  F  F9  1  0.789723  0.954697  0.500000  1
  F  F10  1  0.454697  0.289723  0.500000  1
  F  F11  1  0.210277  0.045303  0.500000  1
