# generated using pymatgen
data_La5DyTl4In2O18
_symmetry_space_group_name_H-M   'P 1'
_cell_length_a   6.73645318
_cell_length_b   6.73393211
_cell_length_c   12.54002603
_cell_angle_alpha   90.03920371
_cell_angle_beta   90.02426206
_cell_angle_gamma   120.02467609
_symmetry_Int_Tables_number   1
_chemical_formula_structural   La5DyTl4In2O18
_chemical_formula_sum   'La5 Dy1 Tl4 In2 O18'
_cell_volume   492.51650114
_cell_formula_units_Z   1
loop_
 _symmetry_equiv_pos_site_id
 _symmetry_equiv_pos_as_xyz
  1  'x, y, z'
loop_
 _atom_site_type_symbol
 _atom_site_label
 _atom_site_symmetry_multiplicity
 _atom_site_fract_x
 _atom_site_fract_y
 _atom_site_fract_z
 _atom_site_occupancy
  La  La0  1  0.335054  0.673744  0.237183  1
  La  La1  1  0.998673  0.000520  0.261875  1
  La  La2  1  0.001610  0.000006  0.765905  1
  La  La3  1  0.337975  0.672492  0.731513  1
  La  La4  1  0.665414  0.327395  0.732007  1
  Dy  Dy5  1  0.660455  0.325095  0.228478  1
  Tl  Tl6  1  0.995854  0.663405  0.493346  1
  Tl  Tl7  1  0.000086  0.335789  0.998109  1
  Tl  Tl8  1  0.336643  0.333469  0.493392  1
  Tl  Tl9  1  0.665335  0.663848  0.998285  1
  In  In10  1  0.335291  0.001142  0.998709  1
  In  In11  1  0.668010  0.003742  0.493484  1
  O  O12  1  0.003144  0.690078  0.666220  1
  O  O13  1  0.980603  0.628376  0.322429  1
  O  O14  1  0.000462  0.356415  0.826864  1
  O  O15  1  0.990014  0.315889  0.170489  1
  O  O16  1  0.334458  0.682518  0.024611  1
  O  O17  1  0.984718  0.000494  0.464537  1
  O  O18  1  0.348458  0.682625  0.512605  1
  O  O19  1  0.015557  0.000353  0.972769  1
  O  O20  1  0.309737  0.313501  0.666265  1
  O  O21  1  0.370348  0.353453  0.322435  1
  O  O22  1  0.318070  0.008108  0.170745  1
  O  O23  1  0.645139  0.642457  0.827056  1
  O  O24  1  0.684174  0.673657  0.170628  1
  O  O25  1  0.359733  0.001641  0.827873  1
  O  O26  1  0.666147  0.317811  0.525758  1
  O  O27  1  0.652204  0.317706  0.029210  1
  O  O28  1  0.645286  0.018248  0.323152  1
  O  O29  1  0.691347  0.996023  0.666636  1
