# generated using pymatgen
data_Zr8In4FeCu7
_symmetry_space_group_name_H-M   'P 1'
_cell_length_a   7.26777114
_cell_length_b   7.26777109
_cell_length_c   6.86030136
_cell_angle_alpha   90.15574576
_cell_angle_beta   89.84424746
_cell_angle_gamma   89.74309459
_symmetry_Int_Tables_number   1
_chemical_formula_structural   Zr8In4FeCu7
_chemical_formula_sum   'Zr8 In4 Fe1 Cu7'
_cell_volume   362.35819496
_cell_formula_units_Z   1
loop_
 _symmetry_equiv_pos_site_id
 _symmetry_equiv_pos_as_xyz
  1  'x, y, z'
loop_
 _atom_site_type_symbol
 _atom_site_label
 _atom_site_symmetry_multiplicity
 _atom_site_fract_x
 _atom_site_fract_y
 _atom_site_fract_z
 _atom_site_occupancy
  Zr  Zr0  1  0.179674  0.191825  0.993863  1
  Zr  Zr1  1  0.808175  0.820326  0.993863  1
  Zr  Zr2  1  0.308024  0.691976  0.499863  1
  Zr  Zr3  1  0.697632  0.302368  0.506533  1
  Zr  Zr4  1  0.662364  0.337636  0.990773  1
  Zr  Zr5  1  0.352533  0.647467  0.004540  1
  Zr  Zr6  1  0.843786  0.857070  0.511042  1
  Zr  Zr7  1  0.142930  0.156214  0.511042  1
  In  In8  1  0.494487  0.000679  0.248999  1
  In  In9  1  0.999321  0.505513  0.248999  1
  In  In10  1  0.001258  0.502762  0.753364  1
  In  In11  1  0.497238  0.998742  0.753364  1
  Fe  Fe12  1  0.877859  0.122141  0.770808  1
  Cu  Cu13  1  0.378708  0.373838  0.295239  1
  Cu  Cu14  1  0.626162  0.621292  0.295239  1
  Cu  Cu15  1  0.122900  0.877100  0.207352  1
  Cu  Cu16  1  0.877556  0.122444  0.206795  1
  Cu  Cu17  1  0.622818  0.621245  0.704431  1
  Cu  Cu18  1  0.378755  0.377182  0.704431  1
  Cu  Cu19  1  0.127820  0.872180  0.799464  1
