# generated using pymatgen
data_Nd2SmCo8ReP6
_symmetry_space_group_name_H-M   'P 1'
_cell_length_a   3.76183400
_cell_length_b   10.58956200
_cell_length_c   12.34389200
_cell_angle_alpha   90.00000000
_cell_angle_beta   90.00000000
_cell_angle_gamma   90.00000000
_symmetry_Int_Tables_number   1
_chemical_formula_structural   Nd2SmCo8ReP6
_chemical_formula_sum   'Nd4 Sm2 Co16 Re2 P12'
_cell_volume   491.73343420
_cell_formula_units_Z   2
loop_
 _symmetry_equiv_pos_site_id
 _symmetry_equiv_pos_as_xyz
  1  'x, y, z'
loop_
 _atom_site_type_symbol
 _atom_site_label
 _atom_site_symmetry_multiplicity
 _atom_site_fract_x
 _atom_site_fract_y
 _atom_site_fract_z
 _atom_site_occupancy
  Nd  Nd0  1  0.000000  0.500000  0.522781  1
  Nd  Nd1  1  0.500000  0.000000  0.476740  1
  Nd  Nd2  1  0.000000  0.682122  0.794111  1
  Nd  Nd3  1  0.000000  0.317878  0.794111  1
  Sm  Sm4  1  0.500000  0.818346  0.205647  1
  Sm  Sm5  1  0.500000  0.181654  0.205647  1
  Co  Co6  1  0.500000  0.500000  0.704162  1
  Co  Co7  1  0.000000  0.000000  0.295180  1
  Co  Co8  1  0.000000  0.500000  0.989390  1
  Co  Co9  1  0.500000  0.000000  0.012359  1
  Co  Co10  1  0.500000  0.331817  0.992195  1
  Co  Co11  1  0.500000  0.668183  0.992195  1
  Co  Co12  1  0.000000  0.167377  0.009494  1
  Co  Co13  1  0.000000  0.832623  0.009494  1
  Co  Co14  1  0.500000  0.296257  0.429474  1
  Co  Co15  1  0.500000  0.703743  0.429474  1
  Co  Co16  1  0.000000  0.203212  0.569187  1
  Co  Co17  1  0.000000  0.796788  0.569187  1
  Co  Co18  1  0.500000  0.881428  0.710407  1
  Co  Co19  1  0.500000  0.118572  0.710407  1
  Co  Co20  1  0.000000  0.619385  0.288956  1
  Co  Co21  1  0.000000  0.380615  0.288956  1
  Re  Re22  1  0.500000  0.500000  0.154536  1
  Re  Re23  1  0.000000  0.000000  0.845851  1
  P  P24  1  0.500000  0.500000  0.884966  1
  P  P25  1  0.000000  0.000000  0.116982  1
  P  P26  1  0.500000  0.500000  0.344367  1
  P  P27  1  0.000000  0.000000  0.655397  1
  P  P28  1  0.500000  0.307418  0.614036  1
  P  P29  1  0.500000  0.692582  0.614036  1
  P  P30  1  0.000000  0.191696  0.384075  1
  P  P31  1  0.000000  0.808304  0.384075  1
  P  P32  1  0.500000  0.847531  0.894856  1
  P  P33  1  0.500000  0.152469  0.894856  1
  P  P34  1  0.000000  0.653702  0.106207  1
  P  P35  1  0.000000  0.346298  0.106207  1
