# generated using pymatgen
data_Pr7(NdSi2)3
_symmetry_space_group_name_H-M   'P 1'
_cell_length_a   8.92265253
_cell_length_b   8.92265353
_cell_length_c   8.92349811
_cell_angle_alpha   127.78328192
_cell_angle_beta   127.78329067
_cell_angle_gamma   76.95765669
_symmetry_Int_Tables_number   1
_chemical_formula_structural   Pr7(NdSi2)3
_chemical_formula_sum   'Pr7 Nd3 Si6'
_cell_volume   430.82298549
_cell_formula_units_Z   1
loop_
 _symmetry_equiv_pos_site_id
 _symmetry_equiv_pos_as_xyz
  1  'x, y, z'
loop_
 _atom_site_type_symbol
 _atom_site_label
 _atom_site_symmetry_multiplicity
 _atom_site_fract_x
 _atom_site_fract_y
 _atom_site_fract_z
 _atom_site_occupancy
  Pr  Pr0  1  0.675910  0.175910  0.143760  1
  Pr  Pr1  1  0.532049  0.675893  0.499941  1
  Pr  Pr2  1  0.032228  0.532228  0.856354  1
  Pr  Pr3  1  0.824209  0.967801  0.500046  1
  Pr  Pr4  1  0.324066  0.824066  0.856115  1
  Pr  Pr5  1  0.175893  0.032049  0.499941  1
  Pr  Pr6  1  0.467801  0.324209  0.500046  1
  Nd  Nd7  1  0.500107  0.500011  0.000015  1
  Nd  Nd8  1  0.967502  0.467502  0.143914  1
  Nd  Nd9  1  0.000011  0.000107  0.000015  1
  Si  Si10  1  0.885209  0.614706  0.499583  1
  Si  Si11  1  0.615267  0.115267  0.730212  1
  Si  Si12  1  0.385174  0.885174  0.270314  1
  Si  Si13  1  0.114706  0.385209  0.499583  1
  Si  Si14  1  0.750210  0.749659  0.000081  1
  Si  Si15  1  0.249659  0.250210  0.000081  1
