# generated using pymatgen
data_Lu2AlB8Ru
_symmetry_space_group_name_H-M   'P 1'
_cell_length_a   5.90359323
_cell_length_b   5.90359346
_cell_length_c   3.49538300
_cell_angle_alpha   90.00000000
_cell_angle_beta   90.00000000
_cell_angle_gamma   104.17791858
_symmetry_Int_Tables_number   1
_chemical_formula_structural   Lu2AlB8Ru
_chemical_formula_sum   'Lu2 Al1 B8 Ru1'
_cell_volume   118.11179993
_cell_formula_units_Z   1
loop_
 _symmetry_equiv_pos_site_id
 _symmetry_equiv_pos_as_xyz
  1  'x, y, z'
loop_
 _atom_site_type_symbol
 _atom_site_label
 _atom_site_symmetry_multiplicity
 _atom_site_fract_x
 _atom_site_fract_y
 _atom_site_fract_z
 _atom_site_occupancy
  Lu  Lu0  1  0.199032  0.802397  0.000000  1
  Lu  Lu1  1  0.802397  0.199032  0.000000  1
  Al  Al2  1  0.321807  0.321807  0.000000  1
  B  B3  1  0.882854  0.567101  0.500000  1
  B  B4  1  0.408941  0.597307  0.500000  1
  B  B5  1  0.875769  0.875769  0.500000  1
  B  B6  1  0.567101  0.882854  0.500000  1
  B  B7  1  0.436563  0.118334  0.500000  1
  B  B8  1  0.120707  0.120707  0.500000  1
  B  B9  1  0.597307  0.408941  0.500000  1
  B  B10  1  0.118334  0.436563  0.500000  1
  Ru  Ru11  1  0.669189  0.669189  0.000000  1
