# generated using pymatgen
data_Dy11Ho5(HfIr3)4
_symmetry_space_group_name_H-M   'P 1'
_cell_length_a   10.83513400
_cell_length_b   10.83026900
_cell_length_c   6.25250300
_cell_angle_alpha   89.99785920
_cell_angle_beta   90.00256260
_cell_angle_gamma   89.99993655
_symmetry_Int_Tables_number   1
_chemical_formula_structural   Dy11Ho5(HfIr3)4
_chemical_formula_sum   'Dy11 Ho5 Hf4 Ir12'
_cell_volume   733.71506915
_cell_formula_units_Z   1
loop_
 _symmetry_equiv_pos_site_id
 _symmetry_equiv_pos_as_xyz
  1  'x, y, z'
loop_
 _atom_site_type_symbol
 _atom_site_label
 _atom_site_symmetry_multiplicity
 _atom_site_fract_x
 _atom_site_fract_y
 _atom_site_fract_z
 _atom_site_occupancy
  Dy  Dy0  1  0.289220  0.086111  0.374787  1
  Dy  Dy1  1  0.289222  0.913887  0.874791  1
  Dy  Dy2  1  0.710772  0.086118  0.874792  1
  Dy  Dy3  1  0.710783  0.913862  0.374842  1
  Dy  Dy4  1  0.586148  0.789233  0.874810  1
  Dy  Dy5  1  0.586075  0.210723  0.374900  1
  Dy  Dy6  1  0.413935  0.789275  0.374881  1
  Dy  Dy7  1  0.413923  0.210718  0.874888  1
  Dy  Dy8  1  0.210543  0.413979  0.625123  1
  Dy  Dy9  1  0.210572  0.586022  0.125138  1
  Dy  Dy10  1  0.789436  0.414042  0.125099  1
  Ho  Ho11  1  0.789577  0.585924  0.624954  1
  Ho  Ho12  1  0.914089  0.710536  0.124937  1
  Ho  Ho13  1  0.914113  0.289496  0.624956  1
  Ho  Ho14  1  0.085757  0.710549  0.624926  1
  Ho  Ho15  1  0.085849  0.289421  0.124946  1
  Hf  Hf16  1  0.000000  0.000001  0.500193  1
  Hf  Hf17  1  0.999990  0.999999  0.000168  1
  Hf  Hf18  1  0.500020  0.500007  0.000074  1
  Hf  Hf19  1  0.500134  0.500058  0.500158  1
  Ir  Ir20  1  0.857068  0.143339  0.250175  1
  Ir  Ir21  1  0.857032  0.856522  0.750111  1
  Ir  Ir22  1  0.142928  0.143334  0.750173  1
  Ir  Ir23  1  0.142923  0.856652  0.250174  1
  Ir  Ir24  1  0.643369  0.356969  0.749842  1
  Ir  Ir25  1  0.643397  0.643101  0.250212  1
  Ir  Ir26  1  0.356727  0.356822  0.249916  1
  Ir  Ir27  1  0.356714  0.643166  0.749935  1
  Ir  Ir28  1  0.499996  0.000008  0.122359  1
  Ir  Ir29  1  0.499999  0.999988  0.622350  1
  Ir  Ir30  1  0.999850  0.500063  0.877537  1
  Ir  Ir31  1  0.999839  0.500072  0.377853  1
