# generated using pymatgen
data_Dy7Tm5Th4(MgRu)4
_symmetry_space_group_name_H-M   'P 1'
_cell_length_a   9.71236832
_cell_length_b   9.71236830
_cell_length_c   9.70764900
_cell_angle_alpha   60.01606895
_cell_angle_beta   60.01606903
_cell_angle_gamma   60.03660777
_symmetry_Int_Tables_number   1
_chemical_formula_structural   Dy7Tm5Th4(MgRu)4
_chemical_formula_sum   'Dy7 Tm5 Th4 Mg4 Ru4'
_cell_volume   647.85059466
_cell_formula_units_Z   1
loop_
 _symmetry_equiv_pos_site_id
 _symmetry_equiv_pos_as_xyz
  1  'x, y, z'
loop_
 _atom_site_type_symbol
 _atom_site_label
 _atom_site_symmetry_multiplicity
 _atom_site_fract_x
 _atom_site_fract_y
 _atom_site_fract_z
 _atom_site_occupancy
  Dy  Dy0  1  0.814817  0.814817  0.185183  1
  Dy  Dy1  1  0.935832  0.564133  0.564853  1
  Dy  Dy2  1  0.564133  0.935832  0.935183  1
  Dy  Dy3  1  0.564133  0.935832  0.564853  1
  Dy  Dy4  1  0.935832  0.564133  0.935183  1
  Dy  Dy5  1  0.564584  0.564584  0.935416  1
  Dy  Dy6  1  0.935816  0.935816  0.564184  1
  Tm  Tm7  1  0.814817  0.185461  0.185084  1
  Tm  Tm8  1  0.185461  0.814817  0.814638  1
  Tm  Tm9  1  0.185461  0.814817  0.185084  1
  Tm  Tm10  1  0.814817  0.185461  0.814638  1
  Tm  Tm11  1  0.185166  0.185166  0.814834  1
  Th  Th12  1  0.346660  0.346660  0.346407  1
  Th  Th13  1  0.346660  0.346660  0.960272  1
  Th  Th14  1  0.345781  0.960318  0.346950  1
  Th  Th15  1  0.960318  0.345781  0.346950  1
  Mg  Mg16  1  0.579755  0.579755  0.580594  1
  Mg  Mg17  1  0.579755  0.579755  0.259896  1
  Mg  Mg18  1  0.579795  0.259919  0.580143  1
  Mg  Mg19  1  0.259919  0.579795  0.580143  1
  Ru  Ru20  1  0.143006  0.143006  0.142742  1
  Ru  Ru21  1  0.143006  0.143006  0.571246  1
  Ru  Ru22  1  0.144338  0.570137  0.142762  1
  Ru  Ru23  1  0.570137  0.144338  0.142762  1
