# generated using pymatgen
data_Sr4Ir5RhO18F
_symmetry_space_group_name_H-M   'P 1'
_cell_length_a   8.09346603
_cell_length_b   8.06123918
_cell_length_c   8.06123943
_cell_angle_alpha   109.53121570
_cell_angle_beta   109.33216146
_cell_angle_gamma   109.38929335
_symmetry_Int_Tables_number   1
_chemical_formula_structural   Sr4Ir5RhO18F
_chemical_formula_sum   'Sr4 Ir5 Rh1 O18 F1'
_cell_volume   405.67208962
_cell_formula_units_Z   1
loop_
 _symmetry_equiv_pos_site_id
 _symmetry_equiv_pos_as_xyz
  1  'x, y, z'
loop_
 _atom_site_type_symbol
 _atom_site_label
 _atom_site_symmetry_multiplicity
 _atom_site_fract_x
 _atom_site_fract_y
 _atom_site_fract_z
 _atom_site_occupancy
  Sr  Sr0  1  0.989867  0.991567  0.317514  1
  Sr  Sr1  1  0.673183  0.677397  0.674965  1
  Sr  Sr2  1  0.010133  0.327647  0.001700  1
  Sr  Sr3  1  0.326817  0.001782  0.004214  1
  Ir  Ir4  1  0.341417  0.840132  0.499889  1
  Ir  Ir5  1  0.837474  0.502893  0.337550  1
  Ir  Ir6  1  0.500000  0.345466  0.845466  1
  Ir  Ir7  1  0.162526  0.500077  0.665420  1
  Ir  Ir8  1  0.658583  0.158472  0.498716  1
  Rh  Rh9  1  0.500000  0.656635  0.156635  1
  O  O10  1  0.651713  0.957264  0.280726  1
  O  O11  1  0.372969  0.716998  0.675458  1
  O  O12  1  0.703813  0.324401  0.042854  1
  O  O13  1  0.663486  0.366523  0.711212  1
  O  O14  1  0.046108  0.700992  0.326092  1
  O  O15  1  0.271108  0.652903  0.955771  1
  O  O16  1  0.336514  0.047726  0.703037  1
  O  O17  1  0.953892  0.279984  0.654883  1
  O  O18  1  0.728892  0.684663  0.381794  1
  O  O19  1  0.348287  0.629014  0.305551  1
  O  O20  1  0.627031  0.302490  0.344030  1
  O  O21  1  0.296187  0.339041  0.620588  1
  O  O22  1  0.647407  0.646787  0.995285  1
  O  O23  1  0.644425  0.999212  0.643722  1
  O  O24  1  0.000000  0.363595  0.363595  1
  O  O25  1  0.355575  0.999297  0.354787  1
  O  O26  1  0.000000  0.638914  0.638914  1
  O  O27  1  0.352593  0.347878  0.999380  1
  F  F28  1  0.000000  0.000252  0.000252  1
