# generated using pymatgen
data_Er3TmZnPt3
_symmetry_space_group_name_H-M   'P 1'
_cell_length_a   4.53450600
_cell_length_b   5.52732561
_cell_length_c   6.99129210
_cell_angle_alpha   90.13327407
_cell_angle_beta   90.00000000
_cell_angle_gamma   90.00000000
_symmetry_Int_Tables_number   1
_chemical_formula_structural   Er3TmZnPt3
_chemical_formula_sum   'Er3 Tm1 Zn1 Pt3'
_cell_volume   175.22711188
_cell_formula_units_Z   1
loop_
 _symmetry_equiv_pos_site_id
 _symmetry_equiv_pos_as_xyz
  1  'x, y, z'
loop_
 _atom_site_type_symbol
 _atom_site_label
 _atom_site_symmetry_multiplicity
 _atom_site_fract_x
 _atom_site_fract_y
 _atom_site_fract_z
 _atom_site_occupancy
  Er  Er0  1  0.250000  0.641624  0.186777  1
  Er  Er1  1  0.750000  0.368458  0.807762  1
  Er  Er2  1  0.250000  0.849017  0.678320  1
  Tm  Tm3  1  0.750000  0.140377  0.328259  1
  Zn  Zn4  1  0.250000  0.138007  0.032531  1
  Pt  Pt5  1  0.750000  0.871632  0.969977  1
  Pt  Pt6  1  0.750000  0.656782  0.453856  1
  Pt  Pt7  1  0.250000  0.334103  0.542518  1
