# generated using pymatgen
data_SmHoErGa9Pd2
_symmetry_space_group_name_H-M   'P 1'
_cell_length_a   8.17954103
_cell_length_b   8.17954133
_cell_length_c   8.17954109
_cell_angle_alpha   149.38298827
_cell_angle_beta   109.01984617
_cell_angle_gamma   79.25218088
_symmetry_Int_Tables_number   1
_chemical_formula_structural   SmHoErGa9Pd2
_chemical_formula_sum   'Sm1 Ho1 Er1 Ga9 Pd2'
_cell_volume   258.42971948
_cell_formula_units_Z   1
loop_
 _symmetry_equiv_pos_site_id
 _symmetry_equiv_pos_as_xyz
  1  'x, y, z'
loop_
 _atom_site_type_symbol
 _atom_site_label
 _atom_site_symmetry_multiplicity
 _atom_site_fract_x
 _atom_site_fract_y
 _atom_site_fract_z
 _atom_site_occupancy
  Sm  Sm0  1  0.499879  0.499879  0.000000  1
  Ho  Ho1  1  0.801137  0.801137  0.000000  1
  Er  Er2  1  0.198522  0.198522  0.000000  1
  Ga  Ga3  1  0.644152  0.360718  0.283434  1
  Ga  Ga4  1  0.355738  0.639379  0.716360  1
  Ga  Ga5  1  0.077284  0.360718  0.716566  1
  Ga  Ga6  1  0.923018  0.639379  0.283640  1
  Ga  Ga7  1  0.523087  0.157223  0.365864  1
  Ga  Ga8  1  0.476668  0.842652  0.634015  1
  Ga  Ga9  1  0.791359  0.157223  0.634136  1
  Ga  Ga10  1  0.208637  0.842652  0.365985  1
  Ga  Ga11  1  0.000080  0.500080  0.500000  1
  Pd  Pd12  1  0.184586  0.000219  0.184367  1
  Pd  Pd13  1  0.815853  0.000219  0.815633  1
