# generated using pymatgen
data_ErLu9OsRu3
_symmetry_space_group_name_H-M   'P 1'
_cell_length_a   6.19164389
_cell_length_b   7.23084296
_cell_length_c   8.24986027
_cell_angle_alpha   97.02675785
_cell_angle_beta   111.94610228
_cell_angle_gamma   89.84990211
_symmetry_Int_Tables_number   1
_chemical_formula_structural   ErLu9OsRu3
_chemical_formula_sum   'Er1 Lu9 Os1 Ru3'
_cell_volume   339.64203310
_cell_formula_units_Z   1
loop_
 _symmetry_equiv_pos_site_id
 _symmetry_equiv_pos_as_xyz
  1  'x, y, z'
loop_
 _atom_site_type_symbol
 _atom_site_label
 _atom_site_symmetry_multiplicity
 _atom_site_fract_x
 _atom_site_fract_y
 _atom_site_fract_z
 _atom_site_occupancy
  Er  Er0  1  0.522563  0.083419  0.813920  1
  Lu  Lu1  1  0.477547  0.917703  0.186403  1
  Lu  Lu2  1  0.710128  0.416124  0.185170  1
  Lu  Lu3  1  0.293021  0.584193  0.819819  1
  Lu  Lu4  1  0.294773  0.318628  0.435321  1
  Lu  Lu5  1  0.703412  0.681265  0.563199  1
  Lu  Lu6  1  0.860953  0.182486  0.564333  1
  Lu  Lu7  1  0.139959  0.815679  0.434187  1
  Lu  Lu8  1  0.081562  0.250660  0.000655  1
  Lu  Lu9  1  0.919014  0.749369  0.000477  1
  Os  Os10  1  0.321823  0.578597  0.217139  1
  Ru  Ru11  1  0.677526  0.422243  0.779835  1
  Ru  Ru12  1  0.098946  0.921532  0.777928  1
  Ru  Ru13  1  0.898772  0.078101  0.221613  1
