# generated using pymatgen
data_V2FeCoP2
_symmetry_space_group_name_H-M   'P 1'
_cell_length_a   3.49692400
_cell_length_b   5.88934200
_cell_length_c   6.69917500
_cell_angle_alpha   90.00000000
_cell_angle_beta   90.00000000
_cell_angle_gamma   90.00000000
_symmetry_Int_Tables_number   1
_chemical_formula_structural   V2FeCoP2
_chemical_formula_sum   'V4 Fe2 Co2 P4'
_cell_volume   137.96670474
_cell_formula_units_Z   2
loop_
 _symmetry_equiv_pos_site_id
 _symmetry_equiv_pos_as_xyz
  1  'x, y, z'
loop_
 _atom_site_type_symbol
 _atom_site_label
 _atom_site_symmetry_multiplicity
 _atom_site_fract_x
 _atom_site_fract_y
 _atom_site_fract_z
 _atom_site_occupancy
  V  V0  1  0.750000  0.473622  0.671246  1
  V  V1  1  0.750000  0.973622  0.828754  1
  V  V2  1  0.250000  0.528336  0.328289  1
  V  V3  1  0.250000  0.028336  0.171711  1
  Fe  Fe4  1  0.250000  0.640208  0.940272  1
  Fe  Fe5  1  0.250000  0.140208  0.559728  1
  Co  Co6  1  0.750000  0.356268  0.063087  1
  Co  Co7  1  0.750000  0.856268  0.436913  1
  P  P8  1  0.750000  0.733701  0.122872  1
  P  P9  1  0.750000  0.233701  0.377128  1
  P  P10  1  0.250000  0.267864  0.873812  1
  P  P11  1  0.250000  0.767864  0.626188  1
