# generated using pymatgen
data_Y6AlSi11Pt8
_symmetry_space_group_name_H-M   'P 1'
_cell_length_a   4.26965300
_cell_length_b   8.61697465
_cell_length_c   12.89358587
_cell_angle_alpha   80.42702491
_cell_angle_beta   90.00000000
_cell_angle_gamma   90.00000000
_symmetry_Int_Tables_number   1
_chemical_formula_structural   Y6AlSi11Pt8
_chemical_formula_sum   'Y6 Al1 Si11 Pt8'
_cell_volume   467.76840015
_cell_formula_units_Z   1
loop_
 _symmetry_equiv_pos_site_id
 _symmetry_equiv_pos_as_xyz
  1  'x, y, z'
loop_
 _atom_site_type_symbol
 _atom_site_label
 _atom_site_symmetry_multiplicity
 _atom_site_fract_x
 _atom_site_fract_y
 _atom_site_fract_z
 _atom_site_occupancy
  Y  Y0  1  0.250000  0.767724  0.440064  1
  Y  Y1  1  0.250000  0.592260  0.179640  1
  Y  Y2  1  0.750000  0.231138  0.561789  1
  Y  Y3  1  0.750000  0.413074  0.815958  1
  Y  Y4  1  0.750000  0.928406  0.817564  1
  Y  Y5  1  0.250000  0.071591  0.183051  1
  Al  Al6  1  0.250000  0.410628  0.426433  1
  Si  Si7  1  0.750000  0.580307  0.565037  1
  Si  Si8  1  0.750000  0.128101  0.005309  1
  Si  Si9  1  0.750000  0.871505  0.572515  1
  Si  Si10  1  0.250000  0.696966  0.714954  1
  Si  Si11  1  0.750000  0.307817  0.289871  1
  Si  Si12  1  0.750000  0.808114  0.275132  1
  Si  Si13  1  0.250000  0.875325  0.993983  1
  Si  Si14  1  0.250000  0.194056  0.723770  1
  Si  Si15  1  0.250000  0.378140  0.002292  1
  Si  Si16  1  0.250000  0.117364  0.433487  1
  Si  Si17  1  0.750000  0.620164  0.998974  1
  Pt  Pt18  1  0.750000  0.352069  0.100232  1
  Pt  Pt19  1  0.250000  0.967847  0.625646  1
  Pt  Pt20  1  0.750000  0.851766  0.085707  1
  Pt  Pt21  1  0.750000  0.029317  0.375178  1
  Pt  Pt22  1  0.250000  0.646622  0.902354  1
  Pt  Pt23  1  0.250000  0.151248  0.912647  1
  Pt  Pt24  1  0.750000  0.540319  0.371544  1
  Pt  Pt25  1  0.250000  0.468132  0.626868  1
