# generated using pymatgen
data_Zn22CuIr3
_symmetry_space_group_name_H-M   'P 1'
_cell_length_a   7.89436339
_cell_length_b   7.91654181
_cell_length_c   7.89436425
_cell_angle_alpha   109.52814648
_cell_angle_beta   109.41424736
_cell_angle_gamma   109.52813764
_symmetry_Int_Tables_number   1
_chemical_formula_structural   Zn22CuIr3
_chemical_formula_sum   'Zn22 Cu1 Ir3'
_cell_volume   379.52665469
_cell_formula_units_Z   1
loop_
 _symmetry_equiv_pos_site_id
 _symmetry_equiv_pos_as_xyz
  1  'x, y, z'
loop_
 _atom_site_type_symbol
 _atom_site_label
 _atom_site_symmetry_multiplicity
 _atom_site_fract_x
 _atom_site_fract_y
 _atom_site_fract_z
 _atom_site_occupancy
  Zn  Zn0  1  0.000000  0.794936  0.000000  1
  Zn  Zn1  1  0.784361  0.999198  0.000000  1
  Zn  Zn2  1  0.000000  0.999198  0.784361  1
  Zn  Zn3  1  0.215639  0.214836  0.215639  1
  Zn  Zn4  1  0.347167  0.618298  0.347167  1
  Zn  Zn5  1  0.267026  0.000651  0.649496  1
  Zn  Zn6  1  0.649496  0.000651  0.267026  1
  Zn  Zn7  1  0.263480  0.647006  0.000000  1
  Zn  Zn8  1  0.732974  0.733625  0.382470  1
  Zn  Zn9  1  0.382470  0.733625  0.732974  1
  Zn  Zn10  1  0.000000  0.647006  0.263480  1
  Zn  Zn11  1  0.000000  0.271132  0.652833  1
  Zn  Zn12  1  0.652833  0.271132  0.000000  1
  Zn  Zn13  1  0.350504  0.351155  0.617530  1
  Zn  Zn14  1  0.617530  0.351155  0.350504  1
  Zn  Zn15  1  0.736520  0.383526  0.736520  1
  Zn  Zn16  1  0.355053  0.356753  0.000000  1
  Zn  Zn17  1  0.000000  0.637267  0.648099  1
  Zn  Zn18  1  0.000000  0.356753  0.355053  1
  Zn  Zn19  1  0.351901  0.989168  0.351901  1
  Zn  Zn20  1  0.644947  0.001701  0.644947  1
  Zn  Zn21  1  0.648099  0.637267  0.000000  1
  Cu  Cu22  1  0.000000  0.345687  0.000000  1
  Ir  Ir23  1  0.348087  0.002122  0.000000  1
  Ir  Ir24  1  0.000000  0.002122  0.348087  1
  Ir  Ir25  1  0.651913  0.654034  0.651913  1
