# generated using pymatgen
data_Tb2MgBe2Rh5
_symmetry_space_group_name_H-M   'P 1'
_cell_length_a   9.65783600
_cell_length_b   9.65783600
_cell_length_c   3.32131000
_cell_angle_alpha   90.00000000
_cell_angle_beta   90.00000000
_cell_angle_gamma   90.00000000
_symmetry_Int_Tables_number   1
_chemical_formula_structural   Tb2MgBe2Rh5
_chemical_formula_sum   'Tb4 Mg2 Be4 Rh10'
_cell_volume   309.79119207
_cell_formula_units_Z   2
loop_
 _symmetry_equiv_pos_site_id
 _symmetry_equiv_pos_as_xyz
  1  'x, y, z'
loop_
 _atom_site_type_symbol
 _atom_site_label
 _atom_site_symmetry_multiplicity
 _atom_site_fract_x
 _atom_site_fract_y
 _atom_site_fract_z
 _atom_site_occupancy
  Tb  Tb0  1  0.676733  0.176733  0.000000  1
  Tb  Tb1  1  0.323267  0.823267  0.000000  1
  Tb  Tb2  1  0.176733  0.323267  0.000000  1
  Tb  Tb3  1  0.823267  0.676733  0.000000  1
  Mg  Mg4  1  0.000000  0.000000  0.000000  1
  Mg  Mg5  1  0.500000  0.500000  0.000000  1
  Be  Be6  1  0.121252  0.621252  0.000000  1
  Be  Be7  1  0.878748  0.378748  0.000000  1
  Be  Be8  1  0.621252  0.878748  0.000000  1
  Be  Be9  1  0.378748  0.121252  0.000000  1
  Rh  Rh10  1  0.500000  0.000000  0.500000  1
  Rh  Rh11  1  0.000000  0.500000  0.500000  1
  Rh  Rh12  1  0.217277  0.068926  0.500000  1
  Rh  Rh13  1  0.782723  0.931074  0.500000  1
  Rh  Rh14  1  0.068926  0.782723  0.500000  1
  Rh  Rh15  1  0.717277  0.431074  0.500000  1
  Rh  Rh16  1  0.931074  0.217277  0.500000  1
  Rh  Rh17  1  0.282723  0.568926  0.500000  1
  Rh  Rh18  1  0.568926  0.717277  0.500000  1
  Rh  Rh19  1  0.431074  0.282723  0.500000  1
