# generated using pymatgen
data_TbSmCo3P7Ru9
_symmetry_space_group_name_H-M   'P 1'
_cell_length_a   9.35450800
_cell_length_b   9.35450837
_cell_length_c   3.84204000
_cell_angle_alpha   90.00000000
_cell_angle_beta   90.00000000
_cell_angle_gamma   119.99999868
_symmetry_Int_Tables_number   1
_chemical_formula_structural   TbSmCo3P7Ru9
_chemical_formula_sum   'Tb1 Sm1 Co3 P7 Ru9'
_cell_volume   291.16182869
_cell_formula_units_Z   1
loop_
 _symmetry_equiv_pos_site_id
 _symmetry_equiv_pos_as_xyz
  1  'x, y, z'
loop_
 _atom_site_type_symbol
 _atom_site_label
 _atom_site_symmetry_multiplicity
 _atom_site_fract_x
 _atom_site_fract_y
 _atom_site_fract_z
 _atom_site_occupancy
  Tb  Tb0  1  0.333333  0.666667  0.500000  1
  Sm  Sm1  1  0.000000  0.000000  0.000000  1
  Co  Co2  1  0.824474  0.601778  0.000000  1
  Co  Co3  1  0.398222  0.222696  0.000000  1
  Co  Co4  1  0.777304  0.175526  0.000000  1
  P  P5  1  0.780243  0.732082  0.500000  1
  P  P6  1  0.267918  0.048162  0.500000  1
  P  P7  1  0.951838  0.219757  0.500000  1
  P  P8  1  0.666667  0.333333  0.000000  1
  P  P9  1  0.078026  0.635636  0.000000  1
  P  P10  1  0.364364  0.442390  0.000000  1
  P  P11  1  0.557610  0.921974  0.000000  1
  Ru  Ru12  1  0.091314  0.395063  0.000000  1
  Ru  Ru13  1  0.604937  0.696251  0.000000  1
  Ru  Ru14  1  0.303749  0.908686  0.000000  1
  Ru  Ru15  1  0.049482  0.766971  0.500000  1
  Ru  Ru16  1  0.233029  0.282510  0.500000  1
  Ru  Ru17  1  0.717490  0.950518  0.500000  1
  Ru  Ru18  1  0.871864  0.418475  0.500000  1
  Ru  Ru19  1  0.581525  0.453388  0.500000  1
  Ru  Ru20  1  0.546612  0.128136  0.500000  1
