# generated using pymatgen
data_Li2Tb5P12Ru17
_symmetry_space_group_name_H-M   'P 1'
_cell_length_a   3.98389300
_cell_length_b   12.53107109
_cell_length_c   12.53270652
_cell_angle_alpha   118.96879355
_cell_angle_beta   90.00000000
_cell_angle_gamma   90.00000000
_symmetry_Int_Tables_number   1
_chemical_formula_structural   Li2Tb5P12Ru17
_chemical_formula_sum   'Li2 Tb5 P12 Ru17'
_cell_volume   547.38264050
_cell_formula_units_Z   1
loop_
 _symmetry_equiv_pos_site_id
 _symmetry_equiv_pos_as_xyz
  1  'x, y, z'
loop_
 _atom_site_type_symbol
 _atom_site_label
 _atom_site_symmetry_multiplicity
 _atom_site_fract_x
 _atom_site_fract_y
 _atom_site_fract_z
 _atom_site_occupancy
  Li  Li0  1  0.000000  0.999666  0.561877  1
  Li  Li1  1  0.000000  0.562107  0.999645  1
  Tb  Tb2  1  0.500000  0.999133  0.180854  1
  Tb  Tb3  1  0.500000  0.180638  0.999147  1
  Tb  Tb4  1  0.500000  0.818483  0.818520  1
  Tb  Tb5  1  0.000000  0.336012  0.661989  1
  Tb  Tb6  1  0.000000  0.662279  0.336190  1
  P  P7  1  0.000000  0.001239  0.810414  1
  P  P8  1  0.000000  0.810401  0.001250  1
  P  P9  1  0.000000  0.182058  0.182065  1
  P  P10  1  0.500000  0.308152  0.477537  1
  P  P11  1  0.500000  0.182969  0.698475  1
  P  P12  1  0.500000  0.522799  0.823874  1
  P  P13  1  0.500000  0.823916  0.522828  1
  P  P14  1  0.500000  0.477560  0.308167  1
  P  P15  1  0.500000  0.698526  0.183024  1
  P  P16  1  0.000000  0.997690  0.368052  1
  P  P17  1  0.000000  0.367981  0.997664  1
  P  P18  1  0.000000  0.623736  0.623715  1
  Ru  Ru19  1  0.000000  0.443405  0.443432  1
  Ru  Ru20  1  0.500000  0.001916  0.713894  1
  Ru  Ru21  1  0.500000  0.713855  0.001955  1
  Ru  Ru22  1  0.500000  0.282134  0.282180  1
  Ru  Ru23  1  0.000000  0.191014  0.376474  1
  Ru  Ru24  1  0.000000  0.187478  0.802870  1
  Ru  Ru25  1  0.000000  0.622483  0.814115  1
  Ru  Ru26  1  0.000000  0.814138  0.622477  1
  Ru  Ru27  1  0.000000  0.376512  0.191071  1
  Ru  Ru28  1  0.000000  0.802939  0.187500  1
  Ru  Ru29  1  0.500000  0.126105  0.492244  1
  Ru  Ru30  1  0.500000  0.371091  0.881465  1
  Ru  Ru31  1  0.500000  0.508518  0.632589  1
  Ru  Ru32  1  0.500000  0.632573  0.508532  1
  Ru  Ru33  1  0.500000  0.492222  0.126056  1
  Ru  Ru34  1  0.500000  0.881391  0.371069  1
  Ru  Ru35  1  0.000000  0.996781  0.996792  1
