# generated using pymatgen
data_Ho2ErIn3Hg2Ir
_symmetry_space_group_name_H-M   'P 1'
_cell_length_a   7.94301315
_cell_length_b   7.94610126
_cell_length_c   3.89782200
_cell_angle_alpha   90.00000000
_cell_angle_beta   90.00000000
_cell_angle_gamma   119.96497337
_symmetry_Int_Tables_number   1
_chemical_formula_structural   Ho2ErIn3Hg2Ir
_chemical_formula_sum   'Ho2 Er1 In3 Hg2 Ir1'
_cell_volume   213.13029579
_cell_formula_units_Z   1
loop_
 _symmetry_equiv_pos_site_id
 _symmetry_equiv_pos_as_xyz
  1  'x, y, z'
loop_
 _atom_site_type_symbol
 _atom_site_label
 _atom_site_symmetry_multiplicity
 _atom_site_fract_x
 _atom_site_fract_y
 _atom_site_fract_z
 _atom_site_occupancy
  Ho  Ho0  1  0.385068  0.966206  0.000000  1
  Ho  Ho1  1  0.033861  0.418800  0.000000  1
  Er  Er2  1  0.580782  0.615172  0.000000  1
  In  In3  1  0.002509  0.727815  0.500000  1
  In  In4  1  0.272349  0.274910  0.500000  1
  In  In5  1  0.725200  0.997184  0.500000  1
  Hg  Hg6  1  0.999853  0.999852  0.000000  1
  Hg  Hg7  1  0.666569  0.333539  0.500000  1
  Ir  Ir8  1  0.333809  0.666522  0.500000  1
