# generated using pymatgen
data_Tb6Nd2Co(Si4Pd)3
_symmetry_space_group_name_H-M   'P 1'
_cell_length_a   8.15332300
_cell_length_b   8.15332289
_cell_length_c   8.24981700
_cell_angle_alpha   90.00000000
_cell_angle_beta   90.00000000
_cell_angle_gamma   119.99999641
_symmetry_Int_Tables_number   1
_chemical_formula_structural   Tb6Nd2Co(Si4Pd)3
_chemical_formula_sum   'Tb6 Nd2 Co1 Si12 Pd3'
_cell_volume   474.94601868
_cell_formula_units_Z   1
loop_
 _symmetry_equiv_pos_site_id
 _symmetry_equiv_pos_as_xyz
  1  'x, y, z'
loop_
 _atom_site_type_symbol
 _atom_site_label
 _atom_site_symmetry_multiplicity
 _atom_site_fract_x
 _atom_site_fract_y
 _atom_site_fract_z
 _atom_site_occupancy
  Tb  Tb0  1  0.501771  0.498229  0.753727  1
  Tb  Tb1  1  0.503281  0.496719  0.246688  1
  Tb  Tb2  1  0.996458  0.498229  0.753727  1
  Tb  Tb3  1  0.993438  0.496719  0.246688  1
  Tb  Tb4  1  0.501771  0.003542  0.753727  1
  Tb  Tb5  1  0.503281  0.006562  0.246688  1
  Nd  Nd6  1  0.000000  0.000000  0.750495  1
  Nd  Nd7  1  0.000000  0.000000  0.249400  1
  Co  Co8  1  0.666667  0.333333  0.995439  1
  Si  Si9  1  0.825801  0.174199  0.999904  1
  Si  Si10  1  0.165521  0.834479  0.999994  1
  Si  Si11  1  0.348399  0.174199  0.999904  1
  Si  Si12  1  0.166849  0.833151  0.500202  1
  Si  Si13  1  0.668959  0.834479  0.999994  1
  Si  Si14  1  0.833939  0.166061  0.499769  1
  Si  Si15  1  0.825801  0.651601  0.999904  1
  Si  Si16  1  0.666301  0.833151  0.500202  1
  Si  Si17  1  0.165521  0.331041  0.999994  1
  Si  Si18  1  0.332122  0.166061  0.499769  1
  Si  Si19  1  0.166849  0.333699  0.500202  1
  Si  Si20  1  0.833939  0.667878  0.499769  1
  Pd  Pd21  1  0.333333  0.666667  0.003721  1
  Pd  Pd22  1  0.333333  0.666667  0.497845  1
  Pd  Pd23  1  0.666667  0.333333  0.502249  1
