# generated using pymatgen
data_Rb2BaAs2O7
_symmetry_space_group_name_H-M   'P 1'
_cell_length_a   6.33998666
_cell_length_b   6.33998776
_cell_length_c   14.56172374
_cell_angle_alpha   75.22673569
_cell_angle_beta   75.22673473
_cell_angle_gamma   59.14327446
_symmetry_Int_Tables_number   1
_chemical_formula_structural   Rb2BaAs2O7
_chemical_formula_sum   'Rb4 Ba2 As4 O14'
_cell_volume   480.38455174
_cell_formula_units_Z   2
loop_
 _symmetry_equiv_pos_site_id
 _symmetry_equiv_pos_as_xyz
  1  'x, y, z'
loop_
 _atom_site_type_symbol
 _atom_site_label
 _atom_site_symmetry_multiplicity
 _atom_site_fract_x
 _atom_site_fract_y
 _atom_site_fract_z
 _atom_site_occupancy
  Rb  Rb0  1  0.864716  0.431692  0.332038  1
  Rb  Rb1  1  0.568308  0.135284  0.167962  1
  Rb  Rb2  1  0.135284  0.568308  0.667962  1
  Rb  Rb3  1  0.431692  0.864716  0.832038  1
  Ba  Ba4  1  0.500000  0.000000  0.500000  1
  Ba  Ba5  1  0.000000  0.500000  0.000000  1
  As  As6  1  0.801956  0.245222  0.636837  1
  As  As7  1  0.754778  0.198044  0.863163  1
  As  As8  1  0.198044  0.754778  0.363163  1
  As  As9  1  0.245222  0.801956  0.136837  1
  O  O10  1  0.633281  0.366719  0.750000  1
  O  O11  1  0.366719  0.633281  0.250000  1
  O  O12  1  0.702035  0.509172  0.556058  1
  O  O13  1  0.490828  0.297965  0.943942  1
  O  O14  1  0.297965  0.490828  0.443942  1
  O  O15  1  0.509172  0.702035  0.056058  1
  O  O16  1  0.111871  0.096574  0.642667  1
  O  O17  1  0.903426  0.888129  0.857333  1
  O  O18  1  0.888129  0.903426  0.357333  1
  O  O19  1  0.096574  0.111871  0.142667  1
  O  O20  1  0.049327  0.696706  0.131452  1
  O  O21  1  0.303294  0.950673  0.368548  1
  O  O22  1  0.950673  0.303294  0.868548  1
  O  O23  1  0.696706  0.049327  0.631452  1
