# generated using pymatgen
data_Pr3Er5(CdIr)2
_symmetry_space_group_name_H-M   'P 1'
_cell_length_a   9.73498361
_cell_length_b   9.73498311
_cell_length_c   9.73498300
_cell_angle_alpha   59.99999699
_cell_angle_beta   59.99999868
_cell_angle_gamma   59.99999546
_symmetry_Int_Tables_number   1
_chemical_formula_structural   Pr3Er5(CdIr)2
_chemical_formula_sum   'Pr6 Er10 Cd4 Ir4'
_cell_volume   652.36491741
_cell_formula_units_Z   2
loop_
 _symmetry_equiv_pos_site_id
 _symmetry_equiv_pos_as_xyz
  1  'x, y, z'
loop_
 _atom_site_type_symbol
 _atom_site_label
 _atom_site_symmetry_multiplicity
 _atom_site_fract_x
 _atom_site_fract_y
 _atom_site_fract_z
 _atom_site_occupancy
  Pr  Pr0  1  0.941497  0.558503  0.558503  1
  Pr  Pr1  1  0.558503  0.941497  0.941497  1
  Pr  Pr2  1  0.558503  0.941497  0.558503  1
  Pr  Pr3  1  0.941497  0.558503  0.941497  1
  Pr  Pr4  1  0.558503  0.558503  0.941497  1
  Pr  Pr5  1  0.941497  0.941497  0.558503  1
  Er  Er6  1  0.346556  0.346556  0.346556  1
  Er  Er7  1  0.346556  0.346556  0.960331  1
  Er  Er8  1  0.346556  0.960331  0.346556  1
  Er  Er9  1  0.960331  0.346556  0.346556  1
  Er  Er10  1  0.813477  0.186523  0.186523  1
  Er  Er11  1  0.186523  0.813477  0.813477  1
  Er  Er12  1  0.186523  0.813477  0.186523  1
  Er  Er13  1  0.813477  0.186523  0.813477  1
  Er  Er14  1  0.186523  0.186523  0.813477  1
  Er  Er15  1  0.813477  0.813477  0.186523  1
  Cd  Cd16  1  0.579128  0.579128  0.579128  1
  Cd  Cd17  1  0.579128  0.579128  0.262614  1
  Cd  Cd18  1  0.579128  0.262614  0.579128  1
  Cd  Cd19  1  0.262614  0.579128  0.579128  1
  Ir  Ir20  1  0.141156  0.141156  0.141156  1
  Ir  Ir21  1  0.141156  0.141156  0.576531  1
  Ir  Ir22  1  0.141156  0.576531  0.141156  1
  Ir  Ir23  1  0.576531  0.141156  0.141156  1
