# generated using pymatgen
data_Li3Tm2LuSi2As
_symmetry_space_group_name_H-M   'P 1'
_cell_length_a   6.93703038
_cell_length_b   6.99400824
_cell_length_c   4.14146300
_cell_angle_alpha   90.00000000
_cell_angle_beta   90.00000000
_cell_angle_gamma   120.27206842
_symmetry_Int_Tables_number   1
_chemical_formula_structural   Li3Tm2LuSi2As
_chemical_formula_sum   'Li3 Tm2 Lu1 Si2 As1'
_cell_volume   173.53495849
_cell_formula_units_Z   1
loop_
 _symmetry_equiv_pos_site_id
 _symmetry_equiv_pos_as_xyz
  1  'x, y, z'
loop_
 _atom_site_type_symbol
 _atom_site_label
 _atom_site_symmetry_multiplicity
 _atom_site_fract_x
 _atom_site_fract_y
 _atom_site_fract_z
 _atom_site_occupancy
  Li  Li0  1  0.235524  0.998804  0.500000  1
  Li  Li1  1  0.764476  0.763280  0.500000  1
  Li  Li2  1  0.000000  0.237249  0.500000  1
  Tm  Tm3  1  0.581349  0.003706  0.000000  1
  Tm  Tm4  1  0.418651  0.422355  0.000000  1
  Lu  Lu5  1  0.000000  0.579056  0.000000  1
  Si  Si6  1  0.333053  0.668063  0.500000  1
  Si  Si7  1  0.666947  0.335009  0.500000  1
  As  As8  1  0.000000  0.992479  0.000000  1
