# generated using pymatgen
data_Ti10Cu2Sn5Sb
_symmetry_space_group_name_H-M   'P 1'
_cell_length_a   8.22826300
_cell_length_b   8.21202216
_cell_length_c   5.53101400
_cell_angle_alpha   90.00000000
_cell_angle_beta   90.00000000
_cell_angle_gamma   120.06544712
_symmetry_Int_Tables_number   1
_chemical_formula_structural   Ti10Cu2Sn5Sb
_chemical_formula_sum   'Ti10 Cu2 Sn5 Sb1'
_cell_volume   323.44979202
_cell_formula_units_Z   1
loop_
 _symmetry_equiv_pos_site_id
 _symmetry_equiv_pos_as_xyz
  1  'x, y, z'
loop_
 _atom_site_type_symbol
 _atom_site_label
 _atom_site_symmetry_multiplicity
 _atom_site_fract_x
 _atom_site_fract_y
 _atom_site_fract_z
 _atom_site_occupancy
  Ti  Ti0  1  0.270197  0.000000  0.750000  1
  Ti  Ti1  1  0.730236  0.000000  0.250000  1
  Ti  Ti2  1  0.997988  0.267106  0.750000  1
  Ti  Ti3  1  0.999999  0.730938  0.250000  1
  Ti  Ti4  1  0.730882  0.732894  0.750000  1
  Ti  Ti5  1  0.269061  0.269062  0.250000  1
  Ti  Ti6  1  0.334349  0.668072  0.499889  1
  Ti  Ti7  1  0.666279  0.331928  0.499889  1
  Ti  Ti8  1  0.666279  0.331928  0.000111  1
  Ti  Ti9  1  0.334349  0.668072  0.000111  1
  Cu  Cu10  1  0.001484  0.000000  0.499166  1
  Cu  Cu11  1  0.001484  0.000000  0.000834  1
  Sn  Sn12  1  0.381605  0.000000  0.250000  1
  Sn  Sn13  1  0.999417  0.616671  0.750000  1
  Sn  Sn14  1  0.000729  0.383636  0.250000  1
  Sn  Sn15  1  0.382745  0.383329  0.750000  1
  Sn  Sn16  1  0.617093  0.616364  0.250000  1
  Sb  Sb17  1  0.615825  0.000000  0.750000  1
