# generated using pymatgen
data_Tm6Nb(Fe3Co8)2
_symmetry_space_group_name_H-M   'P 1'
_cell_length_a   8.35894053
_cell_length_b   8.35894112
_cell_length_c   8.35894000
_cell_angle_alpha   60.00000445
_cell_angle_beta   60.00000210
_cell_angle_gamma   59.99999918
_symmetry_Int_Tables_number   1
_chemical_formula_structural   Tm6Nb(Fe3Co8)2
_chemical_formula_sum   'Tm6 Nb1 Fe6 Co16'
_cell_volume   412.98923420
_cell_formula_units_Z   1
loop_
 _symmetry_equiv_pos_site_id
 _symmetry_equiv_pos_as_xyz
  1  'x, y, z'
loop_
 _atom_site_type_symbol
 _atom_site_label
 _atom_site_symmetry_multiplicity
 _atom_site_fract_x
 _atom_site_fract_y
 _atom_site_fract_z
 _atom_site_occupancy
  Tm  Tm0  1  0.711950  0.288050  0.288050  1
  Tm  Tm1  1  0.288050  0.711950  0.711950  1
  Tm  Tm2  1  0.288050  0.711950  0.288050  1
  Tm  Tm3  1  0.288050  0.288050  0.711950  1
  Tm  Tm4  1  0.711950  0.288050  0.711950  1
  Tm  Tm5  1  0.711950  0.711950  0.288050  1
  Nb  Nb6  1  0.000000  0.000000  0.000000  1
  Fe  Fe7  1  0.500000  0.000000  0.000000  1
  Fe  Fe8  1  0.000000  0.500000  0.500000  1
  Fe  Fe9  1  0.000000  0.500000  0.000000  1
  Fe  Fe10  1  0.000000  0.000000  0.500000  1
  Fe  Fe11  1  0.500000  0.000000  0.500000  1
  Fe  Fe12  1  0.500000  0.500000  0.000000  1
  Co  Co13  1  0.323725  0.323725  0.323725  1
  Co  Co14  1  0.323725  0.323725  0.028827  1
  Co  Co15  1  0.028827  0.323725  0.323725  1
  Co  Co16  1  0.323725  0.028827  0.323725  1
  Co  Co17  1  0.676275  0.676275  0.676275  1
  Co  Co18  1  0.676275  0.676275  0.971173  1
  Co  Co19  1  0.676275  0.971173  0.676275  1
  Co  Co20  1  0.971173  0.676275  0.676275  1
  Co  Co21  1  0.124923  0.124923  0.124923  1
  Co  Co22  1  0.124923  0.124923  0.625231  1
  Co  Co23  1  0.625231  0.124923  0.124923  1
  Co  Co24  1  0.124923  0.625231  0.124923  1
  Co  Co25  1  0.875077  0.875077  0.875077  1
  Co  Co26  1  0.875077  0.875077  0.374769  1
  Co  Co27  1  0.875077  0.374769  0.875077  1
  Co  Co28  1  0.374769  0.875077  0.875077  1
