# generated using pymatgen
data_Y4MnRe2Os5
_symmetry_space_group_name_H-M   'P 1'
_cell_length_a   5.34250432
_cell_length_b   5.27108193
_cell_length_c   8.98211300
_cell_angle_alpha   90.00000000
_cell_angle_beta   90.00000000
_cell_angle_gamma   119.45868399
_symmetry_Int_Tables_number   1
_chemical_formula_structural   Y4MnRe2Os5
_chemical_formula_sum   'Y4 Mn1 Re2 Os5'
_cell_volume   220.24039269
_cell_formula_units_Z   1
loop_
 _symmetry_equiv_pos_site_id
 _symmetry_equiv_pos_as_xyz
  1  'x, y, z'
loop_
 _atom_site_type_symbol
 _atom_site_label
 _atom_site_symmetry_multiplicity
 _atom_site_fract_x
 _atom_site_fract_y
 _atom_site_fract_z
 _atom_site_occupancy
  Y  Y0  1  0.329825  0.667620  0.437965  1
  Y  Y1  1  0.665825  0.331436  0.564781  1
  Y  Y2  1  0.665825  0.331436  0.935219  1
  Y  Y3  1  0.329825  0.667620  0.062035  1
  Mn  Mn4  1  0.169001  0.830819  0.750000  1
  Re  Re5  1  0.840043  0.166721  0.250000  1
  Re  Re6  1  0.834361  0.662544  0.250000  1
  Os  Os7  1  0.986589  0.997982  0.504709  1
  Os  Os8  1  0.986589  0.997982  0.995291  1
  Os  Os9  1  0.353306  0.178053  0.250000  1
  Os  Os10  1  0.179063  0.343622  0.750000  1
  Os  Os11  1  0.659751  0.824167  0.750000  1
