# generated using pymatgen
data_YbPa(ZnRh)2
_symmetry_space_group_name_H-M   'P 1'
_cell_length_a   3.80531000
_cell_length_b   7.15378065
_cell_length_c   8.42911012
_cell_angle_alpha   90.84460202
_cell_angle_beta   90.00000000
_cell_angle_gamma   90.00000000
_symmetry_Int_Tables_number   1
_chemical_formula_structural   YbPa(ZnRh)2
_chemical_formula_sum   'Yb2 Pa2 Zn4 Rh4'
_cell_volume   229.43528103
_cell_formula_units_Z   2
loop_
 _symmetry_equiv_pos_site_id
 _symmetry_equiv_pos_as_xyz
  1  'x, y, z'
loop_
 _atom_site_type_symbol
 _atom_site_label
 _atom_site_symmetry_multiplicity
 _atom_site_fract_x
 _atom_site_fract_y
 _atom_site_fract_z
 _atom_site_occupancy
  Yb  Yb0  1  0.750000  0.950203  0.684360  1
  Yb  Yb1  1  0.250000  0.049797  0.315640  1
  Pa  Pa2  1  0.250000  0.545670  0.190425  1
  Pa  Pa3  1  0.750000  0.454330  0.809575  1
  Zn  Zn4  1  0.250000  0.638199  0.557283  1
  Zn  Zn5  1  0.750000  0.361801  0.442717  1
  Zn  Zn6  1  0.750000  0.886318  0.062536  1
  Zn  Zn7  1  0.250000  0.113682  0.937464  1
  Rh  Rh8  1  0.250000  0.717872  0.880629  1
  Rh  Rh9  1  0.750000  0.282128  0.119371  1
  Rh  Rh10  1  0.750000  0.735152  0.349531  1
  Rh  Rh11  1  0.250000  0.264848  0.650469  1
