# generated using pymatgen
data_Lu5ZrBiO12
_symmetry_space_group_name_H-M   'P 1'
_cell_length_a   6.40910149
_cell_length_b   6.42572318
_cell_length_c   6.39397872
_cell_angle_alpha   99.07477703
_cell_angle_beta   99.46804015
_cell_angle_gamma   99.20169455
_symmetry_Int_Tables_number   1
_chemical_formula_structural   Lu5ZrBiO12
_chemical_formula_sum   'Lu5 Zr1 Bi1 O12'
_cell_volume   251.77333212
_cell_formula_units_Z   1
loop_
 _symmetry_equiv_pos_site_id
 _symmetry_equiv_pos_as_xyz
  1  'x, y, z'
loop_
 _atom_site_type_symbol
 _atom_site_label
 _atom_site_symmetry_multiplicity
 _atom_site_fract_x
 _atom_site_fract_y
 _atom_site_fract_z
 _atom_site_occupancy
  Lu  Lu0  1  0.855377  0.392025  0.682692  1
  Lu  Lu1  1  0.685328  0.857834  0.391133  1
  Lu  Lu2  1  0.607450  0.319955  0.146802  1
  Lu  Lu3  1  0.139204  0.607718  0.316282  1
  Lu  Lu4  1  0.315570  0.141293  0.607455  1
  Zr  Zr5  1  0.390199  0.678849  0.855357  1
  Bi  Bi6  1  0.001500  0.001157  0.998189  1
  O  O7  1  0.182398  0.431544  0.592549  1
  O  O8  1  0.581331  0.176564  0.427611  1
  O  O9  1  0.422966  0.589136  0.172952  1
  O  O10  1  0.820599  0.572905  0.416215  1
  O  O11  1  0.418441  0.817466  0.583737  1
  O  O12  1  0.570913  0.430048  0.822851  1
  O  O13  1  0.922646  0.054525  0.679014  1
  O  O14  1  0.942765  0.318236  0.080343  1
  O  O15  1  0.323052  0.076718  0.946779  1
  O  O16  1  0.077402  0.945921  0.319154  1
  O  O17  1  0.064759  0.680672  0.917578  1
  O  O18  1  0.678100  0.907435  0.043305  1
