# generated using pymatgen
data_HfZr7In4CoCu7
_symmetry_space_group_name_H-M   'P 1'
_cell_length_a   7.22993600
_cell_length_b   7.23742569
_cell_length_c   6.84640672
_cell_angle_alpha   89.89986450
_cell_angle_beta   90.09049099
_cell_angle_gamma   89.92308423
_symmetry_Int_Tables_number   1
_chemical_formula_structural   HfZr7In4CoCu7
_chemical_formula_sum   'Hf1 Zr7 In4 Co1 Cu7'
_cell_volume   358.24461265
_cell_formula_units_Z   1
loop_
 _symmetry_equiv_pos_site_id
 _symmetry_equiv_pos_as_xyz
  1  'x, y, z'
loop_
 _atom_site_type_symbol
 _atom_site_label
 _atom_site_symmetry_multiplicity
 _atom_site_fract_x
 _atom_site_fract_y
 _atom_site_fract_z
 _atom_site_occupancy
  Hf  Hf0  1  0.180563  0.192403  0.506217  1
  Zr  Zr1  1  0.144786  0.154832  0.990924  1
  Zr  Zr2  1  0.845618  0.854576  0.992149  1
  Zr  Zr3  1  0.659507  0.339414  0.506855  1
  Zr  Zr4  1  0.350353  0.647837  0.497493  1
  Zr  Zr5  1  0.697495  0.301853  0.993262  1
  Zr  Zr6  1  0.307470  0.692084  0.000258  1
  Zr  Zr7  1  0.808009  0.818048  0.505071  1
  In  In8  1  0.495332  0.000450  0.250581  1
  In  In9  1  0.497948  0.998140  0.746526  1
  In  In10  1  0.999272  0.504470  0.250426  1
  In  In11  1  0.001185  0.502589  0.746573  1
  Co  Co12  1  0.878218  0.124340  0.719476  1
  Cu  Cu13  1  0.377176  0.372728  0.206778  1
  Cu  Cu14  1  0.623442  0.621072  0.796837  1
  Cu  Cu15  1  0.625540  0.620625  0.204533  1
  Cu  Cu16  1  0.878873  0.123829  0.295285  1
  Cu  Cu17  1  0.377705  0.375580  0.794728  1
  Cu  Cu18  1  0.124167  0.879412  0.295554  1
  Cu  Cu19  1  0.127340  0.875718  0.700471  1
