# generated using pymatgen
data_Pr4V2RuPtF28
_symmetry_space_group_name_H-M   'P 1'
_cell_length_a   5.69179714
_cell_length_b   9.24109943
_cell_length_c   12.25668304
_cell_angle_alpha   62.08515313
_cell_angle_beta   89.93576187
_cell_angle_gamma   89.70348849
_symmetry_Int_Tables_number   1
_chemical_formula_structural   Pr4V2RuPtF28
_chemical_formula_sum   'Pr4 V2 Ru1 Pt1 F28'
_cell_volume   569.66197109
_cell_formula_units_Z   1
loop_
 _symmetry_equiv_pos_site_id
 _symmetry_equiv_pos_as_xyz
  1  'x, y, z'
loop_
 _atom_site_type_symbol
 _atom_site_label
 _atom_site_symmetry_multiplicity
 _atom_site_fract_x
 _atom_site_fract_y
 _atom_site_fract_z
 _atom_site_occupancy
  Pr  Pr0  1  0.759483  0.809491  0.766196  1
  Pr  Pr1  1  0.258455  0.190637  0.733846  1
  Pr  Pr2  1  0.239015  0.189439  0.234049  1
  Pr  Pr3  1  0.742494  0.804907  0.269189  1
  V  V4  1  0.255901  0.724181  0.545132  1
  V  V5  1  0.246424  0.725523  0.043714  1
  Ru  Ru6  1  0.752677  0.274317  0.957328  1
  Pt  Pt7  1  0.743915  0.271896  0.457484  1
  F  F8  1  0.448094  0.712012  0.925405  1
  F  F9  1  0.928681  0.296830  0.583100  1
  F  F10  1  0.552798  0.294152  0.080156  1
  F  F11  1  0.055907  0.710860  0.426400  1
  F  F12  1  0.448605  0.286025  0.536235  1
  F  F13  1  0.976193  0.714037  0.955007  1
  F  F14  1  0.527820  0.713974  0.457095  1
  F  F15  1  0.037680  0.289157  0.043331  1
  F  F16  1  0.756436  0.507705  0.862169  1
  F  F17  1  0.265424  0.497980  0.633804  1
  F  F18  1  0.238282  0.500310  0.135804  1
  F  F19  1  0.739759  0.511515  0.359030  1
  F  F20  1  0.760130  0.041339  0.048244  1
  F  F21  1  0.260003  0.948597  0.454296  1
  F  F22  1  0.238677  0.950356  0.951617  1
  F  F23  1  0.738943  0.031577  0.549123  1
  F  F24  1  0.991485  0.728718  0.637830  1
  F  F25  1  0.471635  0.266621  0.867191  1
  F  F26  1  0.035947  0.265986  0.373333  1
  F  F27  1  0.510391  0.734771  0.134388  1
  F  F28  1  0.046752  0.746102  0.161267  1
  F  F29  1  0.561657  0.254424  0.327854  1
  F  F30  1  0.950732  0.257138  0.832008  1
  F  F31  1  0.453733  0.740746  0.664404  1
  F  F32  1  0.411647  0.970781  0.228776  1
  F  F33  1  0.909905  0.030866  0.269723  1
  F  F34  1  0.593005  0.035036  0.768387  1
  F  F35  1  0.091316  0.971995  0.727084  1
