# generated using pymatgen
data_Y11Er5Cd2In2IrPd3
_symmetry_space_group_name_H-M   'P 1'
_cell_length_a   9.68161677
_cell_length_b   9.66595972
_cell_length_c   9.66596100
_cell_angle_alpha   59.85884534
_cell_angle_beta   60.15683107
_cell_angle_gamma   60.15683953
_symmetry_Int_Tables_number   1
_chemical_formula_structural   Y11Er5Cd2In2IrPd3
_chemical_formula_sum   'Y11 Er5 Cd2 In2 Ir1 Pd3'
_cell_volume   640.44341054
_cell_formula_units_Z   1
loop_
 _symmetry_equiv_pos_site_id
 _symmetry_equiv_pos_as_xyz
  1  'x, y, z'
loop_
 _atom_site_type_symbol
 _atom_site_label
 _atom_site_symmetry_multiplicity
 _atom_site_fract_x
 _atom_site_fract_y
 _atom_site_fract_z
 _atom_site_occupancy
  Y  Y0  1  0.191087  0.809385  0.809116  1
  Y  Y1  1  0.191960  0.809369  0.190447  1
  Y  Y2  1  0.807105  0.189239  0.814454  1
  Y  Y3  1  0.191585  0.190076  0.809738  1
  Y  Y4  1  0.806724  0.814281  0.189621  1
  Y  Y5  1  0.936836  0.564898  0.564395  1
  Y  Y6  1  0.564831  0.937928  0.936325  1
  Y  Y7  1  0.567434  0.936957  0.560769  1
  Y  Y8  1  0.937253  0.562360  0.935711  1
  Y  Y9  1  0.566958  0.560828  0.936320  1
  Y  Y10  1  0.936884  0.936692  0.561984  1
  Er  Er11  1  0.354720  0.347587  0.347695  1
  Er  Er12  1  0.357959  0.349721  0.944637  1
  Er  Er13  1  0.357816  0.944847  0.349751  1
  Er  Er14  1  0.934811  0.356377  0.356465  1
  Er  Er15  1  0.806187  0.189970  0.189985  1
  Cd  Cd16  1  0.580341  0.252651  0.582679  1
  Cd  Cd17  1  0.253628  0.580906  0.581732  1
  In  In18  1  0.581185  0.582194  0.583169  1
  In  In19  1  0.580247  0.582124  0.253289  1
  Ir  Ir20  1  0.569887  0.143925  0.144046  1
  Pd  Pd21  1  0.140517  0.148041  0.147761  1
  Pd  Pd22  1  0.141883  0.145174  0.564783  1
  Pd  Pd23  1  0.142159  0.564469  0.145128  1
