# generated using pymatgen
data_TaNbAlB2Ru5
_symmetry_space_group_name_H-M   'P 1'
_cell_length_a   9.30094693
_cell_length_b   9.30094693
_cell_length_c   3.00161500
_cell_angle_alpha   90.00000000
_cell_angle_beta   90.00000000
_cell_angle_gamma   90.10532727
_symmetry_Int_Tables_number   1
_chemical_formula_structural   TaNbAlB2Ru5
_chemical_formula_sum   'Ta2 Nb2 Al2 B4 Ru10'
_cell_volume   259.66211237
_cell_formula_units_Z   2
loop_
 _symmetry_equiv_pos_site_id
 _symmetry_equiv_pos_as_xyz
  1  'x, y, z'
loop_
 _atom_site_type_symbol
 _atom_site_label
 _atom_site_symmetry_multiplicity
 _atom_site_fract_x
 _atom_site_fract_y
 _atom_site_fract_z
 _atom_site_occupancy
  Ta  Ta0  1  0.323200  0.823200  0.000000  1
  Ta  Ta1  1  0.676800  0.176800  0.000000  1
  Nb  Nb2  1  0.823158  0.676842  0.000000  1
  Nb  Nb3  1  0.176842  0.323158  0.000000  1
  Al  Al4  1  0.500000  0.500000  0.000000  1
  Al  Al5  1  0.000000  0.000000  0.000000  1
  B  B6  1  0.624787  0.875213  0.000000  1
  B  B7  1  0.375213  0.124787  0.000000  1
  B  B8  1  0.124930  0.624930  0.000000  1
  B  B9  1  0.875070  0.375070  0.000000  1
  Ru  Ru10  1  0.567903  0.714884  0.500000  1
  Ru  Ru11  1  0.432097  0.285116  0.500000  1
  Ru  Ru12  1  0.069230  0.785472  0.500000  1
  Ru  Ru13  1  0.930770  0.214528  0.500000  1
  Ru  Ru14  1  0.285472  0.569230  0.500000  1
  Ru  Ru15  1  0.714528  0.430770  0.500000  1
  Ru  Ru16  1  0.214884  0.067903  0.500000  1
  Ru  Ru17  1  0.785116  0.932097  0.500000  1
  Ru  Ru18  1  0.500000  0.000000  0.500000  1
  Ru  Ru19  1  0.000000  0.500000  0.500000  1
