# generated using pymatgen
data_Mg3Sc(AlPt5)2
_symmetry_space_group_name_H-M   'P 1'
_cell_length_a   4.09189100
_cell_length_b   5.55162875
_cell_length_c   10.96378541
_cell_angle_alpha   90.15003838
_cell_angle_beta   90.00000000
_cell_angle_gamma   90.00000000
_symmetry_Int_Tables_number   1
_chemical_formula_structural   Mg3Sc(AlPt5)2
_chemical_formula_sum   'Mg3 Sc1 Al2 Pt10'
_cell_volume   249.05972854
_cell_formula_units_Z   1
loop_
 _symmetry_equiv_pos_site_id
 _symmetry_equiv_pos_as_xyz
  1  'x, y, z'
loop_
 _atom_site_type_symbol
 _atom_site_label
 _atom_site_symmetry_multiplicity
 _atom_site_fract_x
 _atom_site_fract_y
 _atom_site_fract_z
 _atom_site_occupancy
  Mg  Mg0  1  0.500000  0.186986  0.639785  1
  Mg  Mg1  1  0.500000  0.812506  0.362741  1
  Mg  Mg2  1  0.500000  0.688658  0.858038  1
  Sc  Sc3  1  0.500000  0.311719  0.140092  1
  Al  Al4  1  0.000000  0.500297  0.501255  1
  Al  Al5  1  0.000000  0.997197  0.997318  1
  Pt  Pt6  1  0.500000  0.304747  0.394493  1
  Pt  Pt7  1  0.500000  0.696007  0.606995  1
  Pt  Pt8  1  0.500000  0.805201  0.106303  1
  Pt  Pt9  1  0.500000  0.197835  0.892529  1
  Pt  Pt10  1  0.000000  0.441786  0.740142  1
  Pt  Pt11  1  0.000000  0.556743  0.259058  1
  Pt  Pt12  1  0.000000  0.942714  0.759291  1
  Pt  Pt13  1  0.000000  0.055981  0.242952  1
  Pt  Pt14  1  0.000000  0.502052  0.998241  1
  Pt  Pt15  1  0.000000  0.999570  0.500764  1
