# generated using pymatgen
data_ScAl2(Ni10B3)2
_symmetry_space_group_name_H-M   'P 1'
_cell_length_a   7.44900426
_cell_length_b   7.44900480
_cell_length_c   7.44900400
_cell_angle_alpha   60.00000353
_cell_angle_beta   60.00000117
_cell_angle_gamma   59.99999802
_symmetry_Int_Tables_number   1
_chemical_formula_structural   ScAl2(Ni10B3)2
_chemical_formula_sum   'Sc1 Al2 Ni20 B6'
_cell_volume   292.26694176
_cell_formula_units_Z   1
loop_
 _symmetry_equiv_pos_site_id
 _symmetry_equiv_pos_as_xyz
  1  'x, y, z'
loop_
 _atom_site_type_symbol
 _atom_site_label
 _atom_site_symmetry_multiplicity
 _atom_site_fract_x
 _atom_site_fract_y
 _atom_site_fract_z
 _atom_site_occupancy
  Sc  Sc0  1  0.750000  0.750000  0.750000  1
  Al  Al1  1  0.000000  0.000000  0.000000  1
  Al  Al2  1  0.250000  0.250000  0.250000  1
  Ni  Ni3  1  0.000427  0.338104  0.661041  1
  Ni  Ni4  1  0.000427  0.000427  0.661041  1
  Ni  Ni5  1  0.661041  0.338104  0.000427  1
  Ni  Ni6  1  0.000427  0.338104  0.000427  1
  Ni  Ni7  1  0.338104  0.000427  0.661041  1
  Ni  Ni8  1  0.338104  0.000427  0.000427  1
  Ni  Ni9  1  0.661041  0.000427  0.000427  1
  Ni  Ni10  1  0.338104  0.661041  0.000427  1
  Ni  Ni11  1  0.661041  0.000427  0.338104  1
  Ni  Ni12  1  0.000427  0.000427  0.338104  1
  Ni  Ni13  1  0.000427  0.661041  0.000427  1
  Ni  Ni14  1  0.000427  0.661041  0.338104  1
  Ni  Ni15  1  0.612239  0.163282  0.612239  1
  Ni  Ni16  1  0.380814  0.380814  0.857560  1
  Ni  Ni17  1  0.857560  0.380814  0.380814  1
  Ni  Ni18  1  0.380814  0.380814  0.380814  1
  Ni  Ni19  1  0.163282  0.612239  0.612239  1
  Ni  Ni20  1  0.612239  0.612239  0.612239  1
  Ni  Ni21  1  0.612239  0.612239  0.163282  1
  Ni  Ni22  1  0.380814  0.857560  0.380814  1
  B  B23  1  0.727894  0.272106  0.727894  1
  B  B24  1  0.727894  0.272106  0.272106  1
  B  B25  1  0.272106  0.727894  0.727894  1
  B  B26  1  0.272106  0.272106  0.727894  1
  B  B27  1  0.727894  0.727894  0.272106  1
  B  B28  1  0.272106  0.727894  0.272106  1
