# generated using pymatgen
data_Ag7Os(SO4)6
_symmetry_space_group_name_H-M   'P 1'
_cell_length_a   8.75640030
_cell_length_b   8.75640012
_cell_length_c   8.75639948
_cell_angle_alpha   108.29712920
_cell_angle_beta   108.29713248
_cell_angle_gamma   108.29714372
_symmetry_Int_Tables_number   1
_chemical_formula_structural   Ag7Os(SO4)6
_chemical_formula_sum   'Ag7 Os1 S6 O24'
_cell_volume   538.13302262
_cell_formula_units_Z   1
loop_
 _symmetry_equiv_pos_site_id
 _symmetry_equiv_pos_as_xyz
  1  'x, y, z'
loop_
 _atom_site_type_symbol
 _atom_site_label
 _atom_site_symmetry_multiplicity
 _atom_site_fract_x
 _atom_site_fract_y
 _atom_site_fract_z
 _atom_site_occupancy
  Ag  Ag0  1  0.500000  0.500000  0.500000  1
  Ag  Ag1  1  0.836034  0.338226  0.679124  1
  Ag  Ag2  1  0.338226  0.679124  0.836034  1
  Ag  Ag3  1  0.679124  0.836034  0.338226  1
  Ag  Ag4  1  0.163966  0.661774  0.320876  1
  Ag  Ag5  1  0.661774  0.320876  0.163966  1
  Ag  Ag6  1  0.320876  0.163966  0.661774  1
  Os  Os7  1  0.000000  0.000000  0.000000  1
  S  S8  1  0.969880  0.751144  0.609406  1
  S  S9  1  0.751144  0.609406  0.969880  1
  S  S10  1  0.609406  0.969880  0.751144  1
  S  S11  1  0.030120  0.248856  0.390594  1
  S  S12  1  0.248856  0.390594  0.030120  1
  S  S13  1  0.390594  0.030120  0.248856  1
  O  O14  1  0.455204  0.906076  0.167136  1
  O  O15  1  0.906076  0.167136  0.455204  1
  O  O16  1  0.167136  0.455204  0.906076  1
  O  O17  1  0.544796  0.093924  0.832864  1
  O  O18  1  0.093924  0.832864  0.544796  1
  O  O19  1  0.832864  0.544796  0.093924  1
  O  O20  1  0.307114  0.976973  0.357503  1
  O  O21  1  0.976973  0.357503  0.307114  1
  O  O22  1  0.357503  0.307114  0.976973  1
  O  O23  1  0.692886  0.023027  0.642497  1
  O  O24  1  0.023027  0.642497  0.692886  1
  O  O25  1  0.642497  0.692886  0.023027  1
  O  O26  1  0.753127  0.977891  0.918645  1
  O  O27  1  0.977891  0.918645  0.753127  1
  O  O28  1  0.649306  0.465775  0.778461  1
  O  O29  1  0.778461  0.649306  0.465775  1
  O  O30  1  0.465775  0.778461  0.649306  1
  O  O31  1  0.350694  0.534225  0.221539  1
  O  O32  1  0.221539  0.350694  0.534225  1
  O  O33  1  0.534225  0.221539  0.350694  1
  O  O34  1  0.081355  0.246873  0.022109  1
  O  O35  1  0.022109  0.081355  0.246873  1
  O  O36  1  0.246873  0.022109  0.081355  1
  O  O37  1  0.918645  0.753127  0.977891  1
