# generated using pymatgen
data_K8La2PrNdI20
_symmetry_space_group_name_H-M   'P 1'
_cell_length_a   9.36438551
_cell_length_b   9.95942000
_cell_length_c   14.79706700
_cell_angle_alpha   90.00000000
_cell_angle_beta   89.79861260
_cell_angle_gamma   90.00000000
_symmetry_Int_Tables_number   1
_chemical_formula_structural   K8La2PrNdI20
_chemical_formula_sum   'K8 La2 Pr1 Nd1 I20'
_cell_volume   1380.02288789
_cell_formula_units_Z   1
loop_
 _symmetry_equiv_pos_site_id
 _symmetry_equiv_pos_as_xyz
  1  'x, y, z'
loop_
 _atom_site_type_symbol
 _atom_site_label
 _atom_site_symmetry_multiplicity
 _atom_site_fract_x
 _atom_site_fract_y
 _atom_site_fract_z
 _atom_site_occupancy
  K  K0  1  0.947232  0.003414  0.827669  1
  K  K1  1  0.052740  0.996584  0.172332  1
  K  K2  1  0.447510  0.996677  0.673036  1
  K  K3  1  0.052740  0.503416  0.172332  1
  K  K4  1  0.552483  0.003322  0.326964  1
  K  K5  1  0.947232  0.496586  0.827669  1
  K  K6  1  0.552483  0.496678  0.326964  1
  K  K7  1  0.447510  0.503323  0.673036  1
  La  La8  1  0.921280  0.750000  0.505473  1
  La  La9  1  0.078710  0.250000  0.494523  1
  Pr  Pr10  1  0.420404  0.250000  0.994474  1
  Nd  Nd11  1  0.579397  0.750000  0.005380  1
  I  I12  1  0.129655  0.750000  0.681039  1
  I  I13  1  0.870347  0.250000  0.318959  1
  I  I14  1  0.627737  0.250000  0.820748  1
  I  I15  1  0.373027  0.750000  0.178658  1
  I  I16  1  0.832154  0.046095  0.579106  1
  I  I17  1  0.167853  0.953904  0.420894  1
  I  I18  1  0.335305  0.954121  0.923343  1
  I  I19  1  0.167853  0.546096  0.420894  1
  I  I20  1  0.665051  0.044435  0.076653  1
  I  I21  1  0.832154  0.453905  0.579106  1
  I  I22  1  0.665051  0.455565  0.076653  1
  I  I23  1  0.335305  0.545879  0.923343  1
  I  I24  1  0.569136  0.750000  0.507447  1
  I  I25  1  0.430865  0.250000  0.492561  1
  I  I26  1  0.072946  0.250000  0.992194  1
  I  I27  1  0.926088  0.750000  0.007798  1
  I  I28  1  0.663025  0.750000  0.795702  1
  I  I29  1  0.336714  0.250000  0.205037  1
  I  I30  1  0.164397  0.250000  0.706589  1
  I  I31  1  0.835615  0.750000  0.293423  1
