# generated using pymatgen
data_Sr6ScBi(BO3)6
_symmetry_space_group_name_H-M   'P 1'
_cell_length_a   7.85610169
_cell_length_b   7.85610230
_cell_length_c   7.85610258
_cell_angle_alpha   105.15058990
_cell_angle_beta   105.15059394
_cell_angle_gamma   105.15058851
_symmetry_Int_Tables_number   1
_chemical_formula_structural   Sr6ScBi(BO3)6
_chemical_formula_sum   'Sr6 Sc1 Bi1 B6 O18'
_cell_volume   422.52148744
_cell_formula_units_Z   1
loop_
 _symmetry_equiv_pos_site_id
 _symmetry_equiv_pos_as_xyz
  1  'x, y, z'
loop_
 _atom_site_type_symbol
 _atom_site_label
 _atom_site_symmetry_multiplicity
 _atom_site_fract_x
 _atom_site_fract_y
 _atom_site_fract_z
 _atom_site_occupancy
  Sr  Sr0  1  0.647113  0.265756  0.157785  1
  Sr  Sr1  1  0.157785  0.647113  0.265755  1
  Sr  Sr2  1  0.734244  0.842215  0.352887  1
  Sr  Sr3  1  0.265756  0.157785  0.647113  1
  Sr  Sr4  1  0.842215  0.352887  0.734244  1
  Sr  Sr5  1  0.352887  0.734244  0.842215  1
  Sc  Sc6  1  0.500000  0.500000  0.500000  1
  Bi  Bi7  1  0.000000  0.000000  0.000000  1
  B  B8  1  0.297438  0.382728  0.043653  1
  B  B9  1  0.382728  0.043654  0.297438  1
  B  B10  1  0.043654  0.297438  0.382728  1
  B  B11  1  0.956346  0.702562  0.617272  1
  B  B12  1  0.617272  0.956346  0.702562  1
  B  B13  1  0.702562  0.617272  0.956346  1
  O  O14  1  0.718895  0.807389  0.018241  1
  O  O15  1  0.807758  0.546538  0.067992  1
  O  O16  1  0.981759  0.281105  0.192611  1
  O  O17  1  0.453461  0.932007  0.192242  1
  O  O18  1  0.430894  0.499568  0.221327  1
  O  O19  1  0.192611  0.981759  0.281105  1
  O  O20  1  0.499568  0.221327  0.430893  1
  O  O21  1  0.932007  0.192243  0.453461  1
  O  O22  1  0.221327  0.430894  0.499568  1
  O  O23  1  0.778673  0.569106  0.500432  1
  O  O24  1  0.067993  0.807757  0.546539  1
  O  O25  1  0.500432  0.778673  0.569107  1
  O  O26  1  0.807389  0.018241  0.718895  1
  O  O27  1  0.569106  0.500432  0.778673  1
  O  O28  1  0.546539  0.067993  0.807758  1
  O  O29  1  0.018241  0.718895  0.807389  1
  O  O30  1  0.192242  0.453462  0.932008  1
  O  O31  1  0.281105  0.192611  0.981759  1
