# generated using pymatgen
data_Tb7Dy(CuSe2)8
_symmetry_space_group_name_H-M   'P 1'
_cell_length_a   8.20541536
_cell_length_b   9.57779519
_cell_length_c   12.93873284
_cell_angle_alpha   47.89242755
_cell_angle_beta   89.88463763
_cell_angle_gamma   89.91809651
_symmetry_Int_Tables_number   1
_chemical_formula_structural   Tb7Dy(CuSe2)8
_chemical_formula_sum   'Tb7 Dy1 Cu8 Se16'
_cell_volume   754.38817749
_cell_formula_units_Z   1
loop_
 _symmetry_equiv_pos_site_id
 _symmetry_equiv_pos_as_xyz
  1  'x, y, z'
loop_
 _atom_site_type_symbol
 _atom_site_label
 _atom_site_symmetry_multiplicity
 _atom_site_fract_x
 _atom_site_fract_y
 _atom_site_fract_z
 _atom_site_occupancy
  Tb  Tb0  1  0.497544  0.996911  0.754513  1
  Tb  Tb1  1  0.744942  0.502600  0.000747  1
  Tb  Tb2  1  0.754746  0.503295  0.501036  1
  Tb  Tb3  1  0.997508  0.003077  0.745792  1
  Tb  Tb4  1  0.002352  0.997508  0.254339  1
  Tb  Tb5  1  0.245832  0.497466  0.498971  1
  Tb  Tb6  1  0.254198  0.496490  0.998762  1
  Dy  Dy7  1  0.502534  0.002944  0.245601  1
  Cu  Cu8  1  0.497873  0.667214  0.098767  1
  Cu  Cu9  1  0.750606  0.170994  0.345686  1
  Cu  Cu10  1  0.999086  0.331480  0.402206  1
  Cu  Cu11  1  0.252163  0.828111  0.154333  1
  Cu  Cu12  1  0.748513  0.170050  0.846181  1
  Cu  Cu13  1  0.001310  0.670357  0.596798  1
  Cu  Cu14  1  0.248886  0.830158  0.653708  1
  Cu  Cu15  1  0.502226  0.331197  0.902118  1
  Se  Se16  1  0.499287  0.333036  0.213695  1
  Se  Se17  1  0.747539  0.836709  0.961204  1
  Se  Se18  1  0.248542  0.163048  0.539042  1
  Se  Se19  1  0.999664  0.336885  0.206733  1
  Se  Se20  1  0.501316  0.664771  0.292883  1
  Se  Se21  1  0.246464  0.829589  0.960741  1
  Se  Se22  1  0.747245  0.169870  0.539450  1
  Se  Se23  1  0.000861  0.666056  0.286730  1
  Se  Se24  1  0.999445  0.334775  0.713297  1
  Se  Se25  1  0.253491  0.831569  0.459828  1
  Se  Se26  1  0.752872  0.168318  0.040256  1
  Se  Se27  1  0.499495  0.335989  0.707223  1
  Se  Se28  1  0.999676  0.664282  0.792487  1
  Se  Se29  1  0.750829  0.837955  0.460857  1
  Se  Se30  1  0.253184  0.161422  0.039771  1
  Se  Se31  1  0.499766  0.665872  0.786247  1
