# generated using pymatgen
data_Tm3MnFe4(Co2P3)2
_symmetry_space_group_name_H-M   'P 1'
_cell_length_a   3.68481300
_cell_length_b   10.53885601
_cell_length_c   12.06903075
_cell_angle_alpha   90.15138477
_cell_angle_beta   90.00000000
_cell_angle_gamma   90.00000000
_symmetry_Int_Tables_number   1
_chemical_formula_structural   Tm3MnFe4(Co2P3)2
_chemical_formula_sum   'Tm6 Mn2 Fe8 Co8 P12'
_cell_volume   468.68364790
_cell_formula_units_Z   2
loop_
 _symmetry_equiv_pos_site_id
 _symmetry_equiv_pos_as_xyz
  1  'x, y, z'
loop_
 _atom_site_type_symbol
 _atom_site_label
 _atom_site_symmetry_multiplicity
 _atom_site_fract_x
 _atom_site_fract_y
 _atom_site_fract_z
 _atom_site_occupancy
  Tm  Tm0  1  0.000000  0.499787  0.524708  1
  Tm  Tm1  1  0.500000  0.998882  0.474889  1
  Tm  Tm2  1  0.500000  0.820882  0.205006  1
  Tm  Tm3  1  0.500000  0.179890  0.205792  1
  Tm  Tm4  1  0.000000  0.678226  0.795322  1
  Tm  Tm5  1  0.000000  0.320983  0.794897  1
  Mn  Mn6  1  0.500000  0.499915  0.153943  1
  Mn  Mn7  1  0.000000  0.000079  0.844728  1
  Fe  Fe8  1  0.000000  0.499614  0.989150  1
  Fe  Fe9  1  0.500000  0.331699  0.996090  1
  Fe  Fe10  1  0.500000  0.667903  0.995874  1
  Fe  Fe11  1  0.000000  0.166592  0.003955  1
  Fe  Fe12  1  0.000000  0.833431  0.003682  1
  Fe  Fe13  1  0.500000  0.297762  0.429667  1
  Fe  Fe14  1  0.500000  0.703193  0.430266  1
  Fe  Fe15  1  0.000000  0.202342  0.570833  1
  Co  Co16  1  0.500000  0.499678  0.700612  1
  Co  Co17  1  0.000000  0.000650  0.298441  1
  Co  Co18  1  0.500000  0.999986  0.012302  1
  Co  Co19  1  0.000000  0.797827  0.570921  1
  Co  Co20  1  0.500000  0.878966  0.709346  1
  Co  Co21  1  0.500000  0.118946  0.710366  1
  Co  Co22  1  0.000000  0.620950  0.290131  1
  Co  Co23  1  0.000000  0.380698  0.289963  1
  P  P24  1  0.500000  0.499554  0.884571  1
  P  P25  1  0.000000  0.000326  0.115434  1
  P  P26  1  0.500000  0.499964  0.347368  1
  P  P27  1  0.000000  0.002697  0.652917  1
  P  P28  1  0.500000  0.308120  0.614999  1
  P  P29  1  0.500000  0.689487  0.615367  1
  P  P30  1  0.000000  0.192036  0.385214  1
  P  P31  1  0.000000  0.809224  0.383792  1
  P  P32  1  0.500000  0.843898  0.893731  1
  P  P33  1  0.500000  0.155535  0.893902  1
  P  P34  1  0.000000  0.656376  0.105691  1
  P  P35  1  0.000000  0.343902  0.106129  1
