# generated using pymatgen
data_La4TbCdSn2
_symmetry_space_group_name_H-M   'P 1'
_cell_length_a   9.56084306
_cell_length_b   9.56084250
_cell_length_c   9.56084218
_cell_angle_alpha   95.75919489
_cell_angle_beta   95.75918943
_cell_angle_gamma   143.06373800
_symmetry_Int_Tables_number   1
_chemical_formula_structural   La4TbCdSn2
_chemical_formula_sum   'La8 Tb2 Cd2 Sn4'
_cell_volume   498.13495884
_cell_formula_units_Z   2
loop_
 _symmetry_equiv_pos_site_id
 _symmetry_equiv_pos_as_xyz
  1  'x, y, z'
loop_
 _atom_site_type_symbol
 _atom_site_label
 _atom_site_symmetry_multiplicity
 _atom_site_fract_x
 _atom_site_fract_y
 _atom_site_fract_z
 _atom_site_occupancy
  La  La0  1  0.910299  0.226823  0.137122  1
  La  La1  1  0.226823  0.089701  0.316525  1
  La  La2  1  0.773177  0.910299  0.683475  1
  La  La3  1  0.089701  0.773177  0.862878  1
  La  La4  1  0.726823  0.410299  0.137122  1
  La  La5  1  0.273177  0.589701  0.862878  1
  La  La6  1  0.589701  0.726823  0.316525  1
  La  La7  1  0.410299  0.273177  0.683475  1
  Tb  Tb8  1  0.750000  0.250000  0.500000  1
  Tb  Tb9  1  0.250000  0.750000  0.500000  1
  Cd  Cd10  1  0.750000  0.750000  0.000000  1
  Cd  Cd11  1  0.250000  0.250000  0.000000  1
  Sn  Sn12  1  0.845635  0.654365  0.500000  1
  Sn  Sn13  1  0.654365  0.154365  0.808730  1
  Sn  Sn14  1  0.345635  0.845635  0.191270  1
  Sn  Sn15  1  0.154365  0.345635  0.500000  1
