# generated using pymatgen
data_La16Yb4Si15Se
_symmetry_space_group_name_H-M   'P 1'
_cell_length_a   7.95171552
_cell_length_b   7.90918109
_cell_length_c   15.36937900
_cell_angle_alpha   89.74222111
_cell_angle_beta   89.27446990
_cell_angle_gamma   90.00239315
_symmetry_Int_Tables_number   1
_chemical_formula_structural   La16Yb4Si15Se
_chemical_formula_sum   'La16 Yb4 Si15 Se1'
_cell_volume   966.51690750
_cell_formula_units_Z   1
loop_
 _symmetry_equiv_pos_site_id
 _symmetry_equiv_pos_as_xyz
  1  'x, y, z'
loop_
 _atom_site_type_symbol
 _atom_site_label
 _atom_site_symmetry_multiplicity
 _atom_site_fract_x
 _atom_site_fract_y
 _atom_site_fract_z
 _atom_site_occupancy
  La  La0  1  0.380050  0.006820  0.444236  1
  La  La1  1  0.491632  0.877102  0.699145  1
  La  La2  1  0.509843  0.121919  0.197319  1
  La  La3  1  0.875738  0.487647  0.300645  1
  La  La4  1  0.124733  0.510746  0.802895  1
  La  La5  1  0.630456  0.987138  0.950633  1
  La  La6  1  0.999951  0.378252  0.547126  1
  La  La7  1  0.991342  0.622347  0.052647  1
  La  La8  1  0.136706  0.991060  0.872898  1
  La  La9  1  0.516944  0.626668  0.126281  1
  La  La10  1  0.478880  0.371250  0.630978  1
  La  La11  1  0.628874  0.519005  0.875402  1
  La  La12  1  0.372756  0.479950  0.374156  1
  La  La13  1  0.872988  0.017428  0.376868  1
  La  La14  1  0.984504  0.126693  0.124107  1
  La  La15  1  0.013948  0.870766  0.620797  1
  Yb  Yb16  1  0.313578  0.310004  0.000962  1
  Yb  Yb17  1  0.189222  0.808414  0.249706  1
  Yb  Yb18  1  0.803787  0.191497  0.751290  1
  Yb  Yb19  1  0.685462  0.690221  0.498277  1
  Si  Si20  1  0.329950  0.700561  0.952176  1
  Si  Si21  1  0.663400  0.300266  0.455093  1
  Si  Si22  1  0.704345  0.334760  0.048857  1
  Si  Si23  1  0.298981  0.665545  0.547315  1
  Si  Si24  1  0.801708  0.831290  0.203298  1
  Si  Si25  1  0.167130  0.197917  0.296221  1
  Si  Si26  1  0.839344  0.801339  0.796218  1
  Si  Si27  1  0.287163  0.920208  0.058821  1
  Si  Si28  1  0.579152  0.787372  0.309338  1
  Si  Si29  1  0.452636  0.207323  0.823104  1
  Si  Si30  1  0.789233  0.579751  0.689689  1
  Si  Si31  1  0.212271  0.420987  0.190370  1
  Si  Si32  1  0.703027  0.078123  0.561517  1
  Si  Si33  1  0.926128  0.290510  0.940289  1
  Si  Si34  1  0.079584  0.710999  0.439263  1
  Se  Se35  1  0.164554  0.178122  0.692057  1
