# generated using pymatgen
data_Sc8TaRu9
_symmetry_space_group_name_H-M   'P 1'
_cell_length_a   7.82837877
_cell_length_b   7.82837841
_cell_length_c   5.56055100
_cell_angle_alpha   90.03854909
_cell_angle_beta   90.03854909
_cell_angle_gamma   119.98190218
_symmetry_Int_Tables_number   1
_chemical_formula_structural   Sc8TaRu9
_chemical_formula_sum   'Sc8 Ta1 Ru9'
_cell_volume   295.16909244
_cell_formula_units_Z   1
loop_
 _symmetry_equiv_pos_site_id
 _symmetry_equiv_pos_as_xyz
  1  'x, y, z'
loop_
 _atom_site_type_symbol
 _atom_site_label
 _atom_site_symmetry_multiplicity
 _atom_site_fract_x
 _atom_site_fract_y
 _atom_site_fract_z
 _atom_site_occupancy
  Sc  Sc0  1  0.666558  0.001105  0.226059  1
  Sc  Sc1  1  0.332284  0.332283  0.225771  1
  Sc  Sc2  1  0.001105  0.666559  0.226059  1
  Sc  Sc3  1  0.666545  0.332246  0.558147  1
  Sc  Sc4  1  0.332247  0.666546  0.558147  1
  Sc  Sc5  1  0.001243  0.001243  0.558542  1
  Sc  Sc6  1  0.333117  0.000077  0.891957  1
  Sc  Sc7  1  0.000077  0.333116  0.891957  1
  Ta  Ta8  1  0.666875  0.666875  0.892235  1
  Ru  Ru9  1  0.666620  0.341650  0.055138  1
  Ru  Ru10  1  0.341651  0.666621  0.055138  1
  Ru  Ru11  1  0.991744  0.991744  0.055722  1
  Ru  Ru12  1  0.332999  0.000027  0.391966  1
  Ru  Ru13  1  0.000027  0.332998  0.391966  1
  Ru  Ru14  1  0.666884  0.666884  0.392268  1
  Ru  Ru15  1  0.666648  0.991664  0.728990  1
  Ru  Ru16  1  0.341715  0.341715  0.728789  1
  Ru  Ru17  1  0.991664  0.666648  0.728990  1
