# generated using pymatgen
data_Ho3Co8TcAs5P
_symmetry_space_group_name_H-M   'P 1'
_cell_length_a   3.80184900
_cell_length_b   10.90005800
_cell_length_c   12.61409900
_cell_angle_alpha   90.00000000
_cell_angle_beta   90.00000000
_cell_angle_gamma   90.00000000
_symmetry_Int_Tables_number   1
_chemical_formula_structural   Ho3Co8TcAs5P
_chemical_formula_sum   'Ho6 Co16 Tc2 As10 P2'
_cell_volume   522.73298789
_cell_formula_units_Z   2
loop_
 _symmetry_equiv_pos_site_id
 _symmetry_equiv_pos_as_xyz
  1  'x, y, z'
loop_
 _atom_site_type_symbol
 _atom_site_label
 _atom_site_symmetry_multiplicity
 _atom_site_fract_x
 _atom_site_fract_y
 _atom_site_fract_z
 _atom_site_occupancy
  Ho  Ho0  1  0.000000  0.500000  0.525577  1
  Ho  Ho1  1  0.500000  0.000000  0.472207  1
  Ho  Ho2  1  0.500000  0.812132  0.202897  1
  Ho  Ho3  1  0.500000  0.187868  0.202897  1
  Ho  Ho4  1  0.000000  0.681290  0.794578  1
  Ho  Ho5  1  0.000000  0.318710  0.794578  1
  Co  Co6  1  0.000000  0.500000  0.994455  1
  Co  Co7  1  0.500000  0.000000  0.013883  1
  Co  Co8  1  0.500000  0.298895  0.429296  1
  Co  Co9  1  0.500000  0.701105  0.429296  1
  Co  Co10  1  0.000000  0.202478  0.568616  1
  Co  Co11  1  0.000000  0.797522  0.568616  1
  Co  Co12  1  0.500000  0.879086  0.707710  1
  Co  Co13  1  0.500000  0.120914  0.707710  1
  Co  Co14  1  0.000000  0.621120  0.283779  1
  Co  Co15  1  0.000000  0.378880  0.283779  1
  Co  Co16  1  0.500000  0.334574  0.998503  1
  Co  Co17  1  0.500000  0.665426  0.998503  1
  Co  Co18  1  0.000000  0.172410  0.012416  1
  Co  Co19  1  0.000000  0.827590  0.012416  1
  Co  Co20  1  0.500000  0.500000  0.703085  1
  Co  Co21  1  0.000000  0.000000  0.298977  1
  Tc  Tc22  1  0.500000  0.500000  0.152738  1
  Tc  Tc23  1  0.000000  0.000000  0.847112  1
  As  As24  1  0.500000  0.313639  0.616277  1
  As  As25  1  0.500000  0.686361  0.616277  1
  As  As26  1  0.000000  0.187904  0.381530  1
  As  As27  1  0.000000  0.812096  0.381530  1
  As  As28  1  0.500000  0.500000  0.882231  1
  As  As29  1  0.000000  0.000000  0.121002  1
  As  As30  1  0.500000  0.843648  0.892411  1
  As  As31  1  0.500000  0.156352  0.892411  1
  As  As32  1  0.500000  0.500000  0.348952  1
  As  As33  1  0.000000  0.000000  0.649437  1
  P  P34  1  0.000000  0.652720  0.107159  1
  P  P35  1  0.000000  0.347280  0.107159  1
