# generated using pymatgen
data_Li12LaPr11(TeO6)8
_symmetry_space_group_name_H-M   'P 1'
_cell_length_a   11.05724216
_cell_length_b   11.04839680
_cell_length_c   11.04837701
_cell_angle_alpha   109.47515550
_cell_angle_beta   109.45298870
_cell_angle_gamma   109.45309914
_symmetry_Int_Tables_number   1
_chemical_formula_structural   Li12LaPr11(TeO6)8
_chemical_formula_sum   'Li12 La1 Pr11 Te8 O48'
_cell_volume   1039.43251297
_cell_formula_units_Z   1
loop_
 _symmetry_equiv_pos_site_id
 _symmetry_equiv_pos_as_xyz
  1  'x, y, z'
loop_
 _atom_site_type_symbol
 _atom_site_label
 _atom_site_symmetry_multiplicity
 _atom_site_fract_x
 _atom_site_fract_y
 _atom_site_fract_z
 _atom_site_occupancy
  Li  Li0  1  0.875069  0.750168  0.124986  1
  Li  Li1  1  0.249977  0.874964  0.124956  1
  Li  Li2  1  0.875070  0.124900  0.250083  1
  Li  Li3  1  0.375018  0.625027  0.250037  1
  Li  Li4  1  0.749987  0.625249  0.375252  1
  Li  Li5  1  0.624890  0.249901  0.375068  1
  Li  Li6  1  0.375017  0.749991  0.624979  1
  Li  Li7  1  0.249977  0.375014  0.625020  1
  Li  Li8  1  0.124935  0.874990  0.749991  1
  Li  Li9  1  0.624887  0.374989  0.749823  1
  Li  Li10  1  0.124936  0.249946  0.874944  1
  Li  Li11  1  0.749987  0.124739  0.874736  1
  La  La12  1  0.750029  0.375016  0.125016  1
  Pr  Pr13  1  0.374550  0.249738  0.124857  1
  Pr  Pr14  1  0.624934  0.875003  0.249953  1
  Pr  Pr15  1  0.125425  0.375128  0.250239  1
  Pr  Pr16  1  0.249966  0.124983  0.374982  1
  Pr  Pr17  1  0.125427  0.750298  0.375188  1
  Pr  Pr18  1  0.749970  0.874985  0.624984  1
  Pr  Pr19  1  0.875007  0.250009  0.624975  1
  Pr  Pr20  1  0.374551  0.124812  0.749692  1
  Pr  Pr21  1  0.875006  0.624998  0.750032  1
  Pr  Pr22  1  0.249979  0.624988  0.874989  1
  Pr  Pr23  1  0.624935  0.749930  0.874979  1
  Te  Te24  1  0.999880  0.999906  0.999938  1
  Te  Te25  1  0.499323  0.999295  0.999540  1
  Te  Te26  1  0.499322  0.500028  0.999782  1
  Te  Te27  1  0.000685  0.500218  0.999975  1
  Te  Te28  1  0.999881  0.999974  0.499941  1
  Te  Te29  1  0.500095  0.500042  0.500079  1
  Te  Te30  1  0.500095  0.000053  0.500015  1
  Te  Te31  1  0.000685  0.500468  0.500709  1
  O  O32  1  0.907718  0.329495  0.021938  1
  O  O33  1  0.115780  0.192402  0.022153  1
  O  O34  1  0.406229  0.883845  0.076686  1
  O  O35  1  0.670160  0.692309  0.076720  1
  O  O36  1  0.670158  0.977850  0.093439  1
  O  O37  1  0.422964  0.616039  0.093541  1
  O  O38  1  0.924525  0.594537  0.115632  1
  O  O39  1  0.192329  0.022062  0.115736  1
  O  O40  1  0.575503  0.191123  0.170031  1
  O  O41  1  0.592302  0.478075  0.170517  1
  O  O42  1  0.170591  0.576826  0.192583  1
  O  O43  1  0.022165  0.115762  0.192506  1
  O  O44  1  0.384240  0.477867  0.307602  1
  O  O45  1  0.924523  0.329989  0.308891  1
  O  O46  1  0.307679  0.923412  0.329723  1
  O  O47  1  0.022167  0.906404  0.329661  1
  O  O48  1  0.907719  0.578224  0.385780  1
  O  O49  1  0.477870  0.307513  0.384255  1
  O  O50  1  0.522195  0.829642  0.406399  1
  O  O51  1  0.884200  0.076721  0.406379  1
  O  O52  1  0.807582  0.829693  0.423319  1
  O  O53  1  0.615818  0.093623  0.423293  1
  O  O54  1  0.307678  0.384267  0.477956  1
  O  O55  1  0.170592  0.593767  0.478008  1
  O  O56  1  0.692431  0.615743  0.522136  1
  O  O57  1  0.829858  0.406568  0.522163  1
  O  O58  1  0.192330  0.170268  0.576594  1
  O  O59  1  0.384240  0.906373  0.576638  1
  O  O60  1  0.115781  0.923378  0.593628  1
  O  O61  1  0.477870  0.170357  0.593614  1
  O  O62  1  0.522194  0.692553  0.615796  1
  O  O63  1  0.093789  0.423320  0.616159  1
  O  O64  1  0.977842  0.093621  0.670375  1
  O  O65  1  0.692429  0.076686  0.670292  1
  O  O66  1  0.615817  0.522195  0.692525  1
  O  O67  1  0.077063  0.670592  0.693092  1
  O  O68  1  0.977842  0.884222  0.807464  1
  O  O69  1  0.829860  0.423292  0.807697  1
  O  O70  1  0.406227  0.522384  0.829542  1
  O  O71  1  0.422966  0.806924  0.829424  1
  O  O72  1  0.807581  0.977889  0.884263  1
  O  O73  1  0.077063  0.406471  0.883970  1
  O  O74  1  0.575505  0.384381  0.905472  1
  O  O75  1  0.329427  0.022006  0.906243  1
  O  O76  1  0.329424  0.307420  0.923182  1
  O  O77  1  0.592301  0.114227  0.921785  1
  O  O78  1  0.093791  0.670471  0.977630  1
  O  O79  1  0.884200  0.807478  0.977821  1
