# generated using pymatgen
data_Dy8Zn2CoSi12Rh
_symmetry_space_group_name_H-M   'P 1'
_cell_length_a   8.06357400
_cell_length_b   8.06357443
_cell_length_c   8.07938300
_cell_angle_alpha   90.00000000
_cell_angle_beta   90.00000000
_cell_angle_gamma   119.99999004
_symmetry_Int_Tables_number   1
_chemical_formula_structural   Dy8Zn2CoSi12Rh
_chemical_formula_sum   'Dy8 Zn2 Co1 Si12 Rh1'
_cell_volume   454.95039473
_cell_formula_units_Z   1
loop_
 _symmetry_equiv_pos_site_id
 _symmetry_equiv_pos_as_xyz
  1  'x, y, z'
loop_
 _atom_site_type_symbol
 _atom_site_label
 _atom_site_symmetry_multiplicity
 _atom_site_fract_x
 _atom_site_fract_y
 _atom_site_fract_z
 _atom_site_occupancy
  Dy  Dy0  1  0.000000  0.000000  0.249856  1
  Dy  Dy1  1  0.000000  0.000000  0.749152  1
  Dy  Dy2  1  0.004361  0.502181  0.248442  1
  Dy  Dy3  1  0.497819  0.502181  0.248442  1
  Dy  Dy4  1  0.499334  0.998667  0.751684  1
  Dy  Dy5  1  0.497819  0.995639  0.248442  1
  Dy  Dy6  1  0.499334  0.500666  0.751684  1
  Dy  Dy7  1  0.001333  0.500666  0.751684  1
  Zn  Zn8  1  0.333333  0.666667  0.502995  1
  Zn  Zn9  1  0.666667  0.333333  0.005117  1
  Co  Co10  1  0.333333  0.666667  0.998253  1
  Si  Si11  1  0.174496  0.348992  0.999569  1
  Si  Si12  1  0.651008  0.825504  0.999569  1
  Si  Si13  1  0.163698  0.327395  0.500217  1
  Si  Si14  1  0.326626  0.163313  0.999537  1
  Si  Si15  1  0.174496  0.825504  0.999569  1
  Si  Si16  1  0.672605  0.836302  0.500217  1
  Si  Si17  1  0.836687  0.673374  0.999537  1
  Si  Si18  1  0.338145  0.169072  0.499263  1
  Si  Si19  1  0.163698  0.836302  0.500217  1
  Si  Si20  1  0.830928  0.661855  0.499263  1
  Si  Si21  1  0.836687  0.163313  0.999537  1
  Si  Si22  1  0.830928  0.169072  0.499263  1
  Rh  Rh23  1  0.666667  0.333333  0.498493  1
