# generated using pymatgen
data_HoCuNi3Hg
_symmetry_space_group_name_H-M   'P 1'
_cell_length_a   5.01731332
_cell_length_b   5.01731278
_cell_length_c   4.97604590
_cell_angle_alpha   59.72527714
_cell_angle_beta   59.72527868
_cell_angle_gamma   60.00000724
_symmetry_Int_Tables_number   1
_chemical_formula_structural   HoCuNi3Hg
_chemical_formula_sum   'Ho1 Cu1 Ni3 Hg1'
_cell_volume   88.20554558
_cell_formula_units_Z   1
loop_
 _symmetry_equiv_pos_site_id
 _symmetry_equiv_pos_as_xyz
  1  'x, y, z'
loop_
 _atom_site_type_symbol
 _atom_site_label
 _atom_site_symmetry_multiplicity
 _atom_site_fract_x
 _atom_site_fract_y
 _atom_site_fract_z
 _atom_site_occupancy
  Ho  Ho0  1  0.000979  0.000979  0.997062  1
  Cu  Cu1  1  0.624525  0.624525  0.126426  1
  Ni  Ni2  1  0.623836  0.126748  0.625580  1
  Ni  Ni3  1  0.126748  0.623836  0.625580  1
  Ni  Ni4  1  0.623836  0.623836  0.625580  1
  Hg  Hg5  1  0.250075  0.250075  0.249774  1
