# generated using pymatgen
data_RbLi3Dy2S5
_symmetry_space_group_name_H-M   'P 1'
_cell_length_a   4.01146700
_cell_length_b   7.55796838
_cell_length_c   16.75047500
_cell_angle_alpha   90.00000000
_cell_angle_beta   90.00000000
_cell_angle_gamma   74.61046357
_symmetry_Int_Tables_number   1
_chemical_formula_structural   RbLi3Dy2S5
_chemical_formula_sum   'Rb2 Li6 Dy4 S10'
_cell_volume   489.64043246
_cell_formula_units_Z   2
loop_
 _symmetry_equiv_pos_site_id
 _symmetry_equiv_pos_as_xyz
  1  'x, y, z'
loop_
 _atom_site_type_symbol
 _atom_site_label
 _atom_site_symmetry_multiplicity
 _atom_site_fract_x
 _atom_site_fract_y
 _atom_site_fract_z
 _atom_site_occupancy
  Rb  Rb0  1  0.928480  0.143040  0.250000  1
  Rb  Rb1  1  0.071520  0.856960  0.750000  1
  Li  Li2  1  0.420102  0.159795  0.042893  1
  Li  Li3  1  0.645264  0.709472  0.250000  1
  Li  Li4  1  0.420102  0.159795  0.457107  1
  Li  Li5  1  0.579898  0.840203  0.542893  1
  Li  Li6  1  0.354736  0.290528  0.750000  1
  Li  Li7  1  0.579898  0.840203  0.957107  1
  Dy  Dy8  1  0.194398  0.611204  0.094924  1
  Dy  Dy9  1  0.194398  0.611204  0.405076  1
  Dy  Dy10  1  0.805602  0.388796  0.594924  1
  Dy  Dy11  1  0.805602  0.388796  0.905076  1
  S  S12  1  0.825389  0.349223  0.068285  1
  S  S13  1  0.568617  0.862765  0.112230  1
  S  S14  1  0.236407  0.527186  0.250000  1
  S  S15  1  0.568617  0.862765  0.387770  1
  S  S16  1  0.825389  0.349223  0.431715  1
  S  S17  1  0.174611  0.650777  0.568285  1
  S  S18  1  0.431382  0.137235  0.612230  1
  S  S19  1  0.763592  0.472814  0.750000  1
  S  S20  1  0.431382  0.137235  0.887770  1
  S  S21  1  0.174611  0.650777  0.931715  1
