# generated using pymatgen
data_Yb2Zn12Cu5
_symmetry_space_group_name_H-M   'P 1'
_cell_length_a   6.67867480
_cell_length_b   6.67867517
_cell_length_c   6.67026283
_cell_angle_alpha   83.16186053
_cell_angle_beta   83.16185601
_cell_angle_gamma   82.78766369
_symmetry_Int_Tables_number   1
_chemical_formula_structural   Yb2Zn12Cu5
_chemical_formula_sum   'Yb2 Zn12 Cu5'
_cell_volume   291.42951633
_cell_formula_units_Z   1
loop_
 _symmetry_equiv_pos_site_id
 _symmetry_equiv_pos_as_xyz
  1  'x, y, z'
loop_
 _atom_site_type_symbol
 _atom_site_label
 _atom_site_symmetry_multiplicity
 _atom_site_fract_x
 _atom_site_fract_y
 _atom_site_fract_z
 _atom_site_occupancy
  Yb  Yb0  1  0.660411  0.660411  0.659519  1
  Yb  Yb1  1  0.344757  0.344757  0.349352  1
  Zn  Zn2  1  0.652833  0.652833  0.151791  1
  Zn  Zn3  1  0.897984  0.897984  0.892013  1
  Zn  Zn4  1  0.104917  0.104917  0.105341  1
  Zn  Zn5  1  0.695257  0.001226  0.306662  1
  Zn  Zn6  1  0.998598  0.304123  0.696776  1
  Zn  Zn7  1  0.297710  0.699643  0.994631  1
  Zn  Zn8  1  0.304123  0.998598  0.696776  1
  Zn  Zn9  1  0.001226  0.695257  0.306662  1
  Zn  Zn10  1  0.699643  0.297710  0.994631  1
  Zn  Zn11  1  0.345001  0.841695  0.350155  1
  Zn  Zn12  1  0.349527  0.349527  0.836050  1
  Zn  Zn13  1  0.841695  0.345001  0.350155  1
  Cu  Cu14  1  0.000696  0.499062  0.000037  1
  Cu  Cu15  1  0.499062  0.000696  0.000037  1
  Cu  Cu16  1  0.998835  0.998835  0.502320  1
  Cu  Cu17  1  0.154613  0.653110  0.653543  1
  Cu  Cu18  1  0.653110  0.154613  0.653543  1
