# generated using pymatgen
data_Ca9HoSi6F
_symmetry_space_group_name_H-M   'P 1'
_cell_length_a   9.05906228
_cell_length_b   9.04026743
_cell_length_c   9.06007381
_cell_angle_alpha   130.18021604
_cell_angle_beta   130.23535137
_cell_angle_gamma   72.98588124
_symmetry_Int_Tables_number   1
_chemical_formula_structural   Ca9HoSi6F
_chemical_formula_sum   'Ca9 Ho1 Si6 F1'
_cell_volume   422.84763871
_cell_formula_units_Z   1
loop_
 _symmetry_equiv_pos_site_id
 _symmetry_equiv_pos_as_xyz
  1  'x, y, z'
loop_
 _atom_site_type_symbol
 _atom_site_label
 _atom_site_symmetry_multiplicity
 _atom_site_fract_x
 _atom_site_fract_y
 _atom_site_fract_z
 _atom_site_occupancy
  Ca  Ca0  1  0.432652  0.773982  0.000002  1
  Ca  Ca1  1  0.931154  0.931867  0.644452  1
  Ca  Ca2  1  0.286701  0.287411  0.355546  1
  Ca  Ca3  1  0.711530  0.066458  0.000000  1
  Ca  Ca4  1  0.067626  0.712574  0.999997  1
  Ca  Ca5  1  0.566139  0.565474  0.337624  1
  Ca  Ca6  1  0.228513  0.227845  0.662375  1
  Ca  Ca7  1  0.251834  0.751533  0.503503  1
  Ca  Ca8  1  0.748329  0.248033  0.496499  1
  Ho  Ho9  1  0.776157  0.435651  0.000001  1
  Si  Si10  1  0.994259  0.497536  0.485891  1
  Si  Si11  1  0.508368  0.011645  0.514109  1
  Si  Si12  1  0.128005  0.363970  0.000000  1
  Si  Si13  1  0.358124  0.135707  0.000001  1
  Si  Si14  1  0.865540  0.858306  0.226046  1
  Si  Si15  1  0.639495  0.632260  0.773953  1
  F  F16  1  0.505574  0.499747  0.000001  1
