# generated using pymatgen
data_Ho4As6Ru7
_symmetry_space_group_name_H-M   'P 1'
_cell_length_a   7.22106698
_cell_length_b   7.22106650
_cell_length_c   7.22106700
_cell_angle_alpha   109.47122764
_cell_angle_beta   109.47122630
_cell_angle_gamma   109.47121233
_symmetry_Int_Tables_number   1
_chemical_formula_structural   Ho4As6Ru7
_chemical_formula_sum   'Ho4 As6 Ru7'
_cell_volume   289.85592249
_cell_formula_units_Z   1
loop_
 _symmetry_equiv_pos_site_id
 _symmetry_equiv_pos_as_xyz
  1  'x, y, z'
loop_
 _atom_site_type_symbol
 _atom_site_label
 _atom_site_symmetry_multiplicity
 _atom_site_fract_x
 _atom_site_fract_y
 _atom_site_fract_z
 _atom_site_occupancy
  Ho  Ho0  1  0.000000  0.000000  0.500000  1
  Ho  Ho1  1  0.500000  0.000000  0.000000  1
  Ho  Ho2  1  0.000000  0.500000  0.000000  1
  Ho  Ho3  1  0.500000  0.500000  0.500000  1
  As  As4  1  0.315990  0.000000  0.315990  1
  As  As5  1  0.000000  0.315990  0.315990  1
  As  As6  1  0.000000  0.684010  0.684010  1
  As  As7  1  0.315990  0.315990  0.000000  1
  As  As8  1  0.684010  0.684010  0.000000  1
  As  As9  1  0.684010  0.000000  0.684010  1
  Ru  Ru10  1  0.750000  0.500000  0.250000  1
  Ru  Ru11  1  0.500000  0.750000  0.250000  1
  Ru  Ru12  1  0.500000  0.250000  0.750000  1
  Ru  Ru13  1  0.750000  0.250000  0.500000  1
  Ru  Ru14  1  0.250000  0.750000  0.500000  1
  Ru  Ru15  1  0.250000  0.500000  0.750000  1
  Ru  Ru16  1  0.000000  0.000000  0.000000  1
