# generated using pymatgen
data_Nd(NbBr3)6
_symmetry_space_group_name_H-M   'P 1'
_cell_length_a   10.80800758
_cell_length_b   10.80800720
_cell_length_c   10.80800700
_cell_angle_alpha   55.93725455
_cell_angle_beta   55.93724762
_cell_angle_gamma   55.93724808
_symmetry_Int_Tables_number   1
_chemical_formula_structural   Nd(NbBr3)6
_chemical_formula_sum   'Nd1 Nb6 Br18'
_cell_volume   808.68399943
_cell_formula_units_Z   1
loop_
 _symmetry_equiv_pos_site_id
 _symmetry_equiv_pos_as_xyz
  1  'x, y, z'
loop_
 _atom_site_type_symbol
 _atom_site_label
 _atom_site_symmetry_multiplicity
 _atom_site_fract_x
 _atom_site_fract_y
 _atom_site_fract_z
 _atom_site_occupancy
  Nd  Nd0  1  0.000000  0.000000  0.000000  1
  Nb  Nb1  1  0.412997  0.308269  0.643199  1
  Nb  Nb2  1  0.356801  0.587003  0.691731  1
  Nb  Nb3  1  0.691731  0.356801  0.587003  1
  Nb  Nb4  1  0.308269  0.643199  0.412997  1
  Nb  Nb5  1  0.643199  0.412997  0.308269  1
  Nb  Nb6  1  0.587003  0.691731  0.356801  1
  Br  Br7  1  0.568736  0.164197  0.441129  1
  Br  Br8  1  0.225457  0.370986  0.905143  1
  Br  Br9  1  0.905143  0.225457  0.370986  1
  Br  Br10  1  0.370986  0.905143  0.225457  1
  Br  Br11  1  0.774543  0.629014  0.094857  1
  Br  Br12  1  0.094857  0.774543  0.629014  1
  Br  Br13  1  0.693591  0.958127  0.164673  1
  Br  Br14  1  0.958127  0.164673  0.693591  1
  Br  Br15  1  0.164673  0.693591  0.958127  1
  Br  Br16  1  0.306409  0.041873  0.835327  1
  Br  Br17  1  0.041873  0.835327  0.306409  1
  Br  Br18  1  0.835327  0.306409  0.041873  1
  Br  Br19  1  0.558871  0.431264  0.835803  1
  Br  Br20  1  0.164197  0.441129  0.568736  1
  Br  Br21  1  0.441129  0.568736  0.164197  1
  Br  Br22  1  0.431264  0.835803  0.558871  1
  Br  Br23  1  0.835803  0.558871  0.431264  1
  Br  Br24  1  0.629014  0.094857  0.774543  1
