# generated using pymatgen
data_Ho4Tm6Os3Ru
_symmetry_space_group_name_H-M   'P 1'
_cell_length_a   6.29659435
_cell_length_b   7.29043536
_cell_length_c   8.35835465
_cell_angle_alpha   96.84882655
_cell_angle_beta   112.21026869
_cell_angle_gamma   90.01321363
_symmetry_Int_Tables_number   1
_chemical_formula_structural   Ho4Tm6Os3Ru
_chemical_formula_sum   'Ho4 Tm6 Os3 Ru1'
_cell_volume   352.25741142
_cell_formula_units_Z   1
loop_
 _symmetry_equiv_pos_site_id
 _symmetry_equiv_pos_as_xyz
  1  'x, y, z'
loop_
 _atom_site_type_symbol
 _atom_site_label
 _atom_site_symmetry_multiplicity
 _atom_site_fract_x
 _atom_site_fract_y
 _atom_site_fract_z
 _atom_site_occupancy
  Ho  Ho0  1  0.792502  0.083265  0.815718  1
  Ho  Ho1  1  0.974815  0.416974  0.183871  1
  Ho  Ho2  1  0.209748  0.917358  0.187009  1
  Ho  Ho3  1  0.025021  0.584290  0.816460  1
  Tm  Tm4  1  0.202939  0.182859  0.565014  1
  Tm  Tm5  1  0.639546  0.317520  0.435788  1
  Tm  Tm6  1  0.795323  0.816423  0.434089  1
  Tm  Tm7  1  0.361342  0.681619  0.563777  1
  Tm  Tm8  1  0.421246  0.249810  0.000149  1
  Tm  Tm9  1  0.579643  0.750115  0.000345  1
  Os  Os10  1  0.600862  0.422574  0.780044  1
  Os  Os11  1  0.820379  0.077398  0.220262  1
  Os  Os12  1  0.398857  0.577483  0.219139  1
  Ru  Ru13  1  0.177776  0.922314  0.778335  1
