# generated using pymatgen
data_KHf2Cl9
_symmetry_space_group_name_H-M   'P 1'
_cell_length_a   6.87491800
_cell_length_b   9.83521192
_cell_length_c   12.50344898
_cell_angle_alpha   65.99925036
_cell_angle_beta   90.00000000
_cell_angle_gamma   90.00000000
_symmetry_Int_Tables_number   1
_chemical_formula_structural   KHf2Cl9
_chemical_formula_sum   'K2 Hf4 Cl18'
_cell_volume   772.34031259
_cell_formula_units_Z   2
loop_
 _symmetry_equiv_pos_site_id
 _symmetry_equiv_pos_as_xyz
  1  'x, y, z'
loop_
 _atom_site_type_symbol
 _atom_site_label
 _atom_site_symmetry_multiplicity
 _atom_site_fract_x
 _atom_site_fract_y
 _atom_site_fract_z
 _atom_site_occupancy
  K  K0  1  0.584598  0.500000  0.750000  1
  K  K1  1  0.415402  0.500000  0.250000  1
  Hf  Hf2  1  0.265843  0.819943  0.865944  1
  Hf  Hf3  1  0.734157  0.180057  0.134056  1
  Hf  Hf4  1  0.265843  0.180057  0.634056  1
  Hf  Hf5  1  0.734157  0.819943  0.365944  1
  Cl  Cl6  1  0.129994  0.773086  0.050531  1
  Cl  Cl7  1  0.870006  0.226914  0.949469  1
  Cl  Cl8  1  0.129994  0.226914  0.449469  1
  Cl  Cl9  1  0.870006  0.773086  0.550531  1
  Cl  Cl10  1  0.125842  0.619250  0.836249  1
  Cl  Cl11  1  0.874158  0.380750  0.163751  1
  Cl  Cl12  1  0.125842  0.380750  0.663751  1
  Cl  Cl13  1  0.874158  0.619250  0.336249  1
  Cl  Cl14  1  0.992221  0.000000  0.750000  1
  Cl  Cl15  1  0.007779  0.000000  0.250000  1
  Cl  Cl16  1  0.403892  0.073870  0.845986  1
  Cl  Cl17  1  0.596108  0.926130  0.154014  1
  Cl  Cl18  1  0.403892  0.926130  0.654014  1
  Cl  Cl19  1  0.596108  0.073870  0.345986  1
  Cl  Cl20  1  0.569840  0.701914  0.934908  1
  Cl  Cl21  1  0.430160  0.298086  0.065092  1
  Cl  Cl22  1  0.569840  0.298086  0.565092  1
  Cl  Cl23  1  0.430160  0.701914  0.434908  1
