# generated using pymatgen
data_La2Th2Re15Si8Mo
_symmetry_space_group_name_H-M   'P 1'
_cell_length_a   4.19936400
_cell_length_b   7.30710721
_cell_length_c   15.76762949
_cell_angle_alpha   89.90819382
_cell_angle_beta   90.00000000
_cell_angle_gamma   90.00000000
_symmetry_Int_Tables_number   1
_chemical_formula_structural   La2Th2Re15Si8Mo
_chemical_formula_sum   'La2 Th2 Re15 Si8 Mo1'
_cell_volume   483.83228987
_cell_formula_units_Z   1
loop_
 _symmetry_equiv_pos_site_id
 _symmetry_equiv_pos_as_xyz
  1  'x, y, z'
loop_
 _atom_site_type_symbol
 _atom_site_label
 _atom_site_symmetry_multiplicity
 _atom_site_fract_x
 _atom_site_fract_y
 _atom_site_fract_z
 _atom_site_occupancy
  La  La0  1  0.000000  0.588433  0.118003  1
  La  La1  1  0.000000  0.415288  0.881450  1
  Th  Th2  1  0.500000  0.085164  0.382791  1
  Th  Th3  1  0.500000  0.915346  0.617375  1
  Re  Re4  1  0.000000  0.864343  0.945431  1
  Re  Re5  1  0.500000  0.642821  0.450154  1
  Re  Re6  1  0.500000  0.356279  0.550467  1
  Re  Re7  1  0.000000  0.740444  0.322578  1
  Re  Re8  1  0.000000  0.259666  0.677442  1
  Re  Re9  1  0.500000  0.231500  0.183327  1
  Re  Re10  1  0.500000  0.766086  0.817591  1
  Re  Re11  1  0.000000  0.430594  0.420648  1
  Re  Re12  1  0.000000  0.569439  0.579902  1
  Re  Re13  1  0.500000  0.934564  0.080571  1
  Re  Re14  1  0.500000  0.062997  0.918404  1
  Re  Re15  1  0.000000  0.002307  0.209671  1
  Re  Re16  1  0.000000  0.998135  0.791041  1
  Re  Re17  1  0.500000  0.498047  0.295856  1
  Re  Re18  1  0.500000  0.503397  0.704208  1
  Si  Si19  1  0.000000  0.828250  0.475154  1
  Si  Si20  1  0.000000  0.171280  0.525013  1
  Si  Si21  1  0.500000  0.323648  0.026527  1
  Si  Si22  1  0.500000  0.676058  0.972940  1
  Si  Si23  1  0.000000  0.306603  0.275224  1
  Si  Si24  1  0.000000  0.695224  0.724581  1
  Si  Si25  1  0.500000  0.800988  0.227221  1
  Si  Si26  1  0.500000  0.200463  0.772697  1
  Mo  Mo27  1  0.000000  0.132636  0.053731  1
