# generated using pymatgen
data_Ac2CoSiI
_symmetry_space_group_name_H-M   'P 1'
_cell_length_a   4.30915800
_cell_length_b   4.30915811
_cell_length_c   18.28827100
_cell_angle_alpha   90.00000000
_cell_angle_beta   90.00000000
_cell_angle_gamma   119.99998381
_symmetry_Int_Tables_number   1
_chemical_formula_structural   Ac2CoSiI
_chemical_formula_sum   'Ac4 Co2 Si2 I2'
_cell_volume   294.09537761
_cell_formula_units_Z   2
loop_
 _symmetry_equiv_pos_site_id
 _symmetry_equiv_pos_as_xyz
  1  'x, y, z'
loop_
 _atom_site_type_symbol
 _atom_site_label
 _atom_site_symmetry_multiplicity
 _atom_site_fract_x
 _atom_site_fract_y
 _atom_site_fract_z
 _atom_site_occupancy
  Ac  Ac0  1  0.000000  0.000000  0.602560  1
  Ac  Ac1  1  0.000000  0.000000  0.398934  1
  Ac  Ac2  1  0.000000  0.000000  0.102560  1
  Ac  Ac3  1  0.000000  0.000000  0.898934  1
  Co  Co4  1  0.666667  0.333333  0.998086  1
  Co  Co5  1  0.333333  0.666667  0.498086  1
  Si  Si6  1  0.666667  0.333333  0.501405  1
  Si  Si7  1  0.333333  0.666667  0.001405  1
  I  I8  1  0.666667  0.333333  0.249015  1
  I  I9  1  0.333333  0.666667  0.749015  1
