# generated using pymatgen
data_Np4Ge6Os7
_symmetry_space_group_name_H-M   'P 1'
_cell_length_a   7.21963872
_cell_length_b   7.21922474
_cell_length_c   7.20884746
_cell_angle_alpha   109.40194631
_cell_angle_beta   109.46103310
_cell_angle_gamma   109.51921810
_symmetry_Int_Tables_number   1
_chemical_formula_structural   Np4Ge6Os7
_chemical_formula_sum   'Np4 Ge6 Os7'
_cell_volume   289.34645058
_cell_formula_units_Z   1
loop_
 _symmetry_equiv_pos_site_id
 _symmetry_equiv_pos_as_xyz
  1  'x, y, z'
loop_
 _atom_site_type_symbol
 _atom_site_label
 _atom_site_symmetry_multiplicity
 _atom_site_fract_x
 _atom_site_fract_y
 _atom_site_fract_z
 _atom_site_occupancy
  Np  Np0  1  0.000000  0.000000  0.500000  1
  Np  Np1  1  0.000000  0.500000  0.000000  1
  Np  Np2  1  0.500000  0.000000  0.000000  1
  Np  Np3  1  0.500000  0.500000  0.500000  1
  Ge  Ge4  1  0.693603  0.693626  0.999926  1
  Ge  Ge5  1  0.306397  0.000023  0.306323  1
  Ge  Ge6  1  0.000000  0.306357  0.306401  1
  Ge  Ge7  1  0.306397  0.306374  0.000074  1
  Ge  Ge8  1  0.693603  0.999977  0.693677  1
  Ge  Ge9  1  0.000000  0.693643  0.693599  1
  Os  Os10  1  0.746569  0.250228  0.496755  1
  Os  Os11  1  0.746569  0.496341  0.249814  1
  Os  Os12  1  0.500292  0.250146  0.750146  1
  Os  Os13  1  0.253431  0.503659  0.750186  1
  Os  Os14  1  0.253431  0.749772  0.503245  1
  Os  Os15  1  0.499708  0.749854  0.249854  1
  Os  Os16  1  0.000000  0.000000  0.000000  1
