# generated using pymatgen
data_CeZn10Ag
_symmetry_space_group_name_H-M   'P 1'
_cell_length_a   8.29507373
_cell_length_b   8.29507357
_cell_length_c   8.29507270
_cell_angle_alpha   99.95236703
_cell_angle_beta   99.95235874
_cell_angle_gamma   130.86972007
_symmetry_Int_Tables_number   1
_chemical_formula_structural   CeZn10Ag
_chemical_formula_sum   'Ce2 Zn20 Ag2'
_cell_volume   392.54964062
_cell_formula_units_Z   2
loop_
 _symmetry_equiv_pos_site_id
 _symmetry_equiv_pos_as_xyz
  1  'x, y, z'
loop_
 _atom_site_type_symbol
 _atom_site_label
 _atom_site_symmetry_multiplicity
 _atom_site_fract_x
 _atom_site_fract_y
 _atom_site_fract_z
 _atom_site_occupancy
  Ce  Ce0  1  0.000000  0.000000  0.000000  1
  Ce  Ce1  1  0.250000  0.750000  0.500000  1
  Zn  Zn2  1  0.125000  0.375000  0.750000  1
  Zn  Zn3  1  0.625000  0.875000  0.250000  1
  Zn  Zn4  1  0.625000  0.375000  0.750000  1
  Zn  Zn5  1  0.625000  0.375000  0.250000  1
  Zn  Zn6  1  0.180594  0.508617  0.085575  1
  Zn  Zn7  1  0.180594  0.095020  0.671977  1
  Zn  Zn8  1  0.758617  0.930594  0.585575  1
  Zn  Zn9  1  0.758617  0.173042  0.828023  1
  Zn  Zn10  1  0.423042  0.508617  0.328023  1
  Zn  Zn11  1  0.423042  0.095020  0.914425  1
  Zn  Zn12  1  0.345020  0.930594  0.171977  1
  Zn  Zn13  1  0.345020  0.173042  0.414425  1
  Zn  Zn14  1  0.069406  0.241383  0.414425  1
  Zn  Zn15  1  0.069406  0.654980  0.828023  1
  Zn  Zn16  1  0.491383  0.819406  0.914425  1
  Zn  Zn17  1  0.491383  0.576958  0.671977  1
  Zn  Zn18  1  0.826958  0.241383  0.171977  1
  Zn  Zn19  1  0.826958  0.654980  0.585575  1
  Zn  Zn20  1  0.904980  0.819406  0.328023  1
  Zn  Zn21  1  0.904980  0.576958  0.085575  1
  Ag  Ag22  1  0.750000  0.250000  0.500000  1
  Ag  Ag23  1  0.500000  0.500000  0.000000  1
