# generated using pymatgen
data_NdSm(PN3)2
_symmetry_space_group_name_H-M   'P 1'
_cell_length_a   7.34844617
_cell_length_b   7.34844613
_cell_length_c   4.89350621
_cell_angle_alpha   89.03260771
_cell_angle_beta   89.03260921
_cell_angle_gamma   103.22830930
_symmetry_Int_Tables_number   1
_chemical_formula_structural   NdSm(PN3)2
_chemical_formula_sum   'Nd2 Sm2 P4 N12'
_cell_volume   257.14101639
_cell_formula_units_Z   2
loop_
 _symmetry_equiv_pos_site_id
 _symmetry_equiv_pos_as_xyz
  1  'x, y, z'
loop_
 _atom_site_type_symbol
 _atom_site_label
 _atom_site_symmetry_multiplicity
 _atom_site_fract_x
 _atom_site_fract_y
 _atom_site_fract_z
 _atom_site_occupancy
  Nd  Nd0  1  0.096758  0.903242  0.250000  1
  Nd  Nd1  1  0.903242  0.096758  0.750000  1
  Sm  Sm2  1  0.295609  0.704391  0.750000  1
  Sm  Sm3  1  0.704391  0.295609  0.250000  1
  P  P4  1  0.376061  0.231535  0.809610  1
  P  P5  1  0.623939  0.768465  0.190390  1
  P  P6  1  0.768465  0.623939  0.690390  1
  P  P7  1  0.231535  0.376061  0.309610  1
  N  N8  1  0.971182  0.755887  0.736799  1
  N  N9  1  0.768152  0.397120  0.769156  1
  N  N10  1  0.755887  0.971182  0.236799  1
  N  N11  1  0.231848  0.602880  0.230844  1
  N  N12  1  0.028818  0.244113  0.263201  1
  N  N13  1  0.244113  0.028818  0.763201  1
  N  N14  1  0.602880  0.231848  0.730844  1
  N  N15  1  0.612114  0.707584  0.865012  1
  N  N16  1  0.387886  0.292416  0.134988  1
  N  N17  1  0.397120  0.768152  0.269156  1
  N  N18  1  0.707584  0.612114  0.365012  1
  N  N19  1  0.292416  0.387886  0.634988  1
