# generated using pymatgen
data_Er8MoOs3C8
_symmetry_space_group_name_H-M   'P 1'
_cell_length_a   5.06061300
_cell_length_b   6.50129509
_cell_length_c   9.74598671
_cell_angle_alpha   89.61537067
_cell_angle_beta   90.00000000
_cell_angle_gamma   90.00000000
_symmetry_Int_Tables_number   1
_chemical_formula_structural   Er8MoOs3C8
_chemical_formula_sum   'Er8 Mo1 Os3 C8'
_cell_volume   320.64098532
_cell_formula_units_Z   1
loop_
 _symmetry_equiv_pos_site_id
 _symmetry_equiv_pos_as_xyz
  1  'x, y, z'
loop_
 _atom_site_type_symbol
 _atom_site_label
 _atom_site_symmetry_multiplicity
 _atom_site_fract_x
 _atom_site_fract_y
 _atom_site_fract_z
 _atom_site_occupancy
  Er  Er0  1  0.250000  0.677385  0.555027  1
  Er  Er1  1  0.750000  0.323354  0.444001  1
  Er  Er2  1  0.750000  0.825616  0.056240  1
  Er  Er3  1  0.250000  0.178526  0.944083  1
  Er  Er4  1  0.250000  0.532633  0.214465  1
  Er  Er5  1  0.750000  0.466365  0.780529  1
  Er  Er6  1  0.750000  0.969423  0.716176  1
  Er  Er7  1  0.250000  0.030661  0.285342  1
  Mo  Mo8  1  0.250000  0.718571  0.869009  1
  Os  Os9  1  0.750000  0.281960  0.133856  1
  Os  Os10  1  0.750000  0.779822  0.365466  1
  Os  Os11  1  0.250000  0.220931  0.631650  1
  C  C12  1  0.250000  0.449818  0.758715  1
  C  C13  1  0.750000  0.545453  0.242217  1
  C  C14  1  0.750000  0.046683  0.258987  1
  C  C15  1  0.250000  0.955278  0.739568  1
  C  C16  1  0.250000  0.826497  0.058262  1
  C  C17  1  0.750000  0.173757  0.948128  1
  C  C18  1  0.750000  0.671995  0.552716  1
  C  C19  1  0.250000  0.325270  0.445564  1
