# generated using pymatgen
data_Eu2UO6
_symmetry_space_group_name_H-M   'P 1'
_cell_length_a   6.57061516
_cell_length_b   6.57061513
_cell_length_c   6.57061491
_cell_angle_alpha   145.28092642
_cell_angle_beta   130.81896276
_cell_angle_gamma   61.59990945
_symmetry_Int_Tables_number   1
_chemical_formula_structural   Eu2UO6
_chemical_formula_sum   'Eu2 U1 O6'
_cell_volume   121.01272690
_cell_formula_units_Z   1
loop_
 _symmetry_equiv_pos_site_id
 _symmetry_equiv_pos_as_xyz
  1  'x, y, z'
loop_
 _atom_site_type_symbol
 _atom_site_label
 _atom_site_symmetry_multiplicity
 _atom_site_fract_x
 _atom_site_fract_y
 _atom_site_fract_z
 _atom_site_occupancy
  Eu  Eu0  1  0.665187  0.665187  0.000000  1
  Eu  Eu1  1  0.334813  0.334813  0.000000  1
  U  U2  1  0.000000  0.000000  0.000000  1
  O  O3  1  0.915865  0.152289  0.763577  1
  O  O4  1  0.773425  0.500000  0.273425  1
  O  O5  1  0.388713  0.152289  0.236423  1
  O  O6  1  0.611287  0.847711  0.763577  1
  O  O7  1  0.226575  0.500000  0.726575  1
  O  O8  1  0.084135  0.847711  0.236423  1
