# generated using pymatgen
data_Ba6GdIn(BO3)6
_symmetry_space_group_name_H-M   'P 1'
_cell_length_a   8.18920198
_cell_length_b   8.18920156
_cell_length_c   8.18920163
_cell_angle_alpha   105.83947037
_cell_angle_beta   105.83947394
_cell_angle_gamma   105.83947578
_symmetry_Int_Tables_number   1
_chemical_formula_structural   Ba6GdIn(BO3)6
_chemical_formula_sum   'Ba6 Gd1 In1 B6 O18'
_cell_volume   471.10319850
_cell_formula_units_Z   1
loop_
 _symmetry_equiv_pos_site_id
 _symmetry_equiv_pos_as_xyz
  1  'x, y, z'
loop_
 _atom_site_type_symbol
 _atom_site_label
 _atom_site_symmetry_multiplicity
 _atom_site_fract_x
 _atom_site_fract_y
 _atom_site_fract_z
 _atom_site_occupancy
  Ba  Ba0  1  0.766632  0.665350  0.154718  1
  Ba  Ba1  1  0.334651  0.845282  0.233369  1
  Ba  Ba2  1  0.845282  0.233370  0.334650  1
  Ba  Ba3  1  0.154718  0.766631  0.665351  1
  Ba  Ba4  1  0.665350  0.154718  0.766631  1
  Ba  Ba5  1  0.233369  0.334650  0.845283  1
  Gd  Gd6  1  0.500000  0.500000  0.500000  1
  In  In7  1  0.000000  0.000000  0.000000  1
  B  B8  1  0.450461  0.204361  0.125533  1
  B  B9  1  0.125533  0.450461  0.204361  1
  B  B10  1  0.204361  0.125533  0.450461  1
  B  B11  1  0.795639  0.874467  0.549540  1
  B  B12  1  0.874468  0.549540  0.795639  1
  B  B13  1  0.549540  0.795639  0.874467  1
  O  O14  1  0.279074  0.070872  0.002213  1
  O  O15  1  0.566689  0.299104  0.059920  1
  O  O16  1  0.002213  0.279074  0.070872  1
  O  O17  1  0.311209  0.505599  0.230166  1
  O  O18  1  0.070872  0.002212  0.279074  1
  O  O19  1  0.059919  0.566689  0.299104  1
  O  O20  1  0.505599  0.230166  0.311209  1
  O  O21  1  0.700895  0.940080  0.433311  1
  O  O22  1  0.769834  0.688791  0.494402  1
  O  O23  1  0.230166  0.311210  0.505599  1
  O  O24  1  0.299104  0.059919  0.566689  1
  O  O25  1  0.494402  0.769834  0.688791  1
  O  O26  1  0.940080  0.433310  0.700895  1
  O  O27  1  0.929127  0.997787  0.720925  1
  O  O28  1  0.688791  0.494402  0.769834  1
  O  O29  1  0.997786  0.720926  0.929128  1
  O  O30  1  0.433310  0.700895  0.940080  1
  O  O31  1  0.720926  0.929128  0.997787  1
