# generated using pymatgen
data_Tb8Tm2(InSb)3
_symmetry_space_group_name_H-M   'P 1'
_cell_length_a   9.00168400
_cell_length_b   8.98084241
_cell_length_c   6.55999927
_cell_angle_alpha   90.06153087
_cell_angle_beta   90.00000000
_cell_angle_gamma   120.07678959
_symmetry_Int_Tables_number   1
_chemical_formula_structural   Tb8Tm2(InSb)3
_chemical_formula_sum   'Tb8 Tm2 In3 Sb3'
_cell_volume   458.92145013
_cell_formula_units_Z   1
loop_
 _symmetry_equiv_pos_site_id
 _symmetry_equiv_pos_as_xyz
  1  'x, y, z'
loop_
 _atom_site_type_symbol
 _atom_site_label
 _atom_site_symmetry_multiplicity
 _atom_site_fract_x
 _atom_site_fract_y
 _atom_site_fract_z
 _atom_site_occupancy
  Tb  Tb0  1  0.002410  0.762391  0.749965  1
  Tb  Tb1  1  0.003300  0.240361  0.249971  1
  Tb  Tb2  1  0.762940  0.759639  0.250029  1
  Tb  Tb3  1  0.760714  0.000000  0.750000  1
  Tb  Tb4  1  0.240019  0.237609  0.750035  1
  Tb  Tb5  1  0.238357  0.000000  0.250000  1
  Tb  Tb6  1  0.664792  0.334024  0.499308  1
  Tb  Tb7  1  0.330767  0.665976  0.000692  1
  Tm  Tm8  1  0.330634  0.666207  0.498937  1
  Tm  Tm9  1  0.664428  0.333793  0.001063  1
  In  In10  1  0.398068  0.000000  0.750000  1
  In  In11  1  0.396526  0.398426  0.249970  1
  In  In12  1  0.998098  0.601574  0.250030  1
  Sb  Sb13  1  0.997453  0.392360  0.750048  1
  Sb  Sb14  1  0.605093  0.607640  0.749952  1
  Sb  Sb15  1  0.606402  0.000000  0.250000  1
