# generated using pymatgen
data_CeThAlNi9
_symmetry_space_group_name_H-M   'P 1'
_cell_length_a   4.88601100
_cell_length_b   4.88601120
_cell_length_c   8.06489100
_cell_angle_alpha   90.00000000
_cell_angle_beta   90.00000000
_cell_angle_gamma   118.88900471
_symmetry_Int_Tables_number   1
_chemical_formula_structural   CeThAlNi9
_chemical_formula_sum   'Ce1 Th1 Al1 Ni9'
_cell_volume   168.57452764
_cell_formula_units_Z   1
loop_
 _symmetry_equiv_pos_site_id
 _symmetry_equiv_pos_as_xyz
  1  'x, y, z'
loop_
 _atom_site_type_symbol
 _atom_site_label
 _atom_site_symmetry_multiplicity
 _atom_site_fract_x
 _atom_site_fract_y
 _atom_site_fract_z
 _atom_site_occupancy
  Ce  Ce0  1  0.000000  0.000000  0.763518  1
  Th  Th1  1  0.000000  0.000000  0.235816  1
  Al  Al2  1  0.500000  0.500000  0.501670  1
  Ni  Ni3  1  0.667672  0.332328  0.750913  1
  Ni  Ni4  1  0.666773  0.333227  0.249412  1
  Ni  Ni5  1  0.500000  0.500000  0.998934  1
  Ni  Ni6  1  0.332328  0.667672  0.750913  1
  Ni  Ni7  1  0.500000  0.000000  0.500610  1
  Ni  Ni8  1  0.000000  0.500000  0.999096  1
  Ni  Ni9  1  0.500000  0.000000  0.999096  1
  Ni  Ni10  1  0.333227  0.666773  0.249412  1
  Ni  Ni11  1  0.000000  0.500000  0.500610  1
