# generated using pymatgen
data_Tm4NiAu3O14
_symmetry_space_group_name_H-M   'P 1'
_cell_length_a   7.27576942
_cell_length_b   7.26779824
_cell_length_c   7.26779900
_cell_angle_alpha   59.99999199
_cell_angle_beta   60.03622686
_cell_angle_gamma   60.03622481
_symmetry_Int_Tables_number   1
_chemical_formula_structural   Tm4NiAu3O14
_chemical_formula_sum   'Tm4 Ni1 Au3 O14'
_cell_volume   271.89877817
_cell_formula_units_Z   1
loop_
 _symmetry_equiv_pos_site_id
 _symmetry_equiv_pos_as_xyz
  1  'x, y, z'
loop_
 _atom_site_type_symbol
 _atom_site_label
 _atom_site_symmetry_multiplicity
 _atom_site_fract_x
 _atom_site_fract_y
 _atom_site_fract_z
 _atom_site_occupancy
  Tm  Tm0  1  0.125000  0.125000  0.125000  1
  Tm  Tm1  1  0.625000  0.125000  0.125000  1
  Tm  Tm2  1  0.125000  0.125000  0.625000  1
  Tm  Tm3  1  0.125000  0.625000  0.125000  1
  Ni  Ni4  1  0.125000  0.625000  0.625000  1
  Au  Au5  1  0.625000  0.625000  0.625000  1
  Au  Au6  1  0.625000  0.625000  0.125000  1
  Au  Au7  1  0.625000  0.125000  0.625000  1
  O  O8  1  0.993861  0.002047  0.002047  1
  O  O9  1  0.256139  0.247953  0.247953  1
  O  O10  1  0.281320  0.275183  0.721749  1
  O  O11  1  0.535799  0.524945  0.969628  1
  O  O12  1  0.714201  0.280372  0.725055  1
  O  O13  1  0.714201  0.280372  0.280372  1
  O  O14  1  0.281320  0.721749  0.721749  1
  O  O15  1  0.281320  0.721749  0.275183  1
  O  O16  1  0.714201  0.725055  0.280372  1
  O  O17  1  0.968680  0.528251  0.528251  1
  O  O18  1  0.535799  0.969628  0.969628  1
  O  O19  1  0.968680  0.974817  0.528251  1
  O  O20  1  0.968680  0.528251  0.974817  1
  O  O21  1  0.535799  0.969628  0.524945  1
