# generated using pymatgen
data_DyErTm8(In2Pt)4
_symmetry_space_group_name_H-M   'P 1'
_cell_length_a   3.59264800
_cell_length_b   8.10114706
_cell_length_c   18.13741013
_cell_angle_alpha   90.01371777
_cell_angle_beta   90.00000000
_cell_angle_gamma   90.00000000
_symmetry_Int_Tables_number   1
_chemical_formula_structural   DyErTm8(In2Pt)4
_chemical_formula_sum   'Dy1 Er1 Tm8 In8 Pt4'
_cell_volume   527.88150355
_cell_formula_units_Z   1
loop_
 _symmetry_equiv_pos_site_id
 _symmetry_equiv_pos_as_xyz
  1  'x, y, z'
loop_
 _atom_site_type_symbol
 _atom_site_label
 _atom_site_symmetry_multiplicity
 _atom_site_fract_x
 _atom_site_fract_y
 _atom_site_fract_z
 _atom_site_occupancy
  Dy  Dy0  1  0.000000  0.500000  0.500000  1
  Er  Er1  1  0.000000  0.000000  0.000000  1
  Tm  Tm2  1  0.000000  0.116785  0.414420  1
  Tm  Tm3  1  0.000000  0.883215  0.585580  1
  Tm  Tm4  1  0.000000  0.383217  0.914485  1
  Tm  Tm5  1  0.000000  0.616783  0.085515  1
  Tm  Tm6  1  0.000000  0.243583  0.220690  1
  Tm  Tm7  1  0.000000  0.756417  0.779310  1
  Tm  Tm8  1  0.000000  0.256457  0.720688  1
  Tm  Tm9  1  0.000000  0.743543  0.279312  1
  In  In10  1  0.500000  0.423154  0.350992  1
  In  In11  1  0.500000  0.576846  0.649008  1
  In  In12  1  0.500000  0.076653  0.851323  1
  In  In13  1  0.500000  0.923347  0.148677  1
  In  In14  1  0.500000  0.293054  0.066477  1
  In  In15  1  0.500000  0.706946  0.933523  1
  In  In16  1  0.500000  0.206165  0.566649  1
  In  In17  1  0.500000  0.793835  0.433351  1
  Pt  Pt18  1  0.500000  0.025276  0.303564  1
  Pt  Pt19  1  0.500000  0.974724  0.696436  1
  Pt  Pt20  1  0.500000  0.474655  0.803675  1
  Pt  Pt21  1  0.500000  0.525345  0.196325  1
