# generated using pymatgen
data_Tb3Er(OF)4
_symmetry_space_group_name_H-M   'P 1'
_cell_length_a   5.55294618
_cell_length_b   5.67182172
_cell_length_c   5.63424007
_cell_angle_alpha   80.23518509
_cell_angle_beta   90.07721861
_cell_angle_gamma   90.06483822
_symmetry_Int_Tables_number   1
_chemical_formula_structural   Tb3Er(OF)4
_chemical_formula_sum   'Tb3 Er1 O4 F4'
_cell_volume   174.88108036
_cell_formula_units_Z   1
loop_
 _symmetry_equiv_pos_site_id
 _symmetry_equiv_pos_as_xyz
  1  'x, y, z'
loop_
 _atom_site_type_symbol
 _atom_site_label
 _atom_site_symmetry_multiplicity
 _atom_site_fract_x
 _atom_site_fract_y
 _atom_site_fract_z
 _atom_site_occupancy
  Tb  Tb0  1  0.475813  0.695964  0.712411  1
  Tb  Tb1  1  0.525420  0.305399  0.286267  1
  Tb  Tb2  1  0.976467  0.305595  0.787095  1
  Er  Er3  1  0.025233  0.692464  0.212874  1
  O  O4  1  0.247122  0.465506  0.507836  1
  O  O5  1  0.755069  0.538262  0.488439  1
  O  O6  1  0.749542  0.536049  0.991305  1
  O  O7  1  0.252648  0.466719  0.010130  1
  F  F8  1  0.173642  0.940394  0.850379  1
  F  F9  1  0.826333  0.052028  0.155147  1
  F  F10  1  0.672501  0.060557  0.653390  1
  F  F11  1  0.320209  0.941060  0.344726  1
