# generated using pymatgen
data_Ce7Sm(Si3Ir)4
_symmetry_space_group_name_H-M   'P 1'
_cell_length_a   8.22967900
_cell_length_b   8.22968091
_cell_length_c   8.30854400
_cell_angle_alpha   90.00000000
_cell_angle_beta   90.00000000
_cell_angle_gamma   119.99999633
_symmetry_Int_Tables_number   1
_chemical_formula_structural   Ce7Sm(Si3Ir)4
_chemical_formula_sum   'Ce7 Sm1 Si12 Ir4'
_cell_volume   487.32811166
_cell_formula_units_Z   1
loop_
 _symmetry_equiv_pos_site_id
 _symmetry_equiv_pos_as_xyz
  1  'x, y, z'
loop_
 _atom_site_type_symbol
 _atom_site_label
 _atom_site_symmetry_multiplicity
 _atom_site_fract_x
 _atom_site_fract_y
 _atom_site_fract_z
 _atom_site_occupancy
  Ce  Ce0  1  0.499902  0.500098  0.750000  1
  Ce  Ce1  1  0.500124  0.499876  0.250000  1
  Ce  Ce2  1  0.000196  0.500098  0.750000  1
  Ce  Ce3  1  0.999751  0.499876  0.250000  1
  Ce  Ce4  1  0.499902  0.999804  0.750000  1
  Ce  Ce5  1  0.500124  0.000249  0.250000  1
  Ce  Ce6  1  0.000000  0.000000  0.750000  1
  Sm  Sm7  1  0.000000  0.000000  0.250000  1
  Si  Si8  1  0.834295  0.165705  0.997787  1
  Si  Si9  1  0.165728  0.834272  0.997680  1
  Si  Si10  1  0.331408  0.165705  0.997787  1
  Si  Si11  1  0.165728  0.834272  0.502320  1
  Si  Si12  1  0.668545  0.834272  0.997680  1
  Si  Si13  1  0.834295  0.165705  0.502213  1
  Si  Si14  1  0.834295  0.668592  0.997787  1
  Si  Si15  1  0.668545  0.834272  0.502320  1
  Si  Si16  1  0.165728  0.331455  0.997680  1
  Si  Si17  1  0.331408  0.165705  0.502213  1
  Si  Si18  1  0.165728  0.331455  0.502320  1
  Si  Si19  1  0.834295  0.668592  0.502213  1
  Ir  Ir20  1  0.666667  0.333333  0.003518  1
  Ir  Ir21  1  0.333333  0.666667  0.004846  1
  Ir  Ir22  1  0.333333  0.666667  0.495154  1
  Ir  Ir23  1  0.666667  0.333333  0.496482  1
