# generated using pymatgen
data_Nb16V(Si4Tc)3
_symmetry_space_group_name_H-M   'P 1'
_cell_length_a   7.47816901
_cell_length_b   7.47816973
_cell_length_c   14.09551500
_cell_angle_alpha   90.00000000
_cell_angle_beta   90.00000000
_cell_angle_gamma   140.66640189
_symmetry_Int_Tables_number   1
_chemical_formula_structural   Nb16V(Si4Tc)3
_chemical_formula_sum   'Nb16 V1 Si12 Tc3'
_cell_volume   499.62877759
_cell_formula_units_Z   1
loop_
 _symmetry_equiv_pos_site_id
 _symmetry_equiv_pos_as_xyz
  1  'x, y, z'
loop_
 _atom_site_type_symbol
 _atom_site_label
 _atom_site_symmetry_multiplicity
 _atom_site_fract_x
 _atom_site_fract_y
 _atom_site_fract_z
 _atom_site_occupancy
  Nb  Nb0  1  0.068473  0.428393  0.399816  1
  Nb  Nb1  1  0.572216  0.930254  0.900860  1
  Nb  Nb2  1  0.428393  0.068473  0.600184  1
  Nb  Nb3  1  0.930254  0.572216  0.099140  1
  Nb  Nb4  1  0.849824  0.650265  0.679662  1
  Nb  Nb5  1  0.349541  0.151574  0.180022  1
  Nb  Nb6  1  0.650265  0.849824  0.320338  1
  Nb  Nb7  1  0.151574  0.349541  0.819978  1
  Nb  Nb8  1  0.650265  0.849824  0.679662  1
  Nb  Nb9  1  0.151574  0.349541  0.180022  1
  Nb  Nb10  1  0.849824  0.650265  0.320338  1
  Nb  Nb11  1  0.349541  0.151574  0.819978  1
  Nb  Nb12  1  0.428393  0.068473  0.399816  1
  Nb  Nb13  1  0.930254  0.572216  0.900860  1
  Nb  Nb14  1  0.068473  0.428393  0.600184  1
  Nb  Nb15  1  0.572216  0.930254  0.099140  1
  V  V16  1  0.001456  0.001456  0.500000  1
  Si  Si17  1  0.250218  0.749767  0.750605  1
  Si  Si18  1  0.749767  0.250218  0.249395  1
  Si  Si19  1  0.749767  0.250218  0.750605  1
  Si  Si20  1  0.250218  0.749767  0.249395  1
  Si  Si21  1  0.245548  0.245548  0.658409  1
  Si  Si22  1  0.751971  0.751971  0.158089  1
  Si  Si23  1  0.245548  0.245548  0.341591  1
  Si  Si24  1  0.751971  0.751971  0.841911  1
  Si  Si25  1  0.594233  0.909711  0.500000  1
  Si  Si26  1  0.089768  0.410379  0.000000  1
  Si  Si27  1  0.909711  0.594233  0.500000  1
  Si  Si28  1  0.410379  0.089768  0.000000  1
  Tc  Tc29  1  0.496799  0.496799  0.000000  1
  Tc  Tc30  1  0.496749  0.496749  0.500000  1
  Tc  Tc31  1  0.004814  0.004814  0.000000  1
