# generated using pymatgen
data_Eu2BeNiH8
_symmetry_space_group_name_H-M   'P 1'
_cell_length_a   6.22443900
_cell_length_b   6.22443911
_cell_length_c   4.85420400
_cell_angle_alpha   90.00000000
_cell_angle_beta   90.00000000
_cell_angle_gamma   144.89444385
_symmetry_Int_Tables_number   1
_chemical_formula_structural   Eu2BeNiH8
_chemical_formula_sum   'Eu2 Be1 Ni1 H8'
_cell_volume   108.15589377
_cell_formula_units_Z   1
loop_
 _symmetry_equiv_pos_site_id
 _symmetry_equiv_pos_as_xyz
  1  'x, y, z'
loop_
 _atom_site_type_symbol
 _atom_site_label
 _atom_site_symmetry_multiplicity
 _atom_site_fract_x
 _atom_site_fract_y
 _atom_site_fract_z
 _atom_site_occupancy
  Eu  Eu0  1  0.872435  0.127567  0.249999  1
  Eu  Eu1  1  0.128502  0.871500  0.750000  1
  Be  Be2  1  0.604437  0.395565  0.249999  1
  Ni  Ni3  1  0.407789  0.592213  0.750000  1
  H  H4  1  0.497554  0.502448  0.999822  1
  H  H5  1  0.685455  0.314547  0.019501  1
  H  H6  1  0.085140  0.914862  0.249999  1
  H  H7  1  0.685455  0.314547  0.480497  1
  H  H8  1  0.497554  0.502448  0.500179  1
  H  H9  1  0.311064  0.688938  0.519439  1
  H  H10  1  0.913561  0.086441  0.750000  1
  H  H11  1  0.311064  0.688938  0.980561  1
