# generated using pymatgen
data_Dy5Tc6P12Ir12Ru
_symmetry_space_group_name_H-M   'P 1'
_cell_length_a   12.59982985
_cell_length_b   12.68228730
_cell_length_c   3.99259800
_cell_angle_alpha   90.00000000
_cell_angle_beta   90.00000000
_cell_angle_gamma   119.87449307
_symmetry_Int_Tables_number   1
_chemical_formula_structural   Dy5Tc6P12Ir12Ru
_chemical_formula_sum   'Dy5 Tc6 P12 Ir12 Ru1'
_cell_volume   553.21805374
_cell_formula_units_Z   1
loop_
 _symmetry_equiv_pos_site_id
 _symmetry_equiv_pos_as_xyz
  1  'x, y, z'
loop_
 _atom_site_type_symbol
 _atom_site_label
 _atom_site_symmetry_multiplicity
 _atom_site_fract_x
 _atom_site_fract_y
 _atom_site_fract_z
 _atom_site_occupancy
  Dy  Dy0  1  0.332325  0.666068  0.500000  1
  Dy  Dy1  1  0.665186  0.332950  0.500000  1
  Dy  Dy2  1  0.001003  0.812964  0.000000  1
  Dy  Dy3  1  0.189328  0.188565  0.000000  1
  Dy  Dy4  1  0.812576  0.000432  0.000000  1
  Tc  Tc5  1  0.990280  0.445701  0.500000  1
  Tc  Tc6  1  0.554502  0.545909  0.500000  1
  Tc  Tc7  1  0.455101  0.007800  0.500000  1
  Tc  Tc8  1  0.620921  0.799542  0.500000  1
  Tc  Tc9  1  0.200196  0.819631  0.500000  1
  Tc  Tc10  1  0.180368  0.379259  0.500000  1
  P  P11  1  0.006709  0.637497  0.500000  1
  P  P12  1  0.364027  0.366192  0.500000  1
  P  P13  1  0.631770  0.993309  0.500000  1
  P  P14  1  0.521720  0.694510  0.000000  1
  P  P15  1  0.305862  0.827076  0.000000  1
  P  P16  1  0.171907  0.478000  0.000000  1
  P  P17  1  0.478520  0.169827  0.000000  1
  P  P18  1  0.684349  0.518105  0.000000  1
  P  P19  1  0.830697  0.313521  0.000000  1
  P  P20  1  0.004465  0.182948  0.500000  1
  P  P21  1  0.818785  0.821319  0.500000  1
  P  P22  1  0.182421  0.998632  0.500000  1
  Ir  Ir23  1  0.507506  0.875148  0.000000  1
  Ir  Ir24  1  0.124803  0.631620  0.000000  1
  Ir  Ir25  1  0.367409  0.495225  0.000000  1
  Ir  Ir26  1  0.491026  0.359830  0.000000  1
  Ir  Ir27  1  0.862672  0.505350  0.000000  1
  Ir  Ir28  1  0.639780  0.136046  0.000000  1
  Ir  Ir29  1  0.995440  0.281644  0.000000  1
  Ir  Ir30  1  0.719468  0.714536  0.000000  1
  Ir  Ir31  1  0.284805  0.002086  0.000000  1
  Ir  Ir32  1  0.811775  0.626356  0.500000  1
  Ir  Ir33  1  0.814372  0.188355  0.500000  1
  Ir  Ir34  1  0.001026  0.000776  0.500000  1
  Ru  Ru35  1  0.376898  0.183271  0.500000  1
