# generated using pymatgen
data_Li3Er5(As3Rh4)4
_symmetry_space_group_name_H-M   'P 1'
_cell_length_a   13.18733600
_cell_length_b   13.18733601
_cell_length_c   4.02329200
_cell_angle_alpha   90.00000000
_cell_angle_beta   90.00000000
_cell_angle_gamma   119.99999997
_symmetry_Int_Tables_number   1
_chemical_formula_structural   Li3Er5(As3Rh4)4
_chemical_formula_sum   'Li3 Er5 As12 Rh16'
_cell_volume   605.93540527
_cell_formula_units_Z   1
loop_
 _symmetry_equiv_pos_site_id
 _symmetry_equiv_pos_as_xyz
  1  'x, y, z'
loop_
 _atom_site_type_symbol
 _atom_site_label
 _atom_site_symmetry_multiplicity
 _atom_site_fract_x
 _atom_site_fract_y
 _atom_site_fract_z
 _atom_site_occupancy
  Li  Li0  1  0.559362  0.559362  0.000000  1
  Li  Li1  1  0.440638  0.000000  0.000000  1
  Li  Li2  1  0.000000  0.440638  0.000000  1
  Er  Er3  1  0.194523  0.194523  0.500000  1
  Er  Er4  1  0.805477  0.000000  0.500000  1
  Er  Er5  1  0.000000  0.805477  0.500000  1
  Er  Er6  1  0.333333  0.666667  0.000000  1
  Er  Er7  1  0.666667  0.333333  0.000000  1
  As  As8  1  0.822045  0.822045  0.000000  1
  As  As9  1  0.177955  0.000000  0.000000  1
  As  As10  1  0.000000  0.177955  0.000000  1
  As  As11  1  0.170892  0.486105  0.500000  1
  As  As12  1  0.513895  0.684787  0.500000  1
  As  As13  1  0.315213  0.829108  0.500000  1
  As  As14  1  0.684787  0.513895  0.500000  1
  As  As15  1  0.829108  0.315213  0.500000  1
  As  As16  1  0.486105  0.170892  0.500000  1
  As  As17  1  0.369871  0.369871  0.000000  1
  As  As18  1  0.630129  0.000000  0.000000  1
  As  As19  1  0.000000  0.630129  0.000000  1
  Rh  Rh20  1  0.719610  0.719610  0.500000  1
  Rh  Rh21  1  0.280390  0.000000  0.500000  1
  Rh  Rh22  1  0.000000  0.280390  0.500000  1
  Rh  Rh23  1  0.177689  0.377130  0.000000  1
  Rh  Rh24  1  0.622870  0.800559  0.000000  1
  Rh  Rh25  1  0.199441  0.822311  0.000000  1
  Rh  Rh26  1  0.800559  0.622870  0.000000  1
  Rh  Rh27  1  0.822311  0.199441  0.000000  1
  Rh  Rh28  1  0.377130  0.177689  0.000000  1
  Rh  Rh29  1  0.355199  0.483642  0.500000  1
  Rh  Rh30  1  0.516358  0.871557  0.500000  1
  Rh  Rh31  1  0.128443  0.644801  0.500000  1
  Rh  Rh32  1  0.871557  0.516358  0.500000  1
  Rh  Rh33  1  0.644801  0.128443  0.500000  1
  Rh  Rh34  1  0.483642  0.355199  0.500000  1
  Rh  Rh35  1  0.000000  0.000000  0.000000  1
