# generated using pymatgen
data_Ta3(TiB3)2
_symmetry_space_group_name_H-M   'P 1'
_cell_length_a   11.45978460
_cell_length_b   11.45978502
_cell_length_c   3.28362500
_cell_angle_alpha   90.00000000
_cell_angle_beta   90.00000000
_cell_angle_gamma   164.49165144
_symmetry_Int_Tables_number   1
_chemical_formula_structural   Ta3(TiB3)2
_chemical_formula_sum   'Ta3 Ti2 B6'
_cell_volume   115.30109247
_cell_formula_units_Z   1
loop_
 _symmetry_equiv_pos_site_id
 _symmetry_equiv_pos_as_xyz
  1  'x, y, z'
loop_
 _atom_site_type_symbol
 _atom_site_label
 _atom_site_symmetry_multiplicity
 _atom_site_fract_x
 _atom_site_fract_y
 _atom_site_fract_z
 _atom_site_occupancy
  Ta  Ta0  1  0.804771  0.195229  0.500000  1
  Ta  Ta1  1  0.386474  0.613526  0.000000  1
  Ta  Ta2  1  0.615006  0.384994  0.000000  1
  Ti  Ti3  1  0.194273  0.805727  0.500000  1
  Ti  Ti4  1  0.000322  0.999678  0.000000  1
  B  B5  1  0.461619  0.538381  0.500000  1
  B  B6  1  0.539641  0.460359  0.500000  1
  B  B7  1  0.270012  0.729988  0.000000  1
  B  B8  1  0.726757  0.273243  0.000000  1
  B  B9  1  0.080739  0.919261  0.500000  1
  B  B10  1  0.920385  0.079615  0.500000  1
