# generated using pymatgen
data_Ce4MnSi2Ir
_symmetry_space_group_name_H-M   'P 1'
_cell_length_a   7.56886700
_cell_length_b   7.56886666
_cell_length_c   9.64566700
_cell_angle_alpha   90.00000000
_cell_angle_beta   90.00000000
_cell_angle_gamma   119.99999710
_symmetry_Int_Tables_number   1
_chemical_formula_structural   Ce4MnSi2Ir
_chemical_formula_sum   'Ce12 Mn3 Si6 Ir3'
_cell_volume   478.54704346
_cell_formula_units_Z   3
loop_
 _symmetry_equiv_pos_site_id
 _symmetry_equiv_pos_as_xyz
  1  'x, y, z'
loop_
 _atom_site_type_symbol
 _atom_site_label
 _atom_site_symmetry_multiplicity
 _atom_site_fract_x
 _atom_site_fract_y
 _atom_site_fract_z
 _atom_site_occupancy
  Ce  Ce0  1  0.000000  0.575330  0.488901  1
  Ce  Ce1  1  0.575330  0.000000  0.488901  1
  Ce  Ce2  1  0.424670  0.424670  0.488901  1
  Ce  Ce3  1  0.000000  0.394624  0.018908  1
  Ce  Ce4  1  0.394624  0.000000  0.018908  1
  Ce  Ce5  1  0.605376  0.605376  0.018908  1
  Ce  Ce6  1  0.000000  0.744834  0.176533  1
  Ce  Ce7  1  0.744834  0.000000  0.176533  1
  Ce  Ce8  1  0.255166  0.255166  0.176533  1
  Ce  Ce9  1  0.000000  0.270824  0.663630  1
  Ce  Ce10  1  0.270824  0.000000  0.663630  1
  Ce  Ce11  1  0.729176  0.729176  0.663630  1
  Mn  Mn12  1  0.000000  0.351579  0.340592  1
  Mn  Mn13  1  0.351579  0.000000  0.340592  1
  Mn  Mn14  1  0.648421  0.648421  0.340592  1
  Si  Si15  1  0.666667  0.333333  0.269809  1
  Si  Si16  1  0.333333  0.666667  0.269809  1
  Si  Si17  1  0.333333  0.666667  0.785743  1
  Si  Si18  1  0.666667  0.333333  0.785743  1
  Si  Si19  1  0.000000  0.000000  0.420499  1
  Si  Si20  1  0.000000  0.000000  0.911261  1
  Ir  Ir21  1  0.000000  0.663793  0.840230  1
  Ir  Ir22  1  0.663793  0.000000  0.840230  1
  Ir  Ir23  1  0.336207  0.336207  0.840230  1
