# generated using pymatgen
data_YbYTh3Si3C
_symmetry_space_group_name_H-M   'P 1'
_cell_length_a   8.76065300
_cell_length_b   8.76065234
_cell_length_c   6.39206100
_cell_angle_alpha   90.00000000
_cell_angle_beta   90.00000000
_cell_angle_gamma   120.00000627
_symmetry_Int_Tables_number   1
_chemical_formula_structural   YbYTh3Si3C
_chemical_formula_sum   'Yb2 Y2 Th6 Si6 C2'
_cell_volume   424.85862556
_cell_formula_units_Z   2
loop_
 _symmetry_equiv_pos_site_id
 _symmetry_equiv_pos_as_xyz
  1  'x, y, z'
loop_
 _atom_site_type_symbol
 _atom_site_label
 _atom_site_symmetry_multiplicity
 _atom_site_fract_x
 _atom_site_fract_y
 _atom_site_fract_z
 _atom_site_occupancy
  Yb  Yb0  1  0.666667  0.333333  0.000000  1
  Yb  Yb1  1  0.333333  0.666667  0.000000  1
  Y  Y2  1  0.333333  0.666667  0.500000  1
  Y  Y3  1  0.666667  0.333333  0.500000  1
  Th  Th4  1  0.765400  0.765400  0.750949  1
  Th  Th5  1  0.234600  0.000000  0.750949  1
  Th  Th6  1  0.000000  0.234600  0.750949  1
  Th  Th7  1  0.234600  0.234600  0.249051  1
  Th  Th8  1  0.765400  0.000000  0.249051  1
  Th  Th9  1  0.000000  0.765400  0.249051  1
  Si  Si10  1  0.398268  0.398268  0.735738  1
  Si  Si11  1  0.601732  0.000000  0.735738  1
  Si  Si12  1  0.000000  0.601732  0.735738  1
  Si  Si13  1  0.601732  0.601732  0.264262  1
  Si  Si14  1  0.398268  0.000000  0.264262  1
  Si  Si15  1  0.000000  0.398268  0.264262  1
  C  C16  1  0.000000  0.000000  0.000000  1
  C  C17  1  0.000000  0.000000  0.500000  1
