# generated using pymatgen
data_TbAl2ZnGa4Cu5
_symmetry_space_group_name_H-M   'P 1'
_cell_length_a   6.65557831
_cell_length_b   6.65557811
_cell_length_c   6.65557828
_cell_angle_alpha   133.88925751
_cell_angle_beta   99.15704110
_cell_angle_gamma   98.48741766
_symmetry_Int_Tables_number   1
_chemical_formula_structural   TbAl2ZnGa4Cu5
_chemical_formula_sum   'Tb1 Al2 Zn1 Ga4 Cu5'
_cell_volume   195.49610772
_cell_formula_units_Z   1
loop_
 _symmetry_equiv_pos_site_id
 _symmetry_equiv_pos_as_xyz
  1  'x, y, z'
loop_
 _atom_site_type_symbol
 _atom_site_label
 _atom_site_symmetry_multiplicity
 _atom_site_fract_x
 _atom_site_fract_y
 _atom_site_fract_z
 _atom_site_occupancy
  Tb  Tb0  1  0.998953  0.000000  0.998953  1
  Al  Al1  1  0.785834  0.290625  0.495208  1
  Al  Al2  1  0.204583  0.709375  0.495208  1
  Zn  Zn3  1  0.224214  0.500000  0.724214  1
  Ga  Ga4  1  0.353139  0.348093  0.005046  1
  Ga  Ga5  1  0.656953  0.651907  0.005046  1
  Ga  Ga6  1  0.654035  0.000000  0.654035  1
  Ga  Ga7  1  0.348128  0.000000  0.348128  1
  Cu  Cu8  1  0.498558  0.998348  0.997665  1
  Cu  Cu9  1  0.498558  0.500894  0.500210  1
  Cu  Cu10  1  0.999316  0.001652  0.500210  1
  Cu  Cu11  1  0.999316  0.499106  0.997665  1
  Cu  Cu12  1  0.778413  0.500000  0.278413  1
