# generated using pymatgen
data_ZrGa5Fe6Ge
_symmetry_space_group_name_H-M   'P 1'
_cell_length_a   6.50826612
_cell_length_b   6.50826588
_cell_length_c   6.50826606
_cell_angle_alpha   134.84597820
_cell_angle_beta   99.82927378
_cell_angle_gamma   97.12783552
_symmetry_Int_Tables_number   1
_chemical_formula_structural   ZrGa5Fe6Ge
_chemical_formula_sum   'Zr1 Ga5 Fe6 Ge1'
_cell_volume   180.40804855
_cell_formula_units_Z   1
loop_
 _symmetry_equiv_pos_site_id
 _symmetry_equiv_pos_as_xyz
  1  'x, y, z'
loop_
 _atom_site_type_symbol
 _atom_site_label
 _atom_site_symmetry_multiplicity
 _atom_site_fract_x
 _atom_site_fract_y
 _atom_site_fract_z
 _atom_site_occupancy
  Zr  Zr0  1  0.999430  0.000000  0.999430  1
  Ga  Ga1  1  0.657605  0.000000  0.657605  1
  Ga  Ga2  1  0.661401  0.659890  0.001511  1
  Ga  Ga3  1  0.341622  0.340110  0.001511  1
  Ga  Ga4  1  0.175184  0.674992  0.500193  1
  Ga  Ga5  1  0.825201  0.325008  0.500193  1
  Fe  Fe6  1  0.756065  0.500000  0.256065  1
  Fe  Fe7  1  0.244803  0.500000  0.744803  1
  Fe  Fe8  1  0.000897  0.001076  0.500687  1
  Fe  Fe9  1  0.000897  0.500210  0.999820  1
  Fe  Fe10  1  0.499611  0.998924  0.999820  1
  Fe  Fe11  1  0.499611  0.499790  0.500687  1
  Ge  Ge12  1  0.337675  0.000000  0.337675  1
