# generated using pymatgen
data_Pr2Lu(CdIr6)3
_symmetry_space_group_name_H-M   'P 1'
_cell_length_a   8.97543848
_cell_length_b   8.97543848
_cell_length_c   5.16034700
_cell_angle_alpha   90.00000000
_cell_angle_beta   90.00000000
_cell_angle_gamma   89.78714449
_symmetry_Int_Tables_number   1
_chemical_formula_structural   Pr2Lu(CdIr6)3
_chemical_formula_sum   'Pr2 Lu1 Cd3 Ir18'
_cell_volume   415.70692438
_cell_formula_units_Z   1
loop_
 _symmetry_equiv_pos_site_id
 _symmetry_equiv_pos_as_xyz
  1  'x, y, z'
loop_
 _atom_site_type_symbol
 _atom_site_label
 _atom_site_symmetry_multiplicity
 _atom_site_fract_x
 _atom_site_fract_y
 _atom_site_fract_z
 _atom_site_occupancy
  Pr  Pr0  1  0.505196  0.498791  0.000000  1
  Pr  Pr1  1  0.998791  0.005196  0.000000  1
  Lu  Lu2  1  0.115860  0.615860  0.000000  1
  Cd  Cd3  1  0.879500  0.379500  0.000000  1
  Cd  Cd4  1  0.383100  0.117219  0.000000  1
  Cd  Cd5  1  0.617219  0.883100  0.000000  1
  Ir  Ir6  1  0.318946  0.818946  0.758241  1
  Ir  Ir7  1  0.681635  0.181635  0.757523  1
  Ir  Ir8  1  0.182536  0.318098  0.758374  1
  Ir  Ir9  1  0.818098  0.682536  0.758374  1
  Ir  Ir10  1  0.681635  0.181635  0.242477  1
  Ir  Ir11  1  0.318946  0.818946  0.241759  1
  Ir  Ir12  1  0.818098  0.682536  0.241626  1
  Ir  Ir13  1  0.182536  0.318098  0.241626  1
  Ir  Ir14  1  0.554339  0.704085  0.500000  1
  Ir  Ir15  1  0.443548  0.296412  0.500000  1
  Ir  Ir16  1  0.944357  0.204339  0.500000  1
  Ir  Ir17  1  0.057147  0.793987  0.500000  1
  Ir  Ir18  1  0.704339  0.444357  0.500000  1
  Ir  Ir19  1  0.293987  0.557147  0.500000  1
  Ir  Ir20  1  0.204085  0.054339  0.500000  1
  Ir  Ir21  1  0.796412  0.943548  0.500000  1
  Ir  Ir22  1  0.998652  0.498652  0.500000  1
  Ir  Ir23  1  0.501040  0.001040  0.500000  1
