# generated using pymatgen
data_Dy5Ta3Co16(SiP3)3
_symmetry_space_group_name_H-M   'P 1'
_cell_length_a   12.27925100
_cell_length_b   12.27925172
_cell_length_c   3.68814100
_cell_angle_alpha   90.00000000
_cell_angle_beta   90.00000000
_cell_angle_gamma   119.99998999
_symmetry_Int_Tables_number   1
_chemical_formula_structural   Dy5Ta3Co16(SiP3)3
_chemical_formula_sum   'Dy5 Ta3 Co16 Si3 P9'
_cell_volume   481.59500147
_cell_formula_units_Z   1
loop_
 _symmetry_equiv_pos_site_id
 _symmetry_equiv_pos_as_xyz
  1  'x, y, z'
loop_
 _atom_site_type_symbol
 _atom_site_label
 _atom_site_symmetry_multiplicity
 _atom_site_fract_x
 _atom_site_fract_y
 _atom_site_fract_z
 _atom_site_occupancy
  Dy  Dy0  1  0.666667  0.333333  0.000000  1
  Dy  Dy1  1  0.333333  0.666667  0.000000  1
  Dy  Dy2  1  0.180670  0.180670  0.500000  1
  Dy  Dy3  1  0.819330  0.000000  0.500000  1
  Dy  Dy4  1  0.000000  0.819330  0.500000  1
  Ta  Ta5  1  0.560829  0.560829  0.000000  1
  Ta  Ta6  1  0.439171  0.000000  0.000000  1
  Ta  Ta7  1  0.000000  0.439171  0.000000  1
  Co  Co8  1  0.825421  0.199909  0.000000  1
  Co  Co9  1  0.800091  0.625511  0.000000  1
  Co  Co10  1  0.374489  0.174579  0.000000  1
  Co  Co11  1  0.199909  0.825421  0.000000  1
  Co  Co12  1  0.625511  0.800091  0.000000  1
  Co  Co13  1  0.174579  0.374489  0.000000  1
  Co  Co14  1  0.642682  0.125622  0.500000  1
  Co  Co15  1  0.874378  0.517059  0.500000  1
  Co  Co16  1  0.482941  0.357318  0.500000  1
  Co  Co17  1  0.125622  0.642682  0.500000  1
  Co  Co18  1  0.517059  0.874378  0.500000  1
  Co  Co19  1  0.357318  0.482941  0.500000  1
  Co  Co20  1  0.719508  0.719508  0.500000  1
  Co  Co21  1  0.280492  0.000000  0.500000  1
  Co  Co22  1  0.000000  0.280492  0.500000  1
  Co  Co23  1  0.000000  0.000000  0.000000  1
  Si  Si24  1  0.354532  0.354532  0.000000  1
  Si  Si25  1  0.645468  0.000000  0.000000  1
  Si  Si26  1  0.000000  0.645468  0.000000  1
  P  P27  1  0.830075  0.309078  0.500000  1
  P  P28  1  0.690922  0.520997  0.500000  1
  P  P29  1  0.479003  0.169925  0.500000  1
  P  P30  1  0.309078  0.830075  0.500000  1
  P  P31  1  0.520997  0.690922  0.500000  1
  P  P32  1  0.169925  0.479003  0.500000  1
  P  P33  1  0.820899  0.820899  0.000000  1
  P  P34  1  0.179101  0.000000  0.000000  1
  P  P35  1  0.000000  0.179101  0.000000  1
