# generated using pymatgen
data_CePr(AlIr)2
_symmetry_space_group_name_H-M   'P 1'
_cell_length_a   6.97007900
_cell_length_b   4.35969100
_cell_length_c   8.02756800
_cell_angle_alpha   90.00000000
_cell_angle_beta   90.00000000
_cell_angle_gamma   90.00000000
_symmetry_Int_Tables_number   1
_chemical_formula_structural   CePr(AlIr)2
_chemical_formula_sum   'Ce2 Pr2 Al4 Ir4'
_cell_volume   243.93684507
_cell_formula_units_Z   2
loop_
 _symmetry_equiv_pos_site_id
 _symmetry_equiv_pos_as_xyz
  1  'x, y, z'
loop_
 _atom_site_type_symbol
 _atom_site_label
 _atom_site_symmetry_multiplicity
 _atom_site_fract_x
 _atom_site_fract_y
 _atom_site_fract_z
 _atom_site_occupancy
  Ce  Ce0  1  0.036356  0.750000  0.818898  1
  Ce  Ce1  1  0.536356  0.750000  0.681102  1
  Pr  Pr2  1  0.964401  0.250000  0.182867  1
  Pr  Pr3  1  0.464401  0.250000  0.317133  1
  Al  Al4  1  0.864542  0.250000  0.563420  1
  Al  Al5  1  0.364542  0.250000  0.936580  1
  Al  Al6  1  0.136379  0.750000  0.439530  1
  Al  Al7  1  0.636379  0.750000  0.060470  1
  Ir  Ir8  1  0.732542  0.250000  0.873259  1
  Ir  Ir9  1  0.232542  0.250000  0.626741  1
  Ir  Ir10  1  0.265780  0.750000  0.106798  1
  Ir  Ir11  1  0.765780  0.750000  0.393202  1
