# generated using pymatgen
data_TbDy3(ErAl)4
_symmetry_space_group_name_H-M   'P 1'
_cell_length_a   5.07175500
_cell_length_b   6.56286863
_cell_length_c   9.39435939
_cell_angle_alpha   90.02917456
_cell_angle_beta   90.00000000
_cell_angle_gamma   90.00000000
_symmetry_Int_Tables_number   1
_chemical_formula_structural   TbDy3(ErAl)4
_chemical_formula_sum   'Tb1 Dy3 Er4 Al4'
_cell_volume   312.69367111
_cell_formula_units_Z   1
loop_
 _symmetry_equiv_pos_site_id
 _symmetry_equiv_pos_as_xyz
  1  'x, y, z'
loop_
 _atom_site_type_symbol
 _atom_site_label
 _atom_site_symmetry_multiplicity
 _atom_site_fract_x
 _atom_site_fract_y
 _atom_site_fract_z
 _atom_site_occupancy
  Tb  Tb0  1  0.750000  0.687842  0.428830  1
  Dy  Dy1  1  0.250000  0.811719  0.928656  1
  Dy  Dy2  1  0.250000  0.312126  0.571346  1
  Dy  Dy3  1  0.750000  0.187866  0.071188  1
  Er  Er4  1  0.250000  0.970055  0.289043  1
  Er  Er5  1  0.250000  0.469302  0.211039  1
  Er  Er6  1  0.750000  0.030319  0.710720  1
  Er  Er7  1  0.750000  0.530234  0.789232  1
  Al  Al8  1  0.250000  0.290445  0.895908  1
  Al  Al9  1  0.250000  0.790548  0.603780  1
  Al  Al10  1  0.750000  0.709664  0.104289  1
  Al  Al11  1  0.750000  0.209882  0.395968  1
