# generated using pymatgen
data_LiTa3Nb2(ReSi)6
_symmetry_space_group_name_H-M   'P 1'
_cell_length_a   7.66205641
_cell_length_b   7.57052125
_cell_length_c   7.66205726
_cell_angle_alpha   126.05336140
_cell_angle_beta   129.59861150
_cell_angle_gamma   77.19934075
_symmetry_Int_Tables_number   1
_chemical_formula_structural   LiTa3Nb2(ReSi)6
_chemical_formula_sum   'Li1 Ta3 Nb2 Re6 Si6'
_cell_volume   268.31982299
_cell_formula_units_Z   1
loop_
 _symmetry_equiv_pos_site_id
 _symmetry_equiv_pos_as_xyz
  1  'x, y, z'
loop_
 _atom_site_type_symbol
 _atom_site_label
 _atom_site_symmetry_multiplicity
 _atom_site_fract_x
 _atom_site_fract_y
 _atom_site_fract_z
 _atom_site_occupancy
  Li  Li0  1  0.556157  0.107950  0.051795  1
  Ta  Ta1  1  0.048741  0.093889  0.545149  1
  Ta  Ta2  1  0.753633  0.904203  0.650570  1
  Ta  Ta3  1  0.242133  0.887568  0.145435  1
  Nb  Nb4  1  0.447872  0.491687  0.543815  1
  Nb  Nb5  1  0.949740  0.491209  0.041469  1
  Re  Re6  1  0.500084  0.237417  0.734863  1
  Re  Re7  1  0.002553  0.237417  0.237333  1
  Re  Re8  1  0.123331  0.754982  0.621946  1
  Re  Re9  1  0.874880  0.500676  0.633127  1
  Re  Re10  1  0.633036  0.754982  0.131652  1
  Re  Re11  1  0.367548  0.500676  0.125796  1
  Si  Si12  1  0.745848  0.489581  0.243733  1
  Si  Si13  1  0.250828  0.497318  0.746490  1
  Si  Si14  1  0.344471  0.836138  0.517950  1
  Si  Si15  1  0.656427  0.160183  0.475653  1
  Si  Si16  1  0.818188  0.836138  0.991667  1
  Si  Si17  1  0.184530  0.160183  0.003756  1
