# generated using pymatgen
data_YbSmU6(ReB6)4
_symmetry_space_group_name_H-M   'P 1'
_cell_length_a   3.64810600
_cell_length_b   9.29757083
_cell_length_c   11.39820639
_cell_angle_alpha   89.96986638
_cell_angle_beta   90.00000000
_cell_angle_gamma   90.00000000
_symmetry_Int_Tables_number   1
_chemical_formula_structural   YbSmU6(ReB6)4
_chemical_formula_sum   'Yb1 Sm1 U6 Re4 B24'
_cell_volume   386.61028271
_cell_formula_units_Z   1
loop_
 _symmetry_equiv_pos_site_id
 _symmetry_equiv_pos_as_xyz
  1  'x, y, z'
loop_
 _atom_site_type_symbol
 _atom_site_label
 _atom_site_symmetry_multiplicity
 _atom_site_fract_x
 _atom_site_fract_y
 _atom_site_fract_z
 _atom_site_occupancy
  Yb  Yb0  1  0.000000  0.663145  0.591630  1
  Sm  Sm1  1  0.000000  0.336859  0.408392  1
  U  U2  1  0.000000  0.836121  0.092504  1
  U  U3  1  0.000000  0.163915  0.907040  1
  U  U4  1  0.000000  0.955047  0.396974  1
  U  U5  1  0.000000  0.042250  0.604038  1
  U  U6  1  0.000000  0.457713  0.103314  1
  U  U7  1  0.000000  0.542958  0.895630  1
  Re  Re8  1  0.000000  0.648928  0.314966  1
  Re  Re9  1  0.000000  0.351520  0.684992  1
  Re  Re10  1  0.000000  0.142761  0.177291  1
  Re  Re11  1  0.000000  0.857025  0.822825  1
  B  B12  1  0.500000  0.554154  0.430665  1
  B  B13  1  0.500000  0.448256  0.570530  1
  B  B14  1  0.500000  0.049833  0.067411  1
  B  B15  1  0.500000  0.950154  0.932491  1
  B  B16  1  0.500000  0.743083  0.422949  1
  B  B17  1  0.500000  0.256759  0.577865  1
  B  B18  1  0.500000  0.242941  0.076201  1
  B  B19  1  0.500000  0.757254  0.923445  1
  B  B20  1  0.500000  0.803660  0.273412  1
  B  B21  1  0.500000  0.196129  0.726729  1
  B  B22  1  0.500000  0.301706  0.224757  1
  B  B23  1  0.500000  0.698635  0.774676  1
  B  B24  1  0.500000  0.645409  0.187452  1
  B  B25  1  0.500000  0.354798  0.812266  1
  B  B26  1  0.500000  0.143519  0.311204  1
  B  B27  1  0.500000  0.855725  0.688783  1
  B  B28  1  0.500000  0.987004  0.218977  1
  B  B29  1  0.500000  0.012492  0.781096  1
  B  B30  1  0.500000  0.489785  0.280366  1
  B  B31  1  0.500000  0.511190  0.719013  1
  B  B32  1  0.500000  0.643323  0.038979  1
  B  B33  1  0.500000  0.356798  0.960730  1
  B  B34  1  0.500000  0.137846  0.461645  1
  B  B35  1  0.500000  0.861307  0.538761  1
