# generated using pymatgen
data_Dy5FeReO12
_symmetry_space_group_name_H-M   'P 1'
_cell_length_a   6.82492729
_cell_length_b   6.82492679
_cell_length_c   7.39080713
_cell_angle_alpha   74.10808788
_cell_angle_beta   74.10808772
_cell_angle_gamma   50.88012152
_symmetry_Int_Tables_number   1
_chemical_formula_structural   Dy5FeReO12
_chemical_formula_sum   'Dy5 Fe1 Re1 O12'
_cell_volume   254.51241637
_cell_formula_units_Z   1
loop_
 _symmetry_equiv_pos_site_id
 _symmetry_equiv_pos_as_xyz
  1  'x, y, z'
loop_
 _atom_site_type_symbol
 _atom_site_label
 _atom_site_symmetry_multiplicity
 _atom_site_fract_x
 _atom_site_fract_y
 _atom_site_fract_z
 _atom_site_occupancy
  Dy  Dy0  1  0.180632  0.213182  0.640492  1
  Dy  Dy1  1  0.188530  0.188545  0.173209  1
  Dy  Dy2  1  0.488692  0.511308  0.500000  1
  Dy  Dy3  1  0.786818  0.819368  0.359508  1
  Dy  Dy4  1  0.811455  0.811470  0.826791  1
  Fe  Fe5  1  0.742677  0.257323  0.000000  1
  Re  Re6  1  0.274646  0.725354  0.000000  1
  O  O7  1  0.406166  0.911580  0.916060  1
  O  O8  1  0.935756  0.402534  0.916460  1
  O  O9  1  0.897855  0.412943  0.421903  1
  O  O10  1  0.392374  0.910010  0.430905  1
  O  O11  1  0.495363  0.507828  0.190738  1
  O  O12  1  0.022199  0.978267  0.182435  1
  O  O13  1  0.021733  0.977801  0.817565  1
  O  O14  1  0.492172  0.504637  0.809262  1
  O  O15  1  0.088420  0.593834  0.083940  1
  O  O16  1  0.597466  0.064244  0.083540  1
  O  O17  1  0.089990  0.607626  0.569095  1
  O  O18  1  0.587057  0.102145  0.578097  1
