# generated using pymatgen
data_AuS8Br3
_symmetry_space_group_name_H-M   'P 1'
_cell_length_a   8.40458194
_cell_length_b   10.87009090
_cell_length_c   11.91216226
_cell_angle_alpha   101.27907193
_cell_angle_beta   107.93367461
_cell_angle_gamma   104.68189673
_symmetry_Int_Tables_number   1
_chemical_formula_structural   AuS8Br3
_chemical_formula_sum   'Au2 S16 Br6'
_cell_volume   956.30296361
_cell_formula_units_Z   2
loop_
 _symmetry_equiv_pos_site_id
 _symmetry_equiv_pos_as_xyz
  1  'x, y, z'
loop_
 _atom_site_type_symbol
 _atom_site_label
 _atom_site_symmetry_multiplicity
 _atom_site_fract_x
 _atom_site_fract_y
 _atom_site_fract_z
 _atom_site_occupancy
  Au  Au0  1  0.812538  0.964977  0.852470  1
  Au  Au1  1  0.187462  0.035023  0.147530  1
  S  S2  1  0.860711  0.513593  0.814154  1
  S  S3  1  0.139289  0.486407  0.185846  1
  S  S4  1  0.731857  0.431676  0.624920  1
  S  S5  1  0.268143  0.568324  0.375080  1
  S  S6  1  0.743485  0.242364  0.576412  1
  S  S7  1  0.256515  0.757636  0.423588  1
  S  S8  1  0.943531  0.248618  0.509932  1
  S  S9  1  0.056469  0.751382  0.490068  1
  S  S10  1  0.881196  0.370429  0.145916  1
  S  S11  1  0.118804  0.629571  0.854084  1
  S  S12  1  0.714242  0.479874  0.107066  1
  S  S13  1  0.285758  0.520126  0.892934  1
  S  S14  1  0.666622  0.550534  0.263370  1
  S  S15  1  0.333378  0.449466  0.736630  1
  S  S16  1  0.831883  0.745773  0.350957  1
  S  S17  1  0.168117  0.254227  0.649043  1
  Br  Br18  1  0.505912  0.957738  0.799002  1
  Br  Br19  1  0.494088  0.042262  0.200998  1
  Br  Br20  1  0.865129  0.017950  0.080444  1
  Br  Br21  1  0.134871  0.982050  0.919556  1
  Br  Br22  1  0.779083  0.903040  0.636596  1
  Br  Br23  1  0.220917  0.096960  0.363404  1
