# generated using pymatgen
data_La3Yb4Ni4Sn13
_symmetry_space_group_name_H-M   'P 1'
_cell_length_a   11.27853700
_cell_length_b   11.27853700
_cell_length_c   4.61089100
_cell_angle_alpha   90.00000000
_cell_angle_beta   90.00000000
_cell_angle_gamma   90.00000000
_symmetry_Int_Tables_number   1
_chemical_formula_structural   La3Yb4Ni4Sn13
_chemical_formula_sum   'La3 Yb4 Ni4 Sn13'
_cell_volume   586.53021953
_cell_formula_units_Z   1
loop_
 _symmetry_equiv_pos_site_id
 _symmetry_equiv_pos_as_xyz
  1  'x, y, z'
loop_
 _atom_site_type_symbol
 _atom_site_label
 _atom_site_symmetry_multiplicity
 _atom_site_fract_x
 _atom_site_fract_y
 _atom_site_fract_z
 _atom_site_occupancy
  La  La0  1  0.000000  0.000000  0.000000  1
  La  La1  1  0.500000  0.000000  0.500000  1
  La  La2  1  0.000000  0.500000  0.500000  1
  Yb  Yb3  1  0.337854  0.670775  0.500000  1
  Yb  Yb4  1  0.662146  0.329225  0.500000  1
  Yb  Yb5  1  0.329225  0.337854  0.500000  1
  Yb  Yb6  1  0.670775  0.662146  0.500000  1
  Ni  Ni7  1  0.121234  0.722805  0.000000  1
  Ni  Ni8  1  0.878766  0.277195  0.000000  1
  Ni  Ni9  1  0.277195  0.121234  0.000000  1
  Ni  Ni10  1  0.722805  0.878766  0.000000  1
  Sn  Sn11  1  0.286338  0.888263  0.000000  1
  Sn  Sn12  1  0.713662  0.111737  0.000000  1
  Sn  Sn13  1  0.111737  0.286338  0.000000  1
  Sn  Sn14  1  0.888263  0.713662  0.000000  1
  Sn  Sn15  1  0.076749  0.805615  0.500000  1
  Sn  Sn16  1  0.923251  0.194385  0.500000  1
  Sn  Sn17  1  0.194385  0.076749  0.500000  1
  Sn  Sn18  1  0.805615  0.923251  0.500000  1
  Sn  Sn19  1  0.518896  0.781421  0.000000  1
  Sn  Sn20  1  0.481104  0.218579  0.000000  1
  Sn  Sn21  1  0.218579  0.518896  0.000000  1
  Sn  Sn22  1  0.781421  0.481104  0.000000  1
  Sn  Sn23  1  0.500000  0.500000  0.000000  1
