# generated using pymatgen
data_PrTm3Ni14
_symmetry_space_group_name_H-M   'P 1'
_cell_length_a   4.93706960
_cell_length_b   4.93900012
_cell_length_c   12.31202310
_cell_angle_alpha   101.53930364
_cell_angle_beta   78.46764996
_cell_angle_gamma   119.96529855
_symmetry_Int_Tables_number   1
_chemical_formula_structural   PrTm3Ni14
_chemical_formula_sum   'Pr1 Tm3 Ni14'
_cell_volume   253.05604968
_cell_formula_units_Z   1
loop_
 _symmetry_equiv_pos_site_id
 _symmetry_equiv_pos_as_xyz
  1  'x, y, z'
loop_
 _atom_site_type_symbol
 _atom_site_label
 _atom_site_symmetry_multiplicity
 _atom_site_fract_x
 _atom_site_fract_y
 _atom_site_fract_z
 _atom_site_occupancy
  Pr  Pr0  1  0.051422  0.948464  0.846160  1
  Tm  Tm1  1  0.948143  0.051914  0.155029  1
  Tm  Tm2  1  0.852960  0.147191  0.441562  1
  Tm  Tm3  1  0.148247  0.851682  0.555056  1
  Ni  Ni4  1  0.499040  0.001176  0.003116  1
  Ni  Ni5  1  0.998874  0.500852  0.003108  1
  Ni  Ni6  1  0.498815  0.500879  0.003109  1
  Ni  Ni7  1  0.610786  0.389181  0.166792  1
  Ni  Ni8  1  0.277664  0.722703  0.167049  1
  Ni  Ni9  1  0.388707  0.108469  0.330774  1
  Ni  Ni10  1  0.891499  0.611321  0.330745  1
  Ni  Ni11  1  0.388902  0.611376  0.330830  1
  Ni  Ni12  1  0.500320  0.499673  0.499161  1
  Ni  Ni13  1  0.612110  0.387809  0.666459  1
  Ni  Ni14  1  0.109284  0.387705  0.666589  1
  Ni  Ni15  1  0.612234  0.890659  0.666555  1
  Ni  Ni16  1  0.721877  0.277875  0.833694  1
  Ni  Ni17  1  0.389113  0.611071  0.834208  1
