# generated using pymatgen
data_CsTmP2O7
_symmetry_space_group_name_H-M   'P 1'
_cell_length_a   5.61981193
_cell_length_b   5.61981164
_cell_length_c   12.63853800
_cell_angle_alpha   90.00000000
_cell_angle_beta   90.00000000
_cell_angle_gamma   117.89266145
_symmetry_Int_Tables_number   1
_chemical_formula_structural   CsTmP2O7
_chemical_formula_sum   'Cs2 Tm2 P4 O14'
_cell_volume   352.78242000
_cell_formula_units_Z   2
loop_
 _symmetry_equiv_pos_site_id
 _symmetry_equiv_pos_as_xyz
  1  'x, y, z'
loop_
 _atom_site_type_symbol
 _atom_site_label
 _atom_site_symmetry_multiplicity
 _atom_site_fract_x
 _atom_site_fract_y
 _atom_site_fract_z
 _atom_site_occupancy
  Cs  Cs0  1  0.688642  0.311358  0.250000  1
  Cs  Cs1  1  0.311358  0.688642  0.750000  1
  Tm  Tm2  1  0.000000  0.000000  0.000000  1
  Tm  Tm3  1  0.000000  0.000000  0.500000  1
  P  P4  1  0.348793  0.651207  0.373671  1
  P  P5  1  0.651207  0.348793  0.626329  1
  P  P6  1  0.348793  0.651207  0.126329  1
  P  P7  1  0.651207  0.348793  0.873671  1
  O  O8  1  0.345641  0.213995  0.611508  1
  O  O9  1  0.789040  0.210960  0.567339  1
  O  O10  1  0.654359  0.786005  0.388492  1
  O  O11  1  0.654359  0.786005  0.111508  1
  O  O12  1  0.210960  0.789040  0.432661  1
  O  O13  1  0.786005  0.654359  0.888492  1
  O  O14  1  0.210960  0.789040  0.067339  1
  O  O15  1  0.789040  0.210960  0.932661  1
  O  O16  1  0.786005  0.654359  0.611508  1
  O  O17  1  0.702479  0.297521  0.750000  1
  O  O18  1  0.213995  0.345641  0.388492  1
  O  O19  1  0.213995  0.345641  0.111508  1
  O  O20  1  0.297521  0.702479  0.250000  1
  O  O21  1  0.345641  0.213995  0.888492  1
