# generated using pymatgen
data_Te4Pt3RhI4
_symmetry_space_group_name_H-M   'P 1'
_cell_length_a   8.10269300
_cell_length_b   8.12887200
_cell_length_c   5.65965400
_cell_angle_alpha   90.00000000
_cell_angle_beta   90.00000000
_cell_angle_gamma   90.00000000
_symmetry_Int_Tables_number   1
_chemical_formula_structural   Te4Pt3RhI4
_chemical_formula_sum   'Te4 Pt3 Rh1 I4'
_cell_volume   372.77737952
_cell_formula_units_Z   1
loop_
 _symmetry_equiv_pos_site_id
 _symmetry_equiv_pos_as_xyz
  1  'x, y, z'
loop_
 _atom_site_type_symbol
 _atom_site_label
 _atom_site_symmetry_multiplicity
 _atom_site_fract_x
 _atom_site_fract_y
 _atom_site_fract_z
 _atom_site_occupancy
  Te  Te0  1  0.499951  0.292207  0.000000  1
  Te  Te1  1  0.499951  0.707792  0.000000  1
  Te  Te2  1  0.287805  0.500000  0.500000  1
  Te  Te3  1  0.707441  0.500000  0.500000  1
  Pt  Pt4  1  0.749430  0.500000  0.000000  1
  Pt  Pt5  1  0.497973  0.251706  0.500000  1
  Pt  Pt6  1  0.497973  0.748292  0.500000  1
  Rh  Rh7  1  0.255906  0.500000  0.000000  1
  I  I8  1  0.002775  0.272381  0.000000  1
  I  I9  1  0.002775  0.727619  0.000000  1
  I  I10  1  0.270153  0.000000  0.500000  1
  I  I11  1  0.727863  0.000000  0.500000  1
