# generated using pymatgen
data_Yb2TmLu2CuPb3
_symmetry_space_group_name_H-M   'P 1'
_cell_length_a   9.07826500
_cell_length_b   9.08255578
_cell_length_c   6.78422100
_cell_angle_alpha   90.00000000
_cell_angle_beta   90.00000000
_cell_angle_gamma   119.98437735
_symmetry_Int_Tables_number   1
_chemical_formula_structural   Yb2TmLu2CuPb3
_chemical_formula_sum   'Yb4 Tm2 Lu4 Cu2 Pb6'
_cell_volume   484.51797692
_cell_formula_units_Z   2
loop_
 _symmetry_equiv_pos_site_id
 _symmetry_equiv_pos_as_xyz
  1  'x, y, z'
loop_
 _atom_site_type_symbol
 _atom_site_label
 _atom_site_symmetry_multiplicity
 _atom_site_fract_x
 _atom_site_fract_y
 _atom_site_fract_z
 _atom_site_occupancy
  Yb  Yb0  1  0.333117  0.666236  0.500000  1
  Yb  Yb1  1  0.666883  0.333764  0.500000  1
  Yb  Yb2  1  0.666883  0.333764  0.000000  1
  Yb  Yb3  1  0.333117  0.666236  0.000000  1
  Tm  Tm4  1  0.252559  0.000000  0.750000  1
  Tm  Tm5  1  0.747441  0.000000  0.250000  1
  Lu  Lu6  1  0.000317  0.251758  0.750000  1
  Lu  Lu7  1  0.999683  0.748242  0.250000  1
  Lu  Lu8  1  0.748559  0.748242  0.750000  1
  Lu  Lu9  1  0.251441  0.251758  0.250000  1
  Cu  Cu10  1  0.000000  0.000000  0.500000  1
  Cu  Cu11  1  0.000000  0.000000  0.000000  1
  Pb  Pb12  1  0.609054  0.000000  0.750000  1
  Pb  Pb13  1  0.390946  0.000000  0.250000  1
  Pb  Pb14  1  0.000060  0.608164  0.750000  1
  Pb  Pb15  1  0.999940  0.391836  0.250000  1
  Pb  Pb16  1  0.391896  0.391836  0.750000  1
  Pb  Pb17  1  0.608104  0.608164  0.250000  1
