# generated using pymatgen
data_K9Rb3(AlSe3)4
_symmetry_space_group_name_H-M   'P 1'
_cell_length_a   13.47662170
_cell_length_b   8.25604389
_cell_length_c   10.61514310
_cell_angle_alpha   52.44167896
_cell_angle_beta   89.74470763
_cell_angle_gamma   89.72446948
_symmetry_Int_Tables_number   1
_chemical_formula_structural   K9Rb3(AlSe3)4
_chemical_formula_sum   'K9 Rb3 Al4 Se12'
_cell_volume   936.26792822
_cell_formula_units_Z   1
loop_
 _symmetry_equiv_pos_site_id
 _symmetry_equiv_pos_as_xyz
  1  'x, y, z'
loop_
 _atom_site_type_symbol
 _atom_site_label
 _atom_site_symmetry_multiplicity
 _atom_site_fract_x
 _atom_site_fract_y
 _atom_site_fract_z
 _atom_site_occupancy
  K  K0  1  0.898359  0.321400  0.399016  1
  K  K1  1  0.618509  0.376666  0.470982  1
  K  K2  1  0.118686  0.623514  0.028998  1
  K  K3  1  0.381135  0.623069  0.529118  1
  K  K4  1  0.881627  0.376876  0.970764  1
  K  K5  1  0.602271  0.321280  0.898821  1
  K  K6  1  0.102483  0.678896  0.601061  1
  K  K7  1  0.397590  0.678571  0.101194  1
  K  K8  1  0.188193  0.151097  0.574953  1
  Rb  Rb9  1  0.312279  0.152737  0.072093  1
  Rb  Rb10  1  0.687470  0.847556  0.927837  1
  Rb  Rb11  1  0.812659  0.847338  0.428008  1
  Al  Al12  1  0.062346  0.942543  0.157646  1
  Al  Al13  1  0.561442  0.056198  0.342600  1
  Al  Al14  1  0.437334  0.945254  0.657102  1
  Al  Al15  1  0.938571  0.056459  0.842015  1
  Se  Se16  1  0.400262  0.174162  0.369332  1
  Se  Se17  1  0.901814  0.827002  0.130673  1
  Se  Se18  1  0.598169  0.826459  0.630986  1
  Se  Se19  1  0.099491  0.171932  0.867954  1
  Se  Se20  1  0.683801  0.321567  0.200507  1
  Se  Se21  1  0.183910  0.673238  0.301683  1
  Se  Se22  1  0.314093  0.682340  0.797717  1
  Se  Se23  1  0.815636  0.321913  0.700754  1
  Se  Se24  1  0.547242  0.869800  0.239029  1
  Se  Se25  1  0.047828  0.130175  0.260395  1
  Se  Se26  1  0.452431  0.130936  0.761066  1
  Se  Se27  1  0.954369  0.871019  0.737694  1
