# generated using pymatgen
data_Tb5Tm(Lu2Pb3)2
_symmetry_space_group_name_H-M   'P 1'
_cell_length_a   6.54718700
_cell_length_b   9.01203060
_cell_length_c   9.02501436
_cell_angle_alpha   120.01154665
_cell_angle_beta   89.99977291
_cell_angle_gamma   90.00043430
_symmetry_Int_Tables_number   1
_chemical_formula_structural   Tb5Tm(Lu2Pb3)2
_chemical_formula_sum   'Tb5 Tm1 Lu4 Pb6'
_cell_volume   461.11090555
_cell_formula_units_Z   1
loop_
 _symmetry_equiv_pos_site_id
 _symmetry_equiv_pos_as_xyz
  1  'x, y, z'
loop_
 _atom_site_type_symbol
 _atom_site_label
 _atom_site_symmetry_multiplicity
 _atom_site_fract_x
 _atom_site_fract_y
 _atom_site_fract_z
 _atom_site_occupancy
  Tb  Tb0  1  0.749998  0.237000  0.999760  1
  Tb  Tb1  1  0.750011  0.762971  0.762374  1
  Tb  Tb2  1  0.750012  0.000239  0.238269  1
  Tb  Tb3  1  0.250013  0.762723  0.999541  1
  Tb  Tb4  1  0.250005  0.237423  0.237150  1
  Tm  Tm5  1  0.249999  0.999793  0.762772  1
  Lu  Lu6  1  0.499844  0.333221  0.666855  1
  Lu  Lu7  1  0.499826  0.666677  0.333202  1
  Lu  Lu8  1  0.000129  0.666712  0.333222  1
  Lu  Lu9  1  0.000172  0.333253  0.666858  1
  Pb  Pb10  1  0.749986  0.603326  0.999966  1
  Pb  Pb11  1  0.750006  0.396532  0.396455  1
  Pb  Pb12  1  0.750009  0.999942  0.603029  1
  Pb  Pb13  1  0.249981  0.394749  0.998717  1
  Pb  Pb14  1  0.250014  0.605463  0.604106  1
  Pb  Pb15  1  0.249995  0.999977  0.397723  1
