# generated using pymatgen
data_La16Ho3TmIr12
_symmetry_space_group_name_H-M   'P 1'
_cell_length_a   11.36809700
_cell_length_b   11.36809700
_cell_length_c   6.53910300
_cell_angle_alpha   90.00000000
_cell_angle_beta   90.00000000
_cell_angle_gamma   90.00000000
_symmetry_Int_Tables_number   1
_chemical_formula_structural   La16Ho3TmIr12
_chemical_formula_sum   'La16 Ho3 Tm1 Ir12'
_cell_volume   845.07201372
_cell_formula_units_Z   1
loop_
 _symmetry_equiv_pos_site_id
 _symmetry_equiv_pos_as_xyz
  1  'x, y, z'
loop_
 _atom_site_type_symbol
 _atom_site_label
 _atom_site_symmetry_multiplicity
 _atom_site_fract_x
 _atom_site_fract_y
 _atom_site_fract_z
 _atom_site_occupancy
  La  La0  1  0.287730  0.088085  0.387761  1
  La  La1  1  0.287686  0.911983  0.887819  1
  La  La2  1  0.712314  0.088017  0.887819  1
  La  La3  1  0.712270  0.911915  0.387761  1
  La  La4  1  0.588010  0.787513  0.887746  1
  La  La5  1  0.588004  0.212702  0.387895  1
  La  La6  1  0.411996  0.787298  0.387895  1
  La  La7  1  0.411990  0.212487  0.887746  1
  La  La8  1  0.212702  0.411996  0.612105  1
  La  La9  1  0.212487  0.588010  0.112254  1
  La  La10  1  0.787513  0.411990  0.112254  1
  La  La11  1  0.787298  0.588004  0.612105  1
  La  La12  1  0.911983  0.712314  0.112181  1
  La  La13  1  0.911915  0.287730  0.612239  1
  La  La14  1  0.088085  0.712270  0.612239  1
  La  La15  1  0.088017  0.287686  0.112181  1
  Ho  Ho16  1  0.000000  0.000000  0.500000  1
  Ho  Ho17  1  0.000000  0.000000  0.000000  1
  Ho  Ho18  1  0.500000  0.500000  0.000000  1
  Tm  Tm19  1  0.500000  0.500000  0.500000  1
  Ir  Ir20  1  0.852013  0.148015  0.249983  1
  Ir  Ir21  1  0.851985  0.852013  0.750017  1
  Ir  Ir22  1  0.148015  0.147987  0.750017  1
  Ir  Ir23  1  0.147987  0.851985  0.249983  1
  Ir  Ir24  1  0.647433  0.352557  0.749139  1
  Ir  Ir25  1  0.647443  0.647433  0.250861  1
  Ir  Ir26  1  0.352557  0.352567  0.250861  1
  Ir  Ir27  1  0.352567  0.647443  0.749139  1
  Ir  Ir28  1  0.500000  0.000000  0.118054  1
  Ir  Ir29  1  0.500000  0.000000  0.618125  1
  Ir  Ir30  1  0.000000  0.500000  0.881946  1
  Ir  Ir31  1  0.000000  0.500000  0.381875  1
