# generated using pymatgen
data_NdHo3SiBr6
_symmetry_space_group_name_H-M   'P 1'
_cell_length_a   4.07914100
_cell_length_b   13.36716029
_cell_length_c   14.11352945
_cell_angle_alpha   90.82517174
_cell_angle_beta   90.00000000
_cell_angle_gamma   90.00000000
_symmetry_Int_Tables_number   1
_chemical_formula_structural   NdHo3SiBr6
_chemical_formula_sum   'Nd2 Ho6 Si2 Br12'
_cell_volume   769.48200116
_cell_formula_units_Z   2
loop_
 _symmetry_equiv_pos_site_id
 _symmetry_equiv_pos_as_xyz
  1  'x, y, z'
loop_
 _atom_site_type_symbol
 _atom_site_label
 _atom_site_symmetry_multiplicity
 _atom_site_fract_x
 _atom_site_fract_y
 _atom_site_fract_z
 _atom_site_occupancy
  Nd  Nd0  1  0.000000  0.622088  0.918709  1
  Nd  Nd1  1  0.000000  0.377912  0.081291  1
  Ho  Ho2  1  0.500000  0.116107  0.343435  1
  Ho  Ho3  1  0.500000  0.883893  0.656565  1
  Ho  Ho4  1  0.500000  0.618409  0.158916  1
  Ho  Ho5  1  0.500000  0.381591  0.841084  1
  Ho  Ho6  1  0.000000  0.116543  0.577969  1
  Ho  Ho7  1  0.000000  0.883457  0.422031  1
  Si  Si8  1  0.500000  0.000000  0.500000  1
  Si  Si9  1  0.500000  0.500000  0.000000  1
  Br  Br10  1  0.500000  0.234819  0.169844  1
  Br  Br11  1  0.500000  0.765181  0.830156  1
  Br  Br12  1  0.500000  0.748213  0.338004  1
  Br  Br13  1  0.500000  0.251787  0.661996  1
  Br  Br14  1  0.000000  0.251279  0.412760  1
  Br  Br15  1  0.000000  0.748721  0.587240  1
  Br  Br16  1  0.000000  0.755156  0.096520  1
  Br  Br17  1  0.000000  0.244844  0.903480  1
  Br  Br18  1  0.000000  0.001380  0.246724  1
  Br  Br19  1  0.000000  0.998620  0.753276  1
  Br  Br20  1  0.000000  0.510511  0.259837  1
  Br  Br21  1  0.000000  0.489489  0.740163  1
