# generated using pymatgen
data_Li8UTa6NbN16
_symmetry_space_group_name_H-M   'P 1'
_cell_length_a   18.98236550
_cell_length_b   4.21625905
_cell_length_c   4.21130301
_cell_angle_alpha   89.99976965
_cell_angle_beta   89.99036962
_cell_angle_gamma   89.99015709
_symmetry_Int_Tables_number   1
_chemical_formula_structural   Li8UTa6NbN16
_chemical_formula_sum   'Li8 U1 Ta6 Nb1 N16'
_cell_volume   337.04981732
_cell_formula_units_Z   1
loop_
 _symmetry_equiv_pos_site_id
 _symmetry_equiv_pos_as_xyz
  1  'x, y, z'
loop_
 _atom_site_type_symbol
 _atom_site_label
 _atom_site_symmetry_multiplicity
 _atom_site_fract_x
 _atom_site_fract_y
 _atom_site_fract_z
 _atom_site_occupancy
  Li  Li0  1  0.172529  0.999437  0.749295  1
  Li  Li1  1  0.818012  0.000421  0.250385  1
  Li  Li2  1  0.291996  0.999510  0.249286  1
  Li  Li3  1  0.703411  0.000457  0.750622  1
  Li  Li4  1  0.055983  0.499769  0.749593  1
  Li  Li5  1  0.937161  0.500258  0.250063  1
  Li  Li6  1  0.436813  0.499619  0.250195  1
  Li  Li7  1  0.583142  0.500513  0.750661  1
  U  U8  1  0.437604  0.999556  0.750268  1
  Ta  Ta9  1  0.058497  0.999570  0.249723  1
  Ta  Ta10  1  0.937474  0.000570  0.749895  1
  Ta  Ta11  1  0.300498  0.499469  0.748925  1
  Ta  Ta12  1  0.694625  0.500399  0.250882  1
  Ta  Ta13  1  0.180238  0.499111  0.249162  1
  Ta  Ta14  1  0.816555  0.500482  0.750841  1
  Nb  Nb15  1  0.575308  0.000897  0.250419  1
  N  N16  1  0.319544  0.999590  0.749249  1
  N  N17  1  0.684951  0.000479  0.250636  1
  N  N18  1  0.170385  0.999739  0.249301  1
  N  N19  1  0.826321  0.000341  0.750395  1
  N  N20  1  0.415909  0.499535  0.750063  1
  N  N21  1  0.584734  0.500252  0.250469  1
  N  N22  1  0.069780  0.499802  0.249649  1
  N  N23  1  0.927101  0.500112  0.749996  1
  N  N24  1  0.048796  0.999726  0.749680  1
  N  N25  1  0.948096  0.000176  0.249959  1
  N  N26  1  0.456911  0.999703  0.250313  1
  N  N27  1  0.553954  0.000322  0.750477  1
  N  N28  1  0.191881  0.499598  0.749365  1
  N  N29  1  0.805821  0.500431  0.250320  1
  N  N30  1  0.291285  0.499644  0.249401  1
  N  N31  1  0.704682  0.500512  0.750509  1
