# generated using pymatgen
data_Gd4MgPd4Pb
_symmetry_space_group_name_H-M   'P 1'
_cell_length_a   8.00990500
_cell_length_b   8.00990500
_cell_length_c   3.68445100
_cell_angle_alpha   90.00000000
_cell_angle_beta   90.00000000
_cell_angle_gamma   90.00000000
_symmetry_Int_Tables_number   1
_chemical_formula_structural   Gd4MgPd4Pb
_chemical_formula_sum   'Gd4 Mg1 Pd4 Pb1'
_cell_volume   236.38913727
_cell_formula_units_Z   1
loop_
 _symmetry_equiv_pos_site_id
 _symmetry_equiv_pos_as_xyz
  1  'x, y, z'
loop_
 _atom_site_type_symbol
 _atom_site_label
 _atom_site_symmetry_multiplicity
 _atom_site_fract_x
 _atom_site_fract_y
 _atom_site_fract_z
 _atom_site_occupancy
  Gd  Gd0  1  0.323378  0.841240  0.500000  1
  Gd  Gd1  1  0.676622  0.158760  0.500000  1
  Gd  Gd2  1  0.158760  0.323378  0.500000  1
  Gd  Gd3  1  0.841240  0.676622  0.500000  1
  Mg  Mg4  1  0.500000  0.500000  0.000000  1
  Pd  Pd5  1  0.855077  0.385908  0.000000  1
  Pd  Pd6  1  0.614092  0.855077  0.000000  1
  Pd  Pd7  1  0.385908  0.144923  0.000000  1
  Pd  Pd8  1  0.144923  0.614092  0.000000  1
  Pb  Pb9  1  0.000000  0.000000  0.000000  1
