# generated using pymatgen
data_Pr3Al12OsRh3
_symmetry_space_group_name_H-M   'P 1'
_cell_length_a   8.93421600
_cell_length_b   8.93421412
_cell_length_c   9.67536500
_cell_angle_alpha   90.00000000
_cell_angle_beta   90.00000000
_cell_angle_gamma   119.99999216
_symmetry_Int_Tables_number   1
_chemical_formula_structural   Pr3Al12OsRh3
_chemical_formula_sum   'Pr6 Al24 Os2 Rh6'
_cell_volume   668.82242825
_cell_formula_units_Z   2
loop_
 _symmetry_equiv_pos_site_id
 _symmetry_equiv_pos_as_xyz
  1  'x, y, z'
loop_
 _atom_site_type_symbol
 _atom_site_label
 _atom_site_symmetry_multiplicity
 _atom_site_fract_x
 _atom_site_fract_y
 _atom_site_fract_z
 _atom_site_occupancy
  Pr  Pr0  1  0.190399  0.380798  0.250000  1
  Pr  Pr1  1  0.809601  0.619202  0.750000  1
  Pr  Pr2  1  0.619202  0.809601  0.250000  1
  Pr  Pr3  1  0.380798  0.190399  0.750000  1
  Pr  Pr4  1  0.190399  0.809601  0.250000  1
  Pr  Pr5  1  0.809601  0.190399  0.750000  1
  Al  Al6  1  0.333333  0.666667  0.019810  1
  Al  Al7  1  0.666667  0.333333  0.980190  1
  Al  Al8  1  0.666667  0.333333  0.519810  1
  Al  Al9  1  0.333333  0.666667  0.480190  1
  Al  Al10  1  0.163278  0.326554  0.574106  1
  Al  Al11  1  0.836722  0.673446  0.425894  1
  Al  Al12  1  0.673446  0.836722  0.574106  1
  Al  Al13  1  0.836722  0.673446  0.074106  1
  Al  Al14  1  0.326554  0.163278  0.425894  1
  Al  Al15  1  0.163278  0.326554  0.925894  1
  Al  Al16  1  0.163278  0.836722  0.574106  1
  Al  Al17  1  0.326554  0.163278  0.074106  1
  Al  Al18  1  0.836722  0.163278  0.425894  1
  Al  Al19  1  0.673446  0.836722  0.925894  1
  Al  Al20  1  0.836722  0.163278  0.074106  1
  Al  Al21  1  0.163278  0.836722  0.925894  1
  Al  Al22  1  0.563632  0.127263  0.250000  1
  Al  Al23  1  0.436368  0.872737  0.750000  1
  Al  Al24  1  0.872737  0.436368  0.250000  1
  Al  Al25  1  0.127263  0.563632  0.750000  1
  Al  Al26  1  0.563632  0.436368  0.250000  1
  Al  Al27  1  0.436368  0.563632  0.750000  1
  Al  Al28  1  0.000000  0.000000  0.250000  1
  Al  Al29  1  0.000000  0.000000  0.750000  1
  Os  Os30  1  0.000000  0.000000  0.000000  1
  Os  Os31  1  0.000000  0.000000  0.500000  1
  Rh  Rh32  1  0.500000  0.000000  0.000000  1
  Rh  Rh33  1  0.000000  0.500000  0.000000  1
  Rh  Rh34  1  0.500000  0.000000  0.500000  1
  Rh  Rh35  1  0.500000  0.500000  0.000000  1
  Rh  Rh36  1  0.000000  0.500000  0.500000  1
  Rh  Rh37  1  0.500000  0.500000  0.500000  1
