# generated using pymatgen
data_Y20CdCo2Pd5
_symmetry_space_group_name_H-M   'P 1'
_cell_length_a   9.49970872
_cell_length_b   9.51426992
_cell_length_c   9.34192600
_cell_angle_alpha   90.00000000
_cell_angle_beta   90.00000000
_cell_angle_gamma   120.05071071
_symmetry_Int_Tables_number   1
_chemical_formula_structural   Y20CdCo2Pd5
_chemical_formula_sum   'Y20 Cd1 Co2 Pd5'
_cell_volume   730.85405807
_cell_formula_units_Z   1
loop_
 _symmetry_equiv_pos_site_id
 _symmetry_equiv_pos_as_xyz
  1  'x, y, z'
loop_
 _atom_site_type_symbol
 _atom_site_label
 _atom_site_symmetry_multiplicity
 _atom_site_fract_x
 _atom_site_fract_y
 _atom_site_fract_z
 _atom_site_occupancy
  Y  Y0  1  0.008174  0.004087  0.476764  1
  Y  Y1  1  0.008174  0.004087  0.023236  1
  Y  Y2  1  0.541312  0.457763  0.250000  1
  Y  Y3  1  0.541312  0.083547  0.250000  1
  Y  Y4  1  0.915759  0.457879  0.250000  1
  Y  Y5  1  0.446314  0.533136  0.750000  1
  Y  Y6  1  0.446314  0.913178  0.750000  1
  Y  Y7  1  0.080948  0.540475  0.750000  1
  Y  Y8  1  0.207586  0.789572  0.439060  1
  Y  Y9  1  0.207586  0.418015  0.439060  1
  Y  Y10  1  0.581734  0.790867  0.437682  1
  Y  Y11  1  0.792085  0.207225  0.560366  1
  Y  Y12  1  0.792085  0.584858  0.560366  1
  Y  Y13  1  0.416910  0.208455  0.561175  1
  Y  Y14  1  0.792085  0.207225  0.939634  1
  Y  Y15  1  0.792085  0.584858  0.939634  1
  Y  Y16  1  0.416910  0.208455  0.938825  1
  Y  Y17  1  0.207586  0.789572  0.060940  1
  Y  Y18  1  0.207586  0.418015  0.060940  1
  Y  Y19  1  0.581734  0.790867  0.062318  1
  Cd  Cd20  1  0.776678  0.888339  0.750000  1
  Co  Co21  1  0.329821  0.664911  0.250000  1
  Co  Co22  1  0.668981  0.334490  0.750000  1
  Pd  Pd23  1  0.874675  0.123487  0.250000  1
  Pd  Pd24  1  0.874675  0.751188  0.250000  1
  Pd  Pd25  1  0.253212  0.126606  0.250000  1
  Pd  Pd26  1  0.118840  0.880516  0.750000  1
  Pd  Pd27  1  0.118840  0.238324  0.750000  1
