# generated using pymatgen
data_Ti10Ga5SiO
_symmetry_space_group_name_H-M   'P 1'
_cell_length_a   7.59414785
_cell_length_b   7.58268519
_cell_length_c   5.23891044
_cell_angle_alpha   90.16513613
_cell_angle_beta   89.91755656
_cell_angle_gamma   119.95008254
_symmetry_Int_Tables_number   1
_chemical_formula_structural   Ti10Ga5SiO
_chemical_formula_sum   'Ti10 Ga5 Si1 O1'
_cell_volume   261.39068546
_cell_formula_units_Z   1
loop_
 _symmetry_equiv_pos_site_id
 _symmetry_equiv_pos_as_xyz
  1  'x, y, z'
loop_
 _atom_site_type_symbol
 _atom_site_label
 _atom_site_symmetry_multiplicity
 _atom_site_fract_x
 _atom_site_fract_y
 _atom_site_fract_z
 _atom_site_occupancy
  Ti  Ti0  1  0.000000  0.760913  0.256308  1
  Ti  Ti1  1  0.229369  0.234982  0.255225  1
  Ti  Ti2  1  0.770631  0.005613  0.255225  1
  Ti  Ti3  1  0.000000  0.236273  0.745228  1
  Ti  Ti4  1  0.767503  0.767973  0.745042  1
  Ti  Ti5  1  0.232497  0.000470  0.745042  1
  Ti  Ti6  1  0.329217  0.663138  0.497653  1
  Ti  Ti7  1  0.670783  0.333921  0.497653  1
  Ti  Ti8  1  0.669807  0.333584  0.001815  1
  Ti  Ti9  1  0.330193  0.663778  0.001815  1
  Ga  Ga10  1  0.602406  0.603251  0.245138  1
  Ga  Ga11  1  0.397594  0.000845  0.245138  1
  Ga  Ga12  1  0.000000  0.601967  0.755390  1
  Ga  Ga13  1  0.400718  0.398787  0.754740  1
  Ga  Ga14  1  0.599282  0.998069  0.754740  1
  Si  Si15  1  0.000000  0.397582  0.242984  1
  O  O16  1  0.000000  0.998854  0.500862  1
