# generated using pymatgen
data_TbSc6Sn23Rh6
_symmetry_space_group_name_H-M   'P 1'
_cell_length_a   9.72659100
_cell_length_b   9.72659184
_cell_length_c   9.96558400
_cell_angle_alpha   90.00000000
_cell_angle_beta   90.00000000
_cell_angle_gamma   120.00000735
_symmetry_Int_Tables_number   1
_chemical_formula_structural   TbSc6Sn23Rh6
_chemical_formula_sum   'Tb1 Sc6 Sn23 Rh6'
_cell_volume   816.49719998
_cell_formula_units_Z   1
loop_
 _symmetry_equiv_pos_site_id
 _symmetry_equiv_pos_as_xyz
  1  'x, y, z'
loop_
 _atom_site_type_symbol
 _atom_site_label
 _atom_site_symmetry_multiplicity
 _atom_site_fract_x
 _atom_site_fract_y
 _atom_site_fract_z
 _atom_site_occupancy
  Tb  Tb0  1  0.000000  0.000000  0.000000  1
  Sc  Sc1  1  0.481905  0.518095  0.310082  1
  Sc  Sc2  1  0.518095  0.481905  0.689918  1
  Sc  Sc3  1  0.481905  0.963809  0.310082  1
  Sc  Sc4  1  0.518095  0.036191  0.689918  1
  Sc  Sc5  1  0.036191  0.518095  0.310082  1
  Sc  Sc6  1  0.963809  0.481905  0.689918  1
  Sn  Sn7  1  0.352472  0.000000  0.000000  1
  Sn  Sn8  1  0.647528  0.000000  0.000000  1
  Sn  Sn9  1  0.000000  0.352472  0.000000  1
  Sn  Sn10  1  0.000000  0.647528  0.000000  1
  Sn  Sn11  1  0.647528  0.647528  0.000000  1
  Sn  Sn12  1  0.352472  0.352472  0.000000  1
  Sn  Sn13  1  0.333333  0.666667  0.823294  1
  Sn  Sn14  1  0.666667  0.333333  0.176706  1
  Sn  Sn15  1  0.000000  0.000000  0.500000  1
  Sn  Sn16  1  0.776772  0.223228  0.457716  1
  Sn  Sn17  1  0.223228  0.776772  0.542284  1
  Sn  Sn18  1  0.776772  0.553545  0.457716  1
  Sn  Sn19  1  0.223228  0.446455  0.542284  1
  Sn  Sn20  1  0.446455  0.223228  0.457716  1
  Sn  Sn21  1  0.553545  0.776772  0.542284  1
  Sn  Sn22  1  0.333333  0.666667  0.137787  1
  Sn  Sn23  1  0.666667  0.333333  0.862213  1
  Sn  Sn24  1  0.123305  0.876695  0.282201  1
  Sn  Sn25  1  0.876695  0.123305  0.717799  1
  Sn  Sn26  1  0.123305  0.246612  0.282201  1
  Sn  Sn27  1  0.876695  0.753388  0.717799  1
  Sn  Sn28  1  0.753388  0.876695  0.282201  1
  Sn  Sn29  1  0.246612  0.123305  0.717799  1
  Rh  Rh30  1  0.830331  0.169669  0.200155  1
  Rh  Rh31  1  0.169669  0.830331  0.799845  1
  Rh  Rh32  1  0.830331  0.660661  0.200155  1
  Rh  Rh33  1  0.169669  0.339339  0.799845  1
  Rh  Rh34  1  0.339339  0.169669  0.200155  1
  Rh  Rh35  1  0.660661  0.830331  0.799845  1
