# generated using pymatgen
data_Nd8Zn2Pd23
_symmetry_space_group_name_H-M   'P 1'
_cell_length_a   8.44511600
_cell_length_b   8.48873900
_cell_length_c   8.54455500
_cell_angle_alpha   90.00000000
_cell_angle_beta   90.00000000
_cell_angle_gamma   90.00000000
_symmetry_Int_Tables_number   1
_chemical_formula_structural   Nd8Zn2Pd23
_chemical_formula_sum   'Nd8 Zn2 Pd23'
_cell_volume   612.54535318
_cell_formula_units_Z   1
loop_
 _symmetry_equiv_pos_site_id
 _symmetry_equiv_pos_as_xyz
  1  'x, y, z'
loop_
 _atom_site_type_symbol
 _atom_site_label
 _atom_site_symmetry_multiplicity
 _atom_site_fract_x
 _atom_site_fract_y
 _atom_site_fract_z
 _atom_site_occupancy
  Nd  Nd0  1  0.249519  0.244621  0.258570  1
  Nd  Nd1  1  0.748949  0.748375  0.750620  1
  Nd  Nd2  1  0.748949  0.748375  0.249380  1
  Nd  Nd3  1  0.748949  0.251625  0.750620  1
  Nd  Nd4  1  0.249519  0.244621  0.741430  1
  Nd  Nd5  1  0.249519  0.755379  0.258570  1
  Nd  Nd6  1  0.249519  0.755379  0.741430  1
  Nd  Nd7  1  0.748949  0.251625  0.249380  1
  Zn  Zn8  1  0.997609  0.000000  0.000000  1
  Zn  Zn9  1  0.277740  0.500000  0.000000  1
  Pd  Pd10  1  0.741682  0.500000  0.000000  1
  Pd  Pd11  1  0.996220  0.260046  0.500000  1
  Pd  Pd12  1  0.492314  0.263881  0.000000  1
  Pd  Pd13  1  0.996220  0.739954  0.500000  1
  Pd  Pd14  1  0.492314  0.736119  0.000000  1
  Pd  Pd15  1  0.500745  0.000000  0.260768  1
  Pd  Pd16  1  0.259879  0.000000  0.500000  1
  Pd  Pd17  1  0.500745  0.000000  0.739232  1
  Pd  Pd18  1  0.738324  0.000000  0.500000  1
  Pd  Pd19  1  0.003186  0.500000  0.262610  1
  Pd  Pd20  1  0.003186  0.500000  0.737390  1
  Pd  Pd21  1  0.252489  0.500000  0.500000  1
  Pd  Pd22  1  0.745974  0.500000  0.500000  1
  Pd  Pd23  1  0.501693  0.253995  0.500000  1
  Pd  Pd24  1  0.501693  0.746005  0.500000  1
  Pd  Pd25  1  0.493791  0.500000  0.252326  1
  Pd  Pd26  1  0.493791  0.500000  0.747674  1
  Pd  Pd27  1  0.293551  0.000000  0.000000  1
  Pd  Pd28  1  0.700456  0.000000  0.000000  1
  Pd  Pd29  1  0.014422  0.300702  0.000000  1
  Pd  Pd30  1  0.014422  0.699298  0.000000  1
  Pd  Pd31  1  0.996839  0.000000  0.293256  1
  Pd  Pd32  1  0.996839  0.000000  0.706744  1
