# generated using pymatgen
data_CsNp(TaBr3)6
_symmetry_space_group_name_H-M   'P 1'
_cell_length_a   10.80998675
_cell_length_b   10.80998637
_cell_length_c   10.80998700
_cell_angle_alpha   56.21065124
_cell_angle_beta   56.21065257
_cell_angle_gamma   56.21066261
_symmetry_Int_Tables_number   1
_chemical_formula_structural   CsNp(TaBr3)6
_chemical_formula_sum   'Cs1 Np1 Ta6 Br18'
_cell_volume   814.88516014
_cell_formula_units_Z   1
loop_
 _symmetry_equiv_pos_site_id
 _symmetry_equiv_pos_as_xyz
  1  'x, y, z'
loop_
 _atom_site_type_symbol
 _atom_site_label
 _atom_site_symmetry_multiplicity
 _atom_site_fract_x
 _atom_site_fract_y
 _atom_site_fract_z
 _atom_site_occupancy
  Cs  Cs0  1  0.223862  0.223862  0.223862  1
  Np  Np1  1  0.498867  0.498867  0.498867  1
  Ta  Ta2  1  0.817368  0.139073  0.912529  1
  Ta  Ta3  1  0.912529  0.817368  0.139073  1
  Ta  Ta4  1  0.139073  0.912529  0.817368  1
  Ta  Ta5  1  0.183388  0.861119  0.086304  1
  Ta  Ta6  1  0.086304  0.183388  0.861119  1
  Ta  Ta7  1  0.861119  0.086304  0.183388  1
  Br  Br8  1  0.878125  0.402117  0.721015  1
  Br  Br9  1  0.721015  0.878125  0.402117  1
  Br  Br10  1  0.402117  0.721015  0.878125  1
  Br  Br11  1  0.120953  0.598173  0.280978  1
  Br  Br12  1  0.280978  0.120953  0.598173  1
  Br  Br13  1  0.598173  0.280978  0.120953  1
  Br  Br14  1  0.551282  0.332979  0.799057  1
  Br  Br15  1  0.799057  0.551282  0.332979  1
  Br  Br16  1  0.332979  0.799057  0.551282  1
  Br  Br17  1  0.446571  0.669472  0.201643  1
  Br  Br18  1  0.201643  0.446571  0.669472  1
  Br  Br19  1  0.669472  0.201643  0.446571  1
  Br  Br20  1  0.664565  0.944028  0.063204  1
  Br  Br21  1  0.063204  0.664565  0.944028  1
  Br  Br22  1  0.944028  0.063204  0.664565  1
  Br  Br23  1  0.339160  0.053877  0.931429  1
  Br  Br24  1  0.931429  0.339160  0.053877  1
  Br  Br25  1  0.053877  0.931429  0.339160  1
