# generated using pymatgen
data_DyEr9In8PdRu2Pt
_symmetry_space_group_name_H-M   'P 1'
_cell_length_a   3.59354400
_cell_length_b   8.04514355
_cell_length_c   18.23786400
_cell_angle_alpha   89.95442057
_cell_angle_beta   90.00000000
_cell_angle_gamma   90.00000000
_symmetry_Int_Tables_number   1
_chemical_formula_structural   DyEr9In8PdRu2Pt
_chemical_formula_sum   'Dy1 Er9 In8 Pd1 Ru2 Pt1'
_cell_volume   527.26701044
_cell_formula_units_Z   1
loop_
 _symmetry_equiv_pos_site_id
 _symmetry_equiv_pos_as_xyz
  1  'x, y, z'
loop_
 _atom_site_type_symbol
 _atom_site_label
 _atom_site_symmetry_multiplicity
 _atom_site_fract_x
 _atom_site_fract_y
 _atom_site_fract_z
 _atom_site_occupancy
  Dy  Dy0  1  0.000000  0.500360  0.499822  1
  Er  Er1  1  0.000000  0.117395  0.412293  1
  Er  Er2  1  0.000000  0.882187  0.587319  1
  Er  Er3  1  0.000000  0.379878  0.914199  1
  Er  Er4  1  0.000000  0.619463  0.086879  1
  Er  Er5  1  0.000000  0.236991  0.221518  1
  Er  Er6  1  0.000000  0.766978  0.778287  1
  Er  Er7  1  0.000000  0.245751  0.720472  1
  Er  Er8  1  0.000000  0.750791  0.278722  1
  Er  Er9  1  0.000000  0.999879  0.000255  1
  In  In10  1  0.500000  0.423842  0.350879  1
  In  In11  1  0.500000  0.575251  0.649871  1
  In  In12  1  0.500000  0.069401  0.850361  1
  In  In13  1  0.500000  0.932146  0.149855  1
  In  In14  1  0.500000  0.293681  0.065409  1
  In  In15  1  0.500000  0.705658  0.933914  1
  In  In16  1  0.500000  0.204934  0.568723  1
  In  In17  1  0.500000  0.795446  0.431129  1
  Pd  Pd18  1  0.500000  0.477741  0.803687  1
  Ru  Ru19  1  0.500000  0.021061  0.304108  1
  Ru  Ru20  1  0.500000  0.979022  0.695830  1
  Pt  Pt21  1  0.500000  0.522142  0.196467  1
