# generated using pymatgen
data_SmEr4(MnB3)2
_symmetry_space_group_name_H-M   'P 1'
_cell_length_a   8.24196275
_cell_length_b   8.24196304
_cell_length_c   8.24196199
_cell_angle_alpha   38.34567440
_cell_angle_beta   38.34567811
_cell_angle_gamma   38.34567110
_symmetry_Int_Tables_number   1
_chemical_formula_structural   SmEr4(MnB3)2
_chemical_formula_sum   'Sm1 Er4 Mn2 B6'
_cell_volume   193.56347198
_cell_formula_units_Z   1
loop_
 _symmetry_equiv_pos_site_id
 _symmetry_equiv_pos_as_xyz
  1  'x, y, z'
loop_
 _atom_site_type_symbol
 _atom_site_label
 _atom_site_symmetry_multiplicity
 _atom_site_fract_x
 _atom_site_fract_y
 _atom_site_fract_z
 _atom_site_occupancy
  Sm  Sm0  1  0.000000  0.000000  0.000000  1
  Er  Er1  1  0.582727  0.582727  0.582727  1
  Er  Er2  1  0.417273  0.417273  0.417273  1
  Er  Er3  1  0.750104  0.750104  0.750104  1
  Er  Er4  1  0.249896  0.249896  0.249896  1
  Mn  Mn5  1  0.885716  0.885716  0.885716  1
  Mn  Mn6  1  0.114284  0.114284  0.114284  1
  B  B7  1  0.500000  0.833397  0.166603  1
  B  B8  1  0.166603  0.500000  0.833397  1
  B  B9  1  0.833397  0.166603  0.500000  1
  B  B10  1  0.500000  0.166603  0.833397  1
  B  B11  1  0.833397  0.500000  0.166603  1
  B  B12  1  0.166603  0.833397  0.500000  1
