# generated using pymatgen
data_DyY3Al14(Ga2Ir3)2
_symmetry_space_group_name_H-M   'P 1'
_cell_length_a   7.53469108
_cell_length_b   7.53507990
_cell_length_c   9.55987700
_cell_angle_alpha   90.00000000
_cell_angle_beta   90.00000000
_cell_angle_gamma   119.54388752
_symmetry_Int_Tables_number   1
_chemical_formula_structural   DyY3Al14(Ga2Ir3)2
_chemical_formula_sum   'Dy1 Y3 Al14 Ga4 Ir6'
_cell_volume   472.18698696
_cell_formula_units_Z   1
loop_
 _symmetry_equiv_pos_site_id
 _symmetry_equiv_pos_as_xyz
  1  'x, y, z'
loop_
 _atom_site_type_symbol
 _atom_site_label
 _atom_site_symmetry_multiplicity
 _atom_site_fract_x
 _atom_site_fract_y
 _atom_site_fract_z
 _atom_site_occupancy
  Dy  Dy0  1  0.330291  0.006547  0.250000  1
  Y  Y1  1  0.997175  0.672657  0.750000  1
  Y  Y2  1  0.002820  0.327345  0.250000  1
  Y  Y3  1  0.669662  0.993451  0.750000  1
  Al  Al4  1  0.001321  0.334812  0.572636  1
  Al  Al5  1  0.998738  0.665247  0.427302  1
  Al  Al6  1  0.998738  0.665247  0.072698  1
  Al  Al7  1  0.335244  0.001999  0.927285  1
  Al  Al8  1  0.001321  0.334812  0.927364  1
  Al  Al9  1  0.664704  0.998015  0.072842  1
  Al  Al10  1  0.664704  0.998015  0.427158  1
  Al  Al11  1  0.335244  0.001999  0.572715  1
  Al  Al12  1  0.333872  0.334164  0.054131  1
  Al  Al13  1  0.666130  0.665778  0.945931  1
  Al  Al14  1  0.666130  0.665778  0.554069  1
  Al  Al15  1  0.333872  0.334164  0.445869  1
  Al  Al16  1  0.548478  0.338775  0.750000  1
  Al  Al17  1  0.451535  0.661294  0.250000  1
  Ga  Ga18  1  0.129853  0.130518  0.750000  1
  Ga  Ga19  1  0.870258  0.869470  0.250000  1
  Ga  Ga20  1  0.338193  0.545596  0.750000  1
  Ga  Ga21  1  0.661661  0.454258  0.250000  1
  Ir  Ir22  1  0.671214  0.327974  0.502517  1
  Ir  Ir23  1  0.328748  0.672051  0.497427  1
  Ir  Ir24  1  0.328748  0.672051  0.002573  1
  Ir  Ir25  1  0.671214  0.327974  0.997483  1
  Ir  Ir26  1  0.000066  0.000003  0.499963  1
  Ir  Ir27  1  0.000066  0.000003  0.000037  1
