# generated using pymatgen
data_Ta2InSbPb4O13
_symmetry_space_group_name_H-M   'P 1'
_cell_length_a   7.63299537
_cell_length_b   7.60148686
_cell_length_c   7.63299432
_cell_angle_alpha   59.96377202
_cell_angle_beta   59.79368464
_cell_angle_gamma   59.96376828
_symmetry_Int_Tables_number   1
_chemical_formula_structural   Ta2InSbPb4O13
_chemical_formula_sum   'Ta2 In1 Sb1 Pb4 O13'
_cell_volume   312.50318169
_cell_formula_units_Z   1
loop_
 _symmetry_equiv_pos_site_id
 _symmetry_equiv_pos_as_xyz
  1  'x, y, z'
loop_
 _atom_site_type_symbol
 _atom_site_label
 _atom_site_symmetry_multiplicity
 _atom_site_fract_x
 _atom_site_fract_y
 _atom_site_fract_z
 _atom_site_occupancy
  Ta  Ta0  1  0.002269  0.500923  0.501082  1
  Ta  Ta1  1  0.501082  0.500923  0.002269  1
  In  In2  1  0.501115  0.500070  0.501115  1
  Sb  Sb3  1  0.499815  0.001074  0.499815  1
  Pb  Pb4  1  0.000699  0.996650  0.000699  1
  Pb  Pb5  1  0.500205  0.005803  0.999521  1
  Pb  Pb6  1  0.999521  0.005803  0.500205  1
  Pb  Pb7  1  0.005845  0.498115  0.005845  1
  O  O8  1  0.849188  0.414822  0.416884  1
  O  O9  1  0.423996  0.812403  0.812976  1
  O  O10  1  0.416884  0.414822  0.849188  1
  O  O11  1  0.812976  0.812403  0.423996  1
  O  O12  1  0.807791  0.429981  0.807791  1
  O  O13  1  0.416832  0.850170  0.416832  1
  O  O14  1  0.159237  0.578391  0.574544  1
  O  O15  1  0.574032  0.189135  0.187224  1
  O  O16  1  0.574544  0.578391  0.159237  1
  O  O17  1  0.187224  0.189135  0.574032  1
  O  O18  1  0.189922  0.571180  0.189922  1
  O  O19  1  0.580561  0.153680  0.580561  1
  O  O20  1  0.121261  0.121125  0.121261  1
