# generated using pymatgen
data_PrNd(PaPt2)2
_symmetry_space_group_name_H-M   'P 1'
_cell_length_a   4.49533400
_cell_length_b   5.74118744
_cell_length_c   7.34889176
_cell_angle_alpha   90.40982062
_cell_angle_beta   90.00000000
_cell_angle_gamma   90.00000000
_symmetry_Int_Tables_number   1
_chemical_formula_structural   PrNd(PaPt2)2
_chemical_formula_sum   'Pr1 Nd1 Pa2 Pt4'
_cell_volume   189.65942607
_cell_formula_units_Z   1
loop_
 _symmetry_equiv_pos_site_id
 _symmetry_equiv_pos_as_xyz
  1  'x, y, z'
loop_
 _atom_site_type_symbol
 _atom_site_label
 _atom_site_symmetry_multiplicity
 _atom_site_fract_x
 _atom_site_fract_y
 _atom_site_fract_z
 _atom_site_occupancy
  Pr  Pr0  1  0.750000  0.850110  0.815746  1
  Nd  Nd1  1  0.250000  0.350149  0.683419  1
  Pa  Pa2  1  0.250000  0.149148  0.177293  1
  Pa  Pa3  1  0.750000  0.649302  0.323021  1
  Pt  Pt4  1  0.250000  0.837319  0.522076  1
  Pt  Pt5  1  0.250000  0.661931  0.077091  1
  Pt  Pt6  1  0.750000  0.163926  0.423957  1
  Pt  Pt7  1  0.750000  0.338116  0.977396  1
