# generated using pymatgen
data_La3Pr2SnBi2Cl
_symmetry_space_group_name_H-M   'P 1'
_cell_length_a   9.69605800
_cell_length_b   9.72081297
_cell_length_c   6.74146000
_cell_angle_alpha   90.00000000
_cell_angle_beta   90.00000000
_cell_angle_gamma   119.91579502
_symmetry_Int_Tables_number   1
_chemical_formula_structural   La3Pr2SnBi2Cl
_chemical_formula_sum   'La6 Pr4 Sn2 Bi4 Cl2'
_cell_volume   550.74461804
_cell_formula_units_Z   2
loop_
 _symmetry_equiv_pos_site_id
 _symmetry_equiv_pos_as_xyz
  1  'x, y, z'
loop_
 _atom_site_type_symbol
 _atom_site_label
 _atom_site_symmetry_multiplicity
 _atom_site_fract_x
 _atom_site_fract_y
 _atom_site_fract_z
 _atom_site_occupancy
  La  La0  1  0.740170  0.003758  0.750000  1
  La  La1  1  0.734680  0.734444  0.250000  1
  La  La2  1  0.004049  0.265387  0.250000  1
  La  La3  1  0.999763  0.734444  0.750000  1
  La  La4  1  0.261338  0.265387  0.750000  1
  La  La5  1  0.263589  0.003758  0.250000  1
  Pr  Pr6  1  0.666988  0.333976  0.000000  1
  Pr  Pr7  1  0.331701  0.663403  0.500000  1
  Pr  Pr8  1  0.666988  0.333976  0.500000  1
  Pr  Pr9  1  0.331701  0.663403  0.000000  1
  Sn  Sn10  1  0.999780  0.386479  0.750000  1
  Sn  Sn11  1  0.386698  0.386479  0.250000  1
  Bi  Bi12  1  0.613530  0.614113  0.750000  1
  Bi  Bi13  1  0.000584  0.614113  0.250000  1
  Bi  Bi14  1  0.614746  0.000547  0.250000  1
  Bi  Bi15  1  0.385801  0.000547  0.750000  1
  Cl  Cl16  1  0.998947  0.997893  0.500000  1
  Cl  Cl17  1  0.998947  0.997893  0.000000  1
