# generated using pymatgen
data_Tm4TiOs7
_symmetry_space_group_name_H-M   'P 1'
_cell_length_a   5.37564102
_cell_length_b   5.37558517
_cell_length_c   8.62863000
_cell_angle_alpha   89.99971290
_cell_angle_beta   90.00090582
_cell_angle_gamma   120.00005972
_symmetry_Int_Tables_number   1
_chemical_formula_structural   Tm4TiOs7
_chemical_formula_sum   'Tm4 Ti1 Os7'
_cell_volume   215.93757690
_cell_formula_units_Z   1
loop_
 _symmetry_equiv_pos_site_id
 _symmetry_equiv_pos_as_xyz
  1  'x, y, z'
loop_
 _atom_site_type_symbol
 _atom_site_label
 _atom_site_symmetry_multiplicity
 _atom_site_fract_x
 _atom_site_fract_y
 _atom_site_fract_z
 _atom_site_occupancy
  Tm  Tm0  1  0.666672  0.333335  0.572191  1
  Tm  Tm1  1  0.333328  0.666665  0.427809  1
  Tm  Tm2  1  0.333324  0.666672  0.061170  1
  Tm  Tm3  1  0.666676  0.333328  0.938830  1
  Ti  Ti4  1  0.000000  0.000000  0.500000  1
  Os  Os5  1  0.000000  0.000000  0.000000  1
  Os  Os6  1  0.172975  0.345946  0.749379  1
  Os  Os7  1  0.172978  0.827025  0.749373  1
  Os  Os8  1  0.654048  0.827025  0.749381  1
  Os  Os9  1  0.827025  0.654054  0.250621  1
  Os  Os10  1  0.827022  0.172975  0.250627  1
  Os  Os11  1  0.345952  0.172975  0.250619  1
