# generated using pymatgen
data_CeSiPOs2
_symmetry_space_group_name_H-M   'P 1'
_cell_length_a   5.68984755
_cell_length_b   5.68984777
_cell_length_c   5.68984860
_cell_angle_alpha   137.19930598
_cell_angle_beta   137.19930875
_cell_angle_gamma   62.13153947
_symmetry_Int_Tables_number   1
_chemical_formula_structural   CeSiPOs2
_chemical_formula_sum   'Ce1 Si1 P1 Os2'
_cell_volume   84.02983293
_cell_formula_units_Z   1
loop_
 _symmetry_equiv_pos_site_id
 _symmetry_equiv_pos_as_xyz
  1  'x, y, z'
loop_
 _atom_site_type_symbol
 _atom_site_label
 _atom_site_symmetry_multiplicity
 _atom_site_fract_x
 _atom_site_fract_y
 _atom_site_fract_z
 _atom_site_occupancy
  Ce  Ce0  1  0.001865  0.001865  0.000000  1
  Si  Si1  1  0.373278  0.373278  0.000000  1
  P  P2  1  0.630058  0.630058  0.000000  1
  Os  Os3  1  0.747401  0.247401  0.500000  1
  Os  Os4  1  0.247401  0.747401  0.500000  1
