# generated using pymatgen
data_Sm5As2ClO10
_symmetry_space_group_name_H-M   'P 1'
_cell_length_a   5.67512829
_cell_length_b   6.78398856
_cell_length_c   8.87076774
_cell_angle_alpha   95.77904294
_cell_angle_beta   108.65555448
_cell_angle_gamma   114.72565244
_symmetry_Int_Tables_number   1
_chemical_formula_structural   Sm5As2ClO10
_chemical_formula_sum   'Sm5 As2 Cl1 O10'
_cell_volume   282.79422363
_cell_formula_units_Z   1
loop_
 _symmetry_equiv_pos_site_id
 _symmetry_equiv_pos_as_xyz
  1  'x, y, z'
loop_
 _atom_site_type_symbol
 _atom_site_label
 _atom_site_symmetry_multiplicity
 _atom_site_fract_x
 _atom_site_fract_y
 _atom_site_fract_z
 _atom_site_occupancy
  Sm  Sm0  1  0.000000  0.000000  0.000000  1
  Sm  Sm1  1  0.379837  0.635759  0.123916  1
  Sm  Sm2  1  0.792893  0.294834  0.290956  1
  Sm  Sm3  1  0.207108  0.705167  0.709045  1
  Sm  Sm4  1  0.620162  0.364240  0.876084  1
  As  As5  1  0.180714  0.967092  0.394333  1
  As  As6  1  0.819286  0.032908  0.605667  1
  Cl  Cl7  1  0.500000  0.500000  0.500000  1
  O  O8  1  0.459105  0.326883  0.085221  1
  O  O9  1  0.952997  0.326883  0.085221  1
  O  O10  1  0.341984  0.964589  0.245092  1
  O  O11  1  0.867696  0.964589  0.245092  1
  O  O12  1  0.042390  0.679960  0.404817  1
  O  O13  1  0.957609  0.320038  0.595183  1
  O  O14  1  0.132304  0.035412  0.754908  1
  O  O15  1  0.658016  0.035412  0.754908  1
  O  O16  1  0.047003  0.673118  0.914778  1
  O  O17  1  0.540895  0.673118  0.914778  1
