# generated using pymatgen
data_Ho2LuIn3RhAu2
_symmetry_space_group_name_H-M   'P 1'
_cell_length_a   7.73010577
_cell_length_b   7.73010543
_cell_length_c   3.85322000
_cell_angle_alpha   90.00000000
_cell_angle_beta   90.00000000
_cell_angle_gamma   119.82734525
_symmetry_Int_Tables_number   1
_chemical_formula_structural   Ho2LuIn3RhAu2
_chemical_formula_sum   'Ho2 Lu1 In3 Rh1 Au2'
_cell_volume   199.74607022
_cell_formula_units_Z   1
loop_
 _symmetry_equiv_pos_site_id
 _symmetry_equiv_pos_as_xyz
  1  'x, y, z'
loop_
 _atom_site_type_symbol
 _atom_site_label
 _atom_site_symmetry_multiplicity
 _atom_site_fract_x
 _atom_site_fract_y
 _atom_site_fract_z
 _atom_site_occupancy
  Ho  Ho0  1  0.400614  0.000121  0.500000  1
  Ho  Ho1  1  0.000121  0.400614  0.500000  1
  Lu  Lu2  1  0.601345  0.601345  0.500000  1
  In  In3  1  0.743780  0.999287  0.000000  1
  In  In4  1  0.999287  0.743780  0.000000  1
  In  In5  1  0.255476  0.255476  0.000000  1
  Rh  Rh6  1  0.997360  0.997360  0.500000  1
  Au  Au7  1  0.336279  0.665738  0.000000  1
  Au  Au8  1  0.665738  0.336279  0.000000  1
