# generated using pymatgen
data_Pr16Gd4Si15Pd
_symmetry_space_group_name_H-M   'P 1'
_cell_length_a   7.88071038
_cell_length_b   7.84065080
_cell_length_c   15.23070400
_cell_angle_alpha   89.89920721
_cell_angle_beta   89.68199910
_cell_angle_gamma   90.26094468
_symmetry_Int_Tables_number   1
_chemical_formula_structural   Pr16Gd4Si15Pd
_chemical_formula_sum   'Pr16 Gd4 Si15 Pd1'
_cell_volume   941.07789529
_cell_formula_units_Z   1
loop_
 _symmetry_equiv_pos_site_id
 _symmetry_equiv_pos_as_xyz
  1  'x, y, z'
loop_
 _atom_site_type_symbol
 _atom_site_label
 _atom_site_symmetry_multiplicity
 _atom_site_fract_x
 _atom_site_fract_y
 _atom_site_fract_z
 _atom_site_occupancy
  Pr  Pr0  1  0.375351  0.011288  0.447195  1
  Pr  Pr1  1  0.490592  0.871751  0.698503  1
  Pr  Pr2  1  0.510715  0.123198  0.197052  1
  Pr  Pr3  1  0.875517  0.486534  0.301037  1
  Pr  Pr4  1  0.122214  0.513379  0.801607  1
  Pr  Pr5  1  0.627483  0.987762  0.949259  1
  Pr  Pr6  1  0.002701  0.377352  0.551395  1
  Pr  Pr7  1  0.988596  0.625436  0.052195  1
  Pr  Pr8  1  0.134507  0.986206  0.876053  1
  Pr  Pr9  1  0.519353  0.630539  0.126823  1
  Pr  Pr10  1  0.475101  0.366670  0.629447  1
  Pr  Pr11  1  0.628250  0.520275  0.873590  1
  Pr  Pr12  1  0.371551  0.479894  0.372536  1
  Pr  Pr13  1  0.873819  0.021362  0.377626  1
  Pr  Pr14  1  0.980519  0.125530  0.122951  1
  Pr  Pr15  1  0.020968  0.876199  0.621614  1
  Gd  Gd16  1  0.309003  0.309041  0.999666  1
  Gd  Gd17  1  0.189792  0.808564  0.249545  1
  Gd  Gd18  1  0.807780  0.188165  0.750989  1
  Gd  Gd19  1  0.689590  0.687680  0.499684  1
  Si  Si20  1  0.330213  0.692360  0.952950  1
  Si  Si21  1  0.664558  0.307002  0.455123  1
  Si  Si22  1  0.695162  0.333197  0.046974  1
  Si  Si23  1  0.307843  0.669338  0.545198  1
  Si  Si24  1  0.808312  0.830082  0.205890  1
  Si  Si25  1  0.169337  0.193303  0.294651  1
  Si  Si26  1  0.834878  0.808154  0.795309  1
  Si  Si27  1  0.287519  0.922754  0.060872  1
  Si  Si28  1  0.578835  0.785748  0.312437  1
  Si  Si29  1  0.434734  0.207460  0.815783  1
  Si  Si30  1  0.785333  0.580049  0.687724  1
  Si  Si31  1  0.212792  0.423102  0.187633  1
  Si  Si32  1  0.707264  0.074790  0.561110  1
  Si  Si33  1  0.922284  0.289237  0.938845  1
  Si  Si34  1  0.078049  0.713440  0.438593  1
  Pd  Pd35  1  0.189488  0.173159  0.702137  1
