# generated using pymatgen
data_Hf3ScFe8Si7Ge
_symmetry_space_group_name_H-M   'P 1'
_cell_length_a   5.02693600
_cell_length_b   7.07650341
_cell_length_c   7.46478166
_cell_angle_alpha   90.22710784
_cell_angle_beta   90.00000000
_cell_angle_gamma   90.00000000
_symmetry_Int_Tables_number   1
_chemical_formula_structural   Hf3ScFe8Si7Ge
_chemical_formula_sum   'Hf3 Sc1 Fe8 Si7 Ge1'
_cell_volume   265.54356046
_cell_formula_units_Z   1
loop_
 _symmetry_equiv_pos_site_id
 _symmetry_equiv_pos_as_xyz
  1  'x, y, z'
loop_
 _atom_site_type_symbol
 _atom_site_label
 _atom_site_symmetry_multiplicity
 _atom_site_fract_x
 _atom_site_fract_y
 _atom_site_fract_z
 _atom_site_occupancy
  Hf  Hf0  1  0.250000  0.092551  0.752632  1
  Hf  Hf1  1  0.750000  0.404891  0.753220  1
  Hf  Hf2  1  0.250000  0.591658  0.244169  1
  Sc  Sc3  1  0.750000  0.909529  0.246214  1
  Fe  Fe4  1  0.750000  0.516884  0.100046  1
  Fe  Fe5  1  0.250000  0.483634  0.891947  1
  Fe  Fe6  1  0.750000  0.017009  0.888143  1
  Fe  Fe7  1  0.250000  0.984705  0.110331  1
  Fe  Fe8  1  0.004802  0.753189  0.616802  1
  Fe  Fe9  1  0.497997  0.246352  0.390393  1
  Fe  Fe10  1  0.002003  0.246352  0.390393  1
  Fe  Fe11  1  0.495198  0.753189  0.616802  1
  Si  Si12  1  0.250000  0.448912  0.586560  1
  Si  Si13  1  0.750000  0.048017  0.584204  1
  Si  Si14  1  0.250000  0.948421  0.414119  1
  Si  Si15  1  0.999648  0.751388  0.944551  1
  Si  Si16  1  0.499539  0.249482  0.056019  1
  Si  Si17  1  0.000461  0.249482  0.056019  1
  Si  Si18  1  0.500352  0.751388  0.944551  1
  Ge  Ge19  1  0.750000  0.552969  0.412885  1
