# generated using pymatgen
data_PrDy4(ThSe4)3
_symmetry_space_group_name_H-M   'P 1'
_cell_length_a   11.27312673
_cell_length_b   4.11637200
_cell_length_c   11.01870151
_cell_angle_alpha   90.00000000
_cell_angle_beta   89.82755323
_cell_angle_gamma   90.00000000
_symmetry_Int_Tables_number   1
_chemical_formula_structural   PrDy4(ThSe4)3
_chemical_formula_sum   'Pr1 Dy4 Th3 Se12'
_cell_volume   511.31373163
_cell_formula_units_Z   1
loop_
 _symmetry_equiv_pos_site_id
 _symmetry_equiv_pos_as_xyz
  1  'x, y, z'
loop_
 _atom_site_type_symbol
 _atom_site_label
 _atom_site_symmetry_multiplicity
 _atom_site_fract_x
 _atom_site_fract_y
 _atom_site_fract_z
 _atom_site_occupancy
  Pr  Pr0  1  0.697392  0.750000  0.497579  1
  Dy  Dy1  1  0.484919  0.250000  0.187908  1
  Dy  Dy2  1  0.983707  0.250000  0.313384  1
  Dy  Dy3  1  0.515946  0.750000  0.812726  1
  Dy  Dy4  1  0.015268  0.750000  0.686381  1
  Th  Th5  1  0.197544  0.750000  0.999755  1
  Th  Th6  1  0.305122  0.250000  0.500727  1
  Th  Th7  1  0.801823  0.250000  0.003136  1
  Se  Se8  1  0.543003  0.250000  0.630424  1
  Se  Se9  1  0.045764  0.250000  0.872460  1
  Se  Se10  1  0.450089  0.750000  0.369365  1
  Se  Se11  1  0.955940  0.750000  0.127898  1
  Se  Se12  1  0.614308  0.750000  0.054501  1
  Se  Se13  1  0.116820  0.750000  0.445065  1
  Se  Se14  1  0.384495  0.250000  0.945242  1
  Se  Se15  1  0.886379  0.250000  0.554664  1
  Se  Se16  1  0.728291  0.250000  0.290512  1
  Se  Se17  1  0.224325  0.250000  0.202174  1
  Se  Se18  1  0.272766  0.750000  0.705159  1
  Se  Se19  1  0.776101  0.750000  0.800942  1
