# generated using pymatgen
data_RbTa(AgS2)2
_symmetry_space_group_name_H-M   'P 1'
_cell_length_a   10.16679984
_cell_length_b   10.16679923
_cell_length_c   8.19671000
_cell_angle_alpha   90.00000000
_cell_angle_beta   90.00000000
_cell_angle_gamma   145.52318845
_symmetry_Int_Tables_number   1
_chemical_formula_structural   RbTa(AgS2)2
_chemical_formula_sum   'Rb2 Ta2 Ag4 S8'
_cell_volume   479.60120562
_cell_formula_units_Z   2
loop_
 _symmetry_equiv_pos_site_id
 _symmetry_equiv_pos_as_xyz
  1  'x, y, z'
loop_
 _atom_site_type_symbol
 _atom_site_label
 _atom_site_symmetry_multiplicity
 _atom_site_fract_x
 _atom_site_fract_y
 _atom_site_fract_z
 _atom_site_occupancy
  Rb  Rb0  1  0.452521  0.819366  0.750000  1
  Rb  Rb1  1  0.819366  0.452521  0.250000  1
  Ta  Ta2  1  0.525675  0.296702  0.750000  1
  Ta  Ta3  1  0.296702  0.525675  0.250000  1
  Ag  Ag4  1  0.371707  0.371707  0.000000  1
  Ag  Ag5  1  0.371707  0.371707  0.500000  1
  Ag  Ag6  1  0.025646  0.794950  0.750000  1
  Ag  Ag7  1  0.794950  0.025646  0.250000  1
  S  S8  1  0.645348  0.616067  0.750000  1
  S  S9  1  0.616067  0.645348  0.250000  1
  S  S10  1  0.312970  0.075073  0.984283  1
  S  S11  1  0.075073  0.312970  0.484283  1
  S  S12  1  0.411766  0.835876  0.250000  1
  S  S13  1  0.075073  0.312970  0.015717  1
  S  S14  1  0.312970  0.075073  0.515717  1
  S  S15  1  0.835876  0.411766  0.750000  1
