# generated using pymatgen
data_Eu5Ir2Pb
_symmetry_space_group_name_H-M   'P 1'
_cell_length_a   9.36909895
_cell_length_b   9.36909871
_cell_length_c   9.36909724
_cell_angle_alpha   129.13741048
_cell_angle_beta   129.13741465
_cell_angle_gamma   74.78956754
_symmetry_Int_Tables_number   1
_chemical_formula_structural   Eu5Ir2Pb
_chemical_formula_sum   'Eu10 Ir4 Pb2'
_cell_volume   481.96162832
_cell_formula_units_Z   2
loop_
 _symmetry_equiv_pos_site_id
 _symmetry_equiv_pos_as_xyz
  1  'x, y, z'
loop_
 _atom_site_type_symbol
 _atom_site_label
 _atom_site_symmetry_multiplicity
 _atom_site_fract_x
 _atom_site_fract_y
 _atom_site_fract_z
 _atom_site_occupancy
  Eu  Eu0  1  0.500000  0.500000  0.000000  1
  Eu  Eu1  1  0.000000  0.000000  0.000000  1
  Eu  Eu2  1  0.538925  0.038925  0.834449  1
  Eu  Eu3  1  0.204477  0.704477  0.165551  1
  Eu  Eu4  1  0.038925  0.204477  0.500000  1
  Eu  Eu5  1  0.704477  0.538925  0.500000  1
  Eu  Eu6  1  0.461075  0.961075  0.165551  1
  Eu  Eu7  1  0.795523  0.295523  0.834449  1
  Eu  Eu8  1  0.961075  0.795523  0.500000  1
  Eu  Eu9  1  0.295523  0.461075  0.500000  1
  Ir  Ir10  1  0.128810  0.628810  0.757618  1
  Ir  Ir11  1  0.871190  0.371190  0.242382  1
  Ir  Ir12  1  0.628810  0.871190  0.500000  1
  Ir  Ir13  1  0.371190  0.128810  0.500000  1
  Pb  Pb14  1  0.250000  0.250000  0.000000  1
  Pb  Pb15  1  0.750000  0.750000  0.000000  1
