# generated using pymatgen
data_DyErSc3Si7Pt9
_symmetry_space_group_name_H-M   'P 1'
_cell_length_a   10.05142400
_cell_length_b   10.05142441
_cell_length_c   3.97352700
_cell_angle_alpha   90.00000000
_cell_angle_beta   90.00000000
_cell_angle_gamma   119.99999866
_symmetry_Int_Tables_number   1
_chemical_formula_structural   DyErSc3Si7Pt9
_chemical_formula_sum   'Dy1 Er1 Sc3 Si7 Pt9'
_cell_volume   347.66583124
_cell_formula_units_Z   1
loop_
 _symmetry_equiv_pos_site_id
 _symmetry_equiv_pos_as_xyz
  1  'x, y, z'
loop_
 _atom_site_type_symbol
 _atom_site_label
 _atom_site_symmetry_multiplicity
 _atom_site_fract_x
 _atom_site_fract_y
 _atom_site_fract_z
 _atom_site_occupancy
  Dy  Dy0  1  0.000000  0.000000  0.000000  1
  Er  Er1  1  0.333333  0.666667  0.500000  1
  Sc  Sc2  1  0.895262  0.456623  0.500000  1
  Sc  Sc3  1  0.561361  0.104738  0.500000  1
  Sc  Sc4  1  0.543377  0.438639  0.500000  1
  Si  Si5  1  0.245242  0.194286  0.500000  1
  Si  Si6  1  0.805714  0.050957  0.500000  1
  Si  Si7  1  0.949043  0.754758  0.500000  1
  Si  Si8  1  0.556175  0.647052  0.000000  1
  Si  Si9  1  0.352948  0.909121  0.000000  1
  Si  Si10  1  0.090879  0.443825  0.000000  1
  Si  Si11  1  0.666667  0.333333  0.000000  1
  Pt  Pt12  1  0.218880  0.935678  0.500000  1
  Pt  Pt13  1  0.064322  0.283203  0.500000  1
  Pt  Pt14  1  0.716797  0.781120  0.500000  1
  Pt  Pt15  1  0.314423  0.414284  0.000000  1
  Pt  Pt16  1  0.585716  0.900139  0.000000  1
  Pt  Pt17  1  0.099861  0.685577  0.000000  1
  Pt  Pt18  1  0.383764  0.171673  0.000000  1
  Pt  Pt19  1  0.828327  0.212093  0.000000  1
  Pt  Pt20  1  0.787907  0.616236  0.000000  1
