# generated using pymatgen
data_CeTh3CoNiB20
_symmetry_space_group_name_H-M   'P 1'
_cell_length_a   4.17170100
_cell_length_b   5.61795213
_cell_length_c   11.19044434
_cell_angle_alpha   89.92197956
_cell_angle_beta   90.00000000
_cell_angle_gamma   90.00000000
_symmetry_Int_Tables_number   1
_chemical_formula_structural   CeTh3CoNiB20
_chemical_formula_sum   'Ce1 Th3 Co1 Ni1 B20'
_cell_volume   262.26367156
_cell_formula_units_Z   1
loop_
 _symmetry_equiv_pos_site_id
 _symmetry_equiv_pos_as_xyz
  1  'x, y, z'
loop_
 _atom_site_type_symbol
 _atom_site_label
 _atom_site_symmetry_multiplicity
 _atom_site_fract_x
 _atom_site_fract_y
 _atom_site_fract_z
 _atom_site_occupancy
  Ce  Ce0  1  0.500000  0.304287  0.863827  1
  Th  Th1  1  0.500000  0.697284  0.133494  1
  Th  Th2  1  0.500000  0.807440  0.638027  1
  Th  Th3  1  0.500000  0.193272  0.363492  1
  Co  Co4  1  0.000000  0.999318  0.000133  1
  Ni  Ni5  1  0.000000  0.499761  0.500124  1
  B  B6  1  0.000000  0.124714  0.541373  1
  B  B7  1  0.000000  0.875270  0.459126  1
  B  B8  1  0.000000  0.626159  0.959808  1
  B  B9  1  0.000000  0.371349  0.038737  1
  B  B10  1  0.000000  0.153123  0.698416  1
  B  B11  1  0.000000  0.847749  0.302475  1
  B  B12  1  0.300063  0.200761  0.112670  1
  B  B13  1  0.300254  0.798770  0.886885  1
  B  B14  1  0.699475  0.701609  0.385454  1
  B  B15  1  0.699265  0.297994  0.615188  1
  B  B16  1  0.699746  0.798770  0.886885  1
  B  B17  1  0.699937  0.200761  0.112670  1
  B  B18  1  0.300735  0.297994  0.615188  1
  B  B19  1  0.300525  0.701609  0.385454  1
  B  B20  1  0.000000  0.034883  0.186909  1
  B  B21  1  0.000000  0.966652  0.813814  1
  B  B22  1  0.000000  0.535481  0.311336  1
  B  B23  1  0.000000  0.464854  0.688880  1
  B  B24  1  0.000000  0.346734  0.196543  1
  B  B25  1  0.000000  0.653406  0.803091  1
