# generated using pymatgen
data_DyY7Os3WC8
_symmetry_space_group_name_H-M   'P 1'
_cell_length_a   5.13214500
_cell_length_b   6.55644783
_cell_length_c   9.85294100
_cell_angle_alpha   89.69335559
_cell_angle_beta   90.00000000
_cell_angle_gamma   90.00000000
_symmetry_Int_Tables_number   1
_chemical_formula_structural   DyY7Os3WC8
_chemical_formula_sum   'Dy1 Y7 Os3 W1 C8'
_cell_volume   331.53332590
_cell_formula_units_Z   1
loop_
 _symmetry_equiv_pos_site_id
 _symmetry_equiv_pos_as_xyz
  1  'x, y, z'
loop_
 _atom_site_type_symbol
 _atom_site_label
 _atom_site_symmetry_multiplicity
 _atom_site_fract_x
 _atom_site_fract_y
 _atom_site_fract_z
 _atom_site_occupancy
  Dy  Dy0  1  0.750000  0.321507  0.444781  1
  Y  Y1  1  0.250000  0.680165  0.553822  1
  Y  Y2  1  0.750000  0.822215  0.054981  1
  Y  Y3  1  0.250000  0.181875  0.944695  1
  Y  Y4  1  0.250000  0.531228  0.213253  1
  Y  Y5  1  0.750000  0.467371  0.780670  1
  Y  Y6  1  0.750000  0.970639  0.715841  1
  Y  Y7  1  0.250000  0.029444  0.285351  1
  Os  Os8  1  0.750000  0.277523  0.136474  1
  Os  Os9  1  0.750000  0.776380  0.362941  1
  Os  Os10  1  0.250000  0.224617  0.633499  1
  W  W11  1  0.250000  0.722072  0.866690  1
  C  C12  1  0.250000  0.454004  0.759575  1
  C  C13  1  0.750000  0.541346  0.242512  1
  C  C14  1  0.750000  0.042895  0.259306  1
  C  C15  1  0.250000  0.959204  0.739877  1
  C  C16  1  0.250000  0.823430  0.055678  1
  C  C17  1  0.750000  0.176606  0.952387  1
  C  C18  1  0.750000  0.675175  0.548522  1
  C  C19  1  0.250000  0.322302  0.449144  1
