# generated using pymatgen
data_NdTh(AgBi2)2
_symmetry_space_group_name_H-M   'P 1'
_cell_length_a   4.60396200
_cell_length_b   4.60396200
_cell_length_c   10.53315300
_cell_angle_alpha   90.00000000
_cell_angle_beta   90.00000000
_cell_angle_gamma   90.00000000
_symmetry_Int_Tables_number   1
_chemical_formula_structural   NdTh(AgBi2)2
_chemical_formula_sum   'Nd1 Th1 Ag2 Bi4'
_cell_volume   223.26562046
_cell_formula_units_Z   1
loop_
 _symmetry_equiv_pos_site_id
 _symmetry_equiv_pos_as_xyz
  1  'x, y, z'
loop_
 _atom_site_type_symbol
 _atom_site_label
 _atom_site_symmetry_multiplicity
 _atom_site_fract_x
 _atom_site_fract_y
 _atom_site_fract_z
 _atom_site_occupancy
  Nd  Nd0  1  0.500000  0.000000  0.741973  1
  Th  Th1  1  0.000000  0.500000  0.253145  1
  Ag  Ag2  1  0.000000  0.000000  0.000475  1
  Ag  Ag3  1  0.500000  0.500000  0.000475  1
  Bi  Bi4  1  0.000000  0.500000  0.818082  1
  Bi  Bi5  1  0.500000  0.000000  0.190623  1
  Bi  Bi6  1  0.000000  0.000000  0.497614  1
  Bi  Bi7  1  0.500000  0.500000  0.497614  1
