# generated using pymatgen
data_Eu2MgSnRh2
_symmetry_space_group_name_H-M   'P 1'
_cell_length_a   4.38557000
_cell_length_b   7.32514000
_cell_length_c   8.37972900
_cell_angle_alpha   90.00000000
_cell_angle_beta   90.00000000
_cell_angle_gamma   90.00000000
_symmetry_Int_Tables_number   1
_chemical_formula_structural   Eu2MgSnRh2
_chemical_formula_sum   'Eu4 Mg2 Sn2 Rh4'
_cell_volume   269.19807539
_cell_formula_units_Z   2
loop_
 _symmetry_equiv_pos_site_id
 _symmetry_equiv_pos_as_xyz
  1  'x, y, z'
loop_
 _atom_site_type_symbol
 _atom_site_label
 _atom_site_symmetry_multiplicity
 _atom_site_fract_x
 _atom_site_fract_y
 _atom_site_fract_z
 _atom_site_occupancy
  Eu  Eu0  1  0.250000  0.032161  0.323354  1
  Eu  Eu1  1  0.250000  0.532161  0.176646  1
  Eu  Eu2  1  0.750000  0.970605  0.674065  1
  Eu  Eu3  1  0.750000  0.470605  0.825935  1
  Mg  Mg4  1  0.250000  0.139187  0.937851  1
  Mg  Mg5  1  0.250000  0.639187  0.562149  1
  Sn  Sn6  1  0.750000  0.861145  0.059639  1
  Sn  Sn7  1  0.750000  0.361145  0.440361  1
  Rh  Rh8  1  0.250000  0.270504  0.620586  1
  Rh  Rh9  1  0.250000  0.770504  0.879414  1
  Rh  Rh10  1  0.750000  0.726396  0.371170  1
  Rh  Rh11  1  0.750000  0.226396  0.128830  1
