# generated using pymatgen
data_Er2Mn2Co10As7
_symmetry_space_group_name_H-M   'P 1'
_cell_length_a   3.72726800
_cell_length_b   9.37568030
_cell_length_c   9.41114379
_cell_angle_alpha   119.80048801
_cell_angle_beta   90.00000000
_cell_angle_gamma   90.00000000
_symmetry_Int_Tables_number   1
_chemical_formula_structural   Er2Mn2Co10As7
_chemical_formula_sum   'Er2 Mn2 Co10 As7'
_cell_volume   285.38822978
_cell_formula_units_Z   1
loop_
 _symmetry_equiv_pos_site_id
 _symmetry_equiv_pos_as_xyz
  1  'x, y, z'
loop_
 _atom_site_type_symbol
 _atom_site_label
 _atom_site_symmetry_multiplicity
 _atom_site_fract_x
 _atom_site_fract_y
 _atom_site_fract_z
 _atom_site_occupancy
  Er  Er0  1  0.000000  0.670511  0.335356  1
  Er  Er1  1  0.500000  0.331760  0.666950  1
  Mn  Mn2  1  0.500000  0.778404  0.894628  1
  Mn  Mn3  1  0.500000  0.120094  0.220931  1
  Co  Co4  1  0.000000  0.568007  0.940296  1
  Co  Co5  1  0.000000  0.370300  0.430606  1
  Co  Co6  1  0.000000  0.058110  0.629723  1
  Co  Co7  1  0.500000  0.095298  0.877404  1
  Co  Co8  1  0.000000  0.883043  0.157264  1
  Co  Co9  1  0.000000  0.280719  0.121597  1
  Co  Co10  1  0.000000  0.842364  0.722708  1
  Co  Co11  1  0.500000  0.948111  0.383885  1
  Co  Co12  1  0.500000  0.432979  0.049931  1
  Co  Co13  1  0.500000  0.616940  0.565592  1
  As  As14  1  0.000000  0.003010  0.997802  1
  As  As15  1  0.500000  0.708622  0.117742  1
  As  As16  1  0.500000  0.413243  0.292586  1
  As  As17  1  0.500000  0.884526  0.594600  1
  As  As18  1  0.000000  0.583916  0.700454  1
  As  As19  1  0.000000  0.115071  0.415242  1
  As  As20  1  0.000000  0.294969  0.884704  1
