# generated using pymatgen
data_Zr3Ti4Nb3Al12Ir7
_symmetry_space_group_name_H-M   'P 1'
_cell_length_a   8.72572998
_cell_length_b   8.72572947
_cell_length_c   8.72100107
_cell_angle_alpha   59.98206131
_cell_angle_beta   59.98206544
_cell_angle_gamma   59.99999289
_symmetry_Int_Tables_number   1
_chemical_formula_structural   Zr3Ti4Nb3Al12Ir7
_chemical_formula_sum   'Zr3 Ti4 Nb3 Al12 Ir7'
_cell_volume   469.39346230
_cell_formula_units_Z   1
loop_
 _symmetry_equiv_pos_site_id
 _symmetry_equiv_pos_as_xyz
  1  'x, y, z'
loop_
 _atom_site_type_symbol
 _atom_site_label
 _atom_site_symmetry_multiplicity
 _atom_site_fract_x
 _atom_site_fract_y
 _atom_site_fract_z
 _atom_site_occupancy
  Zr  Zr0  1  0.309321  0.309321  0.689648  1
  Zr  Zr1  1  0.691711  0.309321  0.689648  1
  Zr  Zr2  1  0.309321  0.691711  0.689648  1
  Ti  Ti3  1  0.880548  0.880548  0.358355  1
  Ti  Ti4  1  0.877900  0.360993  0.883208  1
  Ti  Ti5  1  0.360993  0.877900  0.883208  1
  Ti  Ti6  1  0.877900  0.877900  0.883208  1
  Nb  Nb7  1  0.683383  0.683383  0.315116  1
  Nb  Nb8  1  0.318119  0.683383  0.315116  1
  Nb  Nb9  1  0.683383  0.318119  0.315116  1
  Al  Al10  1  0.121504  0.121504  0.635485  1
  Al  Al11  1  0.118966  0.639086  0.122981  1
  Al  Al12  1  0.639086  0.118966  0.122981  1
  Al  Al13  1  0.118966  0.118966  0.122981  1
  Al  Al14  1  0.660552  0.660552  0.018344  1
  Al  Al15  1  0.663095  0.016315  0.657494  1
  Al  Al16  1  0.016315  0.663095  0.657494  1
  Al  Al17  1  0.663095  0.663095  0.657494  1
  Al  Al18  1  0.337202  0.337202  0.988395  1
  Al  Al19  1  0.339994  0.985620  0.334393  1
  Al  Al20  1  0.985620  0.339994  0.334393  1
  Al  Al21  1  0.339994  0.339994  0.334393  1
  Ir  Ir22  1  0.000524  0.000524  0.998428  1
  Ir  Ir23  1  0.999358  0.999358  0.498893  1
  Ir  Ir24  1  0.502392  0.999358  0.498893  1
  Ir  Ir25  1  0.999358  0.502392  0.498893  1
  Ir  Ir26  1  0.503455  0.503455  0.998598  1
  Ir  Ir27  1  0.994491  0.503455  0.998598  1
  Ir  Ir28  1  0.503455  0.994491  0.998598  1
