# generated using pymatgen
data_Er8SiPd19Pt5
_symmetry_space_group_name_H-M   'P 1'
_cell_length_a   8.30646300
_cell_length_b   8.29945500
_cell_length_c   8.30025200
_cell_angle_alpha   90.00000000
_cell_angle_beta   90.00000000
_cell_angle_gamma   90.00000000
_symmetry_Int_Tables_number   1
_chemical_formula_structural   Er8SiPd19Pt5
_chemical_formula_sum   'Er8 Si1 Pd19 Pt5'
_cell_volume   572.21203444
_cell_formula_units_Z   1
loop_
 _symmetry_equiv_pos_site_id
 _symmetry_equiv_pos_as_xyz
  1  'x, y, z'
loop_
 _atom_site_type_symbol
 _atom_site_label
 _atom_site_symmetry_multiplicity
 _atom_site_fract_x
 _atom_site_fract_y
 _atom_site_fract_z
 _atom_site_occupancy
  Er  Er0  1  0.252751  0.253259  0.253086  1
  Er  Er1  1  0.746606  0.746403  0.746259  1
  Er  Er2  1  0.746606  0.746403  0.253741  1
  Er  Er3  1  0.747249  0.253259  0.746914  1
  Er  Er4  1  0.252751  0.253259  0.746914  1
  Er  Er5  1  0.253394  0.746403  0.253741  1
  Er  Er6  1  0.253394  0.746403  0.746259  1
  Er  Er7  1  0.747249  0.253259  0.253086  1
  Si  Si8  1  0.000000  0.003016  0.000000  1
  Pd  Pd9  1  0.257823  0.499943  0.000000  1
  Pd  Pd10  1  0.742177  0.499943  0.000000  1
  Pd  Pd11  1  0.000000  0.257489  0.500000  1
  Pd  Pd12  1  0.500000  0.257114  0.000000  1
  Pd  Pd13  1  0.000000  0.741891  0.500000  1
  Pd  Pd14  1  0.500000  0.741961  0.000000  1
  Pd  Pd15  1  0.500000  0.999902  0.257752  1
  Pd  Pd16  1  0.257847  0.999931  0.500000  1
  Pd  Pd17  1  0.500000  0.999902  0.742248  1
  Pd  Pd18  1  0.742153  0.999931  0.500000  1
  Pd  Pd19  1  0.000000  0.500012  0.257866  1
  Pd  Pd20  1  0.000000  0.500012  0.742134  1
  Pd  Pd21  1  0.500000  0.252111  0.500000  1
  Pd  Pd22  1  0.500000  0.747926  0.500000  1
  Pd  Pd23  1  0.500000  0.499857  0.252277  1
  Pd  Pd24  1  0.500000  0.499857  0.747723  1
  Pd  Pd25  1  0.000000  0.721104  0.000000  1
  Pd  Pd26  1  0.000000  0.999347  0.281514  1
  Pd  Pd27  1  0.000000  0.999347  0.718486  1
  Pt  Pt28  1  0.252180  0.499887  0.500000  1
  Pt  Pt29  1  0.747820  0.499887  0.500000  1
  Pt  Pt30  1  0.280020  0.998840  0.000000  1
  Pt  Pt31  1  0.719980  0.998840  0.000000  1
  Pt  Pt32  1  0.000000  0.283303  0.000000  1
