# generated using pymatgen
data_TbPr3Gd2Ta2O14
_symmetry_space_group_name_H-M   'P 1'
_cell_length_a   6.61594809
_cell_length_b   6.62505475
_cell_length_c   7.68657443
_cell_angle_alpha   89.98291785
_cell_angle_beta   90.04501848
_cell_angle_gamma   109.18674467
_symmetry_Int_Tables_number   1
_chemical_formula_structural   TbPr3Gd2Ta2O14
_chemical_formula_sum   'Tb1 Pr3 Gd2 Ta2 O14'
_cell_volume   318.19573205
_cell_formula_units_Z   1
loop_
 _symmetry_equiv_pos_site_id
 _symmetry_equiv_pos_as_xyz
  1  'x, y, z'
loop_
 _atom_site_type_symbol
 _atom_site_label
 _atom_site_symmetry_multiplicity
 _atom_site_fract_x
 _atom_site_fract_y
 _atom_site_fract_z
 _atom_site_occupancy
  Tb  Tb0  1  0.466215  0.999156  0.255036  1
  Pr  Pr1  1  0.997669  0.535467  0.245243  1
  Pr  Pr2  1  0.476516  0.473375  0.998923  1
  Pr  Pr3  1  0.512767  0.517540  0.499845  1
  Gd  Gd4  1  0.532552  0.999545  0.754620  1
  Gd  Gd5  1  0.999599  0.466594  0.744942  1
  Ta  Ta6  1  0.001679  0.001754  0.500533  1
  Ta  Ta7  1  0.997243  0.997934  0.998455  1
  O  O8  1  0.936942  0.056336  0.749574  1
  O  O9  1  0.640440  0.355075  0.749593  1
  O  O10  1  0.310466  0.051088  0.534516  1
  O  O11  1  0.936990  0.691115  0.959502  1
  O  O12  1  0.622405  0.357833  0.252379  1
  O  O13  1  0.921905  0.681303  0.530838  1
  O  O14  1  0.321926  0.070311  0.975815  1
  O  O15  1  0.080366  0.322084  0.018653  1
  O  O16  1  0.682938  0.932841  0.468621  1
  O  O17  1  0.366279  0.636143  0.750819  1
  O  O18  1  0.695095  0.953087  0.042011  1
  O  O19  1  0.071317  0.314623  0.472123  1
  O  O20  1  0.367364  0.644294  0.248164  1
  O  O21  1  0.061330  0.942501  0.249795  1
