# generated using pymatgen
data_Dy2Lu10In2FeTc2
_symmetry_space_group_name_H-M   'P 1'
_cell_length_a   8.25170995
_cell_length_b   8.25171127
_cell_length_c   8.27198742
_cell_angle_alpha   108.69842214
_cell_angle_beta   108.69842087
_cell_angle_gamma   110.93143883
_symmetry_Int_Tables_number   1
_chemical_formula_structural   Dy2Lu10In2FeTc2
_chemical_formula_sum   'Dy2 Lu10 In2 Fe1 Tc2'
_cell_volume   433.87707838
_cell_formula_units_Z   1
loop_
 _symmetry_equiv_pos_site_id
 _symmetry_equiv_pos_as_xyz
  1  'x, y, z'
loop_
 _atom_site_type_symbol
 _atom_site_label
 _atom_site_symmetry_multiplicity
 _atom_site_fract_x
 _atom_site_fract_y
 _atom_site_fract_z
 _atom_site_occupancy
  Dy  Dy0  1  0.303687  0.303687  0.609435  1
  Dy  Dy1  1  0.694252  0.694252  0.390565  1
  Lu  Lu2  1  0.693757  0.304421  0.000000  1
  Lu  Lu3  1  0.304421  0.693757  0.000000  1
  Lu  Lu4  1  0.188656  0.429995  0.239108  1
  Lu  Lu5  1  0.808843  0.570881  0.764018  1
  Lu  Lu6  1  0.190888  0.949547  0.760892  1
  Lu  Lu7  1  0.949547  0.190888  0.760892  1
  Lu  Lu8  1  0.806863  0.044826  0.235982  1
  Lu  Lu9  1  0.044826  0.806863  0.235982  1
  Lu  Lu10  1  0.429995  0.188656  0.239108  1
  Lu  Lu11  1  0.570881  0.808843  0.764018  1
  In  In12  1  0.998151  0.498151  0.500000  1
  In  In13  1  0.498151  0.998151  0.500000  1
  Fe  Fe14  1  0.631339  0.631339  0.000000  1
  Tc  Tc15  1  0.385036  0.385036  0.000000  1
  Tc  Tc16  1  0.000707  0.000707  0.000000  1
