# generated using pymatgen
data_PuReH9
_symmetry_space_group_name_H-M   'P 1'
_cell_length_a   4.83101700
_cell_length_b   4.83101723
_cell_length_c   8.73404600
_cell_angle_alpha   90.00000000
_cell_angle_beta   90.00000000
_cell_angle_gamma   119.99999159
_symmetry_Int_Tables_number   1
_chemical_formula_structural   PuReH9
_chemical_formula_sum   'Pu2 Re2 H18'
_cell_volume   176.53194059
_cell_formula_units_Z   2
loop_
 _symmetry_equiv_pos_site_id
 _symmetry_equiv_pos_as_xyz
  1  'x, y, z'
loop_
 _atom_site_type_symbol
 _atom_site_label
 _atom_site_symmetry_multiplicity
 _atom_site_fract_x
 _atom_site_fract_y
 _atom_site_fract_z
 _atom_site_occupancy
  Pu  Pu0  1  0.000000  0.000000  0.000000  1
  Pu  Pu1  1  0.000000  0.000000  0.500000  1
  Re  Re2  1  0.333333  0.666667  0.250000  1
  Re  Re3  1  0.666667  0.333333  0.750000  1
  H  H4  1  0.479507  0.520493  0.390275  1
  H  H5  1  0.479507  0.959015  0.390275  1
  H  H6  1  0.040985  0.520493  0.390275  1
  H  H7  1  0.959015  0.479507  0.890275  1
  H  H8  1  0.130495  0.260989  0.250000  1
  H  H9  1  0.869505  0.130495  0.750000  1
  H  H10  1  0.260989  0.130495  0.750000  1
  H  H11  1  0.739011  0.869505  0.250000  1
  H  H12  1  0.130495  0.869505  0.250000  1
  H  H13  1  0.869505  0.739011  0.750000  1
  H  H14  1  0.479507  0.959015  0.109725  1
  H  H15  1  0.520493  0.479507  0.609725  1
  H  H16  1  0.959015  0.479507  0.609725  1
  H  H17  1  0.040985  0.520493  0.109725  1
  H  H18  1  0.479507  0.520493  0.109725  1
  H  H19  1  0.520493  0.040985  0.890275  1
  H  H20  1  0.520493  0.479507  0.890275  1
  H  H21  1  0.520493  0.040985  0.609725  1
