# generated using pymatgen
data_Nd4Ho5Er11Bi12
_symmetry_space_group_name_H-M   'P 1'
_cell_length_a   8.34156304
_cell_length_b   9.48142001
_cell_length_c   12.15626305
_cell_angle_alpha   89.99586870
_cell_angle_beta   89.99036798
_cell_angle_gamma   89.99525524
_symmetry_Int_Tables_number   1
_chemical_formula_structural   Nd4Ho5Er11Bi12
_chemical_formula_sum   'Nd4 Ho5 Er11 Bi12'
_cell_volume   961.43715657
_cell_formula_units_Z   1
loop_
 _symmetry_equiv_pos_site_id
 _symmetry_equiv_pos_as_xyz
  1  'x, y, z'
loop_
 _atom_site_type_symbol
 _atom_site_label
 _atom_site_symmetry_multiplicity
 _atom_site_fract_x
 _atom_site_fract_y
 _atom_site_fract_z
 _atom_site_occupancy
  Nd  Nd0  1  0.171878  0.750004  0.226459  1
  Nd  Nd1  1  0.328130  0.750031  0.726480  1
  Nd  Nd2  1  0.828144  0.249983  0.773560  1
  Nd  Nd3  1  0.671900  0.250004  0.273572  1
  Ho  Ho4  1  0.689886  0.563267  0.564716  1
  Ho  Ho5  1  0.664213  0.750043  0.289173  1
  Ho  Ho6  1  0.835803  0.750093  0.789310  1
  Ho  Ho7  1  0.335794  0.250036  0.710775  1
  Ho  Ho8  1  0.164207  0.250005  0.210777  1
  Er  Er9  1  0.810150  0.563508  0.064736  1
  Er  Er10  1  0.689875  0.936585  0.564733  1
  Er  Er11  1  0.189864  0.063496  0.935268  1
  Er  Er12  1  0.310159  0.436510  0.435260  1
  Er  Er13  1  0.189875  0.436514  0.935284  1
  Er  Er14  1  0.310105  0.063474  0.435261  1
  Er  Er15  1  0.810132  0.936495  0.064731  1
  Er  Er16  1  0.477018  0.750015  0.003927  1
  Er  Er17  1  0.023137  0.750069  0.503888  1
  Er  Er18  1  0.522989  0.249998  0.996093  1
  Er  Er19  1  0.977007  0.249991  0.496070  1
  Bi  Bi20  1  0.402823  0.750124  0.467678  1
  Bi  Bi21  1  0.097061  0.749999  0.967728  1
  Bi  Bi22  1  0.596923  0.249623  0.532222  1
  Bi  Bi23  1  0.902944  0.249997  0.032277  1
  Bi  Bi24  1  0.935088  0.507192  0.328192  1
  Bi  Bi25  1  0.564887  0.992852  0.828233  1
  Bi  Bi26  1  0.064911  0.007191  0.671786  1
  Bi  Bi27  1  0.435075  0.492845  0.171762  1
  Bi  Bi28  1  0.064954  0.492842  0.671804  1
  Bi  Bi29  1  0.435104  0.007167  0.171769  1
  Bi  Bi30  1  0.935122  0.992871  0.328205  1
  Bi  Bi31  1  0.564847  0.507177  0.828269  1
