# generated using pymatgen
data_Eu4Ta3BiO14
_symmetry_space_group_name_H-M   'P 1'
_cell_length_a   7.72714040
_cell_length_b   7.64610457
_cell_length_c   7.72714200
_cell_angle_alpha   59.64878860
_cell_angle_beta   60.00000171
_cell_angle_gamma   59.64878301
_symmetry_Int_Tables_number   1
_chemical_formula_structural   Eu4Ta3BiO14
_chemical_formula_sum   'Eu4 Ta3 Bi1 O14'
_cell_volume   321.09750188
_cell_formula_units_Z   1
loop_
 _symmetry_equiv_pos_site_id
 _symmetry_equiv_pos_as_xyz
  1  'x, y, z'
loop_
 _atom_site_type_symbol
 _atom_site_label
 _atom_site_symmetry_multiplicity
 _atom_site_fract_x
 _atom_site_fract_y
 _atom_site_fract_z
 _atom_site_occupancy
  Eu  Eu0  1  0.125000  0.625000  0.125000  1
  Eu  Eu1  1  0.125000  0.125000  0.625000  1
  Eu  Eu2  1  0.625000  0.125000  0.125000  1
  Eu  Eu3  1  0.125000  0.125000  0.125000  1
  Ta  Ta4  1  0.625000  0.625000  0.625000  1
  Ta  Ta5  1  0.125000  0.625000  0.625000  1
  Ta  Ta6  1  0.625000  0.625000  0.125000  1
  Bi  Bi7  1  0.625000  0.125000  0.625000  1
  O  O8  1  0.322417  0.652935  0.702231  1
  O  O9  1  0.528551  0.944792  0.998106  1
  O  O10  1  0.702231  0.652935  0.322417  1
  O  O11  1  0.251894  0.305208  0.721449  1
  O  O12  1  0.003462  0.989614  0.003462  1
  O  O13  1  0.322417  0.652935  0.322417  1
  O  O14  1  0.721449  0.305208  0.721449  1
  O  O15  1  0.927583  0.597065  0.927583  1
  O  O16  1  0.547769  0.597065  0.927583  1
  O  O17  1  0.998106  0.944792  0.528551  1
  O  O18  1  0.246538  0.260386  0.246538  1
  O  O19  1  0.528551  0.944792  0.528551  1
  O  O20  1  0.721449  0.305208  0.251894  1
  O  O21  1  0.927583  0.597065  0.547769  1
