# generated using pymatgen
data_ThGeN
_symmetry_space_group_name_H-M   'P 1'
_cell_length_a   4.02211890
_cell_length_b   4.02211855
_cell_length_c   9.03497813
_cell_angle_alpha   102.63758936
_cell_angle_beta   102.63758727
_cell_angle_gamma   60.08502373
_symmetry_Int_Tables_number   1
_chemical_formula_structural   ThGeN
_chemical_formula_sum   'Th2 Ge2 N2'
_cell_volume   122.57603467
_cell_formula_units_Z   2
loop_
 _symmetry_equiv_pos_site_id
 _symmetry_equiv_pos_as_xyz
  1  'x, y, z'
loop_
 _atom_site_type_symbol
 _atom_site_label
 _atom_site_symmetry_multiplicity
 _atom_site_fract_x
 _atom_site_fract_y
 _atom_site_fract_z
 _atom_site_occupancy
  Th  Th0  1  0.220898  0.220898  0.667667  1
  Th  Th1  1  0.779102  0.779102  0.332333  1
  Ge  Ge2  1  0.354163  0.354163  0.062900  1
  Ge  Ge3  1  0.645837  0.645837  0.937100  1
  N  N4  1  0.867450  0.867450  0.607051  1
  N  N5  1  0.132550  0.132550  0.392949  1
