# generated using pymatgen
data_Lu4Ga4CoRu3
_symmetry_space_group_name_H-M   'P 1'
_cell_length_a   4.42150800
_cell_length_b   7.05979721
_cell_length_c   7.00056852
_cell_angle_alpha   89.83752378
_cell_angle_beta   90.00000000
_cell_angle_gamma   90.00000000
_symmetry_Int_Tables_number   1
_chemical_formula_structural   Lu4Ga4CoRu3
_chemical_formula_sum   'Lu4 Ga4 Co1 Ru3'
_cell_volume   218.52151656
_cell_formula_units_Z   1
loop_
 _symmetry_equiv_pos_site_id
 _symmetry_equiv_pos_as_xyz
  1  'x, y, z'
loop_
 _atom_site_type_symbol
 _atom_site_label
 _atom_site_symmetry_multiplicity
 _atom_site_fract_x
 _atom_site_fract_y
 _atom_site_fract_z
 _atom_site_occupancy
  Lu  Lu0  1  0.250000  0.196136  0.518942  1
  Lu  Lu1  1  0.250000  0.302447  0.020543  1
  Lu  Lu2  1  0.750000  0.698632  0.982330  1
  Lu  Lu3  1  0.750000  0.800871  0.489830  1
  Ga  Ga4  1  0.250000  0.897758  0.201381  1
  Ga  Ga5  1  0.750000  0.393476  0.306533  1
  Ga  Ga6  1  0.250000  0.595219  0.699387  1
  Ga  Ga7  1  0.750000  0.113878  0.795099  1
  Co  Co8  1  0.750000  0.438696  0.657035  1
  Ru  Ru9  1  0.250000  0.934319  0.834180  1
  Ru  Ru10  1  0.250000  0.564162  0.336192  1
  Ru  Ru11  1  0.750000  0.064406  0.158552  1
