# generated using pymatgen
data_Tb12Co3CuNiBi
_symmetry_space_group_name_H-M   'P 1'
_cell_length_a   8.35997210
_cell_length_b   8.35997172
_cell_length_c   8.35997208
_cell_angle_alpha   111.68855175
_cell_angle_beta   109.24973307
_cell_angle_gamma   107.50281939
_symmetry_Int_Tables_number   1
_chemical_formula_structural   Tb12Co3CuNiBi
_chemical_formula_sum   'Tb12 Co3 Cu1 Ni1 Bi1'
_cell_volume   449.16449302
_cell_formula_units_Z   1
loop_
 _symmetry_equiv_pos_site_id
 _symmetry_equiv_pos_as_xyz
  1  'x, y, z'
loop_
 _atom_site_type_symbol
 _atom_site_label
 _atom_site_symmetry_multiplicity
 _atom_site_fract_x
 _atom_site_fract_y
 _atom_site_fract_z
 _atom_site_occupancy
  Tb  Tb0  1  0.820837  0.710866  0.531702  1
  Tb  Tb1  1  0.182626  0.287051  0.469679  1
  Tb  Tb2  1  0.182626  0.712949  0.895576  1
  Tb  Tb3  1  0.820837  0.289134  0.109970  1
  Tb  Tb4  1  0.680591  0.371524  0.687029  1
  Tb  Tb5  1  0.315505  0.628476  0.309067  1
  Tb  Tb6  1  0.680591  0.993562  0.309067  1
  Tb  Tb7  1  0.315505  0.006438  0.687029  1
  Tb  Tb8  1  0.586717  0.785082  0.801637  1
  Tb  Tb9  1  0.412547  0.214738  0.197807  1
  Tb  Tb10  1  0.983069  0.785262  0.197807  1
  Tb  Tb11  1  0.016555  0.214918  0.801637  1
  Co  Co12  1  0.360784  0.000000  0.360784  1
  Co  Co13  1  0.115350  0.613406  0.501944  1
  Co  Co14  1  0.888538  0.386594  0.501944  1
  Cu  Cu15  1  0.001580  0.000000  0.001580  1
  Ni  Ni16  1  0.634849  0.000000  0.634849  1
  Bi  Bi17  1  0.500892  0.500000  0.000892  1
