# generated using pymatgen
data_Nd16Cd4OsPdPt2
_symmetry_space_group_name_H-M   'P 1'
_cell_length_a   10.03253962
_cell_length_b   10.03254000
_cell_length_c   10.02681431
_cell_angle_alpha   59.57158993
_cell_angle_beta   59.57159557
_cell_angle_gamma   59.63837774
_symmetry_Int_Tables_number   1
_chemical_formula_structural   Nd16Cd4OsPdPt2
_chemical_formula_sum   'Nd16 Cd4 Os1 Pd1 Pt2'
_cell_volume   707.03599070
_cell_formula_units_Z   1
loop_
 _symmetry_equiv_pos_site_id
 _symmetry_equiv_pos_as_xyz
  1  'x, y, z'
loop_
 _atom_site_type_symbol
 _atom_site_label
 _atom_site_symmetry_multiplicity
 _atom_site_fract_x
 _atom_site_fract_y
 _atom_site_fract_z
 _atom_site_occupancy
  Nd  Nd0  1  0.351874  0.351874  0.351133  1
  Nd  Nd1  1  0.348087  0.348087  0.952046  1
  Nd  Nd2  1  0.349169  0.950100  0.347534  1
  Nd  Nd3  1  0.950100  0.349169  0.347534  1
  Nd  Nd4  1  0.816063  0.189295  0.188631  1
  Nd  Nd5  1  0.188634  0.807474  0.809359  1
  Nd  Nd6  1  0.189295  0.816063  0.188631  1
  Nd  Nd7  1  0.807474  0.188634  0.809359  1
  Nd  Nd8  1  0.189072  0.189072  0.817188  1
  Nd  Nd9  1  0.808594  0.808594  0.187755  1
  Nd  Nd10  1  0.937204  0.564834  0.563583  1
  Nd  Nd11  1  0.556838  0.938351  0.937759  1
  Nd  Nd12  1  0.564834  0.937204  0.563583  1
  Nd  Nd13  1  0.938351  0.556838  0.937759  1
  Nd  Nd14  1  0.563671  0.563671  0.937117  1
  Nd  Nd15  1  0.937898  0.937898  0.556649  1
  Cd  Cd16  1  0.579904  0.579904  0.579775  1
  Cd  Cd17  1  0.580531  0.580531  0.257387  1
  Cd  Cd18  1  0.580460  0.257442  0.580424  1
  Cd  Cd19  1  0.257442  0.580460  0.580424  1
  Os  Os20  1  0.143225  0.143225  0.143291  1
  Pd  Pd21  1  0.144566  0.144566  0.572101  1
  Pt  Pt22  1  0.144598  0.572120  0.145490  1
  Pt  Pt23  1  0.572120  0.144598  0.145490  1
