# generated using pymatgen
data_ErLu3Ni2C5
_symmetry_space_group_name_H-M   'P 1'
_cell_length_a   3.54872700
_cell_length_b   3.65955800
_cell_length_c   11.43920000
_cell_angle_alpha   90.00000000
_cell_angle_beta   90.00000000
_cell_angle_gamma   90.00000000
_symmetry_Int_Tables_number   1
_chemical_formula_structural   ErLu3Ni2C5
_chemical_formula_sum   'Er1 Lu3 Ni2 C5'
_cell_volume   148.55828550
_cell_formula_units_Z   1
loop_
 _symmetry_equiv_pos_site_id
 _symmetry_equiv_pos_as_xyz
  1  'x, y, z'
loop_
 _atom_site_type_symbol
 _atom_site_label
 _atom_site_symmetry_multiplicity
 _atom_site_fract_x
 _atom_site_fract_y
 _atom_site_fract_z
 _atom_site_occupancy
  Er  Er0  1  0.000000  0.997691  0.000000  1
  Lu  Lu1  1  0.500000  0.501521  0.202954  1
  Lu  Lu2  1  0.500000  0.501521  0.797046  1
  Lu  Lu3  1  0.500000  0.209511  0.500000  1
  Ni  Ni4  1  0.000000  0.698788  0.385086  1
  Ni  Ni5  1  0.000000  0.698788  0.614914  1
  C  C6  1  0.000000  0.000428  0.228626  1
  C  C7  1  0.000000  0.000428  0.771374  1
  C  C8  1  0.000000  0.200106  0.332905  1
  C  C9  1  0.000000  0.200106  0.667095  1
  C  C10  1  0.500000  0.492612  0.000000  1
