# generated using pymatgen
data_NdErV2(WO6)2
_symmetry_space_group_name_H-M   'P 1'
_cell_length_a   5.29443463
_cell_length_b   7.47322924
_cell_length_c   11.20417100
_cell_angle_alpha   90.00000000
_cell_angle_beta   90.00000000
_cell_angle_gamma   90.13487299
_symmetry_Int_Tables_number   1
_chemical_formula_structural   NdErV2(WO6)2
_chemical_formula_sum   'Nd2 Er2 V4 W4 O24'
_cell_volume   443.30886838
_cell_formula_units_Z   2
loop_
 _symmetry_equiv_pos_site_id
 _symmetry_equiv_pos_as_xyz
  1  'x, y, z'
loop_
 _atom_site_type_symbol
 _atom_site_label
 _atom_site_symmetry_multiplicity
 _atom_site_fract_x
 _atom_site_fract_y
 _atom_site_fract_z
 _atom_site_occupancy
  Nd  Nd0  1  0.540280  0.250817  0.044573  1
  Nd  Nd1  1  0.040280  0.750817  0.455427  1
  Er  Er2  1  0.950888  0.250969  0.546910  1
  Er  Er3  1  0.450888  0.750969  0.953090  1
  V  V4  1  0.049767  0.996665  0.132886  1
  V  V5  1  0.549767  0.496665  0.367115  1
  V  V6  1  0.448993  0.999333  0.635525  1
  V  V7  1  0.948993  0.499333  0.864475  1
  W  W8  1  0.054926  0.508770  0.141900  1
  W  W9  1  0.554926  0.008770  0.358100  1
  W  W10  1  0.442971  0.502965  0.644946  1
  W  W11  1  0.942971  0.002965  0.855054  1
  O  O12  1  0.758584  0.954287  0.018295  1
  O  O13  1  0.765588  0.550306  0.027978  1
  O  O14  1  0.181676  0.750563  0.115859  1
  O  O15  1  0.948801  0.259121  0.139954  1
  O  O16  1  0.368562  0.440188  0.209201  1
  O  O17  1  0.383413  0.066064  0.217549  1
  O  O18  1  0.883413  0.566064  0.282450  1
  O  O19  1  0.868562  0.940188  0.290798  1
  O  O20  1  0.448801  0.759120  0.360046  1
  O  O21  1  0.681676  0.250564  0.384141  1
  O  O22  1  0.265587  0.050305  0.472021  1
  O  O23  1  0.258584  0.454287  0.481705  1
  O  O24  1  0.740054  0.969345  0.521760  1
  O  O25  1  0.732349  0.538042  0.530976  1
  O  O26  1  0.334990  0.747372  0.618906  1
  O  O27  1  0.567995  0.257741  0.645817  1
  O  O28  1  0.124014  0.431900  0.705265  1
  O  O29  1  0.106146  0.065751  0.711797  1
  O  O30  1  0.606146  0.565751  0.788204  1
  O  O31  1  0.624014  0.931900  0.794735  1
  O  O32  1  0.067995  0.757740  0.854183  1
  O  O33  1  0.834990  0.247373  0.881095  1
  O  O34  1  0.232349  0.038041  0.969024  1
  O  O35  1  0.240056  0.469345  0.978240  1
