# generated using pymatgen
data_Ta2Nb3Si2Ge
_symmetry_space_group_name_H-M   'P 1'
_cell_length_a   7.60085558
_cell_length_b   7.59266101
_cell_length_c   7.59266311
_cell_angle_alpha   128.11617111
_cell_angle_beta   128.14843789
_cell_angle_gamma   76.38647807
_symmetry_Int_Tables_number   1
_chemical_formula_structural   Ta2Nb3Si2Ge
_chemical_formula_sum   'Ta4 Nb6 Si4 Ge2'
_cell_volume   263.46262356
_cell_formula_units_Z   2
loop_
 _symmetry_equiv_pos_site_id
 _symmetry_equiv_pos_as_xyz
  1  'x, y, z'
loop_
 _atom_site_type_symbol
 _atom_site_label
 _atom_site_symmetry_multiplicity
 _atom_site_fract_x
 _atom_site_fract_y
 _atom_site_fract_z
 _atom_site_occupancy
  Ta  Ta0  1  0.311619  0.484081  0.499764  1
  Ta  Ta1  1  0.811619  0.311855  0.827539  1
  Ta  Ta2  1  0.500359  0.500010  0.999612  1
  Ta  Ta3  1  0.000359  0.000748  0.000350  1
  Nb  Nb4  1  0.017451  0.187894  0.500459  1
  Nb  Nb5  1  0.517451  0.016992  0.829558  1
  Nb  Nb6  1  0.188345  0.687917  0.170861  1
  Nb  Nb7  1  0.482514  0.982682  0.171341  1
  Nb  Nb8  1  0.688345  0.517484  0.500429  1
  Nb  Nb9  1  0.982514  0.811171  0.499832  1
  Si  Si10  1  0.130095  0.629912  0.760103  1
  Si  Si11  1  0.630095  0.869993  0.500183  1
  Si  Si12  1  0.369681  0.130218  0.500203  1
  Si  Si13  1  0.869681  0.369478  0.239462  1
  Ge  Ge14  1  0.749937  0.749611  0.999980  1
  Ge  Ge15  1  0.249937  0.249956  0.000325  1
