# generated using pymatgen
data_YbBiPt2O7
_symmetry_space_group_name_H-M   'P 1'
_cell_length_a   7.29045540
_cell_length_b   7.29045610
_cell_length_c   7.29045600
_cell_angle_alpha   119.10856529
_cell_angle_beta   121.47249526
_cell_angle_gamma   89.50981927
_symmetry_Int_Tables_number   1
_chemical_formula_structural   YbBiPt2O7
_chemical_formula_sum   'Yb2 Bi2 Pt4 O14'
_cell_volume   272.63832386
_cell_formula_units_Z   2
loop_
 _symmetry_equiv_pos_site_id
 _symmetry_equiv_pos_as_xyz
  1  'x, y, z'
loop_
 _atom_site_type_symbol
 _atom_site_label
 _atom_site_symmetry_multiplicity
 _atom_site_fract_x
 _atom_site_fract_y
 _atom_site_fract_z
 _atom_site_occupancy
  Yb  Yb0  1  0.000000  0.500000  0.500000  1
  Yb  Yb1  1  0.500000  0.500000  0.000000  1
  Bi  Bi2  1  0.000000  0.500000  0.000000  1
  Bi  Bi3  1  0.000000  0.000000  0.500000  1
  Pt  Pt4  1  0.500000  0.000000  0.000000  1
  Pt  Pt5  1  0.500000  0.500000  0.500000  1
  Pt  Pt6  1  0.500000  0.000000  0.500000  1
  Pt  Pt7  1  0.000000  0.000000  0.000000  1
  O  O8  1  0.882527  0.632527  0.250000  1
  O  O9  1  0.117473  0.367473  0.750000  1
  O  O10  1  0.835875  0.085875  0.750000  1
  O  O11  1  0.412681  0.662681  0.750000  1
  O  O12  1  0.837933  0.666309  0.749686  1
  O  O13  1  0.416621  0.088248  0.750314  1
  O  O14  1  0.837933  0.088248  0.171626  1
  O  O15  1  0.416621  0.666309  0.328374  1
  O  O16  1  0.164125  0.914125  0.250000  1
  O  O17  1  0.587319  0.337319  0.250000  1
  O  O18  1  0.162067  0.333691  0.250314  1
  O  O19  1  0.583379  0.911752  0.249686  1
  O  O20  1  0.162067  0.911752  0.828374  1
  O  O21  1  0.583379  0.333691  0.671626  1
