# generated using pymatgen
data_La2Ho4FeCl10
_symmetry_space_group_name_H-M   'P 1'
_cell_length_a   7.13059146
_cell_length_b   8.94815235
_cell_length_c   8.88765500
_cell_angle_alpha   107.35372892
_cell_angle_beta   94.83048458
_cell_angle_gamma   107.02066851
_symmetry_Int_Tables_number   1
_chemical_formula_structural   La2Ho4FeCl10
_chemical_formula_sum   'La2 Ho4 Fe1 Cl10'
_cell_volume   508.34012647
_cell_formula_units_Z   1
loop_
 _symmetry_equiv_pos_site_id
 _symmetry_equiv_pos_as_xyz
  1  'x, y, z'
loop_
 _atom_site_type_symbol
 _atom_site_label
 _atom_site_symmetry_multiplicity
 _atom_site_fract_x
 _atom_site_fract_y
 _atom_site_fract_z
 _atom_site_occupancy
  La  La0  1  0.126114  0.049251  0.765535  1
  La  La1  1  0.873886  0.950749  0.234465  1
  Ho  Ho2  1  0.976612  0.308667  0.099471  1
  Ho  Ho3  1  0.023388  0.691333  0.900529  1
  Ho  Ho4  1  0.370784  0.142530  0.181018  1
  Ho  Ho5  1  0.629216  0.857470  0.818982  1
  Fe  Fe6  1  0.000000  0.000000  0.000000  1
  Cl  Cl7  1  0.556056  0.174724  0.923349  1
  Cl  Cl8  1  0.443944  0.825276  0.076651  1
  Cl  Cl9  1  0.348627  0.447005  0.266698  1
  Cl  Cl10  1  0.651373  0.552995  0.733302  1
  Cl  Cl11  1  0.266294  0.087107  0.445217  1
  Cl  Cl12  1  0.733706  0.912893  0.554783  1
  Cl  Cl13  1  0.781962  0.264265  0.336987  1
  Cl  Cl14  1  0.218038  0.735735  0.663013  1
  Cl  Cl15  1  0.084324  0.380131  0.838614  1
  Cl  Cl16  1  0.915676  0.619869  0.161386  1
