# generated using pymatgen
data_YHo3Al15(SiIr2)3
_symmetry_space_group_name_H-M   'P 1'
_cell_length_a   7.53813436
_cell_length_b   7.52099394
_cell_length_c   9.32013001
_cell_angle_alpha   89.99787269
_cell_angle_beta   89.91669145
_cell_angle_gamma   119.74890075
_symmetry_Int_Tables_number   1
_chemical_formula_structural   YHo3Al15(SiIr2)3
_chemical_formula_sum   'Y1 Ho3 Al15 Si3 Ir6'
_cell_volume   458.75880066
_cell_formula_units_Z   1
loop_
 _symmetry_equiv_pos_site_id
 _symmetry_equiv_pos_as_xyz
  1  'x, y, z'
loop_
 _atom_site_type_symbol
 _atom_site_label
 _atom_site_symmetry_multiplicity
 _atom_site_fract_x
 _atom_site_fract_y
 _atom_site_fract_z
 _atom_site_occupancy
  Y  Y0  1  0.993802  0.668687  0.248429  1
  Ho  Ho1  1  0.005003  0.325553  0.753265  1
  Ho  Ho2  1  0.679257  0.000334  0.248024  1
  Ho  Ho3  1  0.325909  0.005603  0.749512  1
  Al  Al4  1  0.998130  0.668516  0.921835  1
  Al  Al5  1  0.999171  0.664182  0.575578  1
  Al  Al6  1  0.336175  0.000237  0.424554  1
  Al  Al7  1  0.001682  0.336100  0.428748  1
  Al  Al8  1  0.663469  0.999094  0.575495  1
  Al  Al9  1  0.659264  0.994227  0.922262  1
  Al  Al10  1  0.335812  0.000315  0.075806  1
  Al  Al11  1  0.335739  0.335283  0.558617  1
  Al  Al12  1  0.664839  0.665579  0.441620  1
  Al  Al13  1  0.664243  0.665194  0.059536  1
  Al  Al14  1  0.338661  0.335333  0.941313  1
  Al  Al15  1  0.334661  0.546645  0.250346  1
  Al  Al16  1  0.665611  0.451297  0.750134  1
  Al  Al17  1  0.545850  0.335231  0.250261  1
  Al  Al18  1  0.450415  0.663276  0.749401  1
  Si  Si19  1  0.132016  0.127748  0.250894  1
  Si  Si20  1  0.871218  0.872632  0.749742  1
  Si  Si21  1  0.001108  0.337667  0.072859  1
  Ir  Ir22  1  0.679161  0.328380  0.001556  1
  Ir  Ir23  1  0.320127  0.664003  0.000028  1
  Ir  Ir24  1  0.327982  0.671323  0.499503  1
  Ir  Ir25  1  0.671990  0.328344  0.499269  1
  Ir  Ir26  1  0.999085  0.008462  0.001858  1
  Ir  Ir27  1  0.999617  0.000758  0.499554  1
