# generated using pymatgen
data_YZr4Bi3F28
_symmetry_space_group_name_H-M   'P 1'
_cell_length_a   5.84119239
_cell_length_b   9.31652238
_cell_length_c   12.46485025
_cell_angle_alpha   62.04647776
_cell_angle_beta   89.99637334
_cell_angle_gamma   89.97750625
_symmetry_Int_Tables_number   1
_chemical_formula_structural   YZr4Bi3F28
_chemical_formula_sum   'Y1 Zr4 Bi3 F28'
_cell_volume   599.18982820
_cell_formula_units_Z   1
loop_
 _symmetry_equiv_pos_site_id
 _symmetry_equiv_pos_as_xyz
  1  'x, y, z'
loop_
 _atom_site_type_symbol
 _atom_site_label
 _atom_site_symmetry_multiplicity
 _atom_site_fract_x
 _atom_site_fract_y
 _atom_site_fract_z
 _atom_site_occupancy
  Y  Y0  1  0.756385  0.812565  0.765483  1
  Zr  Zr1  1  0.744651  0.271298  0.457270  1
  Zr  Zr2  1  0.244191  0.725037  0.041263  1
  Zr  Zr3  1  0.256221  0.725270  0.548338  1
  Zr  Zr4  1  0.756233  0.278444  0.953542  1
  Bi  Bi5  1  0.741952  0.815640  0.264183  1
  Bi  Bi6  1  0.242601  0.181916  0.236477  1
  Bi  Bi7  1  0.257801  0.177605  0.736186  1
  F  F8  1  0.466793  0.714194  0.918959  1
  F  F9  1  0.960731  0.287983  0.578424  1
  F  F10  1  0.541141  0.290551  0.077087  1
  F  F11  1  0.040455  0.712748  0.425212  1
  F  F12  1  0.454775  0.279674  0.546981  1
  F  F13  1  0.957730  0.721699  0.945685  1
  F  F14  1  0.542756  0.720853  0.454268  1
  F  F15  1  0.044263  0.283780  0.045536  1
  F  F16  1  0.765427  0.526458  0.857665  1
  F  F17  1  0.267596  0.481422  0.642732  1
  F  F18  1  0.230674  0.481022  0.138725  1
  F  F19  1  0.731762  0.517386  0.360574  1
  F  F20  1  0.760184  0.029993  0.057331  1
  F  F21  1  0.260251  0.973981  0.443478  1
  F  F22  1  0.239498  0.974005  0.941844  1
  F  F23  1  0.740410  0.024133  0.561521  1
  F  F24  1  0.989157  0.736978  0.650948  1
  F  F25  1  0.487460  0.266330  0.854103  1
  F  F26  1  0.014585  0.265087  0.355326  1
  F  F27  1  0.512970  0.734751  0.142217  1
  F  F28  1  0.038825  0.747412  0.166610  1
  F  F29  1  0.541095  0.251293  0.330023  1
  F  F30  1  0.960584  0.254853  0.828890  1
  F  F31  1  0.468675  0.749287  0.671952  1
  F  F32  1  0.418230  0.968450  0.232213  1
  F  F33  1  0.916742  0.028963  0.267903  1
  F  F34  1  0.576596  0.020893  0.766485  1
  F  F35  1  0.070600  0.968047  0.734567  1
