# generated using pymatgen
data_Cs2Mn2CoS4
_symmetry_space_group_name_H-M   'P 1'
_cell_length_a   7.58754023
_cell_length_b   7.58754015
_cell_length_c   5.74102200
_cell_angle_alpha   90.00000000
_cell_angle_beta   90.00000000
_cell_angle_gamma   135.45322279
_symmetry_Int_Tables_number   1
_chemical_formula_structural   Cs2Mn2CoS4
_chemical_formula_sum   'Cs2 Mn2 Co1 S4'
_cell_volume   231.85343461
_cell_formula_units_Z   1
loop_
 _symmetry_equiv_pos_site_id
 _symmetry_equiv_pos_as_xyz
  1  'x, y, z'
loop_
 _atom_site_type_symbol
 _atom_site_label
 _atom_site_symmetry_multiplicity
 _atom_site_fract_x
 _atom_site_fract_y
 _atom_site_fract_z
 _atom_site_occupancy
  Cs  Cs0  1  0.500000  0.000000  0.245199  1
  Cs  Cs1  1  0.000000  0.500000  0.754801  1
  Mn  Mn2  1  0.000000  0.000000  0.500000  1
  Mn  Mn3  1  0.500000  0.500000  0.000000  1
  Co  Co4  1  0.500000  0.500000  0.500000  1
  S  S5  1  0.179600  0.358208  0.269302  1
  S  S6  1  0.641792  0.820400  0.730698  1
  S  S7  1  0.820400  0.641792  0.269302  1
  S  S8  1  0.358208  0.179600  0.730698  1
