# generated using pymatgen
data_Tb3Dy8Sc5(In3Co)2
_symmetry_space_group_name_H-M   'P 1'
_cell_length_a   10.11603587
_cell_length_b   10.11603727
_cell_length_c   7.05969400
_cell_angle_alpha   89.87313659
_cell_angle_beta   90.12686677
_cell_angle_gamma   120.09659155
_symmetry_Int_Tables_number   1
_chemical_formula_structural   Tb3Dy8Sc5(In3Co)2
_chemical_formula_sum   'Tb3 Dy8 Sc5 In6 Co2'
_cell_volume   625.04651927
_cell_formula_units_Z   1
loop_
 _symmetry_equiv_pos_site_id
 _symmetry_equiv_pos_as_xyz
  1  'x, y, z'
loop_
 _atom_site_type_symbol
 _atom_site_label
 _atom_site_symmetry_multiplicity
 _atom_site_fract_x
 _atom_site_fract_y
 _atom_site_fract_z
 _atom_site_occupancy
  Tb  Tb0  1  0.332144  0.667856  0.391434  1
  Tb  Tb1  1  0.001636  0.998364  0.489181  1
  Tb  Tb2  1  0.001526  0.998474  0.999348  1
  Dy  Dy3  1  0.534577  0.073073  0.499815  1
  Dy  Dy4  1  0.926927  0.465423  0.499815  1
  Dy  Dy5  1  0.539020  0.460980  0.500240  1
  Dy  Dy6  1  0.465164  0.937763  0.001998  1
  Dy  Dy7  1  0.062237  0.534836  0.001998  1
  Dy  Dy8  1  0.469054  0.530946  0.006910  1
  Dy  Dy9  1  0.178860  0.355732  0.712058  1
  Dy  Dy10  1  0.644268  0.821140  0.712058  1
  Sc  Sc11  1  0.179897  0.820103  0.711290  1
  Sc  Sc12  1  0.819393  0.639777  0.206528  1
  Sc  Sc13  1  0.360223  0.180607  0.206528  1
  Sc  Sc14  1  0.819497  0.180503  0.207983  1
  Sc  Sc15  1  0.666358  0.333642  0.909468  1
  In  In16  1  0.840652  0.668400  0.766804  1
  In  In17  1  0.331600  0.159348  0.766804  1
  In  In18  1  0.831860  0.168140  0.768134  1
  In  In19  1  0.159526  0.319497  0.249881  1
  In  In20  1  0.680503  0.840474  0.249881  1
  In  In21  1  0.159561  0.840439  0.257658  1
  Co  Co22  1  0.666356  0.333644  0.265474  1
  Co  Co23  1  0.329162  0.670838  0.776750  1
