# generated using pymatgen
data_Cs2Sm3Y3(CBr6)2
_symmetry_space_group_name_H-M   'P 1'
_cell_length_a   8.93622939
_cell_length_b   8.96841180
_cell_length_c   9.52598974
_cell_angle_alpha   70.94648974
_cell_angle_beta   84.91310938
_cell_angle_gamma   89.19469868
_symmetry_Int_Tables_number   1
_chemical_formula_structural   Cs2Sm3Y3(CBr6)2
_chemical_formula_sum   'Cs2 Sm3 Y3 C2 Br12'
_cell_volume   718.69054242
_cell_formula_units_Z   1
loop_
 _symmetry_equiv_pos_site_id
 _symmetry_equiv_pos_as_xyz
  1  'x, y, z'
loop_
 _atom_site_type_symbol
 _atom_site_label
 _atom_site_symmetry_multiplicity
 _atom_site_fract_x
 _atom_site_fract_y
 _atom_site_fract_z
 _atom_site_occupancy
  Cs  Cs0  1  0.467408  0.364932  0.331113  1
  Cs  Cs1  1  0.532780  0.635362  0.668892  1
  Sm  Sm2  1  0.914376  0.740496  0.004373  1
  Sm  Sm3  1  0.084944  0.259766  0.995542  1
  Sm  Sm4  1  0.740577  0.086634  0.000967  1
  Y  Y5  1  0.255944  0.914022  0.999054  1
  Y  Y6  1  0.973609  0.887042  0.323085  1
  Y  Y7  1  0.027131  0.112700  0.676952  1
  C  C8  1  0.008035  0.026169  0.921401  1
  C  C9  1  0.995274  0.972931  0.078586  1
  Br  Br10  1  0.074285  0.192987  0.332389  1
  Br  Br11  1  0.926155  0.807113  0.667627  1
  Br  Br12  1  0.208952  0.595068  0.000783  1
  Br  Br13  1  0.793128  0.409867  0.999300  1
  Br  Br14  1  0.403859  0.196449  0.001903  1
  Br  Br15  1  0.591927  0.798263  0.998168  1
  Br  Br16  1  0.669937  0.999130  0.329432  1
  Br  Br17  1  0.330276  0.998846  0.676307  1
  Br  Br18  1  0.277800  0.777840  0.320431  1
  Br  Br19  1  0.723458  0.224002  0.673878  1
  Br  Br20  1  0.852189  0.592220  0.330130  1
  Br  Br21  1  0.147952  0.408163  0.669686  1
