# generated using pymatgen
data_Al(BrO3)3
_symmetry_space_group_name_H-M   'P 1'
_cell_length_a   8.86701400
_cell_length_b   8.86701431
_cell_length_c   5.58495900
_cell_angle_alpha   90.00000000
_cell_angle_beta   90.00000000
_cell_angle_gamma   120.00000186
_symmetry_Int_Tables_number   1
_chemical_formula_structural   Al(BrO3)3
_chemical_formula_sum   'Al2 Br6 O18'
_cell_volume   380.28169070
_cell_formula_units_Z   2
loop_
 _symmetry_equiv_pos_site_id
 _symmetry_equiv_pos_as_xyz
  1  'x, y, z'
loop_
 _atom_site_type_symbol
 _atom_site_label
 _atom_site_symmetry_multiplicity
 _atom_site_fract_x
 _atom_site_fract_y
 _atom_site_fract_z
 _atom_site_occupancy
  Al  Al0  1  0.333333  0.666667  0.633922  1
  Al  Al1  1  0.666667  0.333333  0.133922  1
  Br  Br2  1  0.344310  0.322241  0.464121  1
  Br  Br3  1  0.977931  0.655690  0.464121  1
  Br  Br4  1  0.022069  0.344310  0.964121  1
  Br  Br5  1  0.322241  0.977931  0.964121  1
  Br  Br6  1  0.655690  0.677759  0.964121  1
  Br  Br7  1  0.677759  0.022069  0.464121  1
  O  O8  1  0.807163  0.286076  0.915885  1
  O  O9  1  0.521087  0.807163  0.415885  1
  O  O10  1  0.286076  0.478913  0.415885  1
  O  O11  1  0.713924  0.521087  0.915885  1
  O  O12  1  0.478913  0.192837  0.915885  1
  O  O13  1  0.192837  0.713924  0.415885  1
  O  O14  1  0.423159  0.873300  0.831343  1
  O  O15  1  0.549859  0.423159  0.331343  1
  O  O16  1  0.831263  0.046630  0.279676  1
  O  O17  1  0.784632  0.831263  0.779676  1
  O  O18  1  0.046630  0.215368  0.779676  1
  O  O19  1  0.953370  0.784632  0.279676  1
  O  O20  1  0.215368  0.168737  0.279676  1
  O  O21  1  0.873300  0.450141  0.331343  1
  O  O22  1  0.576841  0.126700  0.331343  1
  O  O23  1  0.450141  0.576841  0.831343  1
  O  O24  1  0.126700  0.549859  0.831343  1
  O  O25  1  0.168737  0.953370  0.779676  1
