# generated using pymatgen
data_Ce3Pa(PRh)4
_symmetry_space_group_name_H-M   'P 1'
_cell_length_a   4.16075200
_cell_length_b   4.16075256
_cell_length_c   15.20276200
_cell_angle_alpha   90.00000000
_cell_angle_beta   90.00000000
_cell_angle_gamma   120.00001145
_symmetry_Int_Tables_number   1
_chemical_formula_structural   Ce3Pa(PRh)4
_chemical_formula_sum   'Ce3 Pa1 P4 Rh4'
_cell_volume   227.92753721
_cell_formula_units_Z   1
loop_
 _symmetry_equiv_pos_site_id
 _symmetry_equiv_pos_as_xyz
  1  'x, y, z'
loop_
 _atom_site_type_symbol
 _atom_site_label
 _atom_site_symmetry_multiplicity
 _atom_site_fract_x
 _atom_site_fract_y
 _atom_site_fract_z
 _atom_site_occupancy
  Ce  Ce0  1  0.000000  0.000000  0.498583  1
  Ce  Ce1  1  0.000000  0.000000  0.001417  1
  Ce  Ce2  1  0.000000  0.000000  0.750000  1
  Pa  Pa3  1  0.000000  0.000000  0.250000  1
  P  P4  1  0.333333  0.666667  0.874630  1
  P  P5  1  0.666667  0.333333  0.123739  1
  P  P6  1  0.666667  0.333333  0.376261  1
  P  P7  1  0.333333  0.666667  0.625370  1
  Rh  Rh8  1  0.333333  0.666667  0.358569  1
  Rh  Rh9  1  0.666667  0.333333  0.618671  1
  Rh  Rh10  1  0.666667  0.333333  0.881329  1
  Rh  Rh11  1  0.333333  0.666667  0.141431  1
