# generated using pymatgen
data_BaHfSe3
_symmetry_space_group_name_H-M   'P 1'
_cell_length_a   4.03879700
_cell_length_b   9.15834702
_cell_length_c   15.17432595
_cell_angle_alpha   90.01623705
_cell_angle_beta   90.00000000
_cell_angle_gamma   90.00000000
_symmetry_Int_Tables_number   1
_chemical_formula_structural   BaHfSe3
_chemical_formula_sum   'Ba4 Hf4 Se12'
_cell_volume   561.27863555
_cell_formula_units_Z   4
loop_
 _symmetry_equiv_pos_site_id
 _symmetry_equiv_pos_as_xyz
  1  'x, y, z'
loop_
 _atom_site_type_symbol
 _atom_site_label
 _atom_site_symmetry_multiplicity
 _atom_site_fract_x
 _atom_site_fract_y
 _atom_site_fract_z
 _atom_site_occupancy
  Ba  Ba0  1  0.500000  0.934455  0.825545  1
  Ba  Ba1  1  0.500000  0.434515  0.675140  1
  Ba  Ba2  1  0.000000  0.065687  0.174281  1
  Ba  Ba3  1  0.000000  0.563798  0.325141  1
  Hf  Hf4  1  0.500000  0.663933  0.058418  1
  Hf  Hf5  1  0.500000  0.162981  0.442181  1
  Hf  Hf6  1  0.000000  0.337633  0.942280  1
  Hf  Hf7  1  0.000000  0.836272  0.557297  1
  Se  Se8  1  0.500000  0.669384  0.494151  1
  Se  Se9  1  0.500000  0.169892  0.005193  1
  Se  Se10  1  0.000000  0.330376  0.505477  1
  Se  Se11  1  0.000000  0.830754  0.995027  1
  Se  Se12  1  0.500000  0.524652  0.896173  1
  Se  Se13  1  0.500000  0.023268  0.603518  1
  Se  Se14  1  0.000000  0.476657  0.104152  1
  Se  Se15  1  0.000000  0.976344  0.395549  1
  Se  Se16  1  0.500000  0.783855  0.211881  1
  Se  Se17  1  0.500000  0.282973  0.288346  1
  Se  Se18  1  0.000000  0.216081  0.789130  1
  Se  Se19  1  0.000000  0.716489  0.711120  1
