# generated using pymatgen
data_LaPr2(ZnPt)4
_symmetry_space_group_name_H-M   'P 1'
_cell_length_a   8.42281000
_cell_length_b   8.42281086
_cell_length_c   8.42281068
_cell_angle_alpha   151.37463502
_cell_angle_beta   126.86246555
_cell_angle_gamma   61.46684295
_symmetry_Int_Tables_number   1
_chemical_formula_structural   LaPr2(ZnPt)4
_chemical_formula_sum   'La1 Pr2 Zn4 Pt4'
_cell_volume   227.16840002
_cell_formula_units_Z   1
loop_
 _symmetry_equiv_pos_site_id
 _symmetry_equiv_pos_as_xyz
  1  'x, y, z'
loop_
 _atom_site_type_symbol
 _atom_site_label
 _atom_site_symmetry_multiplicity
 _atom_site_fract_x
 _atom_site_fract_y
 _atom_site_fract_z
 _atom_site_occupancy
  La  La0  1  0.500000  0.000000  0.500000  1
  Pr  Pr1  1  0.872077  0.872077  0.000000  1
  Pr  Pr2  1  0.127923  0.127923  0.000000  1
  Zn  Zn3  1  0.479969  0.673660  0.806310  1
  Zn  Zn4  1  0.867350  0.673660  0.193690  1
  Zn  Zn5  1  0.132650  0.326340  0.806310  1
  Zn  Zn6  1  0.520031  0.326340  0.193690  1
  Pt  Pt7  1  0.282267  0.782267  0.500000  1
  Pt  Pt8  1  0.717733  0.217733  0.500000  1
  Pt  Pt9  1  0.801406  0.500000  0.301406  1
  Pt  Pt10  1  0.198594  0.500000  0.698594  1
