# generated using pymatgen
data_Sm5InPb2Cl
_symmetry_space_group_name_H-M   'P 1'
_cell_length_a   9.40919500
_cell_length_b   9.38004135
_cell_length_c   6.80942400
_cell_angle_alpha   90.00000000
_cell_angle_beta   90.00000000
_cell_angle_gamma   120.10286334
_symmetry_Int_Tables_number   1
_chemical_formula_structural   Sm5InPb2Cl
_chemical_formula_sum   'Sm10 In2 Pb4 Cl2'
_cell_volume   519.93271220
_cell_formula_units_Z   2
loop_
 _symmetry_equiv_pos_site_id
 _symmetry_equiv_pos_as_xyz
  1  'x, y, z'
loop_
 _atom_site_type_symbol
 _atom_site_label
 _atom_site_symmetry_multiplicity
 _atom_site_fract_x
 _atom_site_fract_y
 _atom_site_fract_z
 _atom_site_occupancy
  Sm  Sm0  1  0.335629  0.671260  0.000000  1
  Sm  Sm1  1  0.664371  0.328740  0.000000  1
  Sm  Sm2  1  0.664371  0.328740  0.500000  1
  Sm  Sm3  1  0.335629  0.671260  0.500000  1
  Sm  Sm4  1  0.261112  0.000000  0.250000  1
  Sm  Sm5  1  0.738888  0.000000  0.750000  1
  Sm  Sm6  1  0.997226  0.255819  0.250000  1
  Sm  Sm7  1  0.002774  0.744181  0.750000  1
  Sm  Sm8  1  0.741407  0.744181  0.250000  1
  Sm  Sm9  1  0.258593  0.255819  0.750000  1
  In  In10  1  0.606769  0.000000  0.250000  1
  In  In11  1  0.393231  0.000000  0.750000  1
  Pb  Pb12  1  0.999435  0.609570  0.250000  1
  Pb  Pb13  1  0.000565  0.390430  0.750000  1
  Pb  Pb14  1  0.389866  0.390430  0.250000  1
  Pb  Pb15  1  0.610134  0.609570  0.750000  1
  Cl  Cl16  1  0.000000  0.000000  0.000000  1
  Cl  Cl17  1  0.000000  0.000000  0.500000  1
