# generated using pymatgen
data_Zr10GaCuBi6
_symmetry_space_group_name_H-M   'P 1'
_cell_length_a   8.86889300
_cell_length_b   8.86889306
_cell_length_c   5.92150100
_cell_angle_alpha   90.00000000
_cell_angle_beta   90.00000000
_cell_angle_gamma   119.99999604
_symmetry_Int_Tables_number   1
_chemical_formula_structural   Zr10GaCuBi6
_chemical_formula_sum   'Zr10 Ga1 Cu1 Bi6'
_cell_volume   403.36785863
_cell_formula_units_Z   1
loop_
 _symmetry_equiv_pos_site_id
 _symmetry_equiv_pos_as_xyz
  1  'x, y, z'
loop_
 _atom_site_type_symbol
 _atom_site_label
 _atom_site_symmetry_multiplicity
 _atom_site_fract_x
 _atom_site_fract_y
 _atom_site_fract_z
 _atom_site_occupancy
  Zr  Zr0  1  0.736796  0.000000  0.248796  1
  Zr  Zr1  1  0.000000  0.736796  0.248796  1
  Zr  Zr2  1  0.263204  0.263204  0.248796  1
  Zr  Zr3  1  0.263204  0.000000  0.751204  1
  Zr  Zr4  1  0.000000  0.263204  0.751204  1
  Zr  Zr5  1  0.736796  0.736796  0.751204  1
  Zr  Zr6  1  0.333333  0.666667  0.500000  1
  Zr  Zr7  1  0.666667  0.333333  0.500000  1
  Zr  Zr8  1  0.666667  0.333333  0.000000  1
  Zr  Zr9  1  0.333333  0.666667  0.000000  1
  Ga  Ga10  1  0.000000  0.000000  0.500000  1
  Cu  Cu11  1  0.000000  0.000000  0.000000  1
  Bi  Bi12  1  0.386555  0.000000  0.249350  1
  Bi  Bi13  1  0.000000  0.386555  0.249350  1
  Bi  Bi14  1  0.613445  0.613445  0.249350  1
  Bi  Bi15  1  0.613445  0.000000  0.750650  1
  Bi  Bi16  1  0.000000  0.613445  0.750650  1
  Bi  Bi17  1  0.386555  0.386555  0.750650  1
