# generated using pymatgen
data_YPa3(InPt2)2
_symmetry_space_group_name_H-M   'P 1'
_cell_length_a   7.84052657
_cell_length_b   7.84052576
_cell_length_c   3.66482100
_cell_angle_alpha   90.00000000
_cell_angle_beta   90.00000000
_cell_angle_gamma   91.07627593
_symmetry_Int_Tables_number   1
_chemical_formula_structural   YPa3(InPt2)2
_chemical_formula_sum   'Y1 Pa3 In2 Pt4'
_cell_volume   225.25091135
_cell_formula_units_Z   1
loop_
 _symmetry_equiv_pos_site_id
 _symmetry_equiv_pos_as_xyz
  1  'x, y, z'
loop_
 _atom_site_type_symbol
 _atom_site_label
 _atom_site_symmetry_multiplicity
 _atom_site_fract_x
 _atom_site_fract_y
 _atom_site_fract_z
 _atom_site_occupancy
  Y  Y0  1  0.825168  0.674832  0.500000  1
  Pa  Pa1  1  0.673414  0.172724  0.500000  1
  Pa  Pa2  1  0.327276  0.826586  0.500000  1
  Pa  Pa3  1  0.169093  0.330907  0.500000  1
  In  In4  1  0.506830  0.502612  0.000000  1
  In  In5  1  0.997388  0.993170  0.000000  1
  Pt  Pt6  1  0.142293  0.623882  0.000000  1
  Pt  Pt7  1  0.876118  0.357707  0.000000  1
  Pt  Pt8  1  0.618406  0.881594  0.000000  1
  Pt  Pt9  1  0.364013  0.135987  0.000000  1
