# generated using pymatgen
data_SrU2(TlS2)3
_symmetry_space_group_name_H-M   'P 1'
_cell_length_a   7.14319887
_cell_length_b   7.14319934
_cell_length_c   7.78710600
_cell_angle_alpha   81.10520515
_cell_angle_beta   81.10519644
_cell_angle_gamma   120.00483878
_symmetry_Int_Tables_number   1
_chemical_formula_structural   SrU2(TlS2)3
_chemical_formula_sum   'Sr1 U2 Tl3 S6'
_cell_volume   327.22065184
_cell_formula_units_Z   1
loop_
 _symmetry_equiv_pos_site_id
 _symmetry_equiv_pos_as_xyz
  1  'x, y, z'
loop_
 _atom_site_type_symbol
 _atom_site_label
 _atom_site_symmetry_multiplicity
 _atom_site_fract_x
 _atom_site_fract_y
 _atom_site_fract_z
 _atom_site_occupancy
  Sr  Sr0  1  0.500000  0.500000  0.000000  1
  U  U1  1  0.832578  0.167422  0.000000  1
  U  U2  1  0.167422  0.832578  0.000000  1
  Tl  Tl3  1  0.659337  0.340663  0.500000  1
  Tl  Tl4  1  0.340663  0.659337  0.500000  1
  Tl  Tl5  1  0.000000  0.000000  0.500000  1
  S  S6  1  0.791248  0.791248  0.198167  1
  S  S7  1  0.208752  0.208752  0.801833  1
  S  S8  1  0.430810  0.072376  0.204689  1
  S  S9  1  0.569190  0.927624  0.795311  1
  S  S10  1  0.927624  0.569190  0.795311  1
  S  S11  1  0.072376  0.430810  0.204689  1
