# generated using pymatgen
data_Hf18FeRe6NiW2
_symmetry_space_group_name_H-M   'P 1'
_cell_length_a   8.63636200
_cell_length_b   8.63636210
_cell_length_c   8.45691300
_cell_angle_alpha   90.00000000
_cell_angle_beta   90.00000000
_cell_angle_gamma   119.99999963
_symmetry_Int_Tables_number   1
_chemical_formula_structural   Hf18FeRe6NiW2
_chemical_formula_sum   'Hf18 Fe1 Re6 Ni1 W2'
_cell_volume   546.26600775
_cell_formula_units_Z   1
loop_
 _symmetry_equiv_pos_site_id
 _symmetry_equiv_pos_as_xyz
  1  'x, y, z'
loop_
 _atom_site_type_symbol
 _atom_site_label
 _atom_site_symmetry_multiplicity
 _atom_site_fract_x
 _atom_site_fract_y
 _atom_site_fract_z
 _atom_site_occupancy
  Hf  Hf0  1  0.201448  0.798552  0.441207  1
  Hf  Hf1  1  0.201448  0.402894  0.441207  1
  Hf  Hf2  1  0.597106  0.798552  0.441207  1
  Hf  Hf3  1  0.801283  0.198717  0.557530  1
  Hf  Hf4  1  0.801283  0.602568  0.557530  1
  Hf  Hf5  1  0.397432  0.198717  0.557530  1
  Hf  Hf6  1  0.801283  0.198717  0.942470  1
  Hf  Hf7  1  0.801283  0.602568  0.942470  1
  Hf  Hf8  1  0.397432  0.198717  0.942470  1
  Hf  Hf9  1  0.201448  0.798552  0.058793  1
  Hf  Hf10  1  0.201448  0.402894  0.058793  1
  Hf  Hf11  1  0.597106  0.798552  0.058793  1
  Hf  Hf12  1  0.540745  0.459255  0.250000  1
  Hf  Hf13  1  0.540745  0.081491  0.250000  1
  Hf  Hf14  1  0.918509  0.459255  0.250000  1
  Hf  Hf15  1  0.458440  0.541560  0.750000  1
  Hf  Hf16  1  0.458440  0.916879  0.750000  1
  Hf  Hf17  1  0.083121  0.541560  0.750000  1
  Fe  Fe18  1  0.333333  0.666667  0.250000  1
  Re  Re19  1  0.888325  0.111675  0.250000  1
  Re  Re20  1  0.888325  0.776649  0.250000  1
  Re  Re21  1  0.223351  0.111675  0.250000  1
  Re  Re22  1  0.111571  0.888429  0.750000  1
  Re  Re23  1  0.111571  0.223143  0.750000  1
  Re  Re24  1  0.776857  0.888429  0.750000  1
  Ni  Ni25  1  0.666667  0.333333  0.750000  1
  W  W26  1  0.000000  0.000000  0.498844  1
  W  W27  1  0.000000  0.000000  0.001156  1
