# generated using pymatgen
data_Eu2Nb3Co9As7
_symmetry_space_group_name_H-M   'P 1'
_cell_length_a   3.84342700
_cell_length_b   9.58758100
_cell_length_c   9.58758100
_cell_angle_alpha   119.99999654
_cell_angle_beta   90.00000000
_cell_angle_gamma   90.00000000
_symmetry_Int_Tables_number   1
_chemical_formula_structural   Eu2Nb3Co9As7
_chemical_formula_sum   'Eu2 Nb3 Co9 As7'
_cell_volume   305.96191882
_cell_formula_units_Z   1
loop_
 _symmetry_equiv_pos_site_id
 _symmetry_equiv_pos_as_xyz
  1  'x, y, z'
loop_
 _atom_site_type_symbol
 _atom_site_label
 _atom_site_symmetry_multiplicity
 _atom_site_fract_x
 _atom_site_fract_y
 _atom_site_fract_z
 _atom_site_occupancy
  Eu  Eu0  1  0.000000  0.666667  0.333333  1
  Eu  Eu1  1  0.500000  0.333333  0.666667  1
  Nb  Nb2  1  0.500000  0.777292  0.895816  1
  Nb  Nb3  1  0.500000  0.118525  0.222708  1
  Nb  Nb4  1  0.500000  0.104184  0.881475  1
  Co  Co5  1  0.000000  0.575099  0.943098  1
  Co  Co6  1  0.000000  0.368000  0.424901  1
  Co  Co7  1  0.000000  0.056902  0.632000  1
  Co  Co8  1  0.000000  0.879118  0.158685  1
  Co  Co9  1  0.000000  0.279567  0.120882  1
  Co  Co10  1  0.000000  0.841315  0.720433  1
  Co  Co11  1  0.500000  0.950595  0.383921  1
  Co  Co12  1  0.500000  0.433325  0.049405  1
  Co  Co13  1  0.500000  0.616079  0.566675  1
  As  As14  1  0.000000  0.000000  0.000000  1
  As  As15  1  0.500000  0.708148  0.122725  1
  As  As16  1  0.500000  0.414578  0.291852  1
  As  As17  1  0.500000  0.877275  0.585422  1
  As  As18  1  0.000000  0.581057  0.691355  1
  As  As19  1  0.000000  0.110299  0.418943  1
  As  As20  1  0.000000  0.308645  0.889701  1
