# generated using pymatgen
data_Dy8Sc11Si16Au
_symmetry_space_group_name_H-M   'P 1'
_cell_length_a   7.00791005
_cell_length_b   7.38802793
_cell_length_c   14.01096900
_cell_angle_alpha   90.00000000
_cell_angle_beta   90.00000000
_cell_angle_gamma   89.82725144
_symmetry_Int_Tables_number   1
_chemical_formula_structural   Dy8Sc11Si16Au
_chemical_formula_sum   'Dy8 Sc11 Si16 Au1'
_cell_volume   725.40951177
_cell_formula_units_Z   1
loop_
 _symmetry_equiv_pos_site_id
 _symmetry_equiv_pos_as_xyz
  1  'x, y, z'
loop_
 _atom_site_type_symbol
 _atom_site_label
 _atom_site_symmetry_multiplicity
 _atom_site_fract_x
 _atom_site_fract_y
 _atom_site_fract_z
 _atom_site_occupancy
  Dy  Dy0  1  0.010853  0.175425  0.096156  1
  Dy  Dy1  1  0.991357  0.814917  0.900994  1
  Dy  Dy2  1  0.485077  0.673245  0.901271  1
  Dy  Dy3  1  0.991357  0.814917  0.599006  1
  Dy  Dy4  1  0.510393  0.323527  0.096240  1
  Dy  Dy5  1  0.010853  0.175425  0.403844  1
  Dy  Dy6  1  0.510393  0.323527  0.403760  1
  Dy  Dy7  1  0.485077  0.673245  0.598729  1
  Sc  Sc8  1  0.838636  0.497588  0.250000  1
  Sc  Sc9  1  0.340035  0.003214  0.250000  1
  Sc  Sc10  1  0.657117  0.997920  0.750000  1
  Sc  Sc11  1  0.325115  0.182666  0.626891  1
  Sc  Sc12  1  0.671019  0.823736  0.375033  1
  Sc  Sc13  1  0.170693  0.678256  0.374104  1
  Sc  Sc14  1  0.671019  0.823736  0.124967  1
  Sc  Sc15  1  0.835896  0.327723  0.626964  1
  Sc  Sc16  1  0.325115  0.182666  0.873109  1
  Sc  Sc17  1  0.835896  0.327723  0.873036  1
  Sc  Sc18  1  0.170693  0.678256  0.125896  1
  Si  Si19  1  0.027503  0.097310  0.750000  1
  Si  Si20  1  0.968870  0.887710  0.250000  1
  Si  Si21  1  0.467264  0.616931  0.250000  1
  Si  Si22  1  0.535521  0.385494  0.750000  1
  Si  Si23  1  0.288884  0.883133  0.750000  1
  Si  Si24  1  0.713626  0.127971  0.250000  1
  Si  Si25  1  0.212822  0.372171  0.250000  1
  Si  Si26  1  0.778693  0.628739  0.750000  1
  Si  Si27  1  0.161416  0.459795  0.531320  1
  Si  Si28  1  0.842702  0.535684  0.462354  1
  Si  Si29  1  0.344482  0.965290  0.462840  1
  Si  Si30  1  0.842702  0.535684  0.037646  1
  Si  Si31  1  0.657942  0.033680  0.540199  1
  Si  Si32  1  0.161416  0.459795  0.968680  1
  Si  Si33  1  0.657942  0.033680  0.959801  1
  Si  Si34  1  0.344482  0.965290  0.037160  1
  Au  Au35  1  0.157140  0.513930  0.750000  1
