# generated using pymatgen
data_Li2Yb3Tm(ZnPt2)2
_symmetry_space_group_name_H-M   'P 1'
_cell_length_a   4.06259600
_cell_length_b   7.08512364
_cell_length_c   8.19116854
_cell_angle_alpha   89.87983801
_cell_angle_beta   90.00000000
_cell_angle_gamma   90.00000000
_symmetry_Int_Tables_number   1
_chemical_formula_structural   Li2Yb3Tm(ZnPt2)2
_chemical_formula_sum   'Li2 Yb3 Tm1 Zn2 Pt4'
_cell_volume   235.77403551
_cell_formula_units_Z   1
loop_
 _symmetry_equiv_pos_site_id
 _symmetry_equiv_pos_as_xyz
  1  'x, y, z'
loop_
 _atom_site_type_symbol
 _atom_site_label
 _atom_site_symmetry_multiplicity
 _atom_site_fract_x
 _atom_site_fract_y
 _atom_site_fract_z
 _atom_site_occupancy
  Li  Li0  1  0.250000  0.626288  0.561091  1
  Li  Li1  1  0.250000  0.130344  0.938772  1
  Yb  Yb2  1  0.750000  0.460759  0.817398  1
  Yb  Yb3  1  0.750000  0.960883  0.680919  1
  Yb  Yb4  1  0.250000  0.039288  0.318288  1
  Tm  Tm5  1  0.250000  0.539210  0.180470  1
  Zn  Zn6  1  0.750000  0.368744  0.439209  1
  Zn  Zn7  1  0.750000  0.876155  0.063229  1
  Pt  Pt8  1  0.250000  0.756090  0.887556  1
  Pt  Pt9  1  0.750000  0.250773  0.127287  1
  Pt  Pt10  1  0.750000  0.734374  0.367184  1
  Pt  Pt11  1  0.250000  0.257094  0.618595  1
