# generated using pymatgen
data_AgOsBr18
_symmetry_space_group_name_H-M   'P 1'
_cell_length_a   9.48517689
_cell_length_b   9.48517444
_cell_length_c   9.48517503
_cell_angle_alpha   92.93032703
_cell_angle_beta   92.93032516
_cell_angle_gamma   92.93032668
_symmetry_Int_Tables_number   1
_chemical_formula_structural   AgOsBr18
_chemical_formula_sum   'Ag1 Os1 Br18'
_cell_volume   849.90116024
_cell_formula_units_Z   1
loop_
 _symmetry_equiv_pos_site_id
 _symmetry_equiv_pos_as_xyz
  1  'x, y, z'
loop_
 _atom_site_type_symbol
 _atom_site_label
 _atom_site_symmetry_multiplicity
 _atom_site_fract_x
 _atom_site_fract_y
 _atom_site_fract_z
 _atom_site_occupancy
  Ag  Ag0  1  0.500000  0.500000  0.500000  1
  Os  Os1  1  0.000000  0.000000  0.000000  1
  Br  Br2  1  0.261809  0.992063  0.028008  1
  Br  Br3  1  0.028008  0.261809  0.992063  1
  Br  Br4  1  0.992063  0.028008  0.261809  1
  Br  Br5  1  0.738191  0.007937  0.971992  1
  Br  Br6  1  0.971992  0.738191  0.007937  1
  Br  Br7  1  0.007937  0.971992  0.738191  1
  Br  Br8  1  0.641267  0.238472  0.113779  1
  Br  Br9  1  0.113779  0.641267  0.238472  1
  Br  Br10  1  0.238472  0.113779  0.641267  1
  Br  Br11  1  0.358733  0.761528  0.886221  1
  Br  Br12  1  0.886221  0.358733  0.761528  1
  Br  Br13  1  0.761528  0.886221  0.358733  1
  Br  Br14  1  0.455859  0.213124  0.548404  1
  Br  Br15  1  0.548404  0.455859  0.213124  1
  Br  Br16  1  0.213124  0.548404  0.455859  1
  Br  Br17  1  0.544141  0.786876  0.451596  1
  Br  Br18  1  0.451596  0.544141  0.786876  1
  Br  Br19  1  0.786876  0.451596  0.544141  1
