# generated using pymatgen
data_Tb2MnIr2Rh
_symmetry_space_group_name_H-M   'P 1'
_cell_length_a   5.17905487
_cell_length_b   5.49836912
_cell_length_c   5.49837026
_cell_angle_alpha   59.95118597
_cell_angle_beta   58.02229923
_cell_angle_gamma   58.02228069
_symmetry_Int_Tables_number   1
_chemical_formula_structural   Tb2MnIr2Rh
_chemical_formula_sum   'Tb2 Mn1 Ir2 Rh1'
_cell_volume   107.25124975
_cell_formula_units_Z   1
loop_
 _symmetry_equiv_pos_site_id
 _symmetry_equiv_pos_as_xyz
  1  'x, y, z'
loop_
 _atom_site_type_symbol
 _atom_site_label
 _atom_site_symmetry_multiplicity
 _atom_site_fract_x
 _atom_site_fract_y
 _atom_site_fract_z
 _atom_site_occupancy
  Tb  Tb0  1  0.620635  0.626508  0.626508  1
  Tb  Tb1  1  0.379365  0.373492  0.373492  1
  Mn  Mn2  1  0.500000  0.000000  0.000000  1
  Ir  Ir3  1  0.000000  0.500000  0.000000  1
  Ir  Ir4  1  0.000000  0.000000  0.500000  1
  Rh  Rh5  1  0.000000  0.000000  0.000000  1
