# generated using pymatgen
data_K3RbZrTeI12
_symmetry_space_group_name_H-M   'P 1'
_cell_length_a   8.57085085
_cell_length_b   8.22854421
_cell_length_c   14.27764429
_cell_angle_alpha   55.01723535
_cell_angle_beta   90.17037175
_cell_angle_gamma   89.72493309
_symmetry_Int_Tables_number   1
_chemical_formula_structural   K3RbZrTeI12
_chemical_formula_sum   'K3 Rb1 Zr1 Te1 I12'
_cell_volume   824.98083191
_cell_formula_units_Z   1
loop_
 _symmetry_equiv_pos_site_id
 _symmetry_equiv_pos_as_xyz
  1  'x, y, z'
loop_
 _atom_site_type_symbol
 _atom_site_label
 _atom_site_symmetry_multiplicity
 _atom_site_fract_x
 _atom_site_fract_y
 _atom_site_fract_z
 _atom_site_occupancy
  K  K0  1  0.078238  0.273260  0.247518  1
  K  K1  1  0.420422  0.275074  0.748304  1
  K  K2  1  0.921749  0.726913  0.752465  1
  Rb  Rb3  1  0.577212  0.724531  0.251053  1
  Zr  Zr4  1  0.000026  0.000685  0.999571  1
  Te  Te5  1  0.499687  0.999492  0.500719  1
  I  I6  1  0.997975  0.841173  0.239778  1
  I  I7  1  0.491320  0.167365  0.252326  1
  I  I8  1  0.006927  0.161129  0.759262  1
  I  I9  1  0.507882  0.839094  0.747726  1
  I  I10  1  0.695117  0.657938  0.548899  1
  I  I11  1  0.185418  0.330117  0.955985  1
  I  I12  1  0.300898  0.335899  0.455236  1
  I  I13  1  0.816503  0.670214  0.042503  1
  I  I14  1  0.716349  0.221522  0.963038  1
  I  I15  1  0.210093  0.770756  0.538032  1
  I  I16  1  0.282815  0.779415  0.034038  1
  I  I17  1  0.791370  0.225422  0.463547  1
