# generated using pymatgen
data_Yb3HoEr2(CoSn6)2
_symmetry_space_group_name_H-M   'P 1'
_cell_length_a   8.36456621
_cell_length_b   8.36456580
_cell_length_c   13.21340307
_cell_angle_alpha   90.03674578
_cell_angle_beta   89.96325438
_cell_angle_gamma   147.92342498
_symmetry_Int_Tables_number   1
_chemical_formula_structural   Yb3HoEr2(CoSn6)2
_chemical_formula_sum   'Yb3 Ho1 Er2 Co2 Sn12'
_cell_volume   490.95153201
_cell_formula_units_Z   1
loop_
 _symmetry_equiv_pos_site_id
 _symmetry_equiv_pos_as_xyz
  1  'x, y, z'
loop_
 _atom_site_type_symbol
 _atom_site_label
 _atom_site_symmetry_multiplicity
 _atom_site_fract_x
 _atom_site_fract_y
 _atom_site_fract_z
 _atom_site_occupancy
  Yb  Yb0  1  0.100221  0.899779  0.597827  1
  Yb  Yb1  1  0.100689  0.899311  0.902713  1
  Yb  Yb2  1  0.900090  0.099910  0.401544  1
  Ho  Ho3  1  0.898405  0.101595  0.095760  1
  Er  Er4  1  0.901267  0.098733  0.754234  1
  Er  Er5  1  0.098693  0.901307  0.247435  1
  Co  Co6  1  0.298694  0.701306  0.249369  1
  Co  Co7  1  0.703523  0.296477  0.750476  1
  Sn  Sn8  1  0.759217  0.240783  0.572378  1
  Sn  Sn9  1  0.424825  0.575175  0.578653  1
  Sn  Sn10  1  0.573667  0.426333  0.422140  1
  Sn  Sn11  1  0.732403  0.267597  0.248662  1
  Sn  Sn12  1  0.268365  0.731635  0.750319  1
  Sn  Sn13  1  0.241299  0.758701  0.072115  1
  Sn  Sn14  1  0.241832  0.758168  0.427179  1
  Sn  Sn15  1  0.572914  0.427086  0.075269  1
  Sn  Sn16  1  0.455314  0.544686  0.248176  1
  Sn  Sn17  1  0.545136  0.454864  0.750494  1
  Sn  Sn18  1  0.757596  0.242404  0.929548  1
  Sn  Sn19  1  0.425853  0.574147  0.925708  1
