# generated using pymatgen
data_Tb3DyHo4(B6Os)4
_symmetry_space_group_name_H-M   'P 1'
_cell_length_a   3.65524500
_cell_length_b   9.15548653
_cell_length_c   11.53953659
_cell_angle_alpha   89.98823560
_cell_angle_beta   90.00000000
_cell_angle_gamma   90.00000000
_symmetry_Int_Tables_number   1
_chemical_formula_structural   Tb3DyHo4(B6Os)4
_chemical_formula_sum   'Tb3 Dy1 Ho4 B24 Os4'
_cell_volume   386.17688845
_cell_formula_units_Z   1
loop_
 _symmetry_equiv_pos_site_id
 _symmetry_equiv_pos_as_xyz
  1  'x, y, z'
loop_
 _atom_site_type_symbol
 _atom_site_label
 _atom_site_symmetry_multiplicity
 _atom_site_fract_x
 _atom_site_fract_y
 _atom_site_fract_z
 _atom_site_occupancy
  Tb  Tb0  1  0.000000  0.677922  0.586019  1
  Tb  Tb1  1  0.000000  0.821941  0.086034  1
  Tb  Tb2  1  0.000000  0.177935  0.913909  1
  Dy  Dy3  1  0.000000  0.321842  0.413976  1
  Ho  Ho4  1  0.000000  0.944081  0.372651  1
  Ho  Ho5  1  0.000000  0.056258  0.627210  1
  Ho  Ho6  1  0.000000  0.443808  0.127407  1
  Ho  Ho7  1  0.000000  0.556096  0.873080  1
  B  B8  1  0.500000  0.554149  0.432831  1
  B  B9  1  0.500000  0.445820  0.567176  1
  B  B10  1  0.500000  0.053958  0.066935  1
  B  B11  1  0.500000  0.945775  0.932613  1
  B  B12  1  0.500000  0.748457  0.419463  1
  B  B13  1  0.500000  0.251890  0.580330  1
  B  B14  1  0.500000  0.248073  0.080399  1
  B  B15  1  0.500000  0.751783  0.919568  1
  B  B16  1  0.500000  0.791098  0.266505  1
  B  B17  1  0.500000  0.209158  0.733508  1
  B  B18  1  0.500000  0.290749  0.233534  1
  B  B19  1  0.500000  0.709085  0.766541  1
  B  B20  1  0.500000  0.631379  0.185449  1
  B  B21  1  0.500000  0.368694  0.814949  1
  B  B22  1  0.500000  0.131299  0.314631  1
  B  B23  1  0.500000  0.868747  0.685159  1
  B  B24  1  0.500000  0.983216  0.212984  1
  B  B25  1  0.500000  0.016694  0.786705  1
  B  B26  1  0.500000  0.483167  0.286982  1
  B  B27  1  0.500000  0.516698  0.713376  1
  B  B28  1  0.500000  0.607158  0.029866  1
  B  B29  1  0.500000  0.392822  0.970592  1
  B  B30  1  0.500000  0.106905  0.470346  1
  B  B31  1  0.500000  0.893543  0.529418  1
  Os  Os32  1  0.000000  0.637551  0.321180  1
  Os  Os33  1  0.000000  0.362462  0.678906  1
  Os  Os34  1  0.000000  0.137422  0.178809  1
  Os  Os35  1  0.000000  0.862365  0.820961  1
