# generated using pymatgen
data_Li4Ca2Ho2Si7Ge
_symmetry_space_group_name_H-M   'P 1'
_cell_length_a   3.79709100
_cell_length_b   7.80269082
_cell_length_c   10.43612231
_cell_angle_alpha   89.32151347
_cell_angle_beta   90.00000000
_cell_angle_gamma   90.00000000
_symmetry_Int_Tables_number   1
_chemical_formula_structural   Li4Ca2Ho2Si7Ge
_chemical_formula_sum   'Li4 Ca2 Ho2 Si7 Ge1'
_cell_volume   309.17481745
_cell_formula_units_Z   1
loop_
 _symmetry_equiv_pos_site_id
 _symmetry_equiv_pos_as_xyz
  1  'x, y, z'
loop_
 _atom_site_type_symbol
 _atom_site_label
 _atom_site_symmetry_multiplicity
 _atom_site_fract_x
 _atom_site_fract_y
 _atom_site_fract_z
 _atom_site_occupancy
  Li  Li0  1  0.250000  0.998346  0.390911  1
  Li  Li1  1  0.750000  0.000808  0.610043  1
  Li  Li2  1  0.250000  0.492972  0.110299  1
  Li  Li3  1  0.750000  0.510556  0.889191  1
  Ca  Ca4  1  0.250000  0.636563  0.634310  1
  Ca  Ca5  1  0.750000  0.363057  0.366344  1
  Ho  Ho6  1  0.250000  0.127625  0.862920  1
  Ho  Ho7  1  0.750000  0.869306  0.135219  1
  Si  Si8  1  0.250000  0.739089  0.938144  1
  Si  Si9  1  0.750000  0.773074  0.425539  1
  Si  Si10  1  0.250000  0.226726  0.574523  1
  Si  Si11  1  0.750000  0.843939  0.826454  1
  Si  Si12  1  0.250000  0.153137  0.176492  1
  Si  Si13  1  0.750000  0.331194  0.684792  1
  Si  Si14  1  0.250000  0.668035  0.315710  1
  Ge  Ge15  1  0.750000  0.265570  0.059110  1
