# generated using pymatgen
data_Tm7Lu13SiBi11
_symmetry_space_group_name_H-M   'P 1'
_cell_length_a   8.09365854
_cell_length_b   9.35492400
_cell_length_c   11.82636500
_cell_angle_alpha   90.00000000
_cell_angle_beta   89.73352066
_cell_angle_gamma   90.00000000
_symmetry_Int_Tables_number   1
_chemical_formula_structural   Tm7Lu13SiBi11
_chemical_formula_sum   'Tm7 Lu13 Si1 Bi11'
_cell_volume   895.43016997
_cell_formula_units_Z   1
loop_
 _symmetry_equiv_pos_site_id
 _symmetry_equiv_pos_as_xyz
  1  'x, y, z'
loop_
 _atom_site_type_symbol
 _atom_site_label
 _atom_site_symmetry_multiplicity
 _atom_site_fract_x
 _atom_site_fract_y
 _atom_site_fract_z
 _atom_site_occupancy
  Tm  Tm0  1  0.649092  0.750000  0.716705  1
  Tm  Tm1  1  0.149318  0.750000  0.780993  1
  Tm  Tm2  1  0.851531  0.250000  0.217258  1
  Tm  Tm3  1  0.194138  0.250000  0.776080  1
  Tm  Tm4  1  0.810075  0.750000  0.217442  1
  Tm  Tm5  1  0.313055  0.750000  0.282110  1
  Tm  Tm6  1  0.669504  0.250000  0.707154  1
  Lu  Lu7  1  0.037992  0.250000  0.509838  1
  Lu  Lu8  1  0.981111  0.750000  0.490824  1
  Lu  Lu9  1  0.476264  0.750000  0.010531  1
  Lu  Lu10  1  0.525190  0.250000  0.989405  1
  Lu  Lu11  1  0.355979  0.250000  0.296456  1
  Lu  Lu12  1  0.193237  0.067749  0.061596  1
  Lu  Lu13  1  0.807040  0.933398  0.940581  1
  Lu  Lu14  1  0.310571  0.951567  0.558552  1
  Lu  Lu15  1  0.807040  0.566602  0.940581  1
  Lu  Lu16  1  0.682259  0.074477  0.446174  1
  Lu  Lu17  1  0.193237  0.432251  0.061596  1
  Lu  Lu18  1  0.682259  0.425523  0.446174  1
  Lu  Lu19  1  0.310571  0.548433  0.558552  1
  Si  Si20  1  0.407431  0.250000  0.536844  1
  Bi  Bi21  1  0.595863  0.750000  0.457685  1
  Bi  Bi22  1  0.095706  0.750000  0.042256  1
  Bi  Bi23  1  0.906810  0.250000  0.954328  1
  Bi  Bi24  1  0.062934  0.002755  0.324942  1
  Bi  Bi25  1  0.934890  0.998993  0.674456  1
  Bi  Bi26  1  0.435763  0.995997  0.825548  1
  Bi  Bi27  1  0.934890  0.501007  0.674456  1
  Bi  Bi28  1  0.563776  0.005150  0.175199  1
  Bi  Bi29  1  0.062934  0.497245  0.324942  1
  Bi  Bi30  1  0.563776  0.494850  0.175199  1
  Bi  Bi31  1  0.435763  0.504003  0.825548  1
