# generated using pymatgen
data_Yb3HgBi6
_symmetry_space_group_name_H-M   'P 1'
_cell_length_a   13.95317626
_cell_length_b   13.95317709
_cell_length_c   4.44074800
_cell_angle_alpha   90.00000000
_cell_angle_beta   90.00000000
_cell_angle_gamma   159.45326335
_symmetry_Int_Tables_number   1
_chemical_formula_structural   Yb3HgBi6
_chemical_formula_sum   'Yb3 Hg1 Bi6'
_cell_volume   303.44077556
_cell_formula_units_Z   1
loop_
 _symmetry_equiv_pos_site_id
 _symmetry_equiv_pos_as_xyz
  1  'x, y, z'
loop_
 _atom_site_type_symbol
 _atom_site_label
 _atom_site_symmetry_multiplicity
 _atom_site_fract_x
 _atom_site_fract_y
 _atom_site_fract_z
 _atom_site_occupancy
  Yb  Yb0  1  0.811535  0.188465  0.000000  1
  Yb  Yb1  1  0.188465  0.811535  0.000000  1
  Yb  Yb2  1  0.500000  0.500000  0.500000  1
  Hg  Hg3  1  0.000000  0.000000  0.000000  1
  Bi  Bi4  1  0.593996  0.406004  0.000000  1
  Bi  Bi5  1  0.406004  0.593996  0.000000  1
  Bi  Bi6  1  0.903001  0.096998  0.500000  1
  Bi  Bi7  1  0.716674  0.283326  0.500000  1
  Bi  Bi8  1  0.283326  0.716674  0.500000  1
  Bi  Bi9  1  0.096998  0.903001  0.500000  1
