# generated using pymatgen
data_La2CuH8Rh
_symmetry_space_group_name_H-M   'P 1'
_cell_length_a   6.44656203
_cell_length_b   6.44656256
_cell_length_c   5.01874844
_cell_angle_alpha   90.04697878
_cell_angle_beta   89.95302114
_cell_angle_gamma   144.00379541
_symmetry_Int_Tables_number   1
_chemical_formula_structural   La2CuH8Rh
_chemical_formula_sum   'La2 Cu1 H8 Rh1'
_cell_volume   122.58313377
_cell_formula_units_Z   1
loop_
 _symmetry_equiv_pos_site_id
 _symmetry_equiv_pos_as_xyz
  1  'x, y, z'
loop_
 _atom_site_type_symbol
 _atom_site_label
 _atom_site_symmetry_multiplicity
 _atom_site_fract_x
 _atom_site_fract_y
 _atom_site_fract_z
 _atom_site_occupancy
  La  La0  1  0.130424  0.869576  0.287540  1
  La  La1  1  0.866864  0.133136  0.789351  1
  Cu  Cu2  1  0.599993  0.400007  0.787799  1
  H  H3  1  0.307943  0.692057  0.045377  1
  H  H4  1  0.691366  0.308634  0.537050  1
  H  H5  1  0.305565  0.694435  0.536779  1
  H  H6  1  0.692672  0.307328  0.039435  1
  H  H7  1  0.083329  0.916671  0.789994  1
  H  H8  1  0.911640  0.088360  0.292087  1
  H  H9  1  0.503990  0.496010  0.048602  1
  H  H10  1  0.498294  0.501706  0.549961  1
  Rh  Rh11  1  0.407919  0.592081  0.294022  1
