# generated using pymatgen
data_TbDyAl20FeRh3
_symmetry_space_group_name_H-M   'P 1'
_cell_length_a   6.82637048
_cell_length_b   6.82301347
_cell_length_c   9.11666700
_cell_angle_alpha   90.02176540
_cell_angle_beta   90.14333633
_cell_angle_gamma   97.27127145
_symmetry_Int_Tables_number   1
_chemical_formula_structural   TbDyAl20FeRh3
_chemical_formula_sum   'Tb1 Dy1 Al20 Fe1 Rh3'
_cell_volume   421.20547359
_cell_formula_units_Z   1
loop_
 _symmetry_equiv_pos_site_id
 _symmetry_equiv_pos_as_xyz
  1  'x, y, z'
loop_
 _atom_site_type_symbol
 _atom_site_label
 _atom_site_symmetry_multiplicity
 _atom_site_fract_x
 _atom_site_fract_y
 _atom_site_fract_z
 _atom_site_occupancy
  Tb  Tb0  1  0.127590  0.869621  0.248801  1
  Dy  Dy1  1  0.872259  0.130561  0.751244  1
  Al  Al2  1  0.622519  0.378885  0.550229  1
  Al  Al3  1  0.377550  0.621047  0.449756  1
  Al  Al4  1  0.371714  0.619513  0.046699  1
  Al  Al5  1  0.628358  0.380400  0.953364  1
  Al  Al6  1  0.222096  0.223134  0.498650  1
  Al  Al7  1  0.777869  0.776894  0.501338  1
  Al  Al8  1  0.782135  0.773471  0.002694  1
  Al  Al9  1  0.217828  0.226574  0.997329  1
  Al  Al10  1  0.847827  0.159839  0.100392  1
  Al  Al11  1  0.152110  0.840231  0.899529  1
  Al  Al12  1  0.155184  0.845234  0.604066  1
  Al  Al13  1  0.844769  0.154813  0.396025  1
  Al  Al14  1  0.860340  0.587622  0.755053  1
  Al  Al15  1  0.139708  0.412355  0.244948  1
  Al  Al16  1  0.409611  0.143116  0.751003  1
  Al  Al17  1  0.590379  0.856829  0.249013  1
  Al  Al18  1  0.222218  0.481126  0.756362  1
  Al  Al19  1  0.777689  0.518761  0.243670  1
  Al  Al20  1  0.520695  0.774195  0.751187  1
  Al  Al21  1  0.479401  0.225905  0.248838  1
  Fe  Fe22  1  0.000003  0.499830  0.999687  1
  Rh  Rh23  1  0.999954  0.499917  0.500119  1
  Rh  Rh24  1  0.500093  0.000074  0.999836  1
  Rh  Rh25  1  0.500104  0.000049  0.500168  1
