# generated using pymatgen
data_LaThCoSi4Pd
_symmetry_space_group_name_H-M   'P 1'
_cell_length_a   8.66332972
_cell_length_b   8.66332914
_cell_length_c   4.17389000
_cell_angle_alpha   90.00000000
_cell_angle_beta   90.00000000
_cell_angle_gamma   151.83032447
_symmetry_Int_Tables_number   1
_chemical_formula_structural   LaThCoSi4Pd
_chemical_formula_sum   'La1 Th1 Co1 Si4 Pd1'
_cell_volume   147.88706058
_cell_formula_units_Z   1
loop_
 _symmetry_equiv_pos_site_id
 _symmetry_equiv_pos_as_xyz
  1  'x, y, z'
loop_
 _atom_site_type_symbol
 _atom_site_label
 _atom_site_symmetry_multiplicity
 _atom_site_fract_x
 _atom_site_fract_y
 _atom_site_fract_z
 _atom_site_occupancy
  La  La0  1  0.396075  0.603925  0.250000  1
  Th  Th1  1  0.605790  0.394210  0.750000  1
  Co  Co2  1  0.180066  0.819934  0.250000  1
  Si  Si3  1  0.967681  0.032319  0.750000  1
  Si  Si4  1  0.044181  0.955819  0.250000  1
  Si  Si5  1  0.243966  0.756034  0.750000  1
  Si  Si6  1  0.742082  0.257918  0.250000  1
  Pd  Pd7  1  0.820159  0.179841  0.750000  1
