# generated using pymatgen
data_Y3Th5(ReC2)4
_symmetry_space_group_name_H-M   'P 1'
_cell_length_a   5.31269800
_cell_length_b   6.67293549
_cell_length_c   9.94908913
_cell_angle_alpha   90.18023670
_cell_angle_beta   90.00000000
_cell_angle_gamma   90.00000000
_symmetry_Int_Tables_number   1
_chemical_formula_structural   Y3Th5(ReC2)4
_chemical_formula_sum   'Y3 Th5 Re4 C8'
_cell_volume   352.70630932
_cell_formula_units_Z   1
loop_
 _symmetry_equiv_pos_site_id
 _symmetry_equiv_pos_as_xyz
  1  'x, y, z'
loop_
 _atom_site_type_symbol
 _atom_site_label
 _atom_site_symmetry_multiplicity
 _atom_site_fract_x
 _atom_site_fract_y
 _atom_site_fract_z
 _atom_site_occupancy
  Y  Y0  1  0.750000  0.676580  0.551327  1
  Y  Y1  1  0.250000  0.322661  0.448639  1
  Y  Y2  1  0.750000  0.180391  0.947021  1
  Th  Th3  1  0.250000  0.470031  0.781350  1
  Th  Th4  1  0.750000  0.028918  0.284566  1
  Th  Th5  1  0.250000  0.973177  0.713006  1
  Th  Th6  1  0.750000  0.525165  0.221426  1
  Th  Th7  1  0.250000  0.814735  0.047373  1
  Re  Re8  1  0.250000  0.273536  0.137302  1
  Re  Re9  1  0.750000  0.228678  0.636174  1
  Re  Re10  1  0.250000  0.772549  0.366234  1
  Re  Re11  1  0.750000  0.729291  0.860692  1
  C  C12  1  0.250000  0.170935  0.947793  1
  C  C13  1  0.750000  0.832169  0.052017  1
  C  C14  1  0.250000  0.670676  0.552805  1
  C  C15  1  0.750000  0.330319  0.448526  1
  C  C16  1  0.250000  0.040595  0.262608  1
  C  C17  1  0.750000  0.461901  0.759234  1
  C  C18  1  0.250000  0.535821  0.244091  1
  C  C19  1  0.750000  0.961871  0.737818  1
