# generated using pymatgen
data_Tb5DyBi2(AuO5)4
_symmetry_space_group_name_H-M   'P 1'
_cell_length_a   8.56024978
_cell_length_b   8.56047080
_cell_length_c   5.75202001
_cell_angle_alpha   88.76972727
_cell_angle_beta   91.22387415
_cell_angle_gamma   90.01825233
_symmetry_Int_Tables_number   1
_chemical_formula_structural   Tb5DyBi2(AuO5)4
_chemical_formula_sum   'Tb5 Dy1 Bi2 Au4 O20'
_cell_volume   421.31338715
_cell_formula_units_Z   1
loop_
 _symmetry_equiv_pos_site_id
 _symmetry_equiv_pos_as_xyz
  1  'x, y, z'
loop_
 _atom_site_type_symbol
 _atom_site_label
 _atom_site_symmetry_multiplicity
 _atom_site_fract_x
 _atom_site_fract_y
 _atom_site_fract_z
 _atom_site_occupancy
  Tb  Tb0  1  0.844887  0.146608  0.747193  1
  Tb  Tb1  1  0.651674  0.651743  0.750014  1
  Tb  Tb2  1  0.655082  0.353438  0.252810  1
  Tb  Tb3  1  0.848263  0.848267  0.249995  1
  Tb  Tb4  1  0.146665  0.844828  0.752826  1
  Dy  Dy5  1  0.353656  0.655184  0.247087  1
  Bi  Bi6  1  0.358091  0.358192  0.749983  1
  Bi  Bi7  1  0.141878  0.141887  0.249978  1
  Au  Au8  1  0.495548  0.999540  0.407192  1
  Au  Au9  1  0.500373  0.004378  0.907261  1
  Au  Au10  1  0.999623  0.495588  0.092799  1
  Au  Au11  1  0.004464  0.500441  0.592752  1
  O  O12  1  0.107198  0.289994  0.599860  1
  O  O13  1  0.911083  0.278689  0.112597  1
  O  O14  1  0.909503  0.716566  0.609197  1
  O  O15  1  0.716555  0.909510  0.890797  1
  O  O16  1  0.221436  0.589008  0.612041  1
  O  O17  1  0.406249  0.788748  0.895528  1
  O  O18  1  0.392779  0.209995  0.400149  1
  O  O19  1  0.783454  0.590492  0.109183  1
  O  O20  1  0.278848  0.910687  0.387268  1
  O  O21  1  0.588913  0.221316  0.887385  1
  O  O22  1  0.491883  0.499072  0.997809  1
  O  O23  1  0.498502  0.492496  0.502196  1
  O  O24  1  0.788944  0.406328  0.605209  1
  O  O25  1  0.094159  0.710896  0.105453  1
  O  O26  1  0.289992  0.107210  0.900147  1
  O  O27  1  0.590141  0.783261  0.390578  1
  O  O28  1  0.210056  0.392929  0.099912  1
  O  O29  1  0.007811  0.001226  0.002691  1
  O  O30  1  0.001251  0.007824  0.497300  1
  O  O31  1  0.711038  0.093658  0.394810  1
