# generated using pymatgen
data_Tb3Dy(Ga5Ir3)2
_symmetry_space_group_name_H-M   'P 1'
_cell_length_a   8.61680690
_cell_length_b   8.61575788
_cell_length_c   8.61575668
_cell_angle_alpha   141.26491818
_cell_angle_beta   109.57192208
_cell_angle_gamma   83.39268199
_symmetry_Int_Tables_number   1
_chemical_formula_structural   Tb3Dy(Ga5Ir3)2
_chemical_formula_sum   'Tb3 Dy1 Ga10 Ir6'
_cell_volume   365.32283793
_cell_formula_units_Z   1
loop_
 _symmetry_equiv_pos_site_id
 _symmetry_equiv_pos_as_xyz
  1  'x, y, z'
loop_
 _atom_site_type_symbol
 _atom_site_label
 _atom_site_symmetry_multiplicity
 _atom_site_fract_x
 _atom_site_fract_y
 _atom_site_fract_z
 _atom_site_occupancy
  Tb  Tb0  1  0.872065  0.644670  0.227395  1
  Tb  Tb1  1  0.127936  0.355321  0.772616  1
  Tb  Tb2  1  0.417297  0.144706  0.272591  1
  Dy  Dy3  1  0.582580  0.855242  0.727339  1
  Ga  Ga4  1  0.500045  0.750006  0.250088  1
  Ga  Ga5  1  0.500045  0.249957  0.750039  1
  Ga  Ga6  1  0.200949  0.950918  0.750034  1
  Ga  Ga7  1  0.799046  0.549236  0.750009  1
  Ga  Ga8  1  0.799046  0.049037  0.249811  1
  Ga  Ga9  1  0.200949  0.450915  0.250031  1
  Ga  Ga10  1  0.097177  0.916784  0.180392  1
  Ga  Ga11  1  0.902708  0.083116  0.819593  1
  Ga  Ga12  1  0.736346  0.416777  0.319570  1
  Ga  Ga13  1  0.263529  0.583197  0.680332  1
  Ir  Ir14  1  0.999957  0.750000  0.749980  1
  Ir  Ir15  1  0.999957  0.249976  0.249956  1
  Ir  Ir16  1  0.258673  0.847553  0.411120  1
  Ir  Ir17  1  0.741557  0.152501  0.589056  1
  Ir  Ir18  1  0.436756  0.347534  0.089223  1
  Ir  Ir19  1  0.563380  0.652554  0.910826  1
