# generated using pymatgen
data_Er3TmLu4In3Os
_symmetry_space_group_name_H-M   'P 1'
_cell_length_a   10.20567300
_cell_length_b   10.20567405
_cell_length_c   7.05222800
_cell_angle_alpha   90.00000000
_cell_angle_beta   90.00000000
_cell_angle_gamma   119.99999985
_symmetry_Int_Tables_number   1
_chemical_formula_structural   Er3TmLu4In3Os
_chemical_formula_sum   'Er6 Tm2 Lu8 In6 Os2'
_cell_volume   636.12185911
_cell_formula_units_Z   2
loop_
 _symmetry_equiv_pos_site_id
 _symmetry_equiv_pos_as_xyz
  1  'x, y, z'
loop_
 _atom_site_type_symbol
 _atom_site_label
 _atom_site_symmetry_multiplicity
 _atom_site_fract_x
 _atom_site_fract_y
 _atom_site_fract_z
 _atom_site_occupancy
  Er  Er0  1  0.533235  0.066471  0.515201  1
  Er  Er1  1  0.933529  0.466765  0.515201  1
  Er  Er2  1  0.533235  0.466765  0.515201  1
  Er  Er3  1  0.466765  0.933529  0.015201  1
  Er  Er4  1  0.066471  0.533235  0.015201  1
  Er  Er5  1  0.466765  0.533235  0.015201  1
  Tm  Tm6  1  0.000000  0.000000  0.499205  1
  Tm  Tm7  1  0.000000  0.000000  0.999205  1
  Lu  Lu8  1  0.177791  0.355583  0.717674  1
  Lu  Lu9  1  0.644417  0.822209  0.717674  1
  Lu  Lu10  1  0.177791  0.822209  0.717674  1
  Lu  Lu11  1  0.822209  0.644417  0.217674  1
  Lu  Lu12  1  0.355583  0.177791  0.217674  1
  Lu  Lu13  1  0.822209  0.177791  0.217674  1
  Lu  Lu14  1  0.666667  0.333333  0.896662  1
  Lu  Lu15  1  0.333333  0.666667  0.396662  1
  In  In16  1  0.836544  0.673089  0.765535  1
  In  In17  1  0.326911  0.163456  0.765535  1
  In  In18  1  0.836544  0.163456  0.765535  1
  In  In19  1  0.163456  0.326911  0.265535  1
  In  In20  1  0.673089  0.836544  0.265535  1
  In  In21  1  0.163456  0.836544  0.265535  1
  Os  Os22  1  0.666667  0.333333  0.287901  1
  Os  Os23  1  0.333333  0.666667  0.787901  1
