# generated using pymatgen
data_SmTaNbB2Ru5
_symmetry_space_group_name_H-M   'P 1'
_cell_length_a   9.62718404
_cell_length_b   9.62718323
_cell_length_c   3.08455100
_cell_angle_alpha   90.00000000
_cell_angle_beta   90.00000000
_cell_angle_gamma   91.02877167
_symmetry_Int_Tables_number   1
_chemical_formula_structural   SmTaNbB2Ru5
_chemical_formula_sum   'Sm2 Ta2 Nb2 B4 Ru10'
_cell_volume   285.83832333
_cell_formula_units_Z   2
loop_
 _symmetry_equiv_pos_site_id
 _symmetry_equiv_pos_as_xyz
  1  'x, y, z'
loop_
 _atom_site_type_symbol
 _atom_site_label
 _atom_site_symmetry_multiplicity
 _atom_site_fract_x
 _atom_site_fract_y
 _atom_site_fract_z
 _atom_site_occupancy
  Sm  Sm0  1  0.823291  0.676709  0.000000  1
  Sm  Sm1  1  0.176709  0.323291  0.000000  1
  Ta  Ta2  1  0.500000  0.500000  0.000000  1
  Ta  Ta3  1  0.000000  0.000000  0.000000  1
  Nb  Nb4  1  0.325300  0.825300  0.000000  1
  Nb  Nb5  1  0.674700  0.174700  0.000000  1
  B  B6  1  0.619217  0.880783  0.000000  1
  B  B7  1  0.380783  0.119217  0.000000  1
  B  B8  1  0.122265  0.622265  0.000000  1
  B  B9  1  0.877735  0.377735  0.000000  1
  Ru  Ru10  1  0.557682  0.723918  0.500000  1
  Ru  Ru11  1  0.442318  0.276082  0.500000  1
  Ru  Ru12  1  0.083062  0.785966  0.500000  1
  Ru  Ru13  1  0.916938  0.214034  0.500000  1
  Ru  Ru14  1  0.285966  0.583062  0.500000  1
  Ru  Ru15  1  0.714034  0.416938  0.500000  1
  Ru  Ru16  1  0.223918  0.057682  0.500000  1
  Ru  Ru17  1  0.776082  0.942318  0.500000  1
  Ru  Ru18  1  0.500000  0.000000  0.500000  1
  Ru  Ru19  1  0.000000  0.500000  0.500000  1
