# generated using pymatgen
data_SmY7(SO6)4
_symmetry_space_group_name_H-M   'P 1'
_cell_length_a   8.13364234
_cell_length_b   12.91915109
_cell_length_c   4.19641219
_cell_angle_alpha   90.17731451
_cell_angle_beta   89.96346018
_cell_angle_gamma   90.05483722
_symmetry_Int_Tables_number   1
_chemical_formula_structural   SmY7(SO6)4
_chemical_formula_sum   'Sm1 Y7 S4 O24'
_cell_volume   440.95555948
_cell_formula_units_Z   1
loop_
 _symmetry_equiv_pos_site_id
 _symmetry_equiv_pos_as_xyz
  1  'x, y, z'
loop_
 _atom_site_type_symbol
 _atom_site_label
 _atom_site_symmetry_multiplicity
 _atom_site_fract_x
 _atom_site_fract_y
 _atom_site_fract_z
 _atom_site_occupancy
  Sm  Sm0  1  0.374524  0.420695  0.760234  1
  Y  Y1  1  0.626252  0.579645  0.244681  1
  Y  Y2  1  0.624732  0.921869  0.240050  1
  Y  Y3  1  0.123216  0.579988  0.259610  1
  Y  Y4  1  0.124587  0.922122  0.258451  1
  Y  Y5  1  0.875044  0.077137  0.742231  1
  Y  Y6  1  0.875099  0.422491  0.742135  1
  Y  Y7  1  0.375550  0.076613  0.759429  1
  S  S8  1  0.121663  0.248188  0.192179  1
  S  S9  1  0.623395  0.248363  0.308834  1
  S  S10  1  0.377627  0.750685  0.689696  1
  S  S11  1  0.877596  0.751028  0.807446  1
  O  O12  1  0.727729  0.750590  0.016216  1
  O  O13  1  0.025593  0.750642  0.020430  1
  O  O14  1  0.625673  0.155089  0.104807  1
  O  O15  1  0.620215  0.343928  0.115836  1
  O  O16  1  0.874430  0.003475  0.231083  1
  O  O17  1  0.874568  0.495961  0.232912  1
  O  O18  1  0.374611  0.004209  0.268415  1
  O  O19  1  0.374439  0.500267  0.269395  1
  O  O20  1  0.118021  0.155073  0.394798  1
  O  O21  1  0.125057  0.343951  0.386416  1
  O  O22  1  0.525768  0.751077  0.476180  1
  O  O23  1  0.227765  0.751087  0.481099  1
  O  O24  1  0.772870  0.249570  0.517595  1
  O  O25  1  0.475049  0.245440  0.520765  1
  O  O26  1  0.877875  0.657144  0.606017  1
  O  O27  1  0.878170  0.845596  0.611132  1
  O  O28  1  0.628649  0.505590  0.734762  1
  O  O29  1  0.625479  0.995197  0.730924  1
  O  O30  1  0.121663  0.506030  0.768172  1
  O  O31  1  0.125434  0.995500  0.768589  1
  O  O32  1  0.377999  0.656194  0.885938  1
  O  O33  1  0.378112  0.844841  0.890159  1
  O  O34  1  0.973931  0.249751  0.979179  1
  O  O35  1  0.271620  0.244973  0.984216  1
