# generated using pymatgen
data_Pr5Y5Pb6
_symmetry_space_group_name_H-M   'P 1'
_cell_length_a   9.26748408
_cell_length_b   9.26748330
_cell_length_c   6.79552200
_cell_angle_alpha   90.00000000
_cell_angle_beta   90.00000000
_cell_angle_gamma   119.74948887
_symmetry_Int_Tables_number   1
_chemical_formula_structural   Pr5Y5Pb6
_chemical_formula_sum   'Pr5 Y5 Pb6'
_cell_volume   506.71981374
_cell_formula_units_Z   1
loop_
 _symmetry_equiv_pos_site_id
 _symmetry_equiv_pos_as_xyz
  1  'x, y, z'
loop_
 _atom_site_type_symbol
 _atom_site_label
 _atom_site_symmetry_multiplicity
 _atom_site_fract_x
 _atom_site_fract_y
 _atom_site_fract_z
 _atom_site_occupancy
  Pr  Pr0  1  0.239033  0.999968  0.750000  1
  Pr  Pr1  1  0.999968  0.239033  0.750000  1
  Pr  Pr2  1  0.242331  0.242331  0.250000  1
  Pr  Pr3  1  0.760861  0.998687  0.250000  1
  Pr  Pr4  1  0.998687  0.760861  0.250000  1
  Y  Y5  1  0.666813  0.333459  0.999499  1
  Y  Y6  1  0.333459  0.666813  0.999499  1
  Y  Y7  1  0.333459  0.666813  0.500501  1
  Y  Y8  1  0.666813  0.333459  0.500501  1
  Y  Y9  1  0.758403  0.758403  0.750000  1
  Pb  Pb10  1  0.402662  0.402662  0.750000  1
  Pb  Pb11  1  0.602806  0.996176  0.750000  1
  Pb  Pb12  1  0.996176  0.602806  0.750000  1
  Pb  Pb13  1  0.600546  0.600546  0.250000  1
  Pb  Pb14  1  0.398620  0.999364  0.250000  1
  Pb  Pb15  1  0.999364  0.398620  0.250000  1
