# generated using pymatgen
data_Nb6Co4RuWN2
_symmetry_space_group_name_H-M   'P 1'
_cell_length_a   8.10731684
_cell_length_b   8.12895420
_cell_length_c   8.12895421
_cell_angle_alpha   60.19651352
_cell_angle_beta   60.08800686
_cell_angle_gamma   60.08800842
_symmetry_Int_Tables_number   1
_chemical_formula_structural   Nb6Co4RuWN2
_chemical_formula_sum   'Nb12 Co8 Ru2 W2 N4'
_cell_volume   379.88355798
_cell_formula_units_Z   2
loop_
 _symmetry_equiv_pos_site_id
 _symmetry_equiv_pos_as_xyz
  1  'x, y, z'
loop_
 _atom_site_type_symbol
 _atom_site_label
 _atom_site_symmetry_multiplicity
 _atom_site_fract_x
 _atom_site_fract_y
 _atom_site_fract_z
 _atom_site_occupancy
  Nb  Nb0  1  0.807876  0.809057  0.189011  1
  Nb  Nb1  1  0.194055  0.189011  0.809057  1
  Nb  Nb2  1  0.807876  0.189011  0.809057  1
  Nb  Nb3  1  0.194055  0.809057  0.189011  1
  Nb  Nb4  1  0.188681  0.811319  0.811319  1
  Nb  Nb5  1  0.804761  0.195239  0.195239  1
  Nb  Nb6  1  0.442124  0.440943  0.060989  1
  Nb  Nb7  1  0.055945  0.060989  0.440943  1
  Nb  Nb8  1  0.442124  0.060989  0.440943  1
  Nb  Nb9  1  0.055945  0.440943  0.060989  1
  Nb  Nb10  1  0.061319  0.438681  0.438681  1
  Nb  Nb11  1  0.445239  0.054761  0.054761  1
  Co  Co12  1  0.731107  0.423108  0.423108  1
  Co  Co13  1  0.421249  0.736530  0.420973  1
  Co  Co14  1  0.421249  0.420973  0.736530  1
  Co  Co15  1  0.422676  0.423108  0.423108  1
  Co  Co16  1  0.518893  0.826892  0.826892  1
  Co  Co17  1  0.828751  0.513470  0.829027  1
  Co  Co18  1  0.828751  0.829027  0.513470  1
  Co  Co19  1  0.827324  0.826892  0.826892  1
  Ru  Ru20  1  0.625000  0.125000  0.625000  1
  Ru  Ru21  1  0.625000  0.625000  0.125000  1
  W  W22  1  0.125000  0.625000  0.625000  1
  W  W23  1  0.625000  0.625000  0.625000  1
  N  N24  1  0.625000  0.125000  0.125000  1
  N  N25  1  0.125000  0.625000  0.125000  1
  N  N26  1  0.125000  0.125000  0.625000  1
  N  N27  1  0.125000  0.125000  0.125000  1
