# generated using pymatgen
data_Ba3MnZn5Si4TeO20
_symmetry_space_group_name_H-M   'P 1'
_cell_length_a   9.97815498
_cell_length_b   9.97815513
_cell_length_c   5.20855900
_cell_angle_alpha   76.01574230
_cell_angle_beta   76.01574209
_cell_angle_gamma   71.62922245
_symmetry_Int_Tables_number   1
_chemical_formula_structural   Ba3MnZn5Si4TeO20
_chemical_formula_sum   'Ba3 Mn1 Zn5 Si4 Te1 O20'
_cell_volume   469.79305924
_cell_formula_units_Z   1
loop_
 _symmetry_equiv_pos_site_id
 _symmetry_equiv_pos_as_xyz
  1  'x, y, z'
loop_
 _atom_site_type_symbol
 _atom_site_label
 _atom_site_symmetry_multiplicity
 _atom_site_fract_x
 _atom_site_fract_y
 _atom_site_fract_z
 _atom_site_occupancy
  Ba  Ba0  1  0.786354  0.787615  0.747150  1
  Ba  Ba1  1  0.212385  0.213646  0.252850  1
  Ba  Ba2  1  0.499787  0.500213  0.000000  1
  Mn  Mn3  1  0.154732  0.845268  0.500000  1
  Zn  Zn4  1  0.843209  0.156791  0.500000  1
  Zn  Zn5  1  0.366539  0.923727  0.827289  1
  Zn  Zn6  1  0.076273  0.633461  0.172711  1
  Zn  Zn7  1  0.635198  0.077473  0.172015  1
  Zn  Zn8  1  0.922527  0.364802  0.827985  1
  Si  Si9  1  0.522348  0.780112  0.342199  1
  Si  Si10  1  0.219888  0.477652  0.657801  1
  Si  Si11  1  0.481088  0.218918  0.657726  1
  Si  Si12  1  0.781082  0.518912  0.342274  1
  Te  Te13  1  0.997917  0.002083  0.000000  1
  O  O14  1  0.620248  0.883572  0.338728  1
  O  O15  1  0.116428  0.379752  0.661272  1
  O  O16  1  0.383998  0.115770  0.655977  1
  O  O17  1  0.884230  0.616002  0.344023  1
  O  O18  1  0.369960  0.813878  0.553104  1
  O  O19  1  0.186122  0.630040  0.446896  1
  O  O20  1  0.634780  0.184960  0.448809  1
  O  O21  1  0.815040  0.365220  0.551191  1
  O  O22  1  0.506160  0.777062  0.037777  1
  O  O23  1  0.222938  0.493840  0.962223  1
  O  O24  1  0.494093  0.222983  0.963366  1
  O  O25  1  0.777017  0.505907  0.036634  1
  O  O26  1  0.929547  0.932880  0.369103  1
  O  O27  1  0.067120  0.070453  0.630897  1
  O  O28  1  0.188660  0.958334  0.095325  1
  O  O29  1  0.041666  0.811340  0.904675  1
  O  O30  1  0.809538  0.048555  0.893186  1
  O  O31  1  0.951445  0.190462  0.106814  1
  O  O32  1  0.611205  0.609525  0.464936  1
  O  O33  1  0.390475  0.388795  0.535064  1
