# generated using pymatgen
data_Ge2PBrO4
_symmetry_space_group_name_H-M   'P 1'
_cell_length_a   4.70270500
_cell_length_b   4.97435602
_cell_length_c   13.61296800
_cell_angle_alpha   90.00000000
_cell_angle_beta   90.00000000
_cell_angle_gamma   61.79063841
_symmetry_Int_Tables_number   1
_chemical_formula_structural   Ge2PBrO4
_chemical_formula_sum   'Ge4 P2 Br2 O8'
_cell_volume   280.62401912
_cell_formula_units_Z   2
loop_
 _symmetry_equiv_pos_site_id
 _symmetry_equiv_pos_as_xyz
  1  'x, y, z'
loop_
 _atom_site_type_symbol
 _atom_site_label
 _atom_site_symmetry_multiplicity
 _atom_site_fract_x
 _atom_site_fract_y
 _atom_site_fract_z
 _atom_site_occupancy
  Ge  Ge0  1  0.155649  0.589887  0.121582  1
  Ge  Ge1  1  0.155649  0.589887  0.378419  1
  Ge  Ge2  1  0.745535  0.410114  0.621582  1
  Ge  Ge3  1  0.745535  0.410114  0.878419  1
  P  P4  1  0.815308  0.268444  0.250000  1
  P  P5  1  0.083753  0.731556  0.750000  1
  Br  Br6  1  0.561419  0.000000  0.000000  1
  Br  Br7  1  0.561419  0.000000  0.500000  1
  O  O8  1  0.887407  0.400882  0.156098  1
  O  O9  1  0.446642  0.359957  0.250000  1
  O  O10  1  0.003857  0.913390  0.250000  1
  O  O11  1  0.887407  0.400882  0.343902  1
  O  O12  1  0.288288  0.599118  0.656099  1
  O  O13  1  0.917249  0.086608  0.750000  1
  O  O14  1  0.806599  0.640043  0.750000  1
  O  O15  1  0.288288  0.599118  0.843902  1
