# generated using pymatgen
data_Ce3Dy2RhPb3
_symmetry_space_group_name_H-M   'P 1'
_cell_length_a   9.57734384
_cell_length_b   9.50111975
_cell_length_c   6.41073200
_cell_angle_alpha   90.00000000
_cell_angle_beta   90.00000000
_cell_angle_gamma   119.73707218
_symmetry_Int_Tables_number   1
_chemical_formula_structural   Ce3Dy2RhPb3
_chemical_formula_sum   'Ce6 Dy4 Rh2 Pb6'
_cell_volume   506.52708589
_cell_formula_units_Z   2
loop_
 _symmetry_equiv_pos_site_id
 _symmetry_equiv_pos_as_xyz
  1  'x, y, z'
loop_
 _atom_site_type_symbol
 _atom_site_label
 _atom_site_symmetry_multiplicity
 _atom_site_fract_x
 _atom_site_fract_y
 _atom_site_fract_z
 _atom_site_occupancy
  Ce  Ce0  1  0.327920  0.663960  0.500000  1
  Ce  Ce1  1  0.672080  0.336040  0.500000  1
  Ce  Ce2  1  0.000000  0.233113  0.250000  1
  Ce  Ce3  1  0.000000  0.766887  0.750000  1
  Ce  Ce4  1  0.327920  0.663960  0.000000  1
  Ce  Ce5  1  0.672080  0.336040  0.000000  1
  Dy  Dy6  1  0.248947  0.245910  0.750000  1
  Dy  Dy7  1  0.751053  0.754090  0.250000  1
  Dy  Dy8  1  0.248947  0.003037  0.250000  1
  Dy  Dy9  1  0.751053  0.996963  0.750000  1
  Rh  Rh10  1  0.000000  0.000000  0.000000  1
  Rh  Rh11  1  0.000000  0.000000  0.500000  1
  Pb  Pb12  1  0.398645  0.395744  0.250000  1
  Pb  Pb13  1  0.601355  0.604256  0.750000  1
  Pb  Pb14  1  0.000000  0.390626  0.750000  1
  Pb  Pb15  1  0.601355  0.997099  0.250000  1
  Pb  Pb16  1  0.398645  0.002901  0.750000  1
  Pb  Pb17  1  0.000000  0.609374  0.250000  1
