# generated using pymatgen
data_Tb5InBiPb
_symmetry_space_group_name_H-M   'P 1'
_cell_length_a   9.11672948
_cell_length_b   9.12889096
_cell_length_c   6.66842500
_cell_angle_alpha   90.00000000
_cell_angle_beta   90.00000000
_cell_angle_gamma   120.04414502
_symmetry_Int_Tables_number   1
_chemical_formula_structural   Tb5InBiPb
_chemical_formula_sum   'Tb10 In2 Bi2 Pb2'
_cell_volume   480.41618428
_cell_formula_units_Z   2
loop_
 _symmetry_equiv_pos_site_id
 _symmetry_equiv_pos_as_xyz
  1  'x, y, z'
loop_
 _atom_site_type_symbol
 _atom_site_label
 _atom_site_symmetry_multiplicity
 _atom_site_fract_x
 _atom_site_fract_y
 _atom_site_fract_z
 _atom_site_occupancy
  Tb  Tb0  1  0.658557  0.328007  0.997993  1
  Tb  Tb1  1  0.341443  0.669450  0.997993  1
  Tb  Tb2  1  0.341443  0.669450  0.502007  1
  Tb  Tb3  1  0.658557  0.328007  0.502007  1
  Tb  Tb4  1  0.755639  0.764805  0.750000  1
  Tb  Tb5  1  0.244361  0.009166  0.750000  1
  Tb  Tb6  1  0.000000  0.235682  0.750000  1
  Tb  Tb7  1  0.241554  0.236686  0.250000  1
  Tb  Tb8  1  0.758446  0.995133  0.250000  1
  Tb  Tb9  1  0.000000  0.761847  0.250000  1
  In  In10  1  0.394059  0.396428  0.750000  1
  In  In11  1  0.605941  0.002369  0.750000  1
  Bi  Bi12  1  0.000000  0.609158  0.750000  1
  Bi  Bi13  1  0.000000  0.392902  0.250000  1
  Pb  Pb14  1  0.607193  0.604051  0.250000  1
  Pb  Pb15  1  0.392807  0.996857  0.250000  1
