# generated using pymatgen
data_Sr3Ca(W2O7)2
_symmetry_space_group_name_H-M   'P 1'
_cell_length_a   7.54918186
_cell_length_b   7.53298839
_cell_length_c   7.56124008
_cell_angle_alpha   119.64834136
_cell_angle_beta   119.36593379
_cell_angle_gamma   90.94880692
_symmetry_Int_Tables_number   1
_chemical_formula_structural   Sr3Ca(W2O7)2
_chemical_formula_sum   'Sr3 Ca1 W4 O14'
_cell_volume   306.02317066
_cell_formula_units_Z   1
loop_
 _symmetry_equiv_pos_site_id
 _symmetry_equiv_pos_as_xyz
  1  'x, y, z'
loop_
 _atom_site_type_symbol
 _atom_site_label
 _atom_site_symmetry_multiplicity
 _atom_site_fract_x
 _atom_site_fract_y
 _atom_site_fract_z
 _atom_site_occupancy
  Sr  Sr0  1  0.000000  0.000000  0.500000  1
  Sr  Sr1  1  0.000000  0.500000  0.000000  1
  Sr  Sr2  1  0.000000  0.000000  0.000000  1
  Ca  Ca3  1  0.500000  0.500000  0.000000  1
  W  W4  1  0.500000  0.000000  0.000000  1
  W  W5  1  0.500000  0.500000  0.500000  1
  W  W6  1  0.500000  0.000000  0.500000  1
  W  W7  1  0.000000  0.500000  0.500000  1
  O  O8  1  0.460356  0.085992  0.780203  1
  O  O9  1  0.542299  0.324431  0.644008  1
  O  O10  1  0.191986  0.423696  0.370737  1
  O  O11  1  0.821461  0.175483  0.233741  1
  O  O12  1  0.539644  0.914009  0.219797  1
  O  O13  1  0.457701  0.675569  0.355992  1
  O  O14  1  0.808014  0.576304  0.629263  1
  O  O15  1  0.178539  0.824517  0.766259  1
  O  O16  1  0.594679  0.752166  0.842583  1
  O  O17  1  0.405321  0.247834  0.157417  1
  O  O18  1  0.187644  0.904997  0.284606  1
  O  O19  1  0.812356  0.095003  0.715394  1
  O  O20  1  0.859044  0.583259  0.271544  1
  O  O21  1  0.140956  0.416741  0.728456  1
