# generated using pymatgen
data_Ga10PtPb3O20
_symmetry_space_group_name_H-M   'P 1'
_cell_length_a   9.88699121
_cell_length_b   9.88699162
_cell_length_c   5.26966130
_cell_angle_alpha   74.77142472
_cell_angle_beta   74.77141490
_cell_angle_gamma   73.97084072
_symmetry_Int_Tables_number   1
_chemical_formula_structural   Ga10PtPb3O20
_chemical_formula_sum   'Ga10 Pt1 Pb3 O20'
_cell_volume   467.56201689
_cell_formula_units_Z   1
loop_
 _symmetry_equiv_pos_site_id
 _symmetry_equiv_pos_as_xyz
  1  'x, y, z'
loop_
 _atom_site_type_symbol
 _atom_site_label
 _atom_site_symmetry_multiplicity
 _atom_site_fract_x
 _atom_site_fract_y
 _atom_site_fract_z
 _atom_site_occupancy
  Ga  Ga0  1  0.636227  0.363773  0.500000  1
  Ga  Ga1  1  0.363773  0.636227  0.500000  1
  Ga  Ga2  1  0.279780  0.007558  0.373664  1
  Ga  Ga3  1  0.992442  0.720220  0.626336  1
  Ga  Ga4  1  0.720220  0.992442  0.626336  1
  Ga  Ga5  1  0.007558  0.279780  0.373664  1
  Ga  Ga6  1  0.580171  0.148089  0.106286  1
  Ga  Ga7  1  0.851911  0.419829  0.893714  1
  Ga  Ga8  1  0.419829  0.851911  0.893714  1
  Ga  Ga9  1  0.148089  0.580171  0.106286  1
  Pt  Pt10  1  0.500000  0.500000  0.000000  1
  Pb  Pb11  1  0.000000  0.000000  0.000000  1
  Pb  Pb12  1  0.723990  0.723990  0.212040  1
  Pb  Pb13  1  0.276010  0.276010  0.787960  1
  O  O14  1  0.567138  0.567138  0.268039  1
  O  O15  1  0.432862  0.432862  0.731961  1
  O  O16  1  0.097835  0.097835  0.303535  1
  O  O17  1  0.902165  0.902165  0.696465  1
  O  O18  1  0.396913  0.123946  0.132924  1
  O  O19  1  0.876054  0.603087  0.867076  1
  O  O20  1  0.603087  0.876054  0.867076  1
  O  O21  1  0.123946  0.396913  0.132924  1
  O  O22  1  0.337921  0.829860  0.264991  1
  O  O23  1  0.170140  0.662079  0.735009  1
  O  O24  1  0.662079  0.170140  0.735009  1
  O  O25  1  0.829860  0.337921  0.264991  1
  O  O26  1  0.991626  0.281086  0.731611  1
  O  O27  1  0.718914  0.008374  0.268389  1
  O  O28  1  0.008374  0.718914  0.268389  1
  O  O29  1  0.281086  0.991626  0.731611  1
  O  O30  1  0.690968  0.451395  0.744439  1
  O  O31  1  0.548605  0.309032  0.255561  1
  O  O32  1  0.309032  0.548605  0.255561  1
  O  O33  1  0.451395  0.690968  0.744439  1
