# generated using pymatgen
data_LiScCoH6
_symmetry_space_group_name_H-M   'P 1'
_cell_length_a   6.40521800
_cell_length_b   6.40521800
_cell_length_c   6.40521800
_cell_angle_alpha   90.00000000
_cell_angle_beta   90.00000000
_cell_angle_gamma   90.00000000
_symmetry_Int_Tables_number   1
_chemical_formula_structural   LiScCoH6
_chemical_formula_sum   'Li4 Sc4 Co4 H24'
_cell_volume   262.78571075
_cell_formula_units_Z   4
loop_
 _symmetry_equiv_pos_site_id
 _symmetry_equiv_pos_as_xyz
  1  'x, y, z'
loop_
 _atom_site_type_symbol
 _atom_site_label
 _atom_site_symmetry_multiplicity
 _atom_site_fract_x
 _atom_site_fract_y
 _atom_site_fract_z
 _atom_site_occupancy
  Li  Li0  1  0.000000  0.000000  0.500000  1
  Li  Li1  1  0.000000  0.500000  0.000000  1
  Li  Li2  1  0.500000  0.000000  0.000000  1
  Li  Li3  1  0.000000  0.000000  0.000000  1
  Sc  Sc4  1  0.500000  0.500000  0.500000  1
  Sc  Sc5  1  0.000000  0.500000  0.500000  1
  Sc  Sc6  1  0.500000  0.000000  0.500000  1
  Sc  Sc7  1  0.500000  0.500000  0.000000  1
  Co  Co8  1  0.257155  0.742845  0.742845  1
  Co  Co9  1  0.742845  0.257155  0.742845  1
  Co  Co10  1  0.742845  0.742845  0.257155  1
  Co  Co11  1  0.257155  0.257155  0.257155  1
  H  H12  1  0.746669  0.746669  0.503028  1
  H  H13  1  0.253331  0.253331  0.503028  1
  H  H14  1  0.013059  0.743935  0.743935  1
  H  H15  1  0.256065  0.986941  0.743935  1
  H  H16  1  0.743935  0.013059  0.743935  1
  H  H17  1  0.986941  0.256065  0.743935  1
  H  H18  1  0.746669  0.503028  0.746669  1
  H  H19  1  0.503028  0.746669  0.746669  1
  H  H20  1  0.496972  0.253331  0.746669  1
  H  H21  1  0.253331  0.496972  0.746669  1
  H  H22  1  0.256065  0.743935  0.986941  1
  H  H23  1  0.743935  0.256065  0.986941  1
  H  H24  1  0.743935  0.743935  0.013059  1
  H  H25  1  0.256065  0.256065  0.013059  1
  H  H26  1  0.253331  0.503028  0.253331  1
  H  H27  1  0.496972  0.746669  0.253331  1
  H  H28  1  0.503028  0.253331  0.253331  1
  H  H29  1  0.746669  0.496972  0.253331  1
  H  H30  1  0.986941  0.743935  0.256065  1
  H  H31  1  0.743935  0.986941  0.256065  1
  H  H32  1  0.256065  0.013059  0.256065  1
  H  H33  1  0.013059  0.256065  0.256065  1
  H  H34  1  0.253331  0.746669  0.496972  1
  H  H35  1  0.746669  0.253331  0.496972  1
