# generated using pymatgen
data_Rb4Dy4BiSb7Se20
_symmetry_space_group_name_H-M   'P 1'
_cell_length_a   4.11674500
_cell_length_b   12.36306110
_cell_length_c   22.18471541
_cell_angle_alpha   90.23137732
_cell_angle_beta   90.00000000
_cell_angle_gamma   90.00000000
_symmetry_Int_Tables_number   1
_chemical_formula_structural   Rb4Dy4BiSb7Se20
_chemical_formula_sum   'Rb4 Dy4 Bi1 Sb7 Se20'
_cell_volume   1129.09452857
_cell_formula_units_Z   1
loop_
 _symmetry_equiv_pos_site_id
 _symmetry_equiv_pos_as_xyz
  1  'x, y, z'
loop_
 _atom_site_type_symbol
 _atom_site_label
 _atom_site_symmetry_multiplicity
 _atom_site_fract_x
 _atom_site_fract_y
 _atom_site_fract_z
 _atom_site_occupancy
  Rb  Rb0  1  0.250000  0.489622  0.211050  1
  Rb  Rb1  1  0.750000  0.510885  0.789482  1
  Rb  Rb2  1  0.750000  0.990292  0.289374  1
  Rb  Rb3  1  0.250000  0.010283  0.710173  1
  Dy  Dy4  1  0.250000  0.364016  0.023557  1
  Dy  Dy5  1  0.750000  0.635577  0.976230  1
  Dy  Dy6  1  0.750000  0.863437  0.476827  1
  Dy  Dy7  1  0.250000  0.136621  0.523061  1
  Bi  Bi8  1  0.250000  0.904520  0.925395  1
  Sb  Sb9  1  0.250000  0.807240  0.125426  1
  Sb  Sb10  1  0.750000  0.193805  0.874638  1
  Sb  Sb11  1  0.750000  0.308357  0.375450  1
  Sb  Sb12  1  0.250000  0.691654  0.624520  1
  Sb  Sb13  1  0.250000  0.597322  0.425866  1
  Sb  Sb14  1  0.750000  0.402733  0.574121  1
  Sb  Sb15  1  0.750000  0.097368  0.074964  1
  Se  Se16  1  0.250000  0.804048  0.389249  1
  Se  Se17  1  0.750000  0.196009  0.610650  1
  Se  Se18  1  0.750000  0.304889  0.110946  1
  Se  Se19  1  0.250000  0.688104  0.889030  1
  Se  Se20  1  0.250000  0.252290  0.299492  1
  Se  Se21  1  0.750000  0.747711  0.700365  1
  Se  Se22  1  0.750000  0.752293  0.201112  1
  Se  Se23  1  0.250000  0.249180  0.799081  1
  Se  Se24  1  0.250000  0.356762  0.482071  1
  Se  Se25  1  0.750000  0.643230  0.517752  1
  Se  Se26  1  0.750000  0.855697  0.020099  1
  Se  Se27  1  0.250000  0.142908  0.982226  1
  Se  Se28  1  0.250000  0.024859  0.157352  1
  Se  Se29  1  0.750000  0.979558  0.839814  1
  Se  Se30  1  0.750000  0.523846  0.342798  1
  Se  Se31  1  0.250000  0.476052  0.657079  1
  Se  Se32  1  0.250000  0.582938  0.061619  1
  Se  Se33  1  0.750000  0.415878  0.939269  1
  Se  Se34  1  0.750000  0.082450  0.438640  1
  Se  Se35  1  0.250000  0.917566  0.561222  1
