# generated using pymatgen
data_Tm6Al24IrOs7
_symmetry_space_group_name_H-M   'P 1'
_cell_length_a   8.76746960
_cell_length_b   8.76746994
_cell_length_c   9.58647118
_cell_angle_alpha   89.81238920
_cell_angle_beta   90.18761066
_cell_angle_gamma   119.90903784
_symmetry_Int_Tables_number   1
_chemical_formula_structural   Tm6Al24IrOs7
_chemical_formula_sum   'Tm6 Al24 Ir1 Os7'
_cell_volume   638.75188121
_cell_formula_units_Z   1
loop_
 _symmetry_equiv_pos_site_id
 _symmetry_equiv_pos_as_xyz
  1  'x, y, z'
loop_
 _atom_site_type_symbol
 _atom_site_label
 _atom_site_symmetry_multiplicity
 _atom_site_fract_x
 _atom_site_fract_y
 _atom_site_fract_z
 _atom_site_occupancy
  Tm  Tm0  1  0.191280  0.388704  0.251746  1
  Tm  Tm1  1  0.808720  0.611296  0.748254  1
  Tm  Tm2  1  0.611296  0.808720  0.251746  1
  Tm  Tm3  1  0.388704  0.191280  0.748254  1
  Tm  Tm4  1  0.195144  0.804856  0.249925  1
  Tm  Tm5  1  0.804856  0.195144  0.750075  1
  Al  Al6  1  0.333002  0.666998  0.022520  1
  Al  Al7  1  0.666998  0.333002  0.977480  1
  Al  Al8  1  0.666535  0.333465  0.520674  1
  Al  Al9  1  0.333465  0.666535  0.479326  1
  Al  Al10  1  0.164055  0.326783  0.577582  1
  Al  Al11  1  0.835945  0.673217  0.422418  1
  Al  Al12  1  0.673217  0.835945  0.577582  1
  Al  Al13  1  0.837949  0.673610  0.077173  1
  Al  Al14  1  0.326783  0.164055  0.422418  1
  Al  Al15  1  0.162051  0.326390  0.922827  1
  Al  Al16  1  0.163825  0.836175  0.576307  1
  Al  Al17  1  0.326390  0.162051  0.077173  1
  Al  Al18  1  0.836175  0.163825  0.423693  1
  Al  Al19  1  0.673610  0.837949  0.922827  1
  Al  Al20  1  0.836397  0.163603  0.076740  1
  Al  Al21  1  0.163603  0.836397  0.923260  1
  Al  Al22  1  0.561377  0.124621  0.249629  1
  Al  Al23  1  0.438623  0.875379  0.750371  1
  Al  Al24  1  0.875379  0.438623  0.249629  1
  Al  Al25  1  0.124621  0.561377  0.750371  1
  Al  Al26  1  0.560987  0.439013  0.250447  1
  Al  Al27  1  0.439013  0.560987  0.749553  1
  Al  Al28  1  0.999771  0.000229  0.249929  1
  Al  Al29  1  0.000229  0.999771  0.750071  1
  Ir  Ir30  1  0.500000  0.500000  0.000000  1
  Os  Os31  1  0.500000  0.000000  0.000000  1
  Os  Os32  1  0.000000  0.500000  0.000000  1
  Os  Os33  1  0.500000  0.000000  0.500000  1
  Os  Os34  1  0.000000  0.500000  0.500000  1
  Os  Os35  1  0.500000  0.500000  0.500000  1
  Os  Os36  1  0.000000  0.000000  0.000000  1
  Os  Os37  1  0.000000  0.000000  0.500000  1
