# generated using pymatgen
data_Nd2MnFe2Tc14C3
_symmetry_space_group_name_H-M   'P 1'
_cell_length_a   6.92626442
_cell_length_b   6.92626406
_cell_length_c   6.93407370
_cell_angle_alpha   82.66062291
_cell_angle_beta   82.66062340
_cell_angle_gamma   82.75430524
_symmetry_Int_Tables_number   1
_chemical_formula_structural   Nd2MnFe2Tc14C3
_chemical_formula_sum   'Nd2 Mn1 Fe2 Tc14 C3'
_cell_volume   325.17565236
_cell_formula_units_Z   1
loop_
 _symmetry_equiv_pos_site_id
 _symmetry_equiv_pos_as_xyz
  1  'x, y, z'
loop_
 _atom_site_type_symbol
 _atom_site_label
 _atom_site_symmetry_multiplicity
 _atom_site_fract_x
 _atom_site_fract_y
 _atom_site_fract_z
 _atom_site_occupancy
  Nd  Nd0  1  0.650113  0.650113  0.650394  1
  Nd  Nd1  1  0.349887  0.349887  0.349606  1
  Mn  Mn2  1  0.000000  0.000000  0.500000  1
  Fe  Fe3  1  0.500000  0.000000  0.000000  1
  Fe  Fe4  1  0.000000  0.500000  0.000000  1
  Tc  Tc5  1  0.724239  0.275761  0.000000  1
  Tc  Tc6  1  0.999964  0.723408  0.275597  1
  Tc  Tc7  1  0.276592  0.000036  0.724403  1
  Tc  Tc8  1  0.000036  0.276592  0.724403  1
  Tc  Tc9  1  0.723408  0.999964  0.275597  1
  Tc  Tc10  1  0.275761  0.724239  0.000000  1
  Tc  Tc11  1  0.346885  0.863356  0.346091  1
  Tc  Tc12  1  0.346866  0.346866  0.863507  1
  Tc  Tc13  1  0.863356  0.346885  0.346091  1
  Tc  Tc14  1  0.653115  0.136644  0.653909  1
  Tc  Tc15  1  0.653134  0.653134  0.136493  1
  Tc  Tc16  1  0.136644  0.653115  0.653909  1
  Tc  Tc17  1  0.900084  0.900084  0.900908  1
  Tc  Tc18  1  0.099916  0.099916  0.099092  1
  C  C19  1  0.500000  0.500000  0.000000  1
  C  C20  1  0.000000  0.500000  0.500000  1
  C  C21  1  0.500000  0.000000  0.500000  1
