# generated using pymatgen
data_Tb2Dy(CdGa)3
_symmetry_space_group_name_H-M   'P 1'
_cell_length_a   7.28947053
_cell_length_b   7.29429904
_cell_length_c   4.41816800
_cell_angle_alpha   90.00000000
_cell_angle_beta   90.00000000
_cell_angle_gamma   120.02191822
_symmetry_Int_Tables_number   1
_chemical_formula_structural   Tb2Dy(CdGa)3
_chemical_formula_sum   'Tb2 Dy1 Cd3 Ga3'
_cell_volume   203.40257406
_cell_formula_units_Z   1
loop_
 _symmetry_equiv_pos_site_id
 _symmetry_equiv_pos_as_xyz
  1  'x, y, z'
loop_
 _atom_site_type_symbol
 _atom_site_label
 _atom_site_symmetry_multiplicity
 _atom_site_fract_x
 _atom_site_fract_y
 _atom_site_fract_z
 _atom_site_occupancy
  Tb  Tb0  1  0.423195  0.423291  0.500000  1
  Tb  Tb1  1  0.576805  0.000096  0.500000  1
  Dy  Dy2  1  0.000000  0.576859  0.500000  1
  Cd  Cd3  1  0.751639  0.751530  0.000000  1
  Cd  Cd4  1  0.248361  0.999891  0.000000  1
  Cd  Cd5  1  0.000000  0.248618  0.000000  1
  Ga  Ga6  1  0.667005  0.333489  0.000000  1
  Ga  Ga7  1  0.332995  0.666485  0.000000  1
  Ga  Ga8  1  0.000000  0.999741  0.500000  1
