# generated using pymatgen
data_SrU(SbPt)2
_symmetry_space_group_name_H-M   'P 1'
_cell_length_a   4.57032204
_cell_length_b   4.56779290
_cell_length_c   8.35928704
_cell_angle_alpha   90.01280363
_cell_angle_beta   90.00139899
_cell_angle_gamma   120.03235169
_symmetry_Int_Tables_number   1
_chemical_formula_structural   SrU(SbPt)2
_chemical_formula_sum   'Sr1 U1 Sb2 Pt2'
_cell_volume   151.08153559
_cell_formula_units_Z   1
loop_
 _symmetry_equiv_pos_site_id
 _symmetry_equiv_pos_as_xyz
  1  'x, y, z'
loop_
 _atom_site_type_symbol
 _atom_site_label
 _atom_site_symmetry_multiplicity
 _atom_site_fract_x
 _atom_site_fract_y
 _atom_site_fract_z
 _atom_site_occupancy
  Sr  Sr0  1  0.000058  0.000221  0.750493  1
  U  U1  1  0.999936  0.999673  0.253794  1
  Sb  Sb2  1  0.666530  0.332951  0.002368  1
  Sb  Sb3  1  0.333455  0.667065  0.477888  1
  Pt  Pt4  1  0.666916  0.334163  0.477143  1
  Pt  Pt5  1  0.333106  0.665926  0.086315  1
