# generated using pymatgen
data_Sr2(Ga3Rh)3
_symmetry_space_group_name_H-M   'P 1'
_cell_length_a   7.63731921
_cell_length_b   7.63731954
_cell_length_c   9.94858800
_cell_angle_alpha   90.00000000
_cell_angle_beta   90.00000000
_cell_angle_gamma   118.95553180
_symmetry_Int_Tables_number   1
_chemical_formula_structural   Sr2(Ga3Rh)3
_chemical_formula_sum   'Sr4 Ga18 Rh6'
_cell_volume   507.74923195
_cell_formula_units_Z   2
loop_
 _symmetry_equiv_pos_site_id
 _symmetry_equiv_pos_as_xyz
  1  'x, y, z'
loop_
 _atom_site_type_symbol
 _atom_site_label
 _atom_site_symmetry_multiplicity
 _atom_site_fract_x
 _atom_site_fract_y
 _atom_site_fract_z
 _atom_site_occupancy
  Sr  Sr0  1  0.995450  0.671030  0.750000  1
  Sr  Sr1  1  0.004550  0.328970  0.250000  1
  Sr  Sr2  1  0.671030  0.995450  0.750000  1
  Sr  Sr3  1  0.328970  0.004550  0.250000  1
  Ga  Ga4  1  0.131661  0.131661  0.750000  1
  Ga  Ga5  1  0.868339  0.868339  0.250000  1
  Ga  Ga6  1  0.005571  0.335392  0.573135  1
  Ga  Ga7  1  0.994429  0.664608  0.426865  1
  Ga  Ga8  1  0.994429  0.664608  0.073135  1
  Ga  Ga9  1  0.335392  0.005571  0.926865  1
  Ga  Ga10  1  0.005571  0.335392  0.926865  1
  Ga  Ga11  1  0.664608  0.994429  0.073135  1
  Ga  Ga12  1  0.664608  0.994429  0.426865  1
  Ga  Ga13  1  0.335392  0.005571  0.573135  1
  Ga  Ga14  1  0.335632  0.335632  0.047840  1
  Ga  Ga15  1  0.664368  0.664368  0.952160  1
  Ga  Ga16  1  0.664368  0.664368  0.547840  1
  Ga  Ga17  1  0.335632  0.335632  0.452160  1
  Ga  Ga18  1  0.337002  0.542659  0.750000  1
  Ga  Ga19  1  0.662998  0.457341  0.250000  1
  Ga  Ga20  1  0.542659  0.337002  0.750000  1
  Ga  Ga21  1  0.457341  0.662998  0.250000  1
  Rh  Rh22  1  0.670668  0.329332  0.500000  1
  Rh  Rh23  1  0.329332  0.670668  0.500000  1
  Rh  Rh24  1  0.329332  0.670668  0.000000  1
  Rh  Rh25  1  0.670668  0.329332  0.000000  1
  Rh  Rh26  1  0.000000  0.000000  0.500000  1
  Rh  Rh27  1  0.000000  0.000000  0.000000  1
