# generated using pymatgen
data_Ac2DyMg3Tl2Au
_symmetry_space_group_name_H-M   'P 1'
_cell_length_a   7.92194096
_cell_length_b   7.97699851
_cell_length_c   4.70102200
_cell_angle_alpha   90.00000000
_cell_angle_beta   90.00000000
_cell_angle_gamma   120.23017924
_symmetry_Int_Tables_number   1
_chemical_formula_structural   Ac2DyMg3Tl2Au
_chemical_formula_sum   'Ac2 Dy1 Mg3 Tl2 Au1'
_cell_volume   256.67408827
_cell_formula_units_Z   1
loop_
 _symmetry_equiv_pos_site_id
 _symmetry_equiv_pos_as_xyz
  1  'x, y, z'
loop_
 _atom_site_type_symbol
 _atom_site_label
 _atom_site_symmetry_multiplicity
 _atom_site_fract_x
 _atom_site_fract_y
 _atom_site_fract_z
 _atom_site_occupancy
  Ac  Ac0  1  0.408427  0.410347  0.500000  1
  Ac  Ac1  1  0.591573  0.001921  0.500000  1
  Dy  Dy2  1  0.000000  0.597114  0.500000  1
  Mg  Mg3  1  0.775680  0.769727  0.000000  1
  Mg  Mg4  1  0.224320  0.994046  0.000000  1
  Mg  Mg5  1  0.000000  0.230796  0.000000  1
  Tl  Tl6  1  0.691016  0.351276  0.000000  1
  Tl  Tl7  1  0.308984  0.660259  0.000000  1
  Au  Au8  1  0.000000  0.984514  0.500000  1
