# generated using pymatgen
data_PmEuCu4
_symmetry_space_group_name_H-M   'P 1'
_cell_length_a   5.67290722
_cell_length_b   5.67290768
_cell_length_c   5.67290681
_cell_angle_alpha   135.20139892
_cell_angle_beta   99.75136022
_cell_angle_gamma   96.95207492
_symmetry_Int_Tables_number   1
_chemical_formula_structural   PmEuCu4
_chemical_formula_sum   'Pm1 Eu1 Cu4'
_cell_volume   118.88503677
_cell_formula_units_Z   1
loop_
 _symmetry_equiv_pos_site_id
 _symmetry_equiv_pos_as_xyz
  1  'x, y, z'
loop_
 _atom_site_type_symbol
 _atom_site_label
 _atom_site_symmetry_multiplicity
 _atom_site_fract_x
 _atom_site_fract_y
 _atom_site_fract_z
 _atom_site_occupancy
  Pm  Pm0  1  0.500000  0.500000  0.000000  1
  Eu  Eu1  1  0.000000  0.000000  0.000000  1
  Cu  Cu2  1  0.577800  0.245662  0.332138  1
  Cu  Cu3  1  0.086478  0.754339  0.332139  1
  Cu  Cu4  1  0.913523  0.245662  0.667863  1
  Cu  Cu5  1  0.422200  0.754339  0.667862  1
