# generated using pymatgen
data_Y4OsRh3O14
_symmetry_space_group_name_H-M   'P 1'
_cell_length_a   7.25801480
_cell_length_b   7.25801594
_cell_length_c   7.25801531
_cell_angle_alpha   59.91611741
_cell_angle_beta   59.91610941
_cell_angle_gamma   59.91612139
_symmetry_Int_Tables_number   1
_chemical_formula_structural   Y4OsRh3O14
_chemical_formula_sum   'Y4 Os1 Rh3 O14'
_cell_volume   269.84318903
_cell_formula_units_Z   1
loop_
 _symmetry_equiv_pos_site_id
 _symmetry_equiv_pos_as_xyz
  1  'x, y, z'
loop_
 _atom_site_type_symbol
 _atom_site_label
 _atom_site_symmetry_multiplicity
 _atom_site_fract_x
 _atom_site_fract_y
 _atom_site_fract_z
 _atom_site_occupancy
  Y  Y0  1  0.625000  0.125000  0.125000  1
  Y  Y1  1  0.125000  0.625000  0.125000  1
  Y  Y2  1  0.125000  0.125000  0.625000  1
  Y  Y3  1  0.125000  0.125000  0.125000  1
  Os  Os4  1  0.625000  0.625000  0.625000  1
  Rh  Rh5  1  0.125000  0.625000  0.625000  1
  Rh  Rh6  1  0.625000  0.125000  0.625000  1
  Rh  Rh7  1  0.625000  0.625000  0.125000  1
  O  O8  1  0.705650  0.705650  0.299141  1
  O  O9  1  0.283849  0.283849  0.710200  1
  O  O10  1  0.705650  0.299141  0.705650  1
  O  O11  1  0.283849  0.710200  0.283849  1
  O  O12  1  0.299141  0.705650  0.705650  1
  O  O13  1  0.710200  0.283849  0.283849  1
  O  O14  1  0.544350  0.544350  0.950859  1
  O  O15  1  0.966151  0.966151  0.539800  1
  O  O16  1  0.544350  0.950859  0.544350  1
  O  O17  1  0.966151  0.539800  0.966151  1
  O  O18  1  0.950859  0.544350  0.544350  1
  O  O19  1  0.539800  0.966151  0.966151  1
  O  O20  1  0.251620  0.251620  0.251620  1
  O  O21  1  0.998380  0.998380  0.998380  1
