# generated using pymatgen
data_HgSe23
_symmetry_space_group_name_H-M   'P 1'
_cell_length_a   5.65670443
_cell_length_b   10.23373796
_cell_length_c   16.63650800
_cell_angle_alpha   95.07158697
_cell_angle_beta   79.47072745
_cell_angle_gamma   86.83067715
_symmetry_Int_Tables_number   1
_chemical_formula_structural   HgSe23
_chemical_formula_sum   'Hg1 Se23'
_cell_volume   940.63822003
_cell_formula_units_Z   1
loop_
 _symmetry_equiv_pos_site_id
 _symmetry_equiv_pos_as_xyz
  1  'x, y, z'
loop_
 _atom_site_type_symbol
 _atom_site_label
 _atom_site_symmetry_multiplicity
 _atom_site_fract_x
 _atom_site_fract_y
 _atom_site_fract_z
 _atom_site_occupancy
  Hg  Hg0  1  0.490811  0.277233  0.395476  1
  Se  Se1  1  0.402549  0.847136  0.393806  1
  Se  Se2  1  0.028258  0.317283  0.141223  1
  Se  Se3  1  0.818063  0.179835  0.460964  1
  Se  Se4  1  0.223616  0.787961  0.524282  1
  Se  Se5  1  0.229646  0.236672  0.007450  1
  Se  Se6  1  0.799175  0.722136  0.012452  1
  Se  Se7  1  0.145828  0.413915  0.362475  1
  Se  Se8  1  0.626379  0.656233  0.324160  1
  Se  Se9  1  0.777654  0.151936  0.191405  1
  Se  Se10  1  0.250005  0.867393  0.131884  1
  Se  Se11  1  0.731467  0.608016  0.605344  1
  Se  Se12  1  0.311289  0.339017  0.633537  1
  Se  Se13  1  0.258735  0.852541  0.851510  1
  Se  Se14  1  0.779784  0.132290  0.877145  1
  Se  Se15  1  0.043411  0.677028  0.108829  1
  Se  Se16  1  0.509033  0.813007  0.610755  1
  Se  Se17  1  0.561838  0.146263  0.588061  1
  Se  Se18  1  0.043233  0.666251  0.880868  1
  Se  Se19  1  0.010465  0.308093  0.909457  1
  Se  Se20  1  0.372497  0.526315  0.258157  1
  Se  Se21  1  0.023980  0.001423  0.246687  1
  Se  Se22  1  0.522476  0.486894  0.706959  1
  Se  Se23  1  0.039804  0.985132  0.777115  1
