# generated using pymatgen
data_Dy2Ga9Co2Pt
_symmetry_space_group_name_H-M   'P 1'
_cell_length_a   7.48164090
_cell_length_b   7.48164043
_cell_length_c   9.39467608
_cell_angle_alpha   90.09520873
_cell_angle_beta   90.09520778
_cell_angle_gamma   119.69367516
_symmetry_Int_Tables_number   1
_chemical_formula_structural   Dy2Ga9Co2Pt
_chemical_formula_sum   'Dy4 Ga18 Co4 Pt2'
_cell_volume   456.81047019
_cell_formula_units_Z   2
loop_
 _symmetry_equiv_pos_site_id
 _symmetry_equiv_pos_as_xyz
  1  'x, y, z'
loop_
 _atom_site_type_symbol
 _atom_site_label
 _atom_site_symmetry_multiplicity
 _atom_site_fract_x
 _atom_site_fract_y
 _atom_site_fract_z
 _atom_site_occupancy
  Dy  Dy0  1  0.325340  0.998998  0.250635  1
  Dy  Dy1  1  0.001002  0.674660  0.749365  1
  Dy  Dy2  1  0.667983  0.991297  0.748719  1
  Dy  Dy3  1  0.008703  0.332017  0.251281  1
  Ga  Ga4  1  0.346040  0.014516  0.919833  1
  Ga  Ga5  1  0.985484  0.653960  0.080167  1
  Ga  Ga6  1  0.335740  0.997740  0.571671  1
  Ga  Ga7  1  0.002260  0.664260  0.428329  1
  Ga  Ga8  1  0.665556  0.013821  0.080172  1
  Ga  Ga9  1  0.986179  0.334444  0.919828  1
  Ga  Ga10  1  0.665309  0.005598  0.428506  1
  Ga  Ga11  1  0.994402  0.334691  0.571494  1
  Ga  Ga12  1  0.663847  0.654735  0.931365  1
  Ga  Ga13  1  0.345265  0.336153  0.068635  1
  Ga  Ga14  1  0.670533  0.668865  0.557226  1
  Ga  Ga15  1  0.331135  0.329467  0.442774  1
  Ga  Ga16  1  0.127562  0.129626  0.740035  1
  Ga  Ga17  1  0.870374  0.872438  0.259965  1
  Ga  Ga18  1  0.456248  0.663992  0.260643  1
  Ga  Ga19  1  0.336008  0.543752  0.739357  1
  Ga  Ga20  1  0.557568  0.337301  0.745689  1
  Ga  Ga21  1  0.662699  0.442432  0.254311  1
  Co  Co22  1  0.999740  0.000260  0.500000  1
  Co  Co23  1  0.328388  0.671612  0.500000  1
  Co  Co24  1  0.668912  0.331088  0.000000  1
  Co  Co25  1  0.670505  0.329495  0.500000  1
  Pt  Pt26  1  0.999261  0.000739  0.000000  1
  Pt  Pt27  1  0.327957  0.672043  0.000000  1
