# generated using pymatgen
data_ZnFeCo(MoO4)3
_symmetry_space_group_name_H-M   'P 1'
_cell_length_a   7.11576067
_cell_length_b   8.50835146
_cell_length_c   9.89140608
_cell_angle_alpha   96.69561427
_cell_angle_beta   106.59829134
_cell_angle_gamma   102.14345818
_symmetry_Int_Tables_number   1
_chemical_formula_structural   ZnFeCo(MoO4)3
_chemical_formula_sum   'Zn2 Fe2 Co2 Mo6 O24'
_cell_volume   550.99613028
_cell_formula_units_Z   2
loop_
 _symmetry_equiv_pos_site_id
 _symmetry_equiv_pos_as_xyz
  1  'x, y, z'
loop_
 _atom_site_type_symbol
 _atom_site_label
 _atom_site_symmetry_multiplicity
 _atom_site_fract_x
 _atom_site_fract_y
 _atom_site_fract_z
 _atom_site_occupancy
  Zn  Zn0  1  0.967151  0.885835  0.711205  1
  Zn  Zn1  1  0.032849  0.114165  0.288795  1
  Fe  Fe2  1  0.252228  0.695449  0.908399  1
  Fe  Fe3  1  0.747772  0.304551  0.091601  1
  Co  Co4  1  0.535959  0.694205  0.490233  1
  Co  Co5  1  0.464041  0.305795  0.509767  1
  Mo  Mo6  1  0.504680  0.991800  0.754240  1
  Mo  Mo7  1  0.495320  0.008200  0.245760  1
  Mo  Mo8  1  0.699523  0.603288  0.836604  1
  Mo  Mo9  1  0.300477  0.396712  0.163396  1
  Mo  Mo10  1  0.979599  0.705978  0.375597  1
  Mo  Mo11  1  0.020401  0.294022  0.624403  1
  O  O12  1  0.263998  0.871204  0.762122  1
  O  O13  1  0.736002  0.128796  0.237878  1
  O  O14  1  0.558473  0.707899  0.920132  1
  O  O15  1  0.441527  0.292101  0.079868  1
  O  O16  1  0.556482  0.522706  0.646158  1
  O  O17  1  0.443518  0.477294  0.353842  1
  O  O18  1  0.547562  0.863118  0.355682  1
  O  O19  1  0.452438  0.136882  0.644318  1
  O  O20  1  0.659488  0.098563  0.927295  1
  O  O21  1  0.340512  0.901437  0.072705  1
  O  O22  1  0.645279  0.864363  0.679308  1
  O  O23  1  0.354721  0.135637  0.320692  1
  O  O24  1  0.021115  0.122313  0.714310  1
  O  O25  1  0.978885  0.877687  0.285690  1
  O  O26  1  0.050275  0.264230  0.144909  1
  O  O27  1  0.949725  0.735770  0.855091  1
  O  O28  1  0.148769  0.479292  0.751919  1
  O  O29  1  0.851231  0.520708  0.248081  1
  O  O30  1  0.142983  0.269571  0.484310  1
  O  O31  1  0.857017  0.730429  0.515690  1
  O  O32  1  0.255560  0.559941  0.075677  1
  O  O33  1  0.744440  0.440059  0.924323  1
  O  O34  1  0.235196  0.705224  0.460820  1
  O  O35  1  0.764804  0.294776  0.539180  1
