# generated using pymatgen
data_BaLiSbAs
_symmetry_space_group_name_H-M   'P 1'
_cell_length_a   9.60941207
_cell_length_b   9.60941289
_cell_length_c   4.71768100
_cell_angle_alpha   90.00000000
_cell_angle_beta   90.00000000
_cell_angle_gamma   150.40692445
_symmetry_Int_Tables_number   1
_chemical_formula_structural   BaLiSbAs
_chemical_formula_sum   'Ba2 Li2 Sb2 As2'
_cell_volume   215.13232741
_cell_formula_units_Z   2
loop_
 _symmetry_equiv_pos_site_id
 _symmetry_equiv_pos_as_xyz
  1  'x, y, z'
loop_
 _atom_site_type_symbol
 _atom_site_label
 _atom_site_symmetry_multiplicity
 _atom_site_fract_x
 _atom_site_fract_y
 _atom_site_fract_z
 _atom_site_occupancy
  Ba  Ba0  1  0.401120  0.598880  0.750000  1
  Ba  Ba1  1  0.598880  0.401120  0.250000  1
  Li  Li2  1  0.829571  0.170429  0.250000  1
  Li  Li3  1  0.170429  0.829571  0.750000  1
  Sb  Sb4  1  0.250109  0.749891  0.250000  1
  Sb  Sb5  1  0.749891  0.250109  0.750000  1
  As  As6  1  0.031618  0.968382  0.750000  1
  As  As7  1  0.968382  0.031618  0.250000  1
