# generated using pymatgen
data_La6DyHo3(Sn5Rh2)4
_symmetry_space_group_name_H-M   'P 1'
_cell_length_a   14.24827173
_cell_length_b   14.24827207
_cell_length_c   4.60126200
_cell_angle_alpha   90.00000000
_cell_angle_beta   90.00000000
_cell_angle_gamma   89.93417223
_symmetry_Int_Tables_number   1
_chemical_formula_structural   La6DyHo3(Sn5Rh2)4
_chemical_formula_sum   'La6 Dy1 Ho3 Sn20 Rh8'
_cell_volume   934.11654581
_cell_formula_units_Z   1
loop_
 _symmetry_equiv_pos_site_id
 _symmetry_equiv_pos_as_xyz
  1  'x, y, z'
loop_
 _atom_site_type_symbol
 _atom_site_label
 _atom_site_symmetry_multiplicity
 _atom_site_fract_x
 _atom_site_fract_y
 _atom_site_fract_z
 _atom_site_occupancy
  La  La0  1  0.499974  0.499955  0.000000  1
  La  La1  1  0.000045  0.000026  0.000000  1
  La  La2  1  0.888245  0.388187  0.500000  1
  La  La3  1  0.111813  0.611755  0.500000  1
  La  La4  1  0.388451  0.111549  0.500000  1
  La  La5  1  0.611660  0.888340  0.500000  1
  Dy  Dy6  1  0.823386  0.676614  0.500000  1
  Ho  Ho7  1  0.676277  0.176076  0.500000  1
  Ho  Ho8  1  0.323924  0.823723  0.500000  1
  Ho  Ho9  1  0.176442  0.323558  0.500000  1
  Sn  Sn10  1  0.570208  0.070161  0.000000  1
  Sn  Sn11  1  0.429839  0.929792  0.000000  1
  Sn  Sn12  1  0.070248  0.429752  0.000000  1
  Sn  Sn13  1  0.929887  0.570113  0.000000  1
  Sn  Sn14  1  0.654110  0.698287  0.000000  1
  Sn  Sn15  1  0.345645  0.301872  0.000000  1
  Sn  Sn16  1  0.154265  0.801779  0.000000  1
  Sn  Sn17  1  0.845636  0.198198  0.000000  1
  Sn  Sn18  1  0.301802  0.654364  0.000000  1
  Sn  Sn19  1  0.698221  0.345735  0.000000  1
  Sn  Sn20  1  0.198128  0.154355  0.000000  1
  Sn  Sn21  1  0.801713  0.845890  0.000000  1
  Sn  Sn22  1  0.663827  0.508649  0.500000  1
  Sn  Sn23  1  0.335991  0.491175  0.500000  1
  Sn  Sn24  1  0.163952  0.991409  0.500000  1
  Sn  Sn25  1  0.836116  0.008393  0.500000  1
  Sn  Sn26  1  0.491607  0.663884  0.500000  1
  Sn  Sn27  1  0.508591  0.336048  0.500000  1
  Sn  Sn28  1  0.008825  0.164009  0.500000  1
  Sn  Sn29  1  0.991351  0.836173  0.500000  1
  Rh  Rh30  1  0.747540  0.529675  0.000000  1
  Rh  Rh31  1  0.252262  0.469992  0.000000  1
  Rh  Rh32  1  0.247356  0.969868  0.000000  1
  Rh  Rh33  1  0.752491  0.030294  0.000000  1
  Rh  Rh34  1  0.469706  0.747509  0.000000  1
  Rh  Rh35  1  0.530132  0.252644  0.000000  1
  Rh  Rh36  1  0.030008  0.247738  0.000000  1
  Rh  Rh37  1  0.970325  0.752460  0.000000  1
