# generated using pymatgen
data_SrCd3(Ir2O7)2
_symmetry_space_group_name_H-M   'P 1'
_cell_length_a   7.28124463
_cell_length_b   7.32622299
_cell_length_c   7.28124500
_cell_angle_alpha   60.20288443
_cell_angle_beta   60.00000285
_cell_angle_gamma   60.20287829
_symmetry_Int_Tables_number   1
_chemical_formula_structural   SrCd3(Ir2O7)2
_chemical_formula_sum   'Sr1 Cd3 Ir4 O14'
_cell_volume   275.48719230
_cell_formula_units_Z   1
loop_
 _symmetry_equiv_pos_site_id
 _symmetry_equiv_pos_as_xyz
  1  'x, y, z'
loop_
 _atom_site_type_symbol
 _atom_site_label
 _atom_site_symmetry_multiplicity
 _atom_site_fract_x
 _atom_site_fract_y
 _atom_site_fract_z
 _atom_site_occupancy
  Sr  Sr0  1  0.625000  0.125000  0.625000  1
  Cd  Cd1  1  0.625000  0.625000  0.125000  1
  Cd  Cd2  1  0.125000  0.625000  0.625000  1
  Cd  Cd3  1  0.625000  0.625000  0.625000  1
  Ir  Ir4  1  0.625000  0.125000  0.125000  1
  Ir  Ir5  1  0.125000  0.625000  0.125000  1
  Ir  Ir6  1  0.125000  0.125000  0.625000  1
  Ir  Ir7  1  0.125000  0.125000  0.125000  1
  O  O8  1  0.194486  0.202385  0.801565  1
  O  O9  1  0.194849  0.805282  0.194849  1
  O  O10  1  0.448435  0.047615  0.055514  1
  O  O11  1  0.194849  0.805282  0.805018  1
  O  O12  1  0.055151  0.444718  0.444982  1
  O  O13  1  0.805018  0.805282  0.194849  1
  O  O14  1  0.444982  0.444718  0.055151  1
  O  O15  1  0.488586  0.534244  0.488586  1
  O  O16  1  0.055514  0.047615  0.448435  1
  O  O17  1  0.448435  0.047615  0.448435  1
  O  O18  1  0.055151  0.444718  0.055151  1
  O  O19  1  0.761414  0.715756  0.761414  1
  O  O20  1  0.801565  0.202385  0.801565  1
  O  O21  1  0.801565  0.202385  0.194486  1
