# generated using pymatgen
data_Li2NdCuAs2
_symmetry_space_group_name_H-M   'P 1'
_cell_length_a   4.23407000
_cell_length_b   4.23407034
_cell_length_c   6.88565200
_cell_angle_alpha   90.00000000
_cell_angle_beta   90.00000000
_cell_angle_gamma   120.00001295
_symmetry_Int_Tables_number   1
_chemical_formula_structural   Li2NdCuAs2
_chemical_formula_sum   'Li2 Nd1 Cu1 As2'
_cell_volume   106.90345650
_cell_formula_units_Z   1
loop_
 _symmetry_equiv_pos_site_id
 _symmetry_equiv_pos_as_xyz
  1  'x, y, z'
loop_
 _atom_site_type_symbol
 _atom_site_label
 _atom_site_symmetry_multiplicity
 _atom_site_fract_x
 _atom_site_fract_y
 _atom_site_fract_z
 _atom_site_occupancy
  Li  Li0  1  0.000000  0.000000  0.501689  1
  Li  Li1  1  0.333333  0.666667  0.644652  1
  Nd  Nd2  1  0.000000  0.000000  0.005425  1
  Cu  Cu3  1  0.666667  0.333333  0.355361  1
  As  As4  1  0.333333  0.666667  0.259121  1
  As  As5  1  0.666667  0.333333  0.733752  1
