# generated using pymatgen
data_Dy16Cd4RuPt3
_symmetry_space_group_name_H-M   'P 1'
_cell_length_a   9.68647694
_cell_length_b   9.68647629
_cell_length_c   9.68647636
_cell_angle_alpha   59.67786412
_cell_angle_beta   59.67786780
_cell_angle_gamma   59.67786383
_symmetry_Int_Tables_number   1
_chemical_formula_structural   Dy16Cd4RuPt3
_chemical_formula_sum   'Dy16 Cd4 Ru1 Pt3'
_cell_volume   637.95864919
_cell_formula_units_Z   1
loop_
 _symmetry_equiv_pos_site_id
 _symmetry_equiv_pos_as_xyz
  1  'x, y, z'
loop_
 _atom_site_type_symbol
 _atom_site_label
 _atom_site_symmetry_multiplicity
 _atom_site_fract_x
 _atom_site_fract_y
 _atom_site_fract_z
 _atom_site_occupancy
  Dy  Dy0  1  0.351416  0.351416  0.351416  1
  Dy  Dy1  1  0.349911  0.349911  0.947628  1
  Dy  Dy2  1  0.349911  0.947628  0.349911  1
  Dy  Dy3  1  0.947628  0.349911  0.349911  1
  Dy  Dy4  1  0.814704  0.188940  0.188940  1
  Dy  Dy5  1  0.189009  0.809916  0.809916  1
  Dy  Dy6  1  0.188940  0.814704  0.188940  1
  Dy  Dy7  1  0.809916  0.189009  0.809916  1
  Dy  Dy8  1  0.188940  0.188940  0.814704  1
  Dy  Dy9  1  0.809916  0.809916  0.189009  1
  Dy  Dy10  1  0.935603  0.565671  0.565671  1
  Dy  Dy11  1  0.560775  0.936548  0.936548  1
  Dy  Dy12  1  0.565671  0.935603  0.565671  1
  Dy  Dy13  1  0.936548  0.560774  0.936548  1
  Dy  Dy14  1  0.565671  0.565671  0.935603  1
  Dy  Dy15  1  0.936548  0.936548  0.560774  1
  Cd  Cd16  1  0.580557  0.580557  0.580557  1
  Cd  Cd17  1  0.581109  0.581109  0.254191  1
  Cd  Cd18  1  0.581109  0.254191  0.581109  1
  Cd  Cd19  1  0.254191  0.581109  0.581109  1
  Ru  Ru20  1  0.143128  0.143128  0.143128  1
  Pt  Pt21  1  0.143486  0.143486  0.571827  1
  Pt  Pt22  1  0.143486  0.571827  0.143486  1
  Pt  Pt23  1  0.571827  0.143486  0.143486  1
