# generated using pymatgen
data_BiI16
_symmetry_space_group_name_H-M   'P 1'
_cell_length_a   9.05266149
_cell_length_b   10.42361333
_cell_length_c   13.74068791
_cell_angle_alpha   100.76808472
_cell_angle_beta   94.54211945
_cell_angle_gamma   121.96084630
_symmetry_Int_Tables_number   1
_chemical_formula_structural   BiI16
_chemical_formula_sum   'Bi1 I16'
_cell_volume   1055.71286600
_cell_formula_units_Z   1
loop_
 _symmetry_equiv_pos_site_id
 _symmetry_equiv_pos_as_xyz
  1  'x, y, z'
loop_
 _atom_site_type_symbol
 _atom_site_label
 _atom_site_symmetry_multiplicity
 _atom_site_fract_x
 _atom_site_fract_y
 _atom_site_fract_z
 _atom_site_occupancy
  Bi  Bi0  1  0.000000  0.000000  0.000000  1
  I  I1  1  0.770151  0.929666  0.167310  1
  I  I2  1  0.229849  0.070334  0.832690  1
  I  I3  1  0.332899  0.207362  0.177076  1
  I  I4  1  0.667101  0.792638  0.822924  1
  I  I5  1  0.971585  0.283884  0.984173  1
  I  I6  1  0.028415  0.716116  0.015827  1
  I  I7  1  0.358583  0.484066  0.305497  1
  I  I8  1  0.641417  0.515934  0.694503  1
  I  I9  1  0.936919  0.589266  0.261257  1
  I  I10  1  0.063081  0.410734  0.738743  1
  I  I11  1  0.406475  0.829392  0.088783  1
  I  I12  1  0.593525  0.170608  0.911217  1
  I  I13  1  0.601417  0.246949  0.557574  1
  I  I14  1  0.398583  0.753051  0.442426  1
  I  I15  1  0.790493  0.425486  0.403105  1
  I  I16  1  0.209507  0.574514  0.596895  1
