# generated using pymatgen
data_Ag6Hg5Pd12Pb
_symmetry_space_group_name_H-M   'P 1'
_cell_length_a   4.33866600
_cell_length_b   7.45692200
_cell_length_c   13.03071600
_cell_angle_alpha   90.00000000
_cell_angle_beta   90.00011885
_cell_angle_gamma   90.00000000
_symmetry_Int_Tables_number   1
_chemical_formula_structural   Ag6Hg5Pd12Pb
_chemical_formula_sum   'Ag6 Hg5 Pd12 Pb1'
_cell_volume   421.58397893
_cell_formula_units_Z   1
loop_
 _symmetry_equiv_pos_site_id
 _symmetry_equiv_pos_as_xyz
  1  'x, y, z'
loop_
 _atom_site_type_symbol
 _atom_site_label
 _atom_site_symmetry_multiplicity
 _atom_site_fract_x
 _atom_site_fract_y
 _atom_site_fract_z
 _atom_site_occupancy
  Ag  Ag0  1  0.000000  0.500000  0.000000  1
  Ag  Ag1  1  0.499963  0.000000  0.172083  1
  Ag  Ag2  1  0.999968  0.500000  0.334014  1
  Ag  Ag3  1  0.500000  0.000000  0.500000  1
  Ag  Ag4  1  0.000032  0.500000  0.665986  1
  Ag  Ag5  1  0.500037  0.000000  0.827917  1
  Hg  Hg6  1  0.499952  0.500000  0.166955  1
  Hg  Hg7  1  0.999962  0.000000  0.334186  1
  Hg  Hg8  1  0.500000  0.500000  0.500000  1
  Hg  Hg9  1  0.000038  0.000000  0.665814  1
  Hg  Hg10  1  0.500048  0.500000  0.833045  1
  Pd  Pd11  1  0.500001  0.247304  0.000000  1
  Pd  Pd12  1  0.500001  0.752695  0.000000  1
  Pd  Pd13  1  0.999947  0.250181  0.165768  1
  Pd  Pd14  1  0.999947  0.749820  0.165768  1
  Pd  Pd15  1  0.499965  0.251287  0.333521  1
  Pd  Pd16  1  0.499965  0.748714  0.333521  1
  Pd  Pd17  1  0.000000  0.249461  0.500000  1
  Pd  Pd18  1  0.000000  0.750539  0.500000  1
  Pd  Pd19  1  0.500034  0.251287  0.666479  1
  Pd  Pd20  1  0.500034  0.748714  0.666479  1
  Pd  Pd21  1  0.000052  0.250181  0.834232  1
  Pd  Pd22  1  0.000052  0.749820  0.834232  1
  Pb  Pb23  1  0.000000  0.000000  0.000000  1
