# generated using pymatgen
data_TaFeBr8
_symmetry_space_group_name_H-M   'P 1'
_cell_length_a   10.33783742
_cell_length_b   10.33783671
_cell_length_c   9.15533700
_cell_angle_alpha   90.00000000
_cell_angle_beta   90.00000000
_cell_angle_gamma   128.50280594
_symmetry_Int_Tables_number   1
_chemical_formula_structural   TaFeBr8
_chemical_formula_sum   'Ta2 Fe2 Br16'
_cell_volume   765.70441693
_cell_formula_units_Z   2
loop_
 _symmetry_equiv_pos_site_id
 _symmetry_equiv_pos_as_xyz
  1  'x, y, z'
loop_
 _atom_site_type_symbol
 _atom_site_label
 _atom_site_symmetry_multiplicity
 _atom_site_fract_x
 _atom_site_fract_y
 _atom_site_fract_z
 _atom_site_occupancy
  Ta  Ta0  1  0.613145  0.386855  0.250000  1
  Ta  Ta1  1  0.386855  0.613145  0.750000  1
  Fe  Fe2  1  0.813186  0.186814  0.250000  1
  Fe  Fe3  1  0.186814  0.813186  0.750000  1
  Br  Br4  1  0.524263  0.070910  0.250000  1
  Br  Br5  1  0.070910  0.524263  0.750000  1
  Br  Br6  1  0.475737  0.929090  0.750000  1
  Br  Br7  1  0.929090  0.475737  0.250000  1
  Br  Br8  1  0.631045  0.368955  0.981336  1
  Br  Br9  1  0.368955  0.631045  0.018664  1
  Br  Br10  1  0.631045  0.368955  0.518664  1
  Br  Br11  1  0.368955  0.631045  0.481336  1
  Br  Br12  1  0.322416  0.262336  0.250000  1
  Br  Br13  1  0.262336  0.322416  0.750000  1
  Br  Br14  1  0.677584  0.737664  0.750000  1
  Br  Br15  1  0.737664  0.677584  0.250000  1
  Br  Br16  1  0.880804  0.119196  0.459954  1
  Br  Br17  1  0.119196  0.880804  0.540046  1
  Br  Br18  1  0.880804  0.119196  0.040046  1
  Br  Br19  1  0.119196  0.880804  0.959954  1
