# generated using pymatgen
data_RbV6O12
_symmetry_space_group_name_H-M   'P 1'
_cell_length_a   9.17635895
_cell_length_b   10.44610646
_cell_length_c   8.46622275
_cell_angle_alpha   66.50646460
_cell_angle_beta   57.20739354
_cell_angle_gamma   42.93308547
_symmetry_Int_Tables_number   1
_chemical_formula_structural   RbV6O12
_chemical_formula_sum   'Rb2 V12 O24'
_cell_volume   464.68494256
_cell_formula_units_Z   2
loop_
 _symmetry_equiv_pos_site_id
 _symmetry_equiv_pos_as_xyz
  1  'x, y, z'
loop_
 _atom_site_type_symbol
 _atom_site_label
 _atom_site_symmetry_multiplicity
 _atom_site_fract_x
 _atom_site_fract_y
 _atom_site_fract_z
 _atom_site_occupancy
  Rb  Rb0  1  0.205533  0.999494  0.000793  1
  Rb  Rb1  1  0.797751  0.000242  0.001482  1
  V  V2  1  0.997015  0.495715  0.183262  1
  V  V3  1  0.262423  0.181334  0.505754  1
  V  V4  1  0.327469  0.498512  0.183463  1
  V  V5  1  0.065138  0.821663  0.498845  1
  V  V6  1  0.595862  0.184343  0.503795  1
  V  V7  1  0.334053  0.505495  0.819094  1
  V  V8  1  0.663009  0.494857  0.183425  1
  V  V9  1  0.409847  0.814645  0.490888  1
  V  V10  1  0.933282  0.182313  0.506130  1
  V  V11  1  0.673458  0.504036  0.817072  1
  V  V12  1  0.741536  0.819398  0.493748  1
  V  V13  1  0.006429  0.506038  0.821161  1
  O  O14  1  0.005761  0.365688  0.042691  1
  O  O15  1  0.147071  0.041982  0.639796  1
  O  O16  1  0.068514  0.293453  0.376595  1
  O  O17  1  0.991456  0.636256  0.297843  1
  O  O18  1  0.345676  0.367323  0.042344  1
  O  O19  1  0.480510  0.041445  0.634547  1
  O  O20  1  0.394015  0.302390  0.364852  1
  O  O21  1  0.335782  0.376537  0.704575  1
  O  O22  1  0.328490  0.630647  0.299371  1
  O  O23  1  0.676053  0.362275  0.046084  1
  O  O24  1  0.269717  0.701998  0.631445  1
  O  O25  1  0.188965  0.955435  0.365985  1
  O  O26  1  0.817459  0.041255  0.636960  1
  O  O27  1  0.742656  0.300566  0.364646  1
  O  O28  1  0.328073  0.639442  0.954960  1
  O  O29  1  0.679648  0.365193  0.703453  1
  O  O30  1  0.648917  0.635315  0.301304  1
  O  O31  1  0.604564  0.697299  0.630599  1
  O  O32  1  0.522434  0.954620  0.364628  1
  O  O33  1  0.659658  0.635142  0.953764  1
  O  O34  1  0.011364  0.365391  0.702960  1
  O  O35  1  0.936853  0.698845  0.628238  1
  O  O36  1  0.869105  0.944021  0.360666  1
  O  O37  1  0.997457  0.639397  0.942781  1
