# generated using pymatgen
data_Pr8Er8Sc3Si16Tc
_symmetry_space_group_name_H-M   'P 1'
_cell_length_a   7.30281465
_cell_length_b   7.70875451
_cell_length_c   14.55800500
_cell_angle_alpha   90.00000000
_cell_angle_beta   90.00000000
_cell_angle_gamma   89.99733827
_symmetry_Int_Tables_number   1
_chemical_formula_structural   Pr8Er8Sc3Si16Tc
_chemical_formula_sum   'Pr8 Er8 Sc3 Si16 Tc1'
_cell_volume   819.55170383
_cell_formula_units_Z   1
loop_
 _symmetry_equiv_pos_site_id
 _symmetry_equiv_pos_as_xyz
  1  'x, y, z'
loop_
 _atom_site_type_symbol
 _atom_site_label
 _atom_site_symmetry_multiplicity
 _atom_site_fract_x
 _atom_site_fract_y
 _atom_site_fract_z
 _atom_site_occupancy
  Pr  Pr0  1  0.017327  0.178702  0.402094  1
  Pr  Pr1  1  0.517225  0.321651  0.403962  1
  Pr  Pr2  1  0.488200  0.683012  0.897327  1
  Pr  Pr3  1  0.488200  0.683012  0.602673  1
  Pr  Pr4  1  0.979608  0.825958  0.601562  1
  Pr  Pr5  1  0.979608  0.825958  0.898438  1
  Pr  Pr6  1  0.517225  0.321651  0.096038  1
  Pr  Pr7  1  0.017327  0.178702  0.097906  1
  Er  Er8  1  0.322376  0.170580  0.627474  1
  Er  Er9  1  0.677325  0.824274  0.377298  1
  Er  Er10  1  0.178065  0.676885  0.375705  1
  Er  Er11  1  0.821955  0.318457  0.873187  1
  Er  Er12  1  0.821955  0.318457  0.626813  1
  Er  Er13  1  0.322376  0.170580  0.872526  1
  Er  Er14  1  0.178065  0.676885  0.124295  1
  Er  Er15  1  0.677325  0.824274  0.122702  1
  Sc  Sc16  1  0.845538  0.491816  0.250000  1
  Sc  Sc17  1  0.346269  0.008670  0.250000  1
  Sc  Sc18  1  0.156840  0.509967  0.750000  1
  Si  Si19  1  0.289087  0.874811  0.750000  1
  Si  Si20  1  0.479651  0.610399  0.250000  1
  Si  Si21  1  0.012334  0.100301  0.750000  1
  Si  Si22  1  0.523579  0.382107  0.750000  1
  Si  Si23  1  0.150082  0.468600  0.541399  1
  Si  Si24  1  0.976119  0.887755  0.250000  1
  Si  Si25  1  0.716994  0.126006  0.250000  1
  Si  Si26  1  0.853381  0.533193  0.037287  1
  Si  Si27  1  0.350164  0.966545  0.037821  1
  Si  Si28  1  0.150082  0.468600  0.958601  1
  Si  Si29  1  0.647550  0.031338  0.546937  1
  Si  Si30  1  0.350164  0.966545  0.462179  1
  Si  Si31  1  0.853381  0.533193  0.462713  1
  Si  Si32  1  0.784558  0.623780  0.750000  1
  Si  Si33  1  0.220107  0.374025  0.250000  1
  Si  Si34  1  0.647550  0.031338  0.953063  1
  Tc  Tc35  1  0.642408  0.011974  0.750000  1
