# generated using pymatgen
data_Ba2Al16Pt8Rh
_symmetry_space_group_name_H-M   'P 1'
_cell_length_a   11.36588229
_cell_length_b   11.36588220
_cell_length_c   11.36588200
_cell_angle_alpha   158.62637968
_cell_angle_beta   116.47493754
_cell_angle_gamma   67.85016848
_symmetry_Int_Tables_number   1
_chemical_formula_structural   Ba2Al16Pt8Rh
_chemical_formula_sum   'Ba2 Al16 Pt8 Rh1'
_cell_volume   475.71439936
_cell_formula_units_Z   1
loop_
 _symmetry_equiv_pos_site_id
 _symmetry_equiv_pos_as_xyz
  1  'x, y, z'
loop_
 _atom_site_type_symbol
 _atom_site_label
 _atom_site_symmetry_multiplicity
 _atom_site_fract_x
 _atom_site_fract_y
 _atom_site_fract_z
 _atom_site_occupancy
  Ba  Ba0  1  0.230933  0.230559  0.000390  1
  Ba  Ba1  1  0.769829  0.769432  0.000364  1
  Al  Al2  1  0.281227  0.395819  0.885420  1
  Al  Al3  1  0.091172  0.924949  0.166192  1
  Al  Al4  1  0.500524  0.200347  0.300151  1
  Al  Al5  1  0.241241  0.075035  0.166206  1
  Al  Al6  1  0.912048  0.417704  0.494316  1
  Al  Al7  1  0.722119  0.599408  0.122706  1
  Al  Al8  1  0.907771  0.208033  0.699709  1
  Al  Al9  1  0.491676  0.791956  0.699727  1
  Al  Al10  1  0.385863  0.999993  0.385857  1
  Al  Al11  1  0.624660  0.000008  0.624666  1
  Al  Al12  1  0.489598  0.604180  0.885404  1
  Al  Al13  1  0.099804  0.799637  0.300163  1
  Al  Al14  1  0.902923  0.081896  0.821046  1
  Al  Al15  1  0.739151  0.918121  0.821043  1
  Al  Al16  1  0.523302  0.400600  0.122719  1
  Al  Al17  1  0.076610  0.582286  0.494332  1
  Pt  Pt18  1  0.036903  0.345586  0.691341  1
  Pt  Pt19  1  0.620766  0.117184  0.503620  1
  Pt  Pt20  1  0.254085  0.500011  0.754093  1
  Pt  Pt21  1  0.386429  0.882821  0.503580  1
  Pt  Pt22  1  0.987126  0.000003  0.987132  1
  Pt  Pt23  1  0.643540  0.338565  0.304994  1
  Pt  Pt24  1  0.345748  0.654430  0.691327  1
  Pt  Pt25  1  0.966429  0.661433  0.304974  1
  Rh  Rh26  1  0.768525  0.500006  0.268529  1
