# generated using pymatgen
data_NaLiDy4NbP12Ir17
_symmetry_space_group_name_H-M   'P 1'
_cell_length_a   12.65644500
_cell_length_b   12.73435978
_cell_length_c   3.96676900
_cell_angle_alpha   90.00000000
_cell_angle_beta   90.00000000
_cell_angle_gamma   119.77861329
_symmetry_Int_Tables_number   1
_chemical_formula_structural   NaLiDy4NbP12Ir17
_chemical_formula_sum   'Na1 Li1 Dy4 Nb1 P12 Ir17'
_cell_volume   554.90791446
_cell_formula_units_Z   1
loop_
 _symmetry_equiv_pos_site_id
 _symmetry_equiv_pos_as_xyz
  1  'x, y, z'
loop_
 _atom_site_type_symbol
 _atom_site_label
 _atom_site_symmetry_multiplicity
 _atom_site_fract_x
 _atom_site_fract_y
 _atom_site_fract_z
 _atom_site_occupancy
  Na  Na0  1  0.001238  0.813919  0.000000  1
  Li  Li1  1  0.555869  0.558290  0.500000  1
  Dy  Dy2  1  0.332045  0.662426  0.500000  1
  Dy  Dy3  1  0.670079  0.337253  0.500000  1
  Dy  Dy4  1  0.188200  0.188546  0.000000  1
  Dy  Dy5  1  0.814126  0.002681  0.000000  1
  Nb  Nb6  1  0.998584  0.446727  0.500000  1
  P  P7  1  0.999068  0.638333  0.500000  1
  P  P8  1  0.368425  0.366160  0.500000  1
  P  P9  1  0.639834  0.998233  0.500000  1
  P  P10  1  0.515051  0.685285  0.000000  1
  P  P11  1  0.307043  0.824303  0.000000  1
  P  P12  1  0.165523  0.478434  0.000000  1
  P  P13  1  0.483481  0.176538  0.000000  1
  P  P14  1  0.687414  0.521275  0.000000  1
  P  P15  1  0.831852  0.316491  0.000000  1
  P  P16  1  0.998965  0.173584  0.500000  1
  P  P17  1  0.819615  0.821135  0.500000  1
  P  P18  1  0.178857  0.997605  0.500000  1
  Ir  Ir19  1  0.504341  0.868037  0.000000  1
  Ir  Ir20  1  0.130248  0.637659  0.000000  1
  Ir  Ir21  1  0.355627  0.490935  0.000000  1
  Ir  Ir22  1  0.490394  0.362731  0.000000  1
  Ir  Ir23  1  0.867222  0.510310  0.000000  1
  Ir  Ir24  1  0.640000  0.137561  0.000000  1
  Ir  Ir25  1  0.461831  0.003381  0.500000  1
  Ir  Ir26  1  0.996052  0.276946  0.000000  1
  Ir  Ir27  1  0.718758  0.722487  0.000000  1
  Ir  Ir28  1  0.288502  0.000510  0.000000  1
  Ir  Ir29  1  0.621116  0.806123  0.500000  1
  Ir  Ir30  1  0.198535  0.819337  0.500000  1
  Ir  Ir31  1  0.178074  0.367093  0.500000  1
  Ir  Ir32  1  0.376842  0.176995  0.500000  1
  Ir  Ir33  1  0.802335  0.624805  0.500000  1
  Ir  Ir34  1  0.815579  0.190769  0.500000  1
  Ir  Ir35  1  0.999275  0.997106  0.500000  1
