# generated using pymatgen
data_Hf9Ta3NiW
_symmetry_space_group_name_H-M   'P 1'
_cell_length_a   8.83988000
_cell_length_b   8.83988167
_cell_length_c   8.45983700
_cell_angle_alpha   90.00000000
_cell_angle_beta   90.00000000
_cell_angle_gamma   120.00000123
_symmetry_Int_Tables_number   1
_chemical_formula_structural   Hf9Ta3NiW
_chemical_formula_sum   'Hf18 Ta6 Ni2 W2'
_cell_volume   572.51311913
_cell_formula_units_Z   2
loop_
 _symmetry_equiv_pos_site_id
 _symmetry_equiv_pos_as_xyz
  1  'x, y, z'
loop_
 _atom_site_type_symbol
 _atom_site_label
 _atom_site_symmetry_multiplicity
 _atom_site_fract_x
 _atom_site_fract_y
 _atom_site_fract_z
 _atom_site_occupancy
  Hf  Hf0  1  0.200729  0.799271  0.439931  1
  Hf  Hf1  1  0.200729  0.401459  0.439931  1
  Hf  Hf2  1  0.598541  0.799271  0.439931  1
  Hf  Hf3  1  0.799271  0.200729  0.560069  1
  Hf  Hf4  1  0.799271  0.598541  0.560069  1
  Hf  Hf5  1  0.401459  0.200729  0.560069  1
  Hf  Hf6  1  0.799271  0.200729  0.939931  1
  Hf  Hf7  1  0.799271  0.598541  0.939931  1
  Hf  Hf8  1  0.401459  0.200729  0.939931  1
  Hf  Hf9  1  0.200729  0.799271  0.060069  1
  Hf  Hf10  1  0.200729  0.401459  0.060069  1
  Hf  Hf11  1  0.598541  0.799271  0.060069  1
  Hf  Hf12  1  0.541999  0.458001  0.250000  1
  Hf  Hf13  1  0.541999  0.083997  0.250000  1
  Hf  Hf14  1  0.916003  0.458001  0.250000  1
  Hf  Hf15  1  0.458001  0.541999  0.750000  1
  Hf  Hf16  1  0.458001  0.916003  0.750000  1
  Hf  Hf17  1  0.083997  0.541999  0.750000  1
  Ta  Ta18  1  0.886467  0.113533  0.250000  1
  Ta  Ta19  1  0.886467  0.772935  0.250000  1
  Ta  Ta20  1  0.227065  0.113533  0.250000  1
  Ta  Ta21  1  0.113533  0.886467  0.750000  1
  Ta  Ta22  1  0.113533  0.227065  0.750000  1
  Ta  Ta23  1  0.772935  0.886467  0.750000  1
  Ni  Ni24  1  0.333333  0.666667  0.250000  1
  Ni  Ni25  1  0.666667  0.333333  0.750000  1
  W  W26  1  0.000000  0.000000  0.500000  1
  W  W27  1  0.000000  0.000000  0.000000  1
