# generated using pymatgen
data_Ba4GaSi6AsPt8
_symmetry_space_group_name_H-M   'P 1'
_cell_length_a   7.01372130
_cell_length_b   7.92667875
_cell_length_c   8.17410185
_cell_angle_alpha   93.16000828
_cell_angle_beta   88.72640922
_cell_angle_gamma   89.29721478
_symmetry_Int_Tables_number   1
_chemical_formula_structural   Ba4GaSi6AsPt8
_chemical_formula_sum   'Ba4 Ga1 Si6 As1 Pt8'
_cell_volume   453.59889323
_cell_formula_units_Z   1
loop_
 _symmetry_equiv_pos_site_id
 _symmetry_equiv_pos_as_xyz
  1  'x, y, z'
loop_
 _atom_site_type_symbol
 _atom_site_label
 _atom_site_symmetry_multiplicity
 _atom_site_fract_x
 _atom_site_fract_y
 _atom_site_fract_z
 _atom_site_occupancy
  Ba  Ba0  1  0.873614  0.503189  0.749146  1
  Ba  Ba1  1  0.369539  0.004382  0.245189  1
  Ba  Ba2  1  0.634355  0.997241  0.748326  1
  Ba  Ba3  1  0.133724  0.503158  0.253852  1
  Ga  Ga4  1  0.410343  0.358366  0.922271  1
  Si  Si5  1  0.091218  0.865489  0.928857  1
  Si  Si6  1  0.596682  0.359583  0.427891  1
  Si  Si7  1  0.092801  0.140954  0.570776  1
  Si  Si8  1  0.592122  0.639636  0.072293  1
  Si  Si9  1  0.905215  0.139219  0.073842  1
  Si  Si10  1  0.405333  0.629553  0.584204  1
  As  As11  1  0.901346  0.851812  0.430592  1
  Pt  Pt12  1  0.854353  0.163913  0.371244  1
  Pt  Pt13  1  0.154989  0.838663  0.633363  1
  Pt  Pt14  1  0.139090  0.155290  0.864613  1
  Pt  Pt15  1  0.347041  0.330237  0.617178  1
  Pt  Pt16  1  0.358186  0.681377  0.878356  1
  Pt  Pt17  1  0.845137  0.837244  0.125017  1
  Pt  Pt18  1  0.660451  0.346735  0.133601  1
  Pt  Pt19  1  0.634460  0.653959  0.369389  1
