# generated using pymatgen
data_Re3SiNi2
_symmetry_space_group_name_H-M   'P 1'
_cell_length_a   7.56247794
_cell_length_b   7.56247755
_cell_length_c   7.56247900
_cell_angle_alpha   59.99999802
_cell_angle_beta   59.99999976
_cell_angle_gamma   60.00000062
_symmetry_Int_Tables_number   1
_chemical_formula_structural   Re3SiNi2
_chemical_formula_sum   'Re12 Si4 Ni8'
_cell_volume   305.82810793
_cell_formula_units_Z   4
loop_
 _symmetry_equiv_pos_site_id
 _symmetry_equiv_pos_as_xyz
  1  'x, y, z'
loop_
 _atom_site_type_symbol
 _atom_site_label
 _atom_site_symmetry_multiplicity
 _atom_site_fract_x
 _atom_site_fract_y
 _atom_site_fract_z
 _atom_site_occupancy
  Re  Re0  1  0.931764  0.931764  0.568236  1
  Re  Re1  1  0.681764  0.318236  0.318236  1
  Re  Re2  1  0.318236  0.681764  0.681764  1
  Re  Re3  1  0.681764  0.681764  0.318236  1
  Re  Re4  1  0.681764  0.318236  0.681764  1
  Re  Re5  1  0.318236  0.681764  0.318236  1
  Re  Re6  1  0.568236  0.931764  0.568236  1
  Re  Re7  1  0.568236  0.931764  0.931764  1
  Re  Re8  1  0.931764  0.568236  0.568236  1
  Re  Re9  1  0.931764  0.568236  0.931764  1
  Re  Re10  1  0.318236  0.318236  0.681764  1
  Re  Re11  1  0.568236  0.568236  0.931764  1
  Si  Si12  1  0.125000  0.625000  0.125000  1
  Si  Si13  1  0.125000  0.125000  0.625000  1
  Si  Si14  1  0.625000  0.125000  0.125000  1
  Si  Si15  1  0.125000  0.125000  0.125000  1
  Ni  Ni16  1  0.918461  0.244618  0.918461  1
  Ni  Ni17  1  0.331539  0.331539  0.005382  1
  Ni  Ni18  1  0.005382  0.331539  0.331539  1
  Ni  Ni19  1  0.331539  0.331539  0.331539  1
  Ni  Ni20  1  0.244618  0.918461  0.918461  1
  Ni  Ni21  1  0.918461  0.918461  0.918461  1
  Ni  Ni22  1  0.918461  0.918461  0.244618  1
  Ni  Ni23  1  0.331539  0.005382  0.331539  1
