# generated using pymatgen
data_PrSmNp8O20
_symmetry_space_group_name_H-M   'P 1'
_cell_length_a   6.62192363
_cell_length_b   7.67994460
_cell_length_c   8.58239407
_cell_angle_alpha   102.92944019
_cell_angle_beta   97.56094827
_cell_angle_gamma   106.84808265
_symmetry_Int_Tables_number   1
_chemical_formula_structural   PrSmNp8O20
_chemical_formula_sum   'Pr1 Sm1 Np8 O20'
_cell_volume   398.01116278
_cell_formula_units_Z   1
loop_
 _symmetry_equiv_pos_site_id
 _symmetry_equiv_pos_as_xyz
  1  'x, y, z'
loop_
 _atom_site_type_symbol
 _atom_site_label
 _atom_site_symmetry_multiplicity
 _atom_site_fract_x
 _atom_site_fract_y
 _atom_site_fract_z
 _atom_site_occupancy
  Pr  Pr0  1  0.000000  0.500000  0.000000  1
  Sm  Sm1  1  0.000000  0.000000  0.000000  1
  Np  Np2  1  0.798816  0.599770  0.599060  1
  Np  Np3  1  0.601688  0.200046  0.200085  1
  Np  Np4  1  0.798839  0.099213  0.599196  1
  Np  Np5  1  0.398312  0.799954  0.799915  1
  Np  Np6  1  0.201184  0.400230  0.400940  1
  Np  Np7  1  0.602887  0.701417  0.200363  1
  Np  Np8  1  0.397113  0.298583  0.799637  1
  Np  Np9  1  0.201161  0.900787  0.400804  1
  O  O10  1  0.851597  0.326699  0.454863  1
  O  O11  1  0.637360  0.922722  0.052485  1
  O  O12  1  0.947292  0.781300  0.164255  1
  O  O13  1  0.442886  0.522492  0.646152  1
  O  O14  1  0.851648  0.826452  0.454787  1
  O  O15  1  0.633947  0.421553  0.053690  1
  O  O16  1  0.731439  0.367772  0.739561  1
  O  O17  1  0.266489  0.130958  0.257516  1
  O  O18  1  0.946702  0.274363  0.164369  1
  O  O19  1  0.443276  0.022310  0.646488  1
  O  O20  1  0.556724  0.977690  0.353512  1
  O  O21  1  0.053298  0.725637  0.835631  1
  O  O22  1  0.733511  0.869042  0.742484  1
  O  O23  1  0.366053  0.578447  0.946310  1
  O  O24  1  0.268561  0.632228  0.260439  1
  O  O25  1  0.557114  0.477508  0.353848  1
  O  O26  1  0.148352  0.173548  0.545213  1
  O  O27  1  0.052708  0.218700  0.835745  1
  O  O28  1  0.362640  0.077278  0.947515  1
  O  O29  1  0.148403  0.673301  0.545137  1
