# generated using pymatgen
data_Er12Th4CdCo4Hg3
_symmetry_space_group_name_H-M   'P 1'
_cell_length_a   9.51621599
_cell_length_b   9.51048485
_cell_length_c   9.51048500
_cell_angle_alpha   60.00000295
_cell_angle_beta   60.01992323
_cell_angle_gamma   60.01992716
_symmetry_Int_Tables_number   1
_chemical_formula_structural   Er12Th4CdCo4Hg3
_chemical_formula_sum   'Er12 Th4 Cd1 Co4 Hg3'
_cell_volume   608.81501703
_cell_formula_units_Z   1
loop_
 _symmetry_equiv_pos_site_id
 _symmetry_equiv_pos_as_xyz
  1  'x, y, z'
loop_
 _atom_site_type_symbol
 _atom_site_label
 _atom_site_symmetry_multiplicity
 _atom_site_fract_x
 _atom_site_fract_y
 _atom_site_fract_z
 _atom_site_occupancy
  Er  Er0  1  0.060906  0.437889  0.437889  1
  Er  Er1  1  0.434560  0.064059  0.064059  1
  Er  Er2  1  0.434560  0.064059  0.437320  1
  Er  Er3  1  0.060906  0.437889  0.063316  1
  Er  Er4  1  0.434560  0.437320  0.064059  1
  Er  Er5  1  0.060906  0.063316  0.437889  1
  Er  Er6  1  0.184811  0.815361  0.815361  1
  Er  Er7  1  0.812563  0.186026  0.186026  1
  Er  Er8  1  0.812563  0.186026  0.815385  1
  Er  Er9  1  0.184811  0.815361  0.184467  1
  Er  Er10  1  0.812563  0.815385  0.186026  1
  Er  Er11  1  0.184811  0.184467  0.815361  1
  Th  Th12  1  0.596896  0.596852  0.596852  1
  Th  Th13  1  0.596896  0.596852  0.209403  1
  Th  Th14  1  0.596896  0.209403  0.596852  1
  Th  Th15  1  0.208381  0.597207  0.597207  1
  Cd  Cd16  1  0.507982  0.830673  0.830673  1
  Co  Co17  1  0.394246  0.393525  0.393525  1
  Co  Co18  1  0.394246  0.393525  0.818705  1
  Co  Co19  1  0.394246  0.818705  0.393525  1
  Co  Co20  1  0.817188  0.394271  0.394271  1
  Hg  Hg21  1  0.838169  0.836876  0.836876  1
  Hg  Hg22  1  0.838169  0.836876  0.488080  1
  Hg  Hg23  1  0.838169  0.488080  0.836876  1
