# generated using pymatgen
data_BaLuSi4N7
_symmetry_space_group_name_H-M   'P 1'
_cell_length_a   6.05281800
_cell_length_b   6.05281700
_cell_length_c   9.86219700
_cell_angle_alpha   90.00000000
_cell_angle_beta   90.00000000
_cell_angle_gamma   120.00000545
_symmetry_Int_Tables_number   1
_chemical_formula_structural   BaLuSi4N7
_chemical_formula_sum   'Ba2 Lu2 Si8 N14'
_cell_volume   312.90999855
_cell_formula_units_Z   2
loop_
 _symmetry_equiv_pos_site_id
 _symmetry_equiv_pos_as_xyz
  1  'x, y, z'
loop_
 _atom_site_type_symbol
 _atom_site_label
 _atom_site_symmetry_multiplicity
 _atom_site_fract_x
 _atom_site_fract_y
 _atom_site_fract_z
 _atom_site_occupancy
  Ba  Ba0  1  0.333333  0.666667  0.362929  1
  Ba  Ba1  1  0.666667  0.333333  0.862929  1
  Lu  Lu2  1  0.333333  0.666667  0.736544  1
  Lu  Lu3  1  0.666667  0.333333  0.236544  1
  Si  Si4  1  0.825721  0.651443  0.546362  1
  Si  Si5  1  0.174279  0.825721  0.046362  1
  Si  Si6  1  0.651443  0.825721  0.046362  1
  Si  Si7  1  0.348557  0.174279  0.546362  1
  Si  Si8  1  0.825721  0.174279  0.546362  1
  Si  Si9  1  0.174279  0.348557  0.046362  1
  Si  Si10  1  0.000000  0.000000  0.813888  1
  Si  Si11  1  0.000000  0.000000  0.313888  1
  N  N12  1  0.000000  0.000000  0.622088  1
  N  N13  1  0.000000  0.000000  0.122088  1
  N  N14  1  0.154518  0.309038  0.872251  1
  N  N15  1  0.845482  0.154518  0.372251  1
  N  N16  1  0.309038  0.154518  0.372251  1
  N  N17  1  0.690962  0.845482  0.872251  1
  N  N18  1  0.154518  0.845482  0.872251  1
  N  N19  1  0.845482  0.690962  0.372251  1
  N  N20  1  0.978698  0.489350  0.600870  1
  N  N21  1  0.489350  0.978698  0.100870  1
  N  N22  1  0.489350  0.510650  0.100870  1
  N  N23  1  0.510650  0.489350  0.600870  1
  N  N24  1  0.021302  0.510650  0.100870  1
  N  N25  1  0.510650  0.021302  0.600870  1
