# generated using pymatgen
data_RbW2Br11
_symmetry_space_group_name_H-M   'P 1'
_cell_length_a   7.51227369
_cell_length_b   7.60137048
_cell_length_c   18.63655047
_cell_angle_alpha   79.57781388
_cell_angle_beta   79.33623186
_cell_angle_gamma   88.17888504
_symmetry_Int_Tables_number   1
_chemical_formula_structural   RbW2Br11
_chemical_formula_sum   'Rb2 W4 Br22'
_cell_volume   1028.57841412
_cell_formula_units_Z   2
loop_
 _symmetry_equiv_pos_site_id
 _symmetry_equiv_pos_as_xyz
  1  'x, y, z'
loop_
 _atom_site_type_symbol
 _atom_site_label
 _atom_site_symmetry_multiplicity
 _atom_site_fract_x
 _atom_site_fract_y
 _atom_site_fract_z
 _atom_site_occupancy
  Rb  Rb0  1  0.748657  0.748055  0.503171  1
  Rb  Rb1  1  0.251343  0.251945  0.496829  1
  W  W2  1  0.323825  0.820049  0.343106  1
  W  W3  1  0.676175  0.179951  0.656894  1
  W  W4  1  0.838197  0.334850  0.084612  1
  W  W5  1  0.161803  0.665150  0.915388  1
  Br  Br6  1  0.254919  0.770063  0.488823  1
  Br  Br7  1  0.745081  0.229937  0.511177  1
  Br  Br8  1  0.570820  0.030199  0.346226  1
  Br  Br9  1  0.429180  0.969801  0.653774  1
  Br  Br10  1  0.542864  0.562175  0.353807  1
  Br  Br11  1  0.457136  0.437825  0.646193  1
  Br  Br12  1  0.386345  0.863081  0.208355  1
  Br  Br13  1  0.613655  0.136919  0.791645  1
  Br  Br14  1  0.069708  0.601028  0.354068  1
  Br  Br15  1  0.930292  0.398972  0.645932  1
  Br  Br16  1  0.099165  0.071555  0.343521  1
  Br  Br17  1  0.900835  0.928445  0.656479  1
  Br  Br18  1  0.887205  0.036793  0.150302  1
  Br  Br19  1  0.112795  0.963207  0.849698  1
  Br  Br20  1  0.534038  0.372212  0.151393  1
  Br  Br21  1  0.465962  0.627788  0.848607  1
  Br  Br22  1  0.729728  0.224888  0.984317  1
  Br  Br23  1  0.270272  0.775112  0.015683  1
  Br  Br24  1  0.978651  0.482270  0.166727  1
  Br  Br25  1  0.021349  0.517730  0.833273  1
  Br  Br26  1  0.169624  0.338054  0.999623  1
  Br  Br27  1  0.830376  0.661946  0.000377  1
