# generated using pymatgen
data_HoLu11IrOs3
_symmetry_space_group_name_H-M   'P 1'
_cell_length_a   6.19490320
_cell_length_b   7.30275338
_cell_length_c   8.81342700
_cell_angle_alpha   90.00000000
_cell_angle_beta   90.00000000
_cell_angle_gamma   90.07233546
_symmetry_Int_Tables_number   1
_chemical_formula_structural   HoLu11IrOs3
_chemical_formula_sum   'Ho1 Lu11 Ir1 Os3'
_cell_volume   398.71779982
_cell_formula_units_Z   1
loop_
 _symmetry_equiv_pos_site_id
 _symmetry_equiv_pos_as_xyz
  1  'x, y, z'
loop_
 _atom_site_type_symbol
 _atom_site_label
 _atom_site_symmetry_multiplicity
 _atom_site_fract_x
 _atom_site_fract_y
 _atom_site_fract_z
 _atom_site_occupancy
  Ho  Ho0  1  0.374246  0.961351  0.750000  1
  Lu  Lu1  1  0.333553  0.673105  0.062451  1
  Lu  Lu2  1  0.166948  0.176645  0.435423  1
  Lu  Lu3  1  0.665744  0.327201  0.560826  1
  Lu  Lu4  1  0.835208  0.823448  0.939477  1
  Lu  Lu5  1  0.665744  0.327201  0.939174  1
  Lu  Lu6  1  0.835208  0.823448  0.560523  1
  Lu  Lu7  1  0.333553  0.673105  0.437549  1
  Lu  Lu8  1  0.166948  0.176645  0.064577  1
  Lu  Lu9  1  0.873676  0.539109  0.250000  1
  Lu  Lu10  1  0.625951  0.037795  0.250000  1
  Lu  Lu11  1  0.125920  0.462242  0.750000  1
  Ir  Ir12  1  0.957098  0.118277  0.750000  1
  Os  Os13  1  0.037239  0.882966  0.250000  1
  Os  Os14  1  0.463257  0.381600  0.250000  1
  Os  Os15  1  0.539705  0.615863  0.750000  1
