# generated using pymatgen
data_Tm6Ta4Mn(Al2Ir)6
_symmetry_space_group_name_H-M   'P 1'
_cell_length_a   8.94023663
_cell_length_b   8.94006797
_cell_length_c   8.94011300
_cell_angle_alpha   59.99957334
_cell_angle_beta   60.00007646
_cell_angle_gamma   59.99998205
_symmetry_Int_Tables_number   1
_chemical_formula_structural   Tm6Ta4Mn(Al2Ir)6
_chemical_formula_sum   'Tm6 Ta4 Mn1 Al12 Ir6'
_cell_volume   505.26199964
_cell_formula_units_Z   1
loop_
 _symmetry_equiv_pos_site_id
 _symmetry_equiv_pos_as_xyz
  1  'x, y, z'
loop_
 _atom_site_type_symbol
 _atom_site_label
 _atom_site_symmetry_multiplicity
 _atom_site_fract_x
 _atom_site_fract_y
 _atom_site_fract_z
 _atom_site_occupancy
  Tm  Tm0  1  0.699926  0.699933  0.300073  1
  Tm  Tm1  1  0.300060  0.699934  0.300070  1
  Tm  Tm2  1  0.699923  0.300074  0.300072  1
  Tm  Tm3  1  0.300058  0.300071  0.699935  1
  Tm  Tm4  1  0.699925  0.300074  0.699933  1
  Tm  Tm5  1  0.300060  0.699936  0.699937  1
  Ta  Ta6  1  0.882564  0.882572  0.352300  1
  Ta  Ta7  1  0.882566  0.352296  0.882568  1
  Ta  Ta8  1  0.352333  0.882564  0.882553  1
  Ta  Ta9  1  0.882558  0.882570  0.882560  1
  Mn  Mn10  1  0.000106  0.999952  0.999961  1
  Al  Al11  1  0.117399  0.117411  0.647788  1
  Al  Al12  1  0.117403  0.647785  0.117409  1
  Al  Al13  1  0.647799  0.117404  0.117401  1
  Al  Al14  1  0.117396  0.117408  0.117406  1
  Al  Al15  1  0.666778  0.666777  0.999660  1
  Al  Al16  1  0.666776  0.999662  0.666779  1
  Al  Al17  1  0.999646  0.666780  0.666785  1
  Al  Al18  1  0.666781  0.666780  0.666785  1
  Al  Al19  1  0.328555  0.328571  0.014311  1
  Al  Al20  1  0.328554  0.014313  0.328569  1
  Al  Al21  1  0.014300  0.328569  0.328568  1
  Al  Al22  1  0.328554  0.328571  0.328569  1
  Ir  Ir23  1  0.998342  0.998357  0.501644  1
  Ir  Ir24  1  0.501650  0.998361  0.501635  1
  Ir  Ir25  1  0.998348  0.501645  0.501654  1
  Ir  Ir26  1  0.501654  0.501629  0.998361  1
  Ir  Ir27  1  0.998343  0.501642  0.998356  1
  Ir  Ir28  1  0.501643  0.998358  0.998357  1
