# generated using pymatgen
data_Pr4Y(IrO6)2
_symmetry_space_group_name_H-M   'P 1'
_cell_length_a   7.10095791
_cell_length_b   7.10095791
_cell_length_c   7.52049683
_cell_angle_alpha   74.44861638
_cell_angle_beta   74.44862691
_cell_angle_gamma   51.66129341
_symmetry_Int_Tables_number   1
_chemical_formula_structural   Pr4Y(IrO6)2
_chemical_formula_sum   'Pr4 Y1 Ir2 O12'
_cell_volume   283.93556778
_cell_formula_units_Z   1
loop_
 _symmetry_equiv_pos_site_id
 _symmetry_equiv_pos_as_xyz
  1  'x, y, z'
loop_
 _atom_site_type_symbol
 _atom_site_label
 _atom_site_symmetry_multiplicity
 _atom_site_fract_x
 _atom_site_fract_y
 _atom_site_fract_z
 _atom_site_occupancy
  Pr  Pr0  1  0.697648  0.697648  0.638023  1
  Pr  Pr1  1  0.695508  0.695508  0.165097  1
  Pr  Pr2  1  0.304795  0.304795  0.833157  1
  Pr  Pr3  1  0.001533  0.001533  0.497523  1
  Y  Y4  1  0.303130  0.303130  0.357611  1
  Ir  Ir5  1  0.751717  0.246397  0.002792  1
  Ir  Ir6  1  0.246397  0.751717  0.002792  1
  O  O7  1  0.101811  0.593492  0.565672  1
  O  O8  1  0.000108  0.000108  0.167919  1
  O  O9  1  0.397533  0.913715  0.422997  1
  O  O10  1  0.498354  0.498354  0.178989  1
  O  O11  1  0.106556  0.566616  0.089732  1
  O  O12  1  0.913715  0.397533  0.422997  1
  O  O13  1  0.997291  0.997291  0.835575  1
  O  O14  1  0.593492  0.101810  0.565672  1
  O  O15  1  0.498619  0.498619  0.828572  1
  O  O16  1  0.566616  0.106556  0.089732  1
  O  O17  1  0.428154  0.897021  0.917573  1
  O  O18  1  0.897021  0.428154  0.917573  1
