# generated using pymatgen
data_Tb8SiPd23Au
_symmetry_space_group_name_H-M   'P 1'
_cell_length_a   8.33832000
_cell_length_b   8.37507700
_cell_length_c   8.37919900
_cell_angle_alpha   90.00000000
_cell_angle_beta   90.00000000
_cell_angle_gamma   90.00000000
_symmetry_Int_Tables_number   1
_chemical_formula_structural   Tb8SiPd23Au
_chemical_formula_sum   'Tb8 Si1 Pd23 Au1'
_cell_volume   585.15358669
_cell_formula_units_Z   1
loop_
 _symmetry_equiv_pos_site_id
 _symmetry_equiv_pos_as_xyz
  1  'x, y, z'
loop_
 _atom_site_type_symbol
 _atom_site_label
 _atom_site_symmetry_multiplicity
 _atom_site_fract_x
 _atom_site_fract_y
 _atom_site_fract_z
 _atom_site_occupancy
  Tb  Tb0  1  0.253417  0.249958  0.258131  1
  Tb  Tb1  1  0.746448  0.746551  0.745607  1
  Tb  Tb2  1  0.746448  0.746551  0.254393  1
  Tb  Tb3  1  0.746448  0.253449  0.745607  1
  Tb  Tb4  1  0.253417  0.249958  0.741869  1
  Tb  Tb5  1  0.253417  0.750042  0.258131  1
  Tb  Tb6  1  0.253417  0.750042  0.741869  1
  Tb  Tb7  1  0.746448  0.253449  0.254393  1
  Si  Si8  1  0.000023  0.000000  0.000000  1
  Pd  Pd9  1  0.742863  0.500000  0.000000  1
  Pd  Pd10  1  0.999813  0.257045  0.500000  1
  Pd  Pd11  1  0.499695  0.256596  0.000000  1
  Pd  Pd12  1  0.999813  0.742955  0.500000  1
  Pd  Pd13  1  0.499695  0.743404  0.000000  1
  Pd  Pd14  1  0.500294  0.000000  0.257882  1
  Pd  Pd15  1  0.257043  0.000000  0.500000  1
  Pd  Pd16  1  0.500294  0.000000  0.742118  1
  Pd  Pd17  1  0.742820  0.000000  0.500000  1
  Pd  Pd18  1  0.000296  0.500000  0.258222  1
  Pd  Pd19  1  0.000296  0.500000  0.741778  1
  Pd  Pd20  1  0.252221  0.500000  0.500000  1
  Pd  Pd21  1  0.747758  0.500000  0.500000  1
  Pd  Pd22  1  0.500322  0.252310  0.500000  1
  Pd  Pd23  1  0.500322  0.747690  0.500000  1
  Pd  Pd24  1  0.499722  0.500000  0.253692  1
  Pd  Pd25  1  0.499722  0.500000  0.746308  1
  Pd  Pd26  1  0.280568  0.000000  0.000000  1
  Pd  Pd27  1  0.719184  0.000000  0.000000  1
  Pd  Pd28  1  0.000156  0.279185  0.000000  1
  Pd  Pd29  1  0.000156  0.720815  0.000000  1
  Pd  Pd30  1  0.999490  0.000000  0.279791  1
  Pd  Pd31  1  0.999490  0.000000  0.720209  1
  Au  Au32  1  0.258484  0.500000  0.000000  1
