# generated using pymatgen
data_Sm10SiBI15
_symmetry_space_group_name_H-M   'P 1'
_cell_length_a   9.86276620
_cell_length_b   10.55960960
_cell_length_c   11.62271677
_cell_angle_alpha   91.29308251
_cell_angle_beta   114.63106595
_cell_angle_gamma   110.53810077
_symmetry_Int_Tables_number   1
_chemical_formula_structural   Sm10SiBI15
_chemical_formula_sum   'Sm10 Si1 B1 I15'
_cell_volume   1009.93399547
_cell_formula_units_Z   1
loop_
 _symmetry_equiv_pos_site_id
 _symmetry_equiv_pos_as_xyz
  1  'x, y, z'
loop_
 _atom_site_type_symbol
 _atom_site_label
 _atom_site_symmetry_multiplicity
 _atom_site_fract_x
 _atom_site_fract_y
 _atom_site_fract_z
 _atom_site_occupancy
  Sm  Sm0  1  0.787991  0.396964  0.267733  1
  Sm  Sm1  1  0.198479  0.590381  0.721751  1
  Sm  Sm2  1  0.675654  0.746429  0.821107  1
  Sm  Sm3  1  0.335132  0.248951  0.172199  1
  Sm  Sm4  1  0.525718  0.700514  0.098048  1
  Sm  Sm5  1  0.477280  0.289444  0.913838  1
  Sm  Sm6  1  0.581484  0.044373  0.312053  1
  Sm  Sm7  1  0.414412  0.961606  0.673889  1
  Sm  Sm8  1  0.721552  0.081700  0.053422  1
  Sm  Sm9  1  0.280838  0.933866  0.956979  1
  Si  Si10  1  0.469397  0.827764  0.883319  1
  B  B11  1  0.533078  0.179329  0.122230  1
  I  I12  1  0.998018  0.001795  0.001853  1
  I  I13  1  0.638251  0.882290  0.581013  1
  I  I14  1  0.361832  0.118584  0.415132  1
  I  I15  1  0.882386  0.297191  0.529547  1
  I  I16  1  0.112886  0.699872  0.467202  1
  I  I17  1  0.286572  0.761058  0.178689  1
  I  I18  1  0.713728  0.240741  0.822459  1
  I  I19  1  0.060332  0.345078  0.228587  1
  I  I20  1  0.161751  0.057637  0.702816  1
  I  I21  1  0.838096  0.944048  0.298431  1
  I  I22  1  0.229155  0.408141  0.941776  1
  I  I23  1  0.770010  0.588465  0.056781  1
  I  I24  1  0.408754  0.457763  0.660459  1
  I  I25  1  0.592561  0.536644  0.343956  1
  I  I26  1  0.944653  0.659370  0.774730  1
