# generated using pymatgen
data_Li3Dy8Sc8Si16Ag
_symmetry_space_group_name_H-M   'P 1'
_cell_length_a   6.87434472
_cell_length_b   7.40870582
_cell_length_c   14.09120600
_cell_angle_alpha   90.00000000
_cell_angle_beta   90.00000000
_cell_angle_gamma   89.91931077
_symmetry_Int_Tables_number   1
_chemical_formula_structural   Li3Dy8Sc8Si16Ag
_chemical_formula_sum   'Li3 Dy8 Sc8 Si16 Ag1'
_cell_volume   717.66437798
_cell_formula_units_Z   1
loop_
 _symmetry_equiv_pos_site_id
 _symmetry_equiv_pos_as_xyz
  1  'x, y, z'
loop_
 _atom_site_type_symbol
 _atom_site_label
 _atom_site_symmetry_multiplicity
 _atom_site_fract_x
 _atom_site_fract_y
 _atom_site_fract_z
 _atom_site_occupancy
  Li  Li0  1  0.841257  0.494090  0.250000  1
  Li  Li1  1  0.341180  0.006306  0.250000  1
  Li  Li2  1  0.658749  0.993490  0.750000  1
  Dy  Dy3  1  0.013423  0.181798  0.099248  1
  Dy  Dy4  1  0.987560  0.817952  0.901002  1
  Dy  Dy5  1  0.487430  0.680766  0.901232  1
  Dy  Dy6  1  0.987560  0.817952  0.598998  1
  Dy  Dy7  1  0.513425  0.318102  0.098758  1
  Dy  Dy8  1  0.013423  0.181798  0.400752  1
  Dy  Dy9  1  0.513425  0.318102  0.401242  1
  Dy  Dy10  1  0.487430  0.680766  0.598768  1
  Sc  Sc11  1  0.329148  0.179177  0.626509  1
  Sc  Sc12  1  0.669758  0.820875  0.373217  1
  Sc  Sc13  1  0.169886  0.679786  0.373262  1
  Sc  Sc14  1  0.669758  0.820875  0.126783  1
  Sc  Sc15  1  0.829834  0.321292  0.626193  1
  Sc  Sc16  1  0.329148  0.179177  0.873491  1
  Sc  Sc17  1  0.829834  0.321292  0.873807  1
  Sc  Sc18  1  0.169886  0.679786  0.126738  1
  Si  Si19  1  0.028046  0.099996  0.750000  1
  Si  Si20  1  0.969149  0.896524  0.250000  1
  Si  Si21  1  0.469389  0.603650  0.250000  1
  Si  Si22  1  0.531521  0.394741  0.750000  1
  Si  Si23  1  0.284218  0.883906  0.750000  1
  Si  Si24  1  0.716894  0.117856  0.250000  1
  Si  Si25  1  0.217907  0.382417  0.250000  1
  Si  Si26  1  0.780095  0.620090  0.750000  1
  Si  Si27  1  0.160155  0.461481  0.533007  1
  Si  Si28  1  0.841481  0.537279  0.465093  1
  Si  Si29  1  0.341212  0.962757  0.465039  1
  Si  Si30  1  0.841481  0.537279  0.034907  1
  Si  Si31  1  0.658613  0.036339  0.534993  1
  Si  Si32  1  0.160155  0.461481  0.966993  1
  Si  Si33  1  0.658613  0.036339  0.965007  1
  Si  Si34  1  0.341212  0.962757  0.034961  1
  Ag  Ag35  1  0.157746  0.511731  0.750000  1
