# generated using pymatgen
data_SmTmB6Os
_symmetry_space_group_name_H-M   'P 1'
_cell_length_a   3.66522500
_cell_length_b   9.16504300
_cell_length_c   11.58858800
_cell_angle_alpha   90.00000000
_cell_angle_beta   90.00000000
_cell_angle_gamma   90.00000000
_symmetry_Int_Tables_number   1
_chemical_formula_structural   SmTmB6Os
_chemical_formula_sum   'Sm4 Tm4 B24 Os4'
_cell_volume   389.28320759
_cell_formula_units_Z   4
loop_
 _symmetry_equiv_pos_site_id
 _symmetry_equiv_pos_as_xyz
  1  'x, y, z'
loop_
 _atom_site_type_symbol
 _atom_site_label
 _atom_site_symmetry_multiplicity
 _atom_site_fract_x
 _atom_site_fract_y
 _atom_site_fract_z
 _atom_site_occupancy
  Sm  Sm0  1  0.000000  0.322148  0.414033  1
  Sm  Sm1  1  0.000000  0.677852  0.585967  1
  Sm  Sm2  1  0.000000  0.822148  0.085967  1
  Sm  Sm3  1  0.000000  0.177852  0.914033  1
  Tm  Tm4  1  0.000000  0.944310  0.372869  1
  Tm  Tm5  1  0.000000  0.055690  0.627132  1
  Tm  Tm6  1  0.000000  0.444310  0.127131  1
  Tm  Tm7  1  0.000000  0.555690  0.872868  1
  B  B8  1  0.500000  0.555332  0.431487  1
  B  B9  1  0.500000  0.444668  0.568513  1
  B  B10  1  0.500000  0.055332  0.068513  1
  B  B11  1  0.500000  0.944668  0.931487  1
  B  B12  1  0.500000  0.749672  0.418322  1
  B  B13  1  0.500000  0.250328  0.581678  1
  B  B14  1  0.500000  0.249672  0.081678  1
  B  B15  1  0.500000  0.750328  0.918322  1
  B  B16  1  0.500000  0.791349  0.266721  1
  B  B17  1  0.500000  0.208651  0.733279  1
  B  B18  1  0.500000  0.291348  0.233279  1
  B  B19  1  0.500000  0.708651  0.766721  1
  B  B20  1  0.500000  0.630750  0.185033  1
  B  B21  1  0.500000  0.369250  0.814967  1
  B  B22  1  0.500000  0.130750  0.314967  1
  B  B23  1  0.500000  0.869250  0.685033  1
  B  B24  1  0.500000  0.984266  0.214117  1
  B  B25  1  0.500000  0.015734  0.785883  1
  B  B26  1  0.500000  0.484266  0.285883  1
  B  B27  1  0.500000  0.515734  0.714117  1
  B  B28  1  0.500000  0.602863  0.028285  1
  B  B29  1  0.500000  0.397137  0.971715  1
  B  B30  1  0.500000  0.102863  0.471715  1
  B  B31  1  0.500000  0.897137  0.528285  1
  Os  Os32  1  0.000000  0.638874  0.319889  1
  Os  Os33  1  0.000000  0.361126  0.680111  1
  Os  Os34  1  0.000000  0.138874  0.180111  1
  Os  Os35  1  0.000000  0.861126  0.819889  1
