# generated using pymatgen
data_Tb3Tm2Be2Si2P8Ir19
_symmetry_space_group_name_H-M   'P 1'
_cell_length_a   12.63235400
_cell_length_b   12.53022240
_cell_length_c   3.94472000
_cell_angle_alpha   90.00000000
_cell_angle_beta   90.00000000
_cell_angle_gamma   120.03595693
_symmetry_Int_Tables_number   1
_chemical_formula_structural   Tb3Tm2Be2Si2P8Ir19
_chemical_formula_sum   'Tb3 Tm2 Be2 Si2 P8 Ir19'
_cell_volume   540.54569188
_cell_formula_units_Z   1
loop_
 _symmetry_equiv_pos_site_id
 _symmetry_equiv_pos_as_xyz
  1  'x, y, z'
loop_
 _atom_site_type_symbol
 _atom_site_label
 _atom_site_symmetry_multiplicity
 _atom_site_fract_x
 _atom_site_fract_y
 _atom_site_fract_z
 _atom_site_occupancy
  Tb  Tb0  1  0.344038  0.668129  0.500000  1
  Tb  Tb1  1  0.182167  0.187842  0.000000  1
  Tb  Tb2  1  0.809216  0.998346  0.000000  1
  Tm  Tm3  1  0.676472  0.331772  0.500000  1
  Tm  Tm4  1  0.998468  0.815976  0.000000  1
  Be  Be5  1  0.521884  0.684511  0.000000  1
  Be  Be6  1  0.827688  0.308121  0.000000  1
  Si  Si7  1  0.317646  0.833474  0.000000  1
  Si  Si8  1  0.167740  0.482709  0.000000  1
  P  P9  1  0.488440  0.179410  0.000000  1
  P  P10  1  0.695663  0.515307  0.000000  1
  P  P11  1  0.361387  0.368475  0.500000  1
  P  P12  1  0.634159  0.997665  0.500000  1
  P  P13  1  0.001142  0.635522  0.500000  1
  P  P14  1  0.818613  0.819353  0.500000  1
  P  P15  1  0.180444  0.004811  0.500000  1
  P  P16  1  0.992984  0.176983  0.500000  1
  Ir  Ir17  1  0.190019  0.822134  0.500000  1
  Ir  Ir18  1  0.176361  0.373500  0.500000  1
  Ir  Ir19  1  0.626987  0.805627  0.500000  1
  Ir  Ir20  1  0.813022  0.190943  0.500000  1
  Ir  Ir21  1  0.379548  0.189091  0.500000  1
  Ir  Ir22  1  0.805854  0.621932  0.500000  1
  Ir  Ir23  1  0.127959  0.643072  0.000000  1
  Ir  Ir24  1  0.358009  0.482422  0.000000  1
  Ir  Ir25  1  0.515778  0.869000  0.000000  1
  Ir  Ir26  1  0.634061  0.127661  0.000000  1
  Ir  Ir27  1  0.499398  0.368429  0.000000  1
  Ir  Ir28  1  0.873702  0.510522  0.000000  1
  Ir  Ir29  1  0.543492  0.553418  0.500000  1
  Ir  Ir30  1  0.446337  0.988671  0.500000  1
  Ir  Ir31  1  0.994926  0.447275  0.500000  1
  Ir  Ir32  1  0.716096  0.711267  0.000000  1
  Ir  Ir33  1  0.287708  0.007895  0.000000  1
  Ir  Ir34  1  0.993886  0.280633  0.000000  1
  Ir  Ir35  1  0.998700  0.998100  0.500000  1
