# generated using pymatgen
data_Ho16Tm4Ir5Pt7
_symmetry_space_group_name_H-M   'P 1'
_cell_length_a   10.98240120
_cell_length_b   10.98240121
_cell_length_c   6.29840003
_cell_angle_alpha   90.01995965
_cell_angle_beta   90.01995994
_cell_angle_gamma   90.22935319
_symmetry_Int_Tables_number   1
_chemical_formula_structural   Ho16Tm4Ir5Pt7
_chemical_formula_sum   'Ho16 Tm4 Ir5 Pt7'
_cell_volume   759.66360188
_cell_formula_units_Z   1
loop_
 _symmetry_equiv_pos_site_id
 _symmetry_equiv_pos_as_xyz
  1  'x, y, z'
loop_
 _atom_site_type_symbol
 _atom_site_label
 _atom_site_symmetry_multiplicity
 _atom_site_fract_x
 _atom_site_fract_y
 _atom_site_fract_z
 _atom_site_occupancy
  Ho  Ho0  1  0.294656  0.086345  0.373766  1
  Ho  Ho1  1  0.294766  0.908638  0.874395  1
  Ho  Ho2  1  0.704975  0.086824  0.873577  1
  Ho  Ho3  1  0.704946  0.912201  0.373019  1
  Ho  Ho4  1  0.583615  0.792256  0.872317  1
  Ho  Ho5  1  0.587302  0.205996  0.374714  1
  Ho  Ho6  1  0.410763  0.791937  0.378113  1
  Ho  Ho7  1  0.412324  0.204423  0.874517  1
  Ho  Ho8  1  0.207744  0.416385  0.627683  1
  Ho  Ho9  1  0.208063  0.589237  0.121887  1
  Ho  Ho10  1  0.794004  0.412698  0.125286  1
  Ho  Ho11  1  0.795577  0.587676  0.625483  1
  Ho  Ho12  1  0.913655  0.705344  0.126234  1
  Ho  Ho13  1  0.913176  0.295025  0.626423  1
  Ho  Ho14  1  0.091362  0.705234  0.625605  1
  Ho  Ho15  1  0.087799  0.295054  0.126981  1
  Tm  Tm16  1  0.999502  0.999909  0.500388  1
  Tm  Tm17  1  0.000091  0.000498  0.999612  1
  Tm  Tm18  1  0.497909  0.500682  0.999493  1
  Tm  Tm19  1  0.499318  0.502091  0.500507  1
  Ir  Ir20  1  0.347679  0.652321  0.750000  1
  Ir  Ir21  1  0.499973  0.999926  0.121507  1
  Ir  Ir22  1  0.499805  0.000101  0.620224  1
  Ir  Ir23  1  0.999899  0.500195  0.879776  1
  Ir  Ir24  1  0.000074  0.500027  0.378493  1
  Pt  Pt25  1  0.847105  0.152895  0.250000  1
  Pt  Pt26  1  0.846041  0.847215  0.750756  1
  Pt  Pt27  1  0.152785  0.153959  0.749244  1
  Pt  Pt28  1  0.152082  0.847918  0.250000  1
  Pt  Pt29  1  0.652530  0.347470  0.750000  1
  Pt  Pt30  1  0.654039  0.653559  0.249758  1
  Pt  Pt31  1  0.346441  0.345961  0.250242  1
