# generated using pymatgen
data_Sc4Ti4Co16Si11P
_symmetry_space_group_name_H-M   'P 1'
_cell_length_a   3.65906800
_cell_length_b   10.49879104
_cell_length_c   12.11691989
_cell_angle_alpha   89.88735354
_cell_angle_beta   90.00000000
_cell_angle_gamma   90.00000000
_symmetry_Int_Tables_number   1
_chemical_formula_structural   Sc4Ti4Co16Si11P
_chemical_formula_sum   'Sc4 Ti4 Co16 Si11 P1'
_cell_volume   465.48015444
_cell_formula_units_Z   1
loop_
 _symmetry_equiv_pos_site_id
 _symmetry_equiv_pos_as_xyz
  1  'x, y, z'
loop_
 _atom_site_type_symbol
 _atom_site_label
 _atom_site_symmetry_multiplicity
 _atom_site_fract_x
 _atom_site_fract_y
 _atom_site_fract_z
 _atom_site_occupancy
  Sc  Sc0  1  0.250000  0.577328  0.706499  1
  Sc  Sc1  1  0.250000  0.926216  0.203269  1
  Sc  Sc2  1  0.750000  0.422905  0.293612  1
  Sc  Sc3  1  0.750000  0.077196  0.792803  1
  Ti  Ti4  1  0.250000  0.699483  0.991701  1
  Ti  Ti5  1  0.250000  0.799791  0.492756  1
  Ti  Ti6  1  0.750000  0.298278  0.008980  1
  Ti  Ti7  1  0.750000  0.200330  0.506961  1
  Co  Co8  1  0.250000  0.400348  0.484570  1
  Co  Co9  1  0.250000  0.096826  0.987136  1
  Co  Co10  1  0.750000  0.598998  0.515415  1
  Co  Co11  1  0.750000  0.908340  0.017090  1
  Co  Co12  1  0.250000  0.213477  0.166071  1
  Co  Co13  1  0.250000  0.282945  0.666743  1
  Co  Co14  1  0.750000  0.784629  0.835991  1
  Co  Co15  1  0.750000  0.716511  0.333546  1
  Co  Co16  1  0.250000  0.877838  0.702545  1
  Co  Co17  1  0.250000  0.622155  0.201862  1
  Co  Co18  1  0.750000  0.121409  0.294084  1
  Co  Co19  1  0.750000  0.376696  0.798625  1
  Co  Co20  1  0.250000  0.461476  0.931701  1
  Co  Co21  1  0.250000  0.037540  0.429597  1
  Co  Co22  1  0.750000  0.537225  0.069144  1
  Co  Co23  1  0.750000  0.962270  0.567850  1
  Si  Si24  1  0.250000  0.425133  0.119667  1
  Si  Si25  1  0.250000  0.073479  0.618568  1
  Si  Si26  1  0.750000  0.573089  0.881080  1
  Si  Si27  1  0.750000  0.926100  0.379670  1
  Si  Si28  1  0.250000  0.262076  0.854928  1
  Si  Si29  1  0.250000  0.236562  0.353161  1
  Si  Si30  1  0.750000  0.737391  0.145604  1
  Si  Si31  1  0.750000  0.763697  0.647673  1
  Si  Si32  1  0.250000  0.589554  0.389261  1
  Si  Si33  1  0.250000  0.910954  0.889612  1
  Si  Si34  1  0.750000  0.409990  0.611177  1
  P  P35  1  0.750000  0.091765  0.111046  1
