# generated using pymatgen
data_Dy3Er5Mg2(SiB4)4
_symmetry_space_group_name_H-M   'P 1'
_cell_length_a   7.14563704
_cell_length_b   7.14569304
_cell_length_c   7.79222100
_cell_angle_alpha   90.00046786
_cell_angle_beta   90.00076726
_cell_angle_gamma   89.98737926
_symmetry_Int_Tables_number   1
_chemical_formula_structural   Dy3Er5Mg2(SiB4)4
_chemical_formula_sum   'Dy3 Er5 Mg2 Si4 B16'
_cell_volume   397.87491597
_cell_formula_units_Z   1
loop_
 _symmetry_equiv_pos_site_id
 _symmetry_equiv_pos_as_xyz
  1  'x, y, z'
loop_
 _atom_site_type_symbol
 _atom_site_label
 _atom_site_symmetry_multiplicity
 _atom_site_fract_x
 _atom_site_fract_y
 _atom_site_fract_z
 _atom_site_occupancy
  Dy  Dy0  1  0.683003  0.182874  0.766075  1
  Dy  Dy1  1  0.182906  0.317095  0.766047  1
  Dy  Dy2  1  0.182990  0.317144  0.233839  1
  Er  Er3  1  0.682897  0.182760  0.232746  1
  Er  Er4  1  0.317108  0.816972  0.767338  1
  Er  Er5  1  0.317144  0.817009  0.232586  1
  Er  Er6  1  0.817038  0.683093  0.232467  1
  Er  Er7  1  0.816989  0.683019  0.767440  1
  Mg  Mg8  1  0.000004  0.999508  0.499834  1
  Mg  Mg9  1  0.500299  0.500415  0.499828  1
  Si  Si10  1  0.115036  0.617143  0.499785  1
  Si  Si11  1  0.883713  0.385864  0.499174  1
  Si  Si12  1  0.384980  0.113901  0.499319  1
  Si  Si13  1  0.615663  0.883262  0.499341  1
  B  B14  1  0.173609  0.039060  0.000205  1
  B  B15  1  0.826160  0.959607  0.000370  1
  B  B16  1  0.959865  0.173295  0.000214  1
  B  B17  1  0.326433  0.540573  0.000214  1
  B  B18  1  0.039660  0.825813  0.000228  1
  B  B19  1  0.673920  0.460779  0.000211  1
  B  B20  1  0.539947  0.674148  0.000216  1
  B  B21  1  0.460496  0.326702  0.000363  1
  B  B22  1  0.089276  0.589661  0.000109  1
  B  B23  1  0.910377  0.410774  0.000070  1
  B  B24  1  0.410520  0.089291  0.000494  1
  B  B25  1  0.589388  0.910426  0.000497  1
  B  B26  1  0.999656  0.999295  0.164038  1
  B  B27  1  0.000143  0.999146  0.836460  1
  B  B28  1  0.500316  0.500937  0.836454  1
  B  B29  1  0.500465  0.500434  0.164037  1
