# generated using pymatgen
data_Pr17Nd3Si15Hg
_symmetry_space_group_name_H-M   'P 1'
_cell_length_a   7.97905314
_cell_length_b   7.96549296
_cell_length_c   15.34199402
_cell_angle_alpha   90.03214568
_cell_angle_beta   89.67913953
_cell_angle_gamma   89.93603584
_symmetry_Int_Tables_number   1
_chemical_formula_structural   Pr17Nd3Si15Hg
_chemical_formula_sum   'Pr17 Nd3 Si15 Hg1'
_cell_volume   975.07646461
_cell_formula_units_Z   1
loop_
 _symmetry_equiv_pos_site_id
 _symmetry_equiv_pos_as_xyz
  1  'x, y, z'
loop_
 _atom_site_type_symbol
 _atom_site_label
 _atom_site_symmetry_multiplicity
 _atom_site_fract_x
 _atom_site_fract_y
 _atom_site_fract_z
 _atom_site_occupancy
  Pr  Pr0  1  0.692440  0.689780  0.497864  1
  Pr  Pr1  1  0.374780  0.012292  0.447949  1
  Pr  Pr2  1  0.492763  0.868990  0.699134  1
  Pr  Pr3  1  0.510442  0.122087  0.197720  1
  Pr  Pr4  1  0.878421  0.489003  0.300563  1
  Pr  Pr5  1  0.118684  0.520199  0.803853  1
  Pr  Pr6  1  0.625836  0.987203  0.951048  1
  Pr  Pr7  1  0.001177  0.383311  0.547232  1
  Pr  Pr8  1  0.989678  0.624972  0.052859  1
  Pr  Pr9  1  0.129446  0.981796  0.879480  1
  Pr  Pr10  1  0.519515  0.628978  0.126755  1
  Pr  Pr11  1  0.486916  0.376509  0.626341  1
  Pr  Pr12  1  0.628814  0.520514  0.876539  1
  Pr  Pr13  1  0.373560  0.483254  0.371999  1
  Pr  Pr14  1  0.872675  0.019639  0.375404  1
  Pr  Pr15  1  0.982693  0.126866  0.124283  1
  Pr  Pr16  1  0.009557  0.861163  0.620678  1
  Nd  Nd17  1  0.307873  0.308486  0.000193  1
  Nd  Nd18  1  0.192889  0.809035  0.249450  1
  Nd  Nd19  1  0.799994  0.186787  0.752633  1
  Si  Si20  1  0.331596  0.694630  0.953334  1
  Si  Si21  1  0.662998  0.302390  0.450336  1
  Si  Si22  1  0.698041  0.333403  0.049323  1
  Si  Si23  1  0.306218  0.669689  0.546264  1
  Si  Si24  1  0.806342  0.831888  0.202604  1
  Si  Si25  1  0.168796  0.195937  0.298595  1
  Si  Si26  1  0.833954  0.804918  0.798748  1
  Si  Si27  1  0.287778  0.922093  0.060769  1
  Si  Si28  1  0.579529  0.787930  0.309473  1
  Si  Si29  1  0.433655  0.209804  0.815810  1
  Si  Si30  1  0.786084  0.577733  0.691627  1
  Si  Si31  1  0.213038  0.421405  0.190306  1
  Si  Si32  1  0.709360  0.079293  0.558996  1
  Si  Si33  1  0.923666  0.289727  0.941014  1
  Si  Si34  1  0.080769  0.713581  0.438284  1
  Hg  Hg35  1  0.190024  0.164717  0.692542  1
