# generated using pymatgen
data_Sm4Er6Sn3Pb5
_symmetry_space_group_name_H-M   'P 1'
_cell_length_a   8.13816100
_cell_length_b   8.27759100
_cell_length_c   15.60052100
_cell_angle_alpha   90.00000000
_cell_angle_beta   90.00000000
_cell_angle_gamma   90.00000000
_symmetry_Int_Tables_number   1
_chemical_formula_structural   Sm4Er6Sn3Pb5
_chemical_formula_sum   'Sm8 Er12 Sn6 Pb10'
_cell_volume   1050.91924154
_cell_formula_units_Z   2
loop_
 _symmetry_equiv_pos_site_id
 _symmetry_equiv_pos_as_xyz
  1  'x, y, z'
loop_
 _atom_site_type_symbol
 _atom_site_label
 _atom_site_symmetry_multiplicity
 _atom_site_fract_x
 _atom_site_fract_y
 _atom_site_fract_z
 _atom_site_occupancy
  Sm  Sm0  1  0.520467  0.320091  0.901278  1
  Sm  Sm1  1  0.020467  0.179909  0.598722  1
  Sm  Sm2  1  0.479969  0.678332  0.400121  1
  Sm  Sm3  1  0.979969  0.821668  0.099879  1
  Sm  Sm4  1  0.479969  0.678332  0.099879  1
  Sm  Sm5  1  0.979969  0.821668  0.400121  1
  Sm  Sm6  1  0.520467  0.320091  0.598722  1
  Sm  Sm7  1  0.020467  0.179909  0.901278  1
  Er  Er8  1  0.364860  0.839271  0.877117  1
  Er  Er9  1  0.864860  0.660729  0.622883  1
  Er  Er10  1  0.634918  0.162596  0.375247  1
  Er  Er11  1  0.134918  0.337404  0.124753  1
  Er  Er12  1  0.634918  0.162596  0.124753  1
  Er  Er13  1  0.134918  0.337404  0.375247  1
  Er  Er14  1  0.364860  0.839271  0.622883  1
  Er  Er15  1  0.864860  0.660729  0.877117  1
  Er  Er16  1  0.195341  0.500382  0.750000  1
  Er  Er17  1  0.695341  0.999618  0.750000  1
  Er  Er18  1  0.802917  0.496605  0.250000  1
  Er  Er19  1  0.302917  0.003395  0.250000  1
  Sn  Sn20  1  0.437760  0.376720  0.250000  1
  Sn  Sn21  1  0.937760  0.123280  0.250000  1
  Sn  Sn22  1  0.330659  0.147178  0.750000  1
  Sn  Sn23  1  0.830659  0.352822  0.750000  1
  Sn  Sn24  1  0.671884  0.854359  0.250000  1
  Sn  Sn25  1  0.171884  0.645641  0.250000  1
  Pb  Pb26  1  0.295948  0.039586  0.041868  1
  Pb  Pb27  1  0.795948  0.460414  0.458132  1
  Pb  Pb28  1  0.704541  0.960729  0.541556  1
  Pb  Pb29  1  0.204541  0.539271  0.958444  1
  Pb  Pb30  1  0.704541  0.960729  0.958444  1
  Pb  Pb31  1  0.204541  0.539271  0.541556  1
  Pb  Pb32  1  0.295948  0.039586  0.458132  1
  Pb  Pb33  1  0.795948  0.460414  0.041868  1
  Pb  Pb34  1  0.560034  0.624229  0.750000  1
  Pb  Pb35  1  0.060034  0.875771  0.750000  1
