# generated using pymatgen
data_Rb2Mn3AgF12
_symmetry_space_group_name_H-M   'P 1'
_cell_length_a   7.38844472
_cell_length_b   7.67865620
_cell_length_c   10.46288409
_cell_angle_alpha   90.17966261
_cell_angle_beta   87.64189571
_cell_angle_gamma   89.30643683
_symmetry_Int_Tables_number   1
_chemical_formula_structural   Rb2Mn3AgF12
_chemical_formula_sum   'Rb4 Mn6 Ag2 F24'
_cell_volume   593.04418244
_cell_formula_units_Z   2
loop_
 _symmetry_equiv_pos_site_id
 _symmetry_equiv_pos_as_xyz
  1  'x, y, z'
loop_
 _atom_site_type_symbol
 _atom_site_label
 _atom_site_symmetry_multiplicity
 _atom_site_fract_x
 _atom_site_fract_y
 _atom_site_fract_z
 _atom_site_occupancy
  Rb  Rb0  1  0.519801  0.749763  0.606671  1
  Rb  Rb1  1  0.480199  0.250237  0.393329  1
  Rb  Rb2  1  0.028136  0.262862  0.140446  1
  Rb  Rb3  1  0.971864  0.737138  0.859554  1
  Mn  Mn4  1  0.811695  0.747662  0.215652  1
  Mn  Mn5  1  0.188305  0.252338  0.784348  1
  Mn  Mn6  1  0.000000  0.500000  0.500000  1
  Mn  Mn7  1  0.000000  0.000000  0.500000  1
  Mn  Mn8  1  0.500000  0.000000  0.000000  1
  Mn  Mn9  1  0.500000  0.500000  0.000000  1
  Ag  Ag10  1  0.713698  0.237350  0.742250  1
  Ag  Ag11  1  0.286302  0.762650  0.257750  1
  F  F12  1  0.031036  0.726054  0.120799  1
  F  F13  1  0.968964  0.273946  0.879201  1
  F  F14  1  0.600025  0.770430  0.317933  1
  F  F15  1  0.399975  0.229570  0.682067  1
  F  F16  1  0.765278  0.440395  0.557794  1
  F  F17  1  0.234722  0.559605  0.442206  1
  F  F18  1  0.754288  0.045032  0.540198  1
  F  F19  1  0.245712  0.954968  0.459802  1
  F  F20  1  0.629632  0.947132  0.846352  1
  F  F21  1  0.370368  0.052868  0.153648  1
  F  F22  1  0.616817  0.540880  0.840851  1
  F  F23  1  0.383183  0.459120  0.159149  1
  F  F24  1  0.587759  0.231930  0.990313  1
  F  F25  1  0.412241  0.768070  0.009687  1
  F  F26  1  0.282400  0.444192  0.916919  1
  F  F27  1  0.717600  0.555808  0.083081  1
  F  F28  1  0.260315  0.068619  0.895446  1
  F  F29  1  0.739685  0.931381  0.104554  1
  F  F30  1  0.056104  0.053178  0.672215  1
  F  F31  1  0.943896  0.946822  0.327785  1
  F  F32  1  0.953352  0.733012  0.562186  1
  F  F33  1  0.046648  0.266988  0.437814  1
  F  F34  1  0.110997  0.444377  0.681676  1
  F  F35  1  0.889003  0.555623  0.318324  1
