# generated using pymatgen
data_Ba4MnCr3N8
_symmetry_space_group_name_H-M   'P 1'
_cell_length_a   6.46363444
_cell_length_b   6.46363350
_cell_length_c   7.82645012
_cell_angle_alpha   89.50460171
_cell_angle_beta   90.49539717
_cell_angle_gamma   125.90299494
_symmetry_Int_Tables_number   1
_chemical_formula_structural   Ba4MnCr3N8
_chemical_formula_sum   'Ba4 Mn1 Cr3 N8'
_cell_volume   264.84316892
_cell_formula_units_Z   1
loop_
 _symmetry_equiv_pos_site_id
 _symmetry_equiv_pos_as_xyz
  1  'x, y, z'
loop_
 _atom_site_type_symbol
 _atom_site_label
 _atom_site_symmetry_multiplicity
 _atom_site_fract_x
 _atom_site_fract_y
 _atom_site_fract_z
 _atom_site_occupancy
  Ba  Ba0  1  0.844292  0.155708  0.559489  1
  Ba  Ba1  1  0.158434  0.841566  0.445095  1
  Ba  Ba2  1  0.657412  0.342588  0.060390  1
  Ba  Ba3  1  0.341395  0.658605  0.937781  1
  Mn  Mn4  1  0.052111  0.947889  0.866563  1
  Cr  Cr5  1  0.551365  0.448635  0.635919  1
  Cr  Cr6  1  0.449663  0.550337  0.364624  1
  Cr  Cr7  1  0.950396  0.049604  0.131288  1
  N  N8  1  0.891467  0.108533  0.914150  1
  N  N9  1  0.107552  0.892448  0.090221  1
  N  N10  1  0.607760  0.392240  0.412006  1
  N  N11  1  0.391089  0.608911  0.585302  1
  N  N12  1  0.338916  0.161121  0.750793  1
  N  N13  1  0.160181  0.340913  0.247793  1
  N  N14  1  0.659087  0.839819  0.247793  1
  N  N15  1  0.838879  0.661084  0.750793  1
