# generated using pymatgen
data_Ho3Mg3Pb2Au
_symmetry_space_group_name_H-M   'P 1'
_cell_length_a   7.57829200
_cell_length_b   7.57829166
_cell_length_c   4.48129800
_cell_angle_alpha   90.00000000
_cell_angle_beta   90.00000000
_cell_angle_gamma   120.00000147
_symmetry_Int_Tables_number   1
_chemical_formula_structural   Ho3Mg3Pb2Au
_chemical_formula_sum   'Ho3 Mg3 Pb2 Au1'
_cell_volume   222.88308021
_cell_formula_units_Z   1
loop_
 _symmetry_equiv_pos_site_id
 _symmetry_equiv_pos_as_xyz
  1  'x, y, z'
loop_
 _atom_site_type_symbol
 _atom_site_label
 _atom_site_symmetry_multiplicity
 _atom_site_fract_x
 _atom_site_fract_y
 _atom_site_fract_z
 _atom_site_occupancy
  Ho  Ho0  1  0.596993  0.000000  0.000000  1
  Ho  Ho1  1  0.000000  0.596993  0.000000  1
  Ho  Ho2  1  0.403007  0.403007  0.000000  1
  Mg  Mg3  1  0.232615  0.000000  0.500000  1
  Mg  Mg4  1  0.000000  0.232615  0.500000  1
  Mg  Mg5  1  0.767385  0.767385  0.500000  1
  Pb  Pb6  1  0.333333  0.666667  0.500000  1
  Pb  Pb7  1  0.666667  0.333333  0.500000  1
  Au  Au8  1  0.000000  0.000000  0.000000  1
