# generated using pymatgen
data_Er3Tm5(FeB6)4
_symmetry_space_group_name_H-M   'P 1'
_cell_length_a   3.51481100
_cell_length_b   9.02641701
_cell_length_c   11.38595802
_cell_angle_alpha   89.99351066
_cell_angle_beta   90.00000000
_cell_angle_gamma   90.00000000
_symmetry_Int_Tables_number   1
_chemical_formula_structural   Er3Tm5(FeB6)4
_chemical_formula_sum   'Er3 Tm5 Fe4 B24'
_cell_volume   361.23260754
_cell_formula_units_Z   1
loop_
 _symmetry_equiv_pos_site_id
 _symmetry_equiv_pos_as_xyz
  1  'x, y, z'
loop_
 _atom_site_type_symbol
 _atom_site_label
 _atom_site_symmetry_multiplicity
 _atom_site_fract_x
 _atom_site_fract_y
 _atom_site_fract_z
 _atom_site_occupancy
  Er  Er0  1  0.000000  0.823594  0.085537  1
  Er  Er1  1  0.000000  0.176453  0.914571  1
  Er  Er2  1  0.000000  0.323601  0.414478  1
  Tm  Tm3  1  0.000000  0.676602  0.585382  1
  Tm  Tm4  1  0.000000  0.443163  0.129277  1
  Tm  Tm5  1  0.000000  0.556702  0.870712  1
  Tm  Tm6  1  0.000000  0.943279  0.370756  1
  Tm  Tm7  1  0.000000  0.056658  0.629189  1
  Fe  Fe8  1  0.000000  0.138712  0.179615  1
  Fe  Fe9  1  0.000000  0.861214  0.820312  1
  Fe  Fe10  1  0.000000  0.638736  0.320509  1
  Fe  Fe11  1  0.000000  0.361419  0.679554  1
  B  B12  1  0.500000  0.054355  0.067931  1
  B  B13  1  0.500000  0.945743  0.932204  1
  B  B14  1  0.500000  0.554386  0.432400  1
  B  B15  1  0.500000  0.446004  0.567791  1
  B  B16  1  0.500000  0.247030  0.081578  1
  B  B17  1  0.500000  0.752816  0.918528  1
  B  B18  1  0.500000  0.747052  0.418807  1
  B  B19  1  0.500000  0.252864  0.581495  1
  B  B20  1  0.500000  0.289895  0.233812  1
  B  B21  1  0.500000  0.709840  0.765943  1
  B  B22  1  0.500000  0.790002  0.266175  1
  B  B23  1  0.500000  0.210019  0.733818  1
  B  B24  1  0.500000  0.131840  0.314302  1
  B  B25  1  0.500000  0.867976  0.685395  1
  B  B26  1  0.500000  0.631845  0.185603  1
  B  B27  1  0.500000  0.368194  0.814414  1
  B  B28  1  0.500000  0.485400  0.288194  1
  B  B29  1  0.500000  0.514857  0.711694  1
  B  B30  1  0.500000  0.985524  0.211802  1
  B  B31  1  0.500000  0.014588  0.788141  1
  B  B32  1  0.500000  0.108023  0.470439  1
  B  B33  1  0.500000  0.891605  0.529677  1
  B  B34  1  0.500000  0.608009  0.029553  1
  B  B35  1  0.500000  0.392000  0.970412  1
