# generated using pymatgen
data_Tb3TmFe4(WO6)4
_symmetry_space_group_name_H-M   'P 1'
_cell_length_a   5.23149331
_cell_length_b   7.44159679
_cell_length_c   11.09166651
_cell_angle_alpha   89.92772321
_cell_angle_beta   90.07392920
_cell_angle_gamma   89.96674667
_symmetry_Int_Tables_number   1
_chemical_formula_structural   Tb3TmFe4(WO6)4
_chemical_formula_sum   'Tb3 Tm1 Fe4 W4 O24'
_cell_volume   431.80516443
_cell_formula_units_Z   1
loop_
 _symmetry_equiv_pos_site_id
 _symmetry_equiv_pos_as_xyz
  1  'x, y, z'
loop_
 _atom_site_type_symbol
 _atom_site_label
 _atom_site_symmetry_multiplicity
 _atom_site_fract_x
 _atom_site_fract_y
 _atom_site_fract_z
 _atom_site_occupancy
  Tb  Tb0  1  0.455212  0.753309  0.454771  1
  Tb  Tb1  1  0.544827  0.253242  0.544948  1
  Tb  Tb2  1  0.043518  0.753247  0.955332  1
  Tm  Tm3  1  0.952622  0.253364  0.045242  1
  Fe  Fe4  1  0.456228  0.507263  0.138721  1
  Fe  Fe5  1  0.956953  0.008946  0.360283  1
  Fe  Fe6  1  0.042287  0.508594  0.639160  1
  Fe  Fe7  1  0.542797  0.009733  0.861866  1
  W  W8  1  0.447254  0.998967  0.142141  1
  W  W9  1  0.948136  0.497096  0.356418  1
  W  W10  1  0.051971  0.997157  0.642837  1
  W  W11  1  0.551715  0.496481  0.858301  1
  O  O12  1  0.744582  0.540749  0.020972  1
  O  O13  1  0.736479  0.960718  0.028919  1
  O  O14  1  0.325333  0.756204  0.116983  1
  O  O15  1  0.570788  0.246111  0.143414  1
  O  O16  1  0.123713  0.073215  0.205720  1
  O  O17  1  0.107311  0.435636  0.210858  1
  O  O18  1  0.608338  0.937903  0.287578  1
  O  O19  1  0.624139  0.569989  0.292441  1
  O  O20  1  0.063323  0.746096  0.355222  1
  O  O21  1  0.823859  0.255455  0.382380  1
  O  O22  1  0.236105  0.458868  0.470386  1
  O  O23  1  0.242600  0.043067  0.479482  1
  O  O24  1  0.757382  0.543011  0.519975  1
  O  O25  1  0.763978  0.958829  0.529062  1
  O  O26  1  0.176807  0.755163  0.617777  1
  O  O27  1  0.936772  0.245987  0.643851  1
  O  O28  1  0.375573  0.069865  0.707659  1
  O  O29  1  0.390684  0.436210  0.713166  1
  O  O30  1  0.889870  0.936721  0.787530  1
  O  O31  1  0.873878  0.570106  0.792711  1
  O  O32  1  0.436695  0.745398  0.858067  1
  O  O33  1  0.681988  0.255317  0.884480  1
  O  O34  1  0.262064  0.455345  0.971399  1
  O  O35  1  0.254225  0.047050  0.979949  1
