# generated using pymatgen
data_Nb3Zn2GaCo6
_symmetry_space_group_name_H-M   'P 1'
_cell_length_a   4.19847200
_cell_length_b   5.94033700
_cell_length_c   12.64697501
_cell_angle_alpha   89.99593524
_cell_angle_beta   90.00217451
_cell_angle_gamma   90.00000004
_symmetry_Int_Tables_number   1
_chemical_formula_structural   Nb3Zn2GaCo6
_chemical_formula_sum   'Nb6 Zn4 Ga2 Co12'
_cell_volume   315.41983781
_cell_formula_units_Z   2
loop_
 _symmetry_equiv_pos_site_id
 _symmetry_equiv_pos_as_xyz
  1  'x, y, z'
loop_
 _atom_site_type_symbol
 _atom_site_label
 _atom_site_symmetry_multiplicity
 _atom_site_fract_x
 _atom_site_fract_y
 _atom_site_fract_z
 _atom_site_occupancy
  Nb  Nb0  1  0.000014  0.000077  0.997990  1
  Nb  Nb1  1  0.500116  0.499970  0.168659  1
  Nb  Nb2  1  0.000157  0.999928  0.335661  1
  Nb  Nb3  1  0.500000  0.500077  0.500299  1
  Nb  Nb4  1  0.999843  0.000043  0.666341  1
  Nb  Nb5  1  0.499877  0.499904  0.831050  1
  Zn  Zn6  1  0.000187  0.500027  0.333258  1
  Zn  Zn7  1  0.500003  0.999973  0.499995  1
  Zn  Zn8  1  0.999813  0.499979  0.666681  1
  Zn  Zn9  1  0.499833  0.000034  0.833387  1
  Ga  Ga10  1  0.000004  0.499922  0.999912  1
  Ga  Ga11  1  0.500156  0.000052  0.166774  1
  Co  Co12  1  0.500008  0.250982  0.000612  1
  Co  Co13  1  0.500007  0.749031  0.000611  1
  Co  Co14  1  0.000184  0.248993  0.166049  1
  Co  Co15  1  0.000185  0.750990  0.166058  1
  Co  Co16  1  0.500219  0.248937  0.333124  1
  Co  Co17  1  0.500219  0.751052  0.333111  1
  Co  Co18  1  0.000001  0.250795  0.500210  1
  Co  Co19  1  0.000001  0.749222  0.500223  1
  Co  Co20  1  0.499784  0.249250  0.666458  1
  Co  Co21  1  0.499783  0.750766  0.666461  1
  Co  Co22  1  0.999804  0.251064  0.833542  1
  Co  Co23  1  0.999805  0.748925  0.833533  1
