# generated using pymatgen
data_Sc4Tc6MoW
_symmetry_space_group_name_H-M   'P 1'
_cell_length_a   5.32469700
_cell_length_b   5.32469650
_cell_length_c   8.49936100
_cell_angle_alpha   90.00000000
_cell_angle_beta   90.00000000
_cell_angle_gamma   120.00000934
_symmetry_Int_Tables_number   1
_chemical_formula_structural   Sc4Tc6MoW
_chemical_formula_sum   'Sc4 Tc6 Mo1 W1'
_cell_volume   208.69239563
_cell_formula_units_Z   1
loop_
 _symmetry_equiv_pos_site_id
 _symmetry_equiv_pos_as_xyz
  1  'x, y, z'
loop_
 _atom_site_type_symbol
 _atom_site_label
 _atom_site_symmetry_multiplicity
 _atom_site_fract_x
 _atom_site_fract_y
 _atom_site_fract_z
 _atom_site_occupancy
  Sc  Sc0  1  0.333333  0.666667  0.437686  1
  Sc  Sc1  1  0.666667  0.333333  0.562314  1
  Sc  Sc2  1  0.666667  0.333333  0.937714  1
  Sc  Sc3  1  0.333333  0.666667  0.062286  1
  Tc  Tc4  1  0.827320  0.172680  0.250057  1
  Tc  Tc5  1  0.827320  0.654641  0.250057  1
  Tc  Tc6  1  0.345359  0.172680  0.250057  1
  Tc  Tc7  1  0.172680  0.827320  0.749943  1
  Tc  Tc8  1  0.172680  0.345359  0.749943  1
  Tc  Tc9  1  0.654641  0.827320  0.749943  1
  Mo  Mo10  1  0.000000  0.000000  0.000000  1
  W  W11  1  0.000000  0.000000  0.500000  1
