# generated using pymatgen
data_VCr(TcO4)6
_symmetry_space_group_name_H-M   'P 1'
_cell_length_a   10.27164082
_cell_length_b   10.27151573
_cell_length_c   10.27149900
_cell_angle_alpha   49.14566264
_cell_angle_beta   49.14530734
_cell_angle_gamma   49.14526123
_symmetry_Int_Tables_number   1
_chemical_formula_structural   VCr(TcO4)6
_chemical_formula_sum   'V1 Cr1 Tc6 O24'
_cell_volume   569.44412547
_cell_formula_units_Z   1
loop_
 _symmetry_equiv_pos_site_id
 _symmetry_equiv_pos_as_xyz
  1  'x, y, z'
loop_
 _atom_site_type_symbol
 _atom_site_label
 _atom_site_symmetry_multiplicity
 _atom_site_fract_x
 _atom_site_fract_y
 _atom_site_fract_z
 _atom_site_occupancy
  V  V0  1  0.500000  0.500000  0.500000  1
  Cr  Cr1  1  0.000000  0.000000  0.000000  1
  Tc  Tc2  1  0.595590  0.905878  0.249120  1
  Tc  Tc3  1  0.249122  0.595590  0.905875  1
  Tc  Tc4  1  0.905876  0.249098  0.595601  1
  Tc  Tc5  1  0.750878  0.404410  0.094125  1
  Tc  Tc6  1  0.094124  0.750902  0.404399  1
  Tc  Tc7  1  0.404410  0.094122  0.750880  1
  O  O8  1  0.820025  0.881986  0.172980  1
  O  O9  1  0.172980  0.820026  0.881978  1
  O  O10  1  0.881974  0.172979  0.820034  1
  O  O11  1  0.673632  0.381115  0.318720  1
  O  O12  1  0.318722  0.673640  0.381111  1
  O  O13  1  0.381114  0.318716  0.673635  1
  O  O14  1  0.179975  0.118014  0.827020  1
  O  O15  1  0.827020  0.179974  0.118022  1
  O  O16  1  0.118026  0.827021  0.179966  1
  O  O17  1  0.326368  0.618885  0.681280  1
  O  O18  1  0.681278  0.326360  0.618889  1
  O  O19  1  0.618886  0.681284  0.326365  1
  O  O20  1  0.438452  0.979642  0.428566  1
  O  O21  1  0.428565  0.438454  0.979642  1
  O  O22  1  0.979628  0.428560  0.438460  1
  O  O23  1  0.929288  0.479526  0.937536  1
  O  O24  1  0.937545  0.929295  0.479521  1
  O  O25  1  0.479521  0.937540  0.929291  1
  O  O26  1  0.561548  0.020358  0.571434  1
  O  O27  1  0.571435  0.561546  0.020358  1
  O  O28  1  0.020372  0.571440  0.561540  1
  O  O29  1  0.070712  0.520474  0.062464  1
  O  O30  1  0.062455  0.070705  0.520479  1
  O  O31  1  0.520479  0.062460  0.070709  1
