# generated using pymatgen
data_Er2Tm4TcBi2
_symmetry_space_group_name_H-M   'P 1'
_cell_length_a   8.21277392
_cell_length_b   8.21277480
_cell_length_c   4.27358400
_cell_angle_alpha   90.00000000
_cell_angle_beta   90.00000000
_cell_angle_gamma   120.05421123
_symmetry_Int_Tables_number   1
_chemical_formula_structural   Er2Tm4TcBi2
_chemical_formula_sum   'Er2 Tm4 Tc1 Bi2'
_cell_volume   249.49690234
_cell_formula_units_Z   1
loop_
 _symmetry_equiv_pos_site_id
 _symmetry_equiv_pos_as_xyz
  1  'x, y, z'
loop_
 _atom_site_type_symbol
 _atom_site_label
 _atom_site_symmetry_multiplicity
 _atom_site_fract_x
 _atom_site_fract_y
 _atom_site_fract_z
 _atom_site_occupancy
  Er  Er0  1  0.612434  0.999987  0.000000  1
  Er  Er1  1  0.999987  0.612434  0.000000  1
  Tm  Tm2  1  0.231915  0.000270  0.500000  1
  Tm  Tm3  1  0.000270  0.231915  0.500000  1
  Tm  Tm4  1  0.768216  0.768216  0.500000  1
  Tm  Tm5  1  0.386975  0.386975  0.000000  1
  Tc  Tc6  1  0.000360  0.000360  0.000000  1
  Bi  Bi7  1  0.333359  0.666484  0.500000  1
  Bi  Bi8  1  0.666484  0.333359  0.500000  1
