# generated using pymatgen
data_SmCdNi3Pt
_symmetry_space_group_name_H-M   'P 1'
_cell_length_a   5.07562595
_cell_length_b   5.07562495
_cell_length_c   5.16866802
_cell_angle_alpha   60.59370623
_cell_angle_beta   60.59371647
_cell_angle_gamma   59.99999329
_symmetry_Int_Tables_number   1
_chemical_formula_structural   SmCdNi3Pt
_chemical_formula_sum   'Sm1 Cd1 Ni3 Pt1'
_cell_volume   94.99097474
_cell_formula_units_Z   1
loop_
 _symmetry_equiv_pos_site_id
 _symmetry_equiv_pos_as_xyz
  1  'x, y, z'
loop_
 _atom_site_type_symbol
 _atom_site_label
 _atom_site_symmetry_multiplicity
 _atom_site_fract_x
 _atom_site_fract_y
 _atom_site_fract_z
 _atom_site_occupancy
  Sm  Sm0  1  0.249150  0.249150  0.252549  1
  Cd  Cd1  1  0.004093  0.004093  0.987721  1
  Ni  Ni2  1  0.625251  0.121258  0.628241  1
  Ni  Ni3  1  0.121258  0.625251  0.628241  1
  Ni  Ni4  1  0.625251  0.625251  0.628241  1
  Pt  Pt5  1  0.624997  0.624997  0.125009  1
