# generated using pymatgen
data_Y3HoP3S
_symmetry_space_group_name_H-M   'P 1'
_cell_length_a   3.98431800
_cell_length_b   5.61295300
_cell_length_c   7.96019200
_cell_angle_alpha   90.00000000
_cell_angle_beta   90.00000000
_cell_angle_gamma   90.00000000
_symmetry_Int_Tables_number   1
_chemical_formula_structural   Y3HoP3S
_chemical_formula_sum   'Y3 Ho1 P3 S1'
_cell_volume   178.02005963
_cell_formula_units_Z   1
loop_
 _symmetry_equiv_pos_site_id
 _symmetry_equiv_pos_as_xyz
  1  'x, y, z'
loop_
 _atom_site_type_symbol
 _atom_site_label
 _atom_site_symmetry_multiplicity
 _atom_site_fract_x
 _atom_site_fract_y
 _atom_site_fract_z
 _atom_site_occupancy
  Y  Y0  1  0.500000  0.500000  0.243601  1
  Y  Y1  1  0.000000  0.000000  0.500000  1
  Y  Y2  1  0.500000  0.500000  0.756399  1
  Ho  Ho3  1  0.000000  0.000000  0.000000  1
  P  P4  1  0.500000  0.000000  0.749149  1
  P  P5  1  0.000000  0.500000  0.000000  1
  P  P6  1  0.500000  0.000000  0.250851  1
  S  S7  1  0.000000  0.500000  0.500000  1
