# generated using pymatgen
data_PtBr16
_symmetry_space_group_name_H-M   'P 1'
_cell_length_a   10.41511867
_cell_length_b   9.97525045
_cell_length_c   9.49763607
_cell_angle_alpha   111.58529667
_cell_angle_beta   114.11875673
_cell_angle_gamma   64.69269738
_symmetry_Int_Tables_number   1
_chemical_formula_structural   PtBr16
_chemical_formula_sum   'Pt1 Br16'
_cell_volume   791.53181761
_cell_formula_units_Z   1
loop_
 _symmetry_equiv_pos_site_id
 _symmetry_equiv_pos_as_xyz
  1  'x, y, z'
loop_
 _atom_site_type_symbol
 _atom_site_label
 _atom_site_symmetry_multiplicity
 _atom_site_fract_x
 _atom_site_fract_y
 _atom_site_fract_z
 _atom_site_occupancy
  Pt  Pt0  1  0.000000  0.000000  0.000000  1
  Br  Br1  1  0.960654  0.090439  0.268437  1
  Br  Br2  1  0.039346  0.909561  0.731563  1
  Br  Br3  1  0.228403  0.086905  0.125361  1
  Br  Br4  1  0.771597  0.913095  0.874639  1
  Br  Br5  1  0.869377  0.254419  0.930148  1
  Br  Br6  1  0.130623  0.745581  0.069852  1
  Br  Br7  1  0.411837  0.344571  0.274834  1
  Br  Br8  1  0.588163  0.655429  0.725166  1
  Br  Br9  1  0.794111  0.480995  0.160695  1
  Br  Br10  1  0.205889  0.519005  0.839305  1
  Br  Br11  1  0.470173  0.888151  0.243488  1
  Br  Br12  1  0.529827  0.111849  0.756512  1
  Br  Br13  1  0.281383  0.288729  0.624627  1
  Br  Br14  1  0.718617  0.711271  0.375373  1
  Br  Br15  1  0.661827  0.219857  0.260254  1
  Br  Br16  1  0.338173  0.780143  0.739746  1
