# generated using pymatgen
data_V2P3(HO3)3
_symmetry_space_group_name_H-M   'P 1'
_cell_length_a   8.18666402
_cell_length_b   8.18804349
_cell_length_c   7.57692200
_cell_angle_alpha   90.00000000
_cell_angle_beta   90.00000000
_cell_angle_gamma   120.00091257
_symmetry_Int_Tables_number   1
_chemical_formula_structural   V2P3(HO3)3
_chemical_formula_sum   'V4 P6 H6 O18'
_cell_volume   439.85199126
_cell_formula_units_Z   2
loop_
 _symmetry_equiv_pos_site_id
 _symmetry_equiv_pos_as_xyz
  1  'x, y, z'
loop_
 _atom_site_type_symbol
 _atom_site_label
 _atom_site_symmetry_multiplicity
 _atom_site_fract_x
 _atom_site_fract_y
 _atom_site_fract_z
 _atom_site_occupancy
  V  V0  1  0.333354  0.666740  0.948662  1
  V  V1  1  0.666646  0.333260  0.448662  1
  V  V2  1  0.666646  0.333260  0.051338  1
  V  V3  1  0.333354  0.666740  0.551338  1
  P  P4  1  0.357315  0.047142  0.750000  1
  P  P5  1  0.310229  0.357345  0.250000  1
  P  P6  1  0.047048  0.689753  0.250000  1
  P  P7  1  0.952952  0.310247  0.750000  1
  P  P8  1  0.689771  0.642655  0.750000  1
  P  P9  1  0.642685  0.952858  0.250000  1
  H  H10  1  0.817722  0.837792  0.750000  1
  H  H11  1  0.979947  0.817753  0.250000  1
  H  H12  1  0.837817  0.020041  0.250000  1
  H  H13  1  0.162183  0.979959  0.750000  1
  H  H14  1  0.020053  0.182247  0.750000  1
  H  H15  1  0.182278  0.162208  0.250000  1
  O  O16  1  0.565320  0.838360  0.419201  1
  O  O17  1  0.726958  0.565379  0.919243  1
  O  O18  1  0.838368  0.273059  0.919178  1
  O  O19  1  0.161632  0.726941  0.419178  1
  O  O20  1  0.512887  0.382986  0.250000  1
  O  O21  1  0.129891  0.512867  0.750000  1
  O  O22  1  0.383031  0.870254  0.750000  1
  O  O23  1  0.616969  0.129746  0.250000  1
  O  O24  1  0.870109  0.487133  0.250000  1
  O  O25  1  0.487113  0.617014  0.750000  1
  O  O26  1  0.565320  0.838360  0.080799  1
  O  O27  1  0.726958  0.565379  0.580757  1
  O  O28  1  0.838368  0.273059  0.580822  1
  O  O29  1  0.161632  0.726941  0.080822  1
  O  O30  1  0.273042  0.434621  0.080757  1
  O  O31  1  0.434680  0.161640  0.580799  1
  O  O32  1  0.434680  0.161640  0.919201  1
  O  O33  1  0.273042  0.434621  0.419243  1
