# generated using pymatgen
data_Y4Bi4Sb2Rh7
_symmetry_space_group_name_H-M   'P 1'
_cell_length_a   7.76910657
_cell_length_b   7.74037251
_cell_length_c   7.74037203
_cell_angle_alpha   110.11223092
_cell_angle_beta   109.07808644
_cell_angle_gamma   109.07808948
_symmetry_Int_Tables_number   1
_chemical_formula_structural   Y4Bi4Sb2Rh7
_chemical_formula_sum   'Y4 Bi4 Sb2 Rh7'
_cell_volume   358.93308397
_cell_formula_units_Z   1
loop_
 _symmetry_equiv_pos_site_id
 _symmetry_equiv_pos_as_xyz
  1  'x, y, z'
loop_
 _atom_site_type_symbol
 _atom_site_label
 _atom_site_symmetry_multiplicity
 _atom_site_fract_x
 _atom_site_fract_y
 _atom_site_fract_z
 _atom_site_occupancy
  Y  Y0  1  0.472075  0.003387  0.003387  1
  Y  Y1  1  0.004469  0.502235  0.002235  1
  Y  Y2  1  0.004469  0.002235  0.502235  1
  Y  Y3  1  0.472075  0.468688  0.468688  1
  Bi  Bi4  1  0.983683  0.305220  0.305220  1
  Bi  Bi5  1  0.690108  0.992798  0.697310  1
  Bi  Bi6  1  0.690108  0.697310  0.992798  1
  Bi  Bi7  1  0.983683  0.678462  0.678462  1
  Sb  Sb8  1  0.325960  0.992101  0.333858  1
  Sb  Sb9  1  0.325960  0.333858  0.992101  1
  Rh  Rh10  1  0.085989  0.042995  0.042995  1
  Rh  Rh11  1  0.496837  0.748418  0.248418  1
  Rh  Rh12  1  0.739358  0.498677  0.240679  1
  Rh  Rh13  1  0.244516  0.745728  0.498789  1
  Rh  Rh14  1  0.244516  0.498789  0.745728  1
  Rh  Rh15  1  0.496837  0.248418  0.748418  1
  Rh  Rh16  1  0.739358  0.240679  0.498677  1
