# generated using pymatgen
data_Y5Ho(Si3Pt2)4
_symmetry_space_group_name_H-M   'P 1'
_cell_length_a   4.24849900
_cell_length_b   8.56309999
_cell_length_c   12.93538000
_cell_angle_alpha   80.24517792
_cell_angle_beta   90.00000000
_cell_angle_gamma   90.00000000
_symmetry_Int_Tables_number   1
_chemical_formula_structural   Y5Ho(Si3Pt2)4
_chemical_formula_sum   'Y5 Ho1 Si12 Pt8'
_cell_volume   463.78935566
_cell_formula_units_Z   1
loop_
 _symmetry_equiv_pos_site_id
 _symmetry_equiv_pos_as_xyz
  1  'x, y, z'
loop_
 _atom_site_type_symbol
 _atom_site_label
 _atom_site_symmetry_multiplicity
 _atom_site_fract_x
 _atom_site_fract_y
 _atom_site_fract_z
 _atom_site_occupancy
  Y  Y0  1  0.250000  0.766266  0.439301  1
  Y  Y1  1  0.250000  0.583578  0.186227  1
  Y  Y2  1  0.750000  0.233797  0.560636  1
  Y  Y3  1  0.750000  0.416443  0.813743  1
  Y  Y4  1  0.750000  0.926267  0.815864  1
  Ho  Ho5  1  0.250000  0.073682  0.184096  1
  Si  Si6  1  0.750000  0.588441  0.571769  1
  Si  Si7  1  0.750000  0.126922  0.004715  1
  Si  Si8  1  0.750000  0.872885  0.573975  1
  Si  Si9  1  0.250000  0.696387  0.713685  1
  Si  Si10  1  0.750000  0.303534  0.286252  1
  Si  Si11  1  0.750000  0.806045  0.276718  1
  Si  Si12  1  0.250000  0.873108  0.995559  1
  Si  Si13  1  0.250000  0.194192  0.723221  1
  Si  Si14  1  0.250000  0.378298  0.001518  1
  Si  Si15  1  0.250000  0.127075  0.425944  1
  Si  Si16  1  0.750000  0.621526  0.998622  1
  Si  Si17  1  0.250000  0.411561  0.428230  1
  Pt  Pt18  1  0.750000  0.351453  0.098934  1
  Pt  Pt19  1  0.250000  0.970677  0.624124  1
  Pt  Pt20  1  0.750000  0.849914  0.088653  1
  Pt  Pt21  1  0.750000  0.029517  0.375346  1
  Pt  Pt22  1  0.250000  0.647928  0.901339  1
  Pt  Pt23  1  0.250000  0.150465  0.911618  1
  Pt  Pt24  1  0.750000  0.532825  0.376033  1
  Pt  Pt25  1  0.250000  0.467220  0.623877  1
