# generated using pymatgen
data_Dy2Ho6In3Os
_symmetry_space_group_name_H-M   'P 1'
_cell_length_a   10.36919300
_cell_length_b   10.36289925
_cell_length_c   7.07170810
_cell_angle_alpha   90.01682735
_cell_angle_beta   90.00000000
_cell_angle_gamma   120.02009571
_symmetry_Int_Tables_number   1
_chemical_formula_structural   Dy2Ho6In3Os
_chemical_formula_sum   'Dy4 Ho12 In6 Os2'
_cell_volume   657.95044834
_cell_formula_units_Z   2
loop_
 _symmetry_equiv_pos_site_id
 _symmetry_equiv_pos_as_xyz
  1  'x, y, z'
loop_
 _atom_site_type_symbol
 _atom_site_label
 _atom_site_symmetry_multiplicity
 _atom_site_fract_x
 _atom_site_fract_y
 _atom_site_fract_z
 _atom_site_occupancy
  Dy  Dy0  1  0.532950  0.065900  0.507257  1
  Dy  Dy1  1  0.934337  0.467141  0.507394  1
  Dy  Dy2  1  0.532805  0.467141  0.507394  1
  Dy  Dy3  1  0.466962  0.933925  0.007257  1
  Ho  Ho4  1  0.066116  0.533045  0.007558  1
  Ho  Ho5  1  0.466928  0.533045  0.007558  1
  Ho  Ho6  1  0.177282  0.354564  0.713162  1
  Ho  Ho7  1  0.645684  0.822746  0.713079  1
  Ho  Ho8  1  0.177063  0.822746  0.713079  1
  Ho  Ho9  1  0.822715  0.645430  0.212636  1
  Ho  Ho10  1  0.354377  0.177305  0.212753  1
  Ho  Ho11  1  0.822927  0.177305  0.212753  1
  Ho  Ho12  1  0.666763  0.333525  0.883619  1
  Ho  Ho13  1  0.333231  0.666462  0.383599  1
  Ho  Ho14  1  0.999998  0.999996  0.492063  1
  Ho  Ho15  1  0.000039  0.000079  0.991861  1
  In  In16  1  0.837178  0.674357  0.753289  1
  In  In17  1  0.325694  0.162892  0.753305  1
  In  In18  1  0.837198  0.162892  0.753305  1
  In  In19  1  0.162968  0.325935  0.252977  1
  In  In20  1  0.674152  0.836958  0.253114  1
  In  In21  1  0.162806  0.836958  0.253114  1
  Os  Os22  1  0.666676  0.333351  0.282801  1
  Os  Os23  1  0.333150  0.666300  0.783119  1
