# generated using pymatgen
data_Tb20Ir5Ru6Au
_symmetry_space_group_name_H-M   'P 1'
_cell_length_a   10.92570839
_cell_length_b   10.92035283
_cell_length_c   6.44767256
_cell_angle_alpha   90.05879752
_cell_angle_beta   89.83575637
_cell_angle_gamma   90.24721218
_symmetry_Int_Tables_number   1
_chemical_formula_structural   Tb20Ir5Ru6Au
_chemical_formula_sum   'Tb20 Ir5 Ru6 Au1'
_cell_volume   769.27780007
_cell_formula_units_Z   1
loop_
 _symmetry_equiv_pos_site_id
 _symmetry_equiv_pos_as_xyz
  1  'x, y, z'
loop_
 _atom_site_type_symbol
 _atom_site_label
 _atom_site_symmetry_multiplicity
 _atom_site_fract_x
 _atom_site_fract_y
 _atom_site_fract_z
 _atom_site_occupancy
  Tb  Tb0  1  0.297916  0.083671  0.367614  1
  Tb  Tb1  1  0.295857  0.907382  0.882355  1
  Tb  Tb2  1  0.708948  0.086647  0.878304  1
  Tb  Tb3  1  0.706442  0.912857  0.378669  1
  Tb  Tb4  1  0.588196  0.793251  0.880645  1
  Tb  Tb5  1  0.587939  0.206569  0.381439  1
  Tb  Tb6  1  0.413173  0.793272  0.379781  1
  Tb  Tb7  1  0.420888  0.206963  0.879394  1
  Tb  Tb8  1  0.206921  0.421156  0.620055  1
  Tb  Tb9  1  0.206480  0.587146  0.119166  1
  Tb  Tb10  1  0.792924  0.412237  0.120362  1
  Tb  Tb11  1  0.793061  0.588419  0.620421  1
  Tb  Tb12  1  0.912802  0.705732  0.120094  1
  Tb  Tb13  1  0.907326  0.295514  0.617670  1
  Tb  Tb14  1  0.085928  0.708693  0.621400  1
  Tb  Tb15  1  0.083222  0.297149  0.133205  1
  Tb  Tb16  1  0.994807  0.997374  0.496295  1
  Tb  Tb17  1  0.995051  0.995363  0.003099  1
  Tb  Tb18  1  0.500063  0.500459  0.000951  1
  Tb  Tb19  1  0.500164  0.499919  0.499456  1
  Ir  Ir20  1  0.153059  0.847760  0.250273  1
  Ir  Ir21  1  0.651780  0.348383  0.749679  1
  Ir  Ir22  1  0.652286  0.652021  0.249847  1
  Ir  Ir23  1  0.346487  0.346075  0.250261  1
  Ir  Ir24  1  0.347828  0.652349  0.750446  1
  Ru  Ru25  1  0.848756  0.152044  0.249080  1
  Ru  Ru26  1  0.847604  0.847270  0.749535  1
  Ru  Ru27  1  0.499951  0.999869  0.121967  1
  Ru  Ru28  1  0.499575  0.999957  0.623877  1
  Ru  Ru29  1  0.999781  0.500012  0.876218  1
  Ru  Ru30  1  0.999508  0.499421  0.378034  1
  Au  Au31  1  0.155276  0.155065  0.750406  1
