# generated using pymatgen
data_Tb7Ho(Er3Sn4)4
_symmetry_space_group_name_H-M   'P 1'
_cell_length_a   8.00120039
_cell_length_b   8.14086611
_cell_length_c   15.38137261
_cell_angle_alpha   90.00799689
_cell_angle_beta   90.03119366
_cell_angle_gamma   89.98281238
_symmetry_Int_Tables_number   1
_chemical_formula_structural   Tb7Ho(Er3Sn4)4
_chemical_formula_sum   'Tb7 Ho1 Er12 Sn16'
_cell_volume   1001.89166636
_cell_formula_units_Z   1
loop_
 _symmetry_equiv_pos_site_id
 _symmetry_equiv_pos_as_xyz
  1  'x, y, z'
loop_
 _atom_site_type_symbol
 _atom_site_label
 _atom_site_symmetry_multiplicity
 _atom_site_fract_x
 _atom_site_fract_y
 _atom_site_fract_z
 _atom_site_occupancy
  Tb  Tb0  1  0.020478  0.180058  0.597493  1
  Tb  Tb1  1  0.479511  0.680014  0.402542  1
  Tb  Tb2  1  0.979472  0.820039  0.097456  1
  Tb  Tb3  1  0.479456  0.679952  0.097416  1
  Tb  Tb4  1  0.979503  0.819983  0.402546  1
  Tb  Tb5  1  0.520458  0.320020  0.597381  1
  Tb  Tb6  1  0.020475  0.180065  0.902555  1
  Ho  Ho7  1  0.520637  0.320045  0.902471  1
  Er  Er8  1  0.367418  0.835999  0.877841  1
  Er  Er9  1  0.867308  0.664033  0.622137  1
  Er  Er10  1  0.632650  0.164051  0.377870  1
  Er  Er11  1  0.132593  0.335880  0.122153  1
  Er  Er12  1  0.632541  0.164162  0.122079  1
  Er  Er13  1  0.132643  0.335909  0.377861  1
  Er  Er14  1  0.367318  0.835963  0.622152  1
  Er  Er15  1  0.867294  0.663913  0.877840  1
  Er  Er16  1  0.198261  0.503301  0.750082  1
  Er  Er17  1  0.697974  0.996701  0.750040  1
  Er  Er18  1  0.801921  0.496541  0.250041  1
  Er  Er19  1  0.301946  0.003444  0.250021  1
  Sn  Sn20  1  0.293623  0.036001  0.041869  1
  Sn  Sn21  1  0.793632  0.463984  0.458127  1
  Sn  Sn22  1  0.706379  0.963983  0.541880  1
  Sn  Sn23  1  0.206894  0.535650  0.958023  1
  Sn  Sn24  1  0.706246  0.964273  0.958077  1
  Sn  Sn25  1  0.206346  0.536053  0.541877  1
  Sn  Sn26  1  0.293628  0.035992  0.458131  1
  Sn  Sn27  1  0.793256  0.463831  0.041707  1
  Sn  Sn28  1  0.564771  0.620156  0.750013  1
  Sn  Sn29  1  0.064755  0.879677  0.750007  1
  Sn  Sn30  1  0.435258  0.379659  0.249993  1
  Sn  Sn31  1  0.935237  0.120361  0.250007  1
  Sn  Sn32  1  0.329016  0.146514  0.750232  1
  Sn  Sn33  1  0.828495  0.353786  0.750069  1
  Sn  Sn34  1  0.671314  0.853819  0.249995  1
  Sn  Sn35  1  0.171297  0.646190  0.250014  1
