# generated using pymatgen
data_Cs6Lu(AsBr6)3
_symmetry_space_group_name_H-M   'P 1'
_cell_length_a   7.91506700
_cell_length_b   7.91506753
_cell_length_c   20.01741700
_cell_angle_alpha   90.00000000
_cell_angle_beta   90.00000000
_cell_angle_gamma   119.99999359
_symmetry_Int_Tables_number   1
_chemical_formula_structural   Cs6Lu(AsBr6)3
_chemical_formula_sum   'Cs6 Lu1 As3 Br18'
_cell_volume   1086.04523981
_cell_formula_units_Z   1
loop_
 _symmetry_equiv_pos_site_id
 _symmetry_equiv_pos_as_xyz
  1  'x, y, z'
loop_
 _atom_site_type_symbol
 _atom_site_label
 _atom_site_symmetry_multiplicity
 _atom_site_fract_x
 _atom_site_fract_y
 _atom_site_fract_z
 _atom_site_occupancy
  Cs  Cs0  1  0.333333  0.666667  0.073632  1
  Cs  Cs1  1  0.666667  0.333333  0.924851  1
  Cs  Cs2  1  0.666667  0.333333  0.574281  1
  Cs  Cs3  1  0.333333  0.666667  0.419019  1
  Cs  Cs4  1  0.000000  0.000000  0.250077  1
  Cs  Cs5  1  0.000000  0.000000  0.755774  1
  Lu  Lu6  1  0.333333  0.666667  0.840808  1
  As  As7  1  0.333333  0.666667  0.654687  1
  As  As8  1  0.666667  0.333333  0.341593  1
  As  As9  1  0.666667  0.333333  0.157771  1
  Br  Br10  1  0.176721  0.353443  0.588390  1
  Br  Br11  1  0.823506  0.647012  0.411373  1
  Br  Br12  1  0.646557  0.823279  0.588390  1
  Br  Br13  1  0.822849  0.645699  0.089771  1
  Br  Br14  1  0.352988  0.176494  0.411373  1
  Br  Br15  1  0.167737  0.335474  0.911696  1
  Br  Br16  1  0.176721  0.823279  0.588390  1
  Br  Br17  1  0.354301  0.177151  0.089771  1
  Br  Br18  1  0.823506  0.176494  0.411373  1
  Br  Br19  1  0.664526  0.832263  0.911696  1
  Br  Br20  1  0.822849  0.177151  0.089771  1
  Br  Br21  1  0.167737  0.832263  0.911696  1
  Br  Br22  1  0.506442  0.012882  0.251530  1
  Br  Br23  1  0.493071  0.986141  0.749742  1
  Br  Br24  1  0.987118  0.493558  0.251530  1
  Br  Br25  1  0.013859  0.506929  0.749742  1
  Br  Br26  1  0.506442  0.493558  0.251530  1
  Br  Br27  1  0.493071  0.506929  0.749742  1
