# generated using pymatgen
data_Dy3Er7(GaSb)4
_symmetry_space_group_name_H-M   'P 1'
_cell_length_a   8.62957495
_cell_length_b   8.55655093
_cell_length_c   7.87451208
_cell_angle_alpha   89.93768560
_cell_angle_beta   89.97085575
_cell_angle_gamma   125.47753790
_symmetry_Int_Tables_number   1
_chemical_formula_structural   Dy3Er7(GaSb)4
_chemical_formula_sum   'Dy3 Er7 Ga4 Sb4'
_cell_volume   473.49843067
_cell_formula_units_Z   1
loop_
 _symmetry_equiv_pos_site_id
 _symmetry_equiv_pos_as_xyz
  1  'x, y, z'
loop_
 _atom_site_type_symbol
 _atom_site_label
 _atom_site_symmetry_multiplicity
 _atom_site_fract_x
 _atom_site_fract_y
 _atom_site_fract_z
 _atom_site_occupancy
  Dy  Dy0  1  0.041682  0.305253  0.330182  1
  Dy  Dy1  1  0.959099  0.695784  0.669704  1
  Dy  Dy2  1  0.458466  0.195743  0.830537  1
  Er  Er3  1  0.796525  0.538021  0.167401  1
  Er  Er4  1  0.540897  0.802116  0.168448  1
  Er  Er5  1  0.203169  0.461954  0.832615  1
  Er  Er6  1  0.703283  0.962090  0.667660  1
  Er  Er7  1  0.297157  0.038368  0.332389  1
  Er  Er8  1  0.999504  0.999427  0.000333  1
  Er  Er9  1  0.500192  0.500732  0.499727  1
  Ga  Ga10  1  0.375251  0.375665  0.124300  1
  Ga  Ga11  1  0.624771  0.625050  0.875862  1
  Ga  Ga12  1  0.124609  0.124867  0.624340  1
  Ga  Ga13  1  0.874782  0.875337  0.375212  1
  Sb  Sb14  1  0.796289  0.207558  0.996245  1
  Sb  Sb15  1  0.202932  0.790422  0.005624  1
  Sb  Sb16  1  0.702328  0.291490  0.495540  1
  Sb  Sb17  1  0.299064  0.710122  0.503880  1
