# generated using pymatgen
data_SrU5(Pb2O9)2
_symmetry_space_group_name_H-M   'P 1'
_cell_length_a   6.97703323
_cell_length_b   7.94360090
_cell_length_c   8.89205861
_cell_angle_alpha   102.37851311
_cell_angle_beta   97.87519379
_cell_angle_gamma   107.02935120
_symmetry_Int_Tables_number   1
_chemical_formula_structural   SrU5(Pb2O9)2
_chemical_formula_sum   'Sr1 U5 Pb4 O18'
_cell_volume   449.60456121
_cell_formula_units_Z   1
loop_
 _symmetry_equiv_pos_site_id
 _symmetry_equiv_pos_as_xyz
  1  'x, y, z'
loop_
 _atom_site_type_symbol
 _atom_site_label
 _atom_site_symmetry_multiplicity
 _atom_site_fract_x
 _atom_site_fract_y
 _atom_site_fract_z
 _atom_site_occupancy
  Sr  Sr0  1  0.000000  0.500000  0.000000  1
  U  U1  1  0.000000  0.000000  0.000000  1
  U  U2  1  0.789583  0.577878  0.585627  1
  U  U3  1  0.622024  0.195135  0.195386  1
  U  U4  1  0.377976  0.804865  0.804614  1
  U  U5  1  0.210417  0.422122  0.414373  1
  Pb  Pb6  1  0.808342  0.113487  0.593080  1
  Pb  Pb7  1  0.601200  0.701350  0.198530  1
  Pb  Pb8  1  0.398800  0.298650  0.801470  1
  Pb  Pb9  1  0.191658  0.886513  0.406920  1
  O  O10  1  0.820666  0.767654  0.461425  1
  O  O11  1  0.017995  0.226062  0.184193  1
  O  O12  1  0.674664  0.386872  0.079179  1
  O  O13  1  0.454774  0.001138  0.692966  1
  O  O14  1  0.861123  0.353327  0.413514  1
  O  O15  1  0.490668  0.380537  0.353343  1
  O  O16  1  0.243397  0.604701  0.280807  1
  O  O17  1  0.979568  0.823678  0.143724  1
  O  O18  1  0.668287  0.950552  0.988309  1
  O  O19  1  0.331713  0.049448  0.011691  1
  O  O20  1  0.020432  0.176322  0.856276  1
  O  O21  1  0.756603  0.395299  0.719193  1
  O  O22  1  0.509332  0.619463  0.646657  1
  O  O23  1  0.138877  0.646673  0.586486  1
  O  O24  1  0.545226  0.998862  0.307034  1
  O  O25  1  0.325336  0.613128  0.920821  1
  O  O26  1  0.982005  0.773938  0.815807  1
  O  O27  1  0.179334  0.232346  0.538575  1
