# generated using pymatgen
data_Rb3Nb(SO)2
_symmetry_space_group_name_H-M   'P 1'
_cell_length_a   7.80067400
_cell_length_b   11.33133727
_cell_length_c   12.58517114
_cell_angle_alpha   58.00377255
_cell_angle_beta   90.00000000
_cell_angle_gamma   90.00000000
_symmetry_Int_Tables_number   1
_chemical_formula_structural   Rb3Nb(SO)2
_chemical_formula_sum   'Rb12 Nb4 S8 O8'
_cell_volume   943.43236556
_cell_formula_units_Z   4
loop_
 _symmetry_equiv_pos_site_id
 _symmetry_equiv_pos_as_xyz
  1  'x, y, z'
loop_
 _atom_site_type_symbol
 _atom_site_label
 _atom_site_symmetry_multiplicity
 _atom_site_fract_x
 _atom_site_fract_y
 _atom_site_fract_z
 _atom_site_occupancy
  Rb  Rb0  1  0.741242  0.061357  0.883988  1
  Rb  Rb1  1  0.862992  0.516575  0.160461  1
  Rb  Rb2  1  0.258758  0.938643  0.116012  1
  Rb  Rb3  1  0.758758  0.061357  0.383988  1
  Rb  Rb4  1  0.137008  0.483425  0.839539  1
  Rb  Rb5  1  0.726689  0.768296  0.792872  1
  Rb  Rb6  1  0.362992  0.483425  0.339539  1
  Rb  Rb7  1  0.226689  0.231704  0.707128  1
  Rb  Rb8  1  0.273311  0.231704  0.207128  1
  Rb  Rb9  1  0.773311  0.768296  0.292872  1
  Rb  Rb10  1  0.241242  0.938643  0.616012  1
  Rb  Rb11  1  0.637008  0.516575  0.660461  1
  Nb  Nb12  1  0.699199  0.304516  0.027615  1
  Nb  Nb13  1  0.800801  0.304516  0.527615  1
  Nb  Nb14  1  0.300801  0.695484  0.972385  1
  Nb  Nb15  1  0.199199  0.695484  0.472385  1
  S  S16  1  0.464218  0.249174  0.942887  1
  S  S17  1  0.579693  0.138312  0.591719  1
  S  S18  1  0.964218  0.750826  0.557113  1
  S  S19  1  0.535782  0.750826  0.057113  1
  S  S20  1  0.035782  0.249174  0.442887  1
  S  S21  1  0.079693  0.861688  0.908281  1
  S  S22  1  0.420307  0.861688  0.408281  1
  S  S23  1  0.920307  0.138312  0.091719  1
  O  O24  1  0.286038  0.522835  0.586433  1
  O  O25  1  0.630178  0.304667  0.166667  1
  O  O26  1  0.786038  0.477165  0.913567  1
  O  O27  1  0.213962  0.522835  0.086433  1
  O  O28  1  0.869822  0.304667  0.666667  1
  O  O29  1  0.713962  0.477165  0.413567  1
  O  O30  1  0.130178  0.695333  0.333333  1
  O  O31  1  0.369822  0.695333  0.833333  1
