# generated using pymatgen
data_Ac2La(Zn3Ni2)3
_symmetry_space_group_name_H-M   'P 1'
_cell_length_a   9.26055700
_cell_length_b   9.26055572
_cell_length_c   4.19153600
_cell_angle_alpha   90.00000000
_cell_angle_beta   90.00000000
_cell_angle_gamma   119.99999387
_symmetry_Int_Tables_number   1
_chemical_formula_structural   Ac2La(Zn3Ni2)3
_chemical_formula_sum   'Ac2 La1 Zn9 Ni6'
_cell_volume   311.29920916
_cell_formula_units_Z   1
loop_
 _symmetry_equiv_pos_site_id
 _symmetry_equiv_pos_as_xyz
  1  'x, y, z'
loop_
 _atom_site_type_symbol
 _atom_site_label
 _atom_site_symmetry_multiplicity
 _atom_site_fract_x
 _atom_site_fract_y
 _atom_site_fract_z
 _atom_site_occupancy
  Ac  Ac0  1  0.333333  0.666667  0.000000  1
  Ac  Ac1  1  0.666667  0.333333  0.000000  1
  La  La2  1  0.000000  0.000000  0.500000  1
  Zn  Zn3  1  0.500000  0.000000  0.500000  1
  Zn  Zn4  1  0.500000  0.500000  0.500000  1
  Zn  Zn5  1  0.000000  0.500000  0.500000  1
  Zn  Zn6  1  0.287819  0.000000  0.000000  1
  Zn  Zn7  1  0.287819  0.287819  0.000000  1
  Zn  Zn8  1  0.000000  0.712181  0.000000  1
  Zn  Zn9  1  0.000000  0.287819  0.000000  1
  Zn  Zn10  1  0.712181  0.712181  0.000000  1
  Zn  Zn11  1  0.712181  0.000000  0.000000  1
  Ni  Ni12  1  0.180233  0.360466  0.500000  1
  Ni  Ni13  1  0.819767  0.180233  0.500000  1
  Ni  Ni14  1  0.360466  0.180233  0.500000  1
  Ni  Ni15  1  0.639534  0.819767  0.500000  1
  Ni  Ni16  1  0.180233  0.819767  0.500000  1
  Ni  Ni17  1  0.819767  0.639534  0.500000  1
