# generated using pymatgen
data_Ba3Sn4Se
_symmetry_space_group_name_H-M   'P 1'
_cell_length_a   9.19482237
_cell_length_b   9.19482184
_cell_length_c   9.27106525
_cell_angle_alpha   119.72833299
_cell_angle_beta   119.72833764
_cell_angle_gamma   90.00000020
_symmetry_Int_Tables_number   1
_chemical_formula_structural   Ba3Sn4Se
_chemical_formula_sum   'Ba6 Sn8 Se2'
_cell_volume   558.76510746
_cell_formula_units_Z   2
loop_
 _symmetry_equiv_pos_site_id
 _symmetry_equiv_pos_as_xyz
  1  'x, y, z'
loop_
 _atom_site_type_symbol
 _atom_site_label
 _atom_site_symmetry_multiplicity
 _atom_site_fract_x
 _atom_site_fract_y
 _atom_site_fract_z
 _atom_site_occupancy
  Ba  Ba0  1  0.250000  0.250000  0.500000  1
  Ba  Ba1  1  0.750000  0.750000  0.500000  1
  Ba  Ba2  1  0.669438  0.169438  0.000000  1
  Ba  Ba3  1  0.330562  0.830562  0.000000  1
  Ba  Ba4  1  0.830562  0.669438  0.000000  1
  Ba  Ba5  1  0.169438  0.330562  0.000000  1
  Sn  Sn6  1  0.332583  0.832583  0.386343  1
  Sn  Sn7  1  0.667417  0.167417  0.613657  1
  Sn  Sn8  1  0.053761  0.553761  0.386343  1
  Sn  Sn9  1  0.553761  0.332583  0.386343  1
  Sn  Sn10  1  0.167417  0.946239  0.613657  1
  Sn  Sn11  1  0.946239  0.446239  0.613657  1
  Sn  Sn12  1  0.446239  0.667417  0.613657  1
  Sn  Sn13  1  0.832583  0.053761  0.386343  1
  Se  Se14  1  0.000000  0.000000  0.000000  1
  Se  Se15  1  0.500000  0.500000  0.000000  1
