# generated using pymatgen
data_Hf18Re5SiMo3Os
_symmetry_space_group_name_H-M   'P 1'
_cell_length_a   8.64743723
_cell_length_b   8.64743846
_cell_length_c   8.58524700
_cell_angle_alpha   90.00000000
_cell_angle_beta   90.00000000
_cell_angle_gamma   120.01064593
_symmetry_Int_Tables_number   1
_chemical_formula_structural   Hf18Re5SiMo3Os
_chemical_formula_sum   'Hf18 Re5 Si1 Mo3 Os1'
_cell_volume   555.91926620
_cell_formula_units_Z   1
loop_
 _symmetry_equiv_pos_site_id
 _symmetry_equiv_pos_as_xyz
  1  'x, y, z'
loop_
 _atom_site_type_symbol
 _atom_site_label
 _atom_site_symmetry_multiplicity
 _atom_site_fract_x
 _atom_site_fract_y
 _atom_site_fract_z
 _atom_site_occupancy
  Hf  Hf0  1  0.198766  0.801234  0.446797  1
  Hf  Hf1  1  0.198321  0.397025  0.447639  1
  Hf  Hf2  1  0.602975  0.801679  0.447639  1
  Hf  Hf3  1  0.805272  0.194728  0.547516  1
  Hf  Hf4  1  0.804264  0.609459  0.546290  1
  Hf  Hf5  1  0.390541  0.195736  0.546290  1
  Hf  Hf6  1  0.805272  0.194728  0.952484  1
  Hf  Hf7  1  0.804264  0.609459  0.953710  1
  Hf  Hf8  1  0.390541  0.195736  0.953710  1
  Hf  Hf9  1  0.198766  0.801234  0.053203  1
  Hf  Hf10  1  0.198321  0.397025  0.052361  1
  Hf  Hf11  1  0.602975  0.801679  0.052361  1
  Hf  Hf12  1  0.540019  0.459981  0.250000  1
  Hf  Hf13  1  0.541006  0.080974  0.250000  1
  Hf  Hf14  1  0.919026  0.458994  0.250000  1
  Hf  Hf15  1  0.461520  0.538480  0.750000  1
  Hf  Hf16  1  0.463156  0.924361  0.750000  1
  Hf  Hf17  1  0.075639  0.536844  0.750000  1
  Re  Re18  1  0.889067  0.110933  0.250000  1
  Re  Re19  1  0.888542  0.777120  0.250000  1
  Re  Re20  1  0.222880  0.111458  0.250000  1
  Re  Re21  1  0.110756  0.222831  0.750000  1
  Re  Re22  1  0.777169  0.889244  0.750000  1
  Si  Si23  1  0.666820  0.333180  0.750000  1
  Mo  Mo24  1  0.110223  0.889777  0.750000  1
  Mo  Mo25  1  0.999994  0.000006  0.500855  1
  Mo  Mo26  1  0.999994  0.000006  0.999145  1
  Os  Os27  1  0.333915  0.666085  0.250000  1
