# generated using pymatgen
data_Tb3Dy2Y3(ReB6)4
_symmetry_space_group_name_H-M   'P 1'
_cell_length_a   3.69083900
_cell_length_b   9.19350301
_cell_length_c   11.58498103
_cell_angle_alpha   90.00655990
_cell_angle_beta   90.00000000
_cell_angle_gamma   90.00000000
_symmetry_Int_Tables_number   1
_chemical_formula_structural   Tb3Dy2Y3(ReB6)4
_chemical_formula_sum   'Tb3 Dy2 Y3 Re4 B24'
_cell_volume   393.09855531
_cell_formula_units_Z   1
loop_
 _symmetry_equiv_pos_site_id
 _symmetry_equiv_pos_as_xyz
  1  'x, y, z'
loop_
 _atom_site_type_symbol
 _atom_site_label
 _atom_site_symmetry_multiplicity
 _atom_site_fract_x
 _atom_site_fract_y
 _atom_site_fract_z
 _atom_site_occupancy
  Tb  Tb0  1  0.000000  0.323753  0.413878  1
  Tb  Tb1  1  0.000000  0.676212  0.586162  1
  Tb  Tb2  1  0.000000  0.823665  0.086014  1
  Dy  Dy3  1  0.000000  0.443024  0.129955  1
  Dy  Dy4  1  0.000000  0.556962  0.870036  1
  Y  Y5  1  0.000000  0.176333  0.914014  1
  Y  Y6  1  0.000000  0.943124  0.369987  1
  Y  Y7  1  0.000000  0.056921  0.630002  1
  Re  Re8  1  0.000000  0.638458  0.320761  1
  Re  Re9  1  0.000000  0.361500  0.679356  1
  Re  Re10  1  0.000000  0.138735  0.178986  1
  Re  Re11  1  0.000000  0.861295  0.820907  1
  B  B12  1  0.500000  0.553459  0.432633  1
  B  B13  1  0.500000  0.446454  0.567440  1
  B  B14  1  0.500000  0.053463  0.067231  1
  B  B15  1  0.500000  0.946602  0.932671  1
  B  B16  1  0.500000  0.748838  0.418298  1
  B  B17  1  0.500000  0.251140  0.581790  1
  B  B18  1  0.500000  0.248954  0.081551  1
  B  B19  1  0.500000  0.751158  0.918237  1
  B  B20  1  0.500000  0.791767  0.265540  1
  B  B21  1  0.500000  0.208106  0.734557  1
  B  B22  1  0.500000  0.291824  0.234158  1
  B  B23  1  0.500000  0.708192  0.765765  1
  B  B24  1  0.500000  0.630947  0.185856  1
  B  B25  1  0.500000  0.368970  0.814246  1
  B  B26  1  0.500000  0.131125  0.313995  1
  B  B27  1  0.500000  0.868988  0.686000  1
  B  B28  1  0.500000  0.982828  0.211782  1
  B  B29  1  0.500000  0.017400  0.788205  1
  B  B30  1  0.500000  0.482771  0.287936  1
  B  B31  1  0.500000  0.517168  0.712106  1
  B  B32  1  0.500000  0.600011  0.027979  1
  B  B33  1  0.500000  0.399788  0.971945  1
  B  B34  1  0.500000  0.100127  0.472016  1
  B  B35  1  0.500000  0.899940  0.528010  1
