# generated using pymatgen
data_TbY3(Tm3Ir2)2
_symmetry_space_group_name_H-M   'P 1'
_cell_length_a   6.43197919
_cell_length_b   7.19501121
_cell_length_c   8.45746854
_cell_angle_alpha   96.80974437
_cell_angle_beta   112.34369721
_cell_angle_gamma   90.09919812
_symmetry_Int_Tables_number   1
_chemical_formula_structural   TbY3(Tm3Ir2)2
_chemical_formula_sum   'Tb1 Y3 Tm6 Ir4'
_cell_volume   358.98907314
_cell_formula_units_Z   1
loop_
 _symmetry_equiv_pos_site_id
 _symmetry_equiv_pos_as_xyz
  1  'x, y, z'
loop_
 _atom_site_type_symbol
 _atom_site_label
 _atom_site_symmetry_multiplicity
 _atom_site_fract_x
 _atom_site_fract_y
 _atom_site_fract_z
 _atom_site_occupancy
  Tb  Tb0  1  0.971409  0.919671  0.186545  1
  Y  Y1  1  0.785115  0.579770  0.813484  1
  Y  Y2  1  0.028744  0.079707  0.813471  1
  Y  Y3  1  0.214913  0.420403  0.186390  1
  Tm  Tm4  1  0.650309  0.817081  0.440613  1
  Tm  Tm5  1  0.209849  0.682585  0.559463  1
  Tm  Tm6  1  0.349716  0.182884  0.559746  1
  Tm  Tm7  1  0.790176  0.317325  0.440512  1
  Tm  Tm8  1  0.427737  0.750000  0.999908  1
  Tm  Tm9  1  0.572126  0.250005  0.999900  1
  Ir  Ir10  1  0.820260  0.573701  0.221358  1
  Ir  Ir11  1  0.598327  0.926756  0.778736  1
  Ir  Ir12  1  0.180080  0.426887  0.778598  1
  Ir  Ir13  1  0.401240  0.073224  0.221277  1
