# generated using pymatgen
data_BaTbHoS4
_symmetry_space_group_name_H-M   'P 1'
_cell_length_a   4.05732600
_cell_length_b   12.30985700
_cell_length_c   14.55089100
_cell_angle_alpha   90.00000000
_cell_angle_beta   90.00000000
_cell_angle_gamma   90.00000000
_symmetry_Int_Tables_number   1
_chemical_formula_structural   BaTbHoS4
_chemical_formula_sum   'Ba4 Tb4 Ho4 S16'
_cell_volume   726.74574773
_cell_formula_units_Z   4
loop_
 _symmetry_equiv_pos_site_id
 _symmetry_equiv_pos_as_xyz
  1  'x, y, z'
loop_
 _atom_site_type_symbol
 _atom_site_label
 _atom_site_symmetry_multiplicity
 _atom_site_fract_x
 _atom_site_fract_y
 _atom_site_fract_z
 _atom_site_occupancy
  Ba  Ba0  1  0.250000  0.757201  0.339024  1
  Ba  Ba1  1  0.250000  0.257201  0.160976  1
  Ba  Ba2  1  0.750000  0.242799  0.660976  1
  Ba  Ba3  1  0.750000  0.742799  0.839024  1
  Tb  Tb4  1  0.250000  0.430941  0.391184  1
  Tb  Tb5  1  0.250000  0.930941  0.108816  1
  Tb  Tb6  1  0.750000  0.569059  0.608816  1
  Tb  Tb7  1  0.750000  0.069059  0.891184  1
  Ho  Ho8  1  0.250000  0.422615  0.898434  1
  Ho  Ho9  1  0.250000  0.922615  0.601566  1
  Ho  Ho10  1  0.750000  0.577385  0.101566  1
  Ho  Ho11  1  0.750000  0.077385  0.398434  1
  S  S12  1  0.250000  0.209719  0.836032  1
  S  S13  1  0.250000  0.709719  0.663968  1
  S  S14  1  0.750000  0.790281  0.163968  1
  S  S15  1  0.750000  0.290281  0.336032  1
  S  S16  1  0.250000  0.123530  0.522540  1
  S  S17  1  0.250000  0.623530  0.977460  1
  S  S18  1  0.750000  0.876470  0.477460  1
  S  S19  1  0.750000  0.376470  0.022540  1
  S  S20  1  0.250000  0.022091  0.284225  1
  S  S21  1  0.250000  0.522091  0.215775  1
  S  S22  1  0.750000  0.977909  0.715775  1
  S  S23  1  0.750000  0.477909  0.784225  1
  S  S24  1  0.250000  0.419452  0.577800  1
  S  S25  1  0.250000  0.919452  0.922200  1
  S  S26  1  0.750000  0.580548  0.422200  1
  S  S27  1  0.750000  0.080548  0.077800  1
