# generated using pymatgen
data_Yb2Er2ReOs7
_symmetry_space_group_name_H-M   'P 1'
_cell_length_a   5.26722795
_cell_length_b   5.26722765
_cell_length_c   8.79858575
_cell_angle_alpha   89.93811373
_cell_angle_beta   90.06188586
_cell_angle_gamma   118.29424531
_symmetry_Int_Tables_number   1
_chemical_formula_structural   Yb2Er2ReOs7
_chemical_formula_sum   'Yb2 Er2 Re1 Os7'
_cell_volume   214.94057399
_cell_formula_units_Z   1
loop_
 _symmetry_equiv_pos_site_id
 _symmetry_equiv_pos_as_xyz
  1  'x, y, z'
loop_
 _atom_site_type_symbol
 _atom_site_label
 _atom_site_symmetry_multiplicity
 _atom_site_fract_x
 _atom_site_fract_y
 _atom_site_fract_z
 _atom_site_occupancy
  Yb  Yb0  1  0.331562  0.668438  0.441194  1
  Yb  Yb1  1  0.665227  0.334773  0.561509  1
  Er  Er2  1  0.665905  0.334095  0.930667  1
  Er  Er3  1  0.330651  0.669349  0.066413  1
  Re  Re4  1  0.832785  0.167215  0.250717  1
  Os  Os5  1  0.994415  0.005585  0.500448  1
  Os  Os6  1  0.992192  0.007808  0.999307  1
  Os  Os7  1  0.828563  0.651065  0.248568  1
  Os  Os8  1  0.348935  0.171437  0.248568  1
  Os  Os9  1  0.177898  0.822102  0.751612  1
  Os  Os10  1  0.170826  0.338959  0.750499  1
  Os  Os11  1  0.661041  0.829174  0.750499  1
