# generated using pymatgen
data_Y3ErMg2Ir3
_symmetry_space_group_name_H-M   'P 1'
_cell_length_a   7.44254877
_cell_length_b   7.44368467
_cell_length_c   4.09524400
_cell_angle_alpha   90.00000000
_cell_angle_beta   90.00000000
_cell_angle_gamma   120.00505655
_symmetry_Int_Tables_number   1
_chemical_formula_structural   Y3ErMg2Ir3
_chemical_formula_sum   'Y3 Er1 Mg2 Ir3'
_cell_volume   196.47076673
_cell_formula_units_Z   1
loop_
 _symmetry_equiv_pos_site_id
 _symmetry_equiv_pos_as_xyz
  1  'x, y, z'
loop_
 _atom_site_type_symbol
 _atom_site_label
 _atom_site_symmetry_multiplicity
 _atom_site_fract_x
 _atom_site_fract_y
 _atom_site_fract_z
 _atom_site_occupancy
  Y  Y0  1  0.000000  0.609691  0.500000  1
  Y  Y1  1  0.430698  0.412219  0.500000  1
  Y  Y2  1  0.569302  0.981521  0.500000  1
  Er  Er3  1  0.000000  0.247993  0.000000  1
  Mg  Mg4  1  0.251005  0.003396  0.000000  1
  Mg  Mg5  1  0.748995  0.752390  0.000000  1
  Ir  Ir6  1  0.329449  0.661598  0.000000  1
  Ir  Ir7  1  0.000000  0.999041  0.500000  1
  Ir  Ir8  1  0.670551  0.332147  0.000000  1
