# generated using pymatgen
data_HoEr4(Hg2Pt)2
_symmetry_space_group_name_H-M   'P 1'
_cell_length_a   3.63096700
_cell_length_b   7.94181800
_cell_length_c   18.03204200
_cell_angle_alpha   90.00000000
_cell_angle_beta   90.00000000
_cell_angle_gamma   90.00000000
_symmetry_Int_Tables_number   1
_chemical_formula_structural   HoEr4(Hg2Pt)2
_chemical_formula_sum   'Ho2 Er8 Hg8 Pt4'
_cell_volume   519.98060187
_cell_formula_units_Z   2
loop_
 _symmetry_equiv_pos_site_id
 _symmetry_equiv_pos_as_xyz
  1  'x, y, z'
loop_
 _atom_site_type_symbol
 _atom_site_label
 _atom_site_symmetry_multiplicity
 _atom_site_fract_x
 _atom_site_fract_y
 _atom_site_fract_z
 _atom_site_occupancy
  Ho  Ho0  1  0.000000  0.000000  0.000000  1
  Ho  Ho1  1  0.000000  0.500000  0.500000  1
  Er  Er2  1  0.000000  0.111307  0.413389  1
  Er  Er3  1  0.000000  0.888693  0.586611  1
  Er  Er4  1  0.000000  0.388693  0.913389  1
  Er  Er5  1  0.000000  0.611307  0.086611  1
  Er  Er6  1  0.000000  0.235210  0.216453  1
  Er  Er7  1  0.000000  0.764790  0.783547  1
  Er  Er8  1  0.000000  0.264790  0.716453  1
  Er  Er9  1  0.000000  0.735210  0.283547  1
  Hg  Hg10  1  0.500000  0.421374  0.355772  1
  Hg  Hg11  1  0.500000  0.578626  0.644228  1
  Hg  Hg12  1  0.500000  0.078626  0.855772  1
  Hg  Hg13  1  0.500000  0.921374  0.144228  1
  Hg  Hg14  1  0.500000  0.289185  0.061869  1
  Hg  Hg15  1  0.500000  0.710815  0.938131  1
  Hg  Hg16  1  0.500000  0.210815  0.561869  1
  Hg  Hg17  1  0.500000  0.789185  0.438131  1
  Pt  Pt18  1  0.500000  0.021906  0.302616  1
  Pt  Pt19  1  0.500000  0.978094  0.697384  1
  Pt  Pt20  1  0.500000  0.478094  0.802616  1
  Pt  Pt21  1  0.500000  0.521906  0.197384  1
