# generated using pymatgen
data_Pr3DyHg2(IrO7)2
_symmetry_space_group_name_H-M   'P 1'
_cell_length_a   6.47488556
_cell_length_b   6.85432459
_cell_length_c   7.73388400
_cell_angle_alpha   90.00000000
_cell_angle_beta   90.00000000
_cell_angle_gamma   113.58468548
_symmetry_Int_Tables_number   1
_chemical_formula_structural   Pr3DyHg2(IrO7)2
_chemical_formula_sum   'Pr3 Dy1 Hg2 Ir2 O14'
_cell_volume   314.56654405
_cell_formula_units_Z   1
loop_
 _symmetry_equiv_pos_site_id
 _symmetry_equiv_pos_as_xyz
  1  'x, y, z'
loop_
 _atom_site_type_symbol
 _atom_site_label
 _atom_site_symmetry_multiplicity
 _atom_site_fract_x
 _atom_site_fract_y
 _atom_site_fract_z
 _atom_site_occupancy
  Pr  Pr0  1  0.995181  0.001674  0.997877  1
  Pr  Pr1  1  0.995181  0.001674  0.502123  1
  Pr  Pr2  1  0.061000  0.520559  0.250000  1
  Dy  Dy3  1  0.953592  0.488441  0.750000  1
  Hg  Hg4  1  0.479256  0.978579  0.750000  1
  Hg  Hg5  1  0.514120  0.027845  0.250000  1
  Ir  Ir6  1  0.502120  0.497224  0.997173  1
  Ir  Ir7  1  0.502120  0.497224  0.502827  1
  O  O8  1  0.600347  0.513872  0.750000  1
  O  O9  1  0.418596  0.479970  0.250000  1
  O  O10  1  0.833416  0.122883  0.750000  1
  O  O11  1  0.158899  0.897541  0.250000  1
  O  O12  1  0.123761  0.854430  0.750000  1
  O  O13  1  0.866638  0.137910  0.250000  1
  O  O14  1  0.424204  0.201486  0.995113  1
  O  O15  1  0.569919  0.792242  0.498599  1
  O  O16  1  0.171623  0.422046  0.960587  1
  O  O17  1  0.832142  0.574312  0.474886  1
  O  O18  1  0.424204  0.201486  0.504887  1
  O  O19  1  0.569919  0.792242  0.001401  1
  O  O20  1  0.832142  0.574312  0.025114  1
  O  O21  1  0.171623  0.422046  0.539413  1
