# generated using pymatgen
data_Dy4Tm4In3PbAu8
_symmetry_space_group_name_H-M   'P 1'
_cell_length_a   8.02529400
_cell_length_b   8.02529400
_cell_length_c   7.30218200
_cell_angle_alpha   90.00000000
_cell_angle_beta   90.00000000
_cell_angle_gamma   90.00000000
_symmetry_Int_Tables_number   1
_chemical_formula_structural   Dy4Tm4In3PbAu8
_chemical_formula_sum   'Dy4 Tm4 In3 Pb1 Au8'
_cell_volume   470.29954210
_cell_formula_units_Z   1
loop_
 _symmetry_equiv_pos_site_id
 _symmetry_equiv_pos_as_xyz
  1  'x, y, z'
loop_
 _atom_site_type_symbol
 _atom_site_label
 _atom_site_symmetry_multiplicity
 _atom_site_fract_x
 _atom_site_fract_y
 _atom_site_fract_z
 _atom_site_occupancy
  Dy  Dy0  1  0.843624  0.158607  0.501554  1
  Dy  Dy1  1  0.156376  0.841393  0.501554  1
  Dy  Dy2  1  0.341393  0.343624  0.998446  1
  Dy  Dy3  1  0.658607  0.656376  0.998446  1
  Tm  Tm4  1  0.682243  0.679998  0.501371  1
  Tm  Tm5  1  0.317757  0.320002  0.501371  1
  Tm  Tm6  1  0.179998  0.817757  0.998629  1
  Tm  Tm7  1  0.820002  0.182243  0.998629  1
  In  In8  1  0.000000  0.500000  0.750000  1
  In  In9  1  0.500000  0.000000  0.750000  1
  In  In10  1  0.000000  0.500000  0.250000  1
  Pb  Pb11  1  0.500000  0.000000  0.250000  1
  Au  Au12  1  0.632053  0.376291  0.275008  1
  Au  Au13  1  0.367947  0.623709  0.275008  1
  Au  Au14  1  0.129133  0.128349  0.774421  1
  Au  Au15  1  0.870867  0.871651  0.774421  1
  Au  Au16  1  0.371651  0.629133  0.725579  1
  Au  Au17  1  0.628349  0.370867  0.725579  1
  Au  Au18  1  0.876291  0.867947  0.224992  1
  Au  Au19  1  0.123709  0.132053  0.224992  1
