# generated using pymatgen
data_MgTa(Nb2N3)4
_symmetry_space_group_name_H-M   'P 1'
_cell_length_a   5.26698700
_cell_length_b   5.26698815
_cell_length_c   10.38203000
_cell_angle_alpha   90.00000000
_cell_angle_beta   90.00000000
_cell_angle_gamma   120.00001165
_symmetry_Int_Tables_number   1
_chemical_formula_structural   MgTa(Nb2N3)4
_chemical_formula_sum   'Mg1 Ta1 Nb8 N12'
_cell_volume   249.42354503
_cell_formula_units_Z   1
loop_
 _symmetry_equiv_pos_site_id
 _symmetry_equiv_pos_as_xyz
  1  'x, y, z'
loop_
 _atom_site_type_symbol
 _atom_site_label
 _atom_site_symmetry_multiplicity
 _atom_site_fract_x
 _atom_site_fract_y
 _atom_site_fract_z
 _atom_site_occupancy
  Mg  Mg0  1  0.333333  0.666667  0.500000  1
  Ta  Ta1  1  0.666667  0.333333  0.500000  1
  Nb  Nb2  1  0.676018  0.679496  0.750210  1
  Nb  Nb3  1  0.320504  0.996523  0.750210  1
  Nb  Nb4  1  0.003477  0.323982  0.750210  1
  Nb  Nb5  1  0.320504  0.323982  0.249790  1
  Nb  Nb6  1  0.676018  0.996523  0.249790  1
  Nb  Nb7  1  0.003477  0.679496  0.249790  1
  Nb  Nb8  1  0.666667  0.333333  0.000000  1
  Nb  Nb9  1  0.333333  0.666667  0.000000  1
  N  N10  1  0.656258  0.648011  0.375722  1
  N  N11  1  0.351989  0.008247  0.375722  1
  N  N12  1  0.991753  0.343742  0.375722  1
  N  N13  1  0.351989  0.343742  0.624278  1
  N  N14  1  0.656258  0.008247  0.624278  1
  N  N15  1  0.991753  0.648011  0.624278  1
  N  N16  1  0.339467  0.338747  0.878643  1
  N  N17  1  0.661253  0.000720  0.878643  1
  N  N18  1  0.999280  0.660533  0.878643  1
  N  N19  1  0.661253  0.660533  0.121357  1
  N  N20  1  0.339467  0.000720  0.121357  1
  N  N21  1  0.999280  0.338747  0.121357  1
