# generated using pymatgen
data_Er8Nb9Si16W3
_symmetry_space_group_name_H-M   'P 1'
_cell_length_a   6.78884871
_cell_length_b   7.01554402
_cell_length_c   13.31245200
_cell_angle_alpha   90.00000000
_cell_angle_beta   90.00000000
_cell_angle_gamma   90.05541777
_symmetry_Int_Tables_number   1
_chemical_formula_structural   Er8Nb9Si16W3
_chemical_formula_sum   'Er8 Nb9 Si16 W3'
_cell_volume   634.03807134
_cell_formula_units_Z   1
loop_
 _symmetry_equiv_pos_site_id
 _symmetry_equiv_pos_as_xyz
  1  'x, y, z'
loop_
 _atom_site_type_symbol
 _atom_site_label
 _atom_site_symmetry_multiplicity
 _atom_site_fract_x
 _atom_site_fract_y
 _atom_site_fract_z
 _atom_site_occupancy
  Er  Er0  1  0.501453  0.327990  0.094895  1
  Er  Er1  1  0.001681  0.172260  0.404813  1
  Er  Er2  1  0.497977  0.672271  0.594754  1
  Er  Er3  1  0.997659  0.827654  0.905264  1
  Er  Er4  1  0.497977  0.672271  0.905246  1
  Er  Er5  1  0.997659  0.827654  0.594736  1
  Er  Er6  1  0.501453  0.327990  0.405105  1
  Er  Er7  1  0.001681  0.172260  0.095187  1
  Nb  Nb8  1  0.835377  0.330129  0.625723  1
  Nb  Nb9  1  0.333630  0.171879  0.874631  1
  Nb  Nb10  1  0.165273  0.669602  0.126650  1
  Nb  Nb11  1  0.666650  0.829268  0.373021  1
  Nb  Nb12  1  0.165273  0.669602  0.373350  1
  Nb  Nb13  1  0.666650  0.829268  0.126979  1
  Nb  Nb14  1  0.835377  0.330129  0.874277  1
  Nb  Nb15  1  0.333630  0.171879  0.625369  1
  Nb  Nb16  1  0.660938  0.007893  0.750000  1
  Si  Si17  1  0.664008  0.037855  0.540999  1
  Si  Si18  1  0.164107  0.461966  0.957298  1
  Si  Si19  1  0.336629  0.962036  0.043205  1
  Si  Si20  1  0.836040  0.537980  0.457037  1
  Si  Si21  1  0.336629  0.962036  0.456795  1
  Si  Si22  1  0.836040  0.537980  0.042963  1
  Si  Si23  1  0.664008  0.037855  0.959001  1
  Si  Si24  1  0.164107  0.461966  0.542702  1
  Si  Si25  1  0.534123  0.380901  0.750000  1
  Si  Si26  1  0.038147  0.121409  0.750000  1
  Si  Si27  1  0.465187  0.620451  0.250000  1
  Si  Si28  1  0.966037  0.880426  0.250000  1
  Si  Si29  1  0.798632  0.630406  0.750000  1
  Si  Si30  1  0.293060  0.864421  0.750000  1
  Si  Si31  1  0.201521  0.366075  0.250000  1
  Si  Si32  1  0.701928  0.134732  0.250000  1
  W  W33  1  0.160105  0.491159  0.750000  1
  W  W34  1  0.339421  0.991483  0.250000  1
  W  W35  1  0.839936  0.508866  0.250000  1
