# generated using pymatgen
data_LiY6CuBr12
_symmetry_space_group_name_H-M   'P 1'
_cell_length_a   9.23663764
_cell_length_b   9.23663894
_cell_length_c   9.23663900
_cell_angle_alpha   107.72034510
_cell_angle_beta   107.72032814
_cell_angle_gamma   107.72034718
_symmetry_Int_Tables_number   1
_chemical_formula_structural   LiY6CuBr12
_chemical_formula_sum   'Li1 Y6 Cu1 Br12'
_cell_volume   642.94586618
_cell_formula_units_Z   1
loop_
 _symmetry_equiv_pos_site_id
 _symmetry_equiv_pos_as_xyz
  1  'x, y, z'
loop_
 _atom_site_type_symbol
 _atom_site_label
 _atom_site_symmetry_multiplicity
 _atom_site_fract_x
 _atom_site_fract_y
 _atom_site_fract_z
 _atom_site_occupancy
  Li  Li0  1  0.500000  0.500000  0.500000  1
  Y  Y1  1  0.321718  0.113561  0.036160  1
  Y  Y2  1  0.036160  0.321718  0.113561  1
  Y  Y3  1  0.113561  0.036160  0.321718  1
  Y  Y4  1  0.678282  0.886439  0.963840  1
  Y  Y5  1  0.963840  0.678282  0.886439  1
  Y  Y6  1  0.886439  0.963840  0.678282  1
  Cu  Cu7  1  0.000000  0.000000  0.000000  1
  Br  Br8  1  0.682968  0.218951  0.072073  1
  Br  Br9  1  0.072073  0.682968  0.218951  1
  Br  Br10  1  0.218951  0.072073  0.682968  1
  Br  Br11  1  0.317032  0.781049  0.927927  1
  Br  Br12  1  0.927927  0.317032  0.781049  1
  Br  Br13  1  0.781049  0.927927  0.317032  1
  Br  Br14  1  0.460977  0.167509  0.382813  1
  Br  Br15  1  0.382813  0.460977  0.167509  1
  Br  Br16  1  0.167509  0.382813  0.460977  1
  Br  Br17  1  0.539023  0.832491  0.617187  1
  Br  Br18  1  0.617187  0.539023  0.832491  1
  Br  Br19  1  0.832491  0.617187  0.539023  1
