# generated using pymatgen
data_Ho5Er13(LuPb8)2
_symmetry_space_group_name_H-M   'P 1'
_cell_length_a   8.15543502
_cell_length_b   15.52495106
_cell_length_c   8.22267501
_cell_angle_alpha   90.00494999
_cell_angle_beta   89.99939149
_cell_angle_gamma   89.99161333
_symmetry_Int_Tables_number   1
_chemical_formula_structural   Ho5Er13(LuPb8)2
_chemical_formula_sum   'Ho5 Er13 Lu2 Pb16'
_cell_volume   1041.09531190
_cell_formula_units_Z   1
loop_
 _symmetry_equiv_pos_site_id
 _symmetry_equiv_pos_as_xyz
  1  'x, y, z'
loop_
 _atom_site_type_symbol
 _atom_site_label
 _atom_site_symmetry_multiplicity
 _atom_site_fract_x
 _atom_site_fract_y
 _atom_site_fract_z
 _atom_site_occupancy
  Ho  Ho0  1  0.036364  0.400376  0.175859  1
  Ho  Ho1  1  0.536370  0.400387  0.324149  1
  Ho  Ho2  1  0.036368  0.099611  0.175863  1
  Ho  Ho3  1  0.463436  0.900102  0.675846  1
  Ho  Ho4  1  0.963430  0.599907  0.824154  1
  Er  Er5  1  0.622752  0.621518  0.157987  1
  Er  Er6  1  0.122742  0.878462  0.341998  1
  Er  Er7  1  0.377147  0.120815  0.841577  1
  Er  Er8  1  0.877141  0.379193  0.658430  1
  Er  Er9  1  0.377144  0.379207  0.841570  1
  Er  Er10  1  0.877135  0.120808  0.658415  1
  Er  Er11  1  0.622754  0.878487  0.158001  1
  Er  Er12  1  0.122775  0.621525  0.342012  1
  Er  Er13  1  0.463409  0.599910  0.675814  1
  Er  Er14  1  0.963407  0.900069  0.824186  1
  Er  Er15  1  0.536408  0.099643  0.324180  1
  Er  Er16  1  0.208876  0.249991  0.504298  1
  Er  Er17  1  0.708844  0.250002  0.995696  1
  Lu  Lu18  1  0.791095  0.749992  0.495369  1
  Lu  Lu19  1  0.291084  0.750009  0.004611  1
  Pb  Pb20  1  0.718815  0.457482  0.966852  1
  Pb  Pb21  1  0.218885  0.042530  0.533108  1
  Pb  Pb22  1  0.281175  0.956334  0.033113  1
  Pb  Pb23  1  0.781191  0.543665  0.466897  1
  Pb  Pb24  1  0.281277  0.543651  0.033099  1
  Pb  Pb25  1  0.781235  0.956375  0.466855  1
  Pb  Pb26  1  0.718832  0.042489  0.966842  1
  Pb  Pb27  1  0.218848  0.457520  0.533187  1
  Pb  Pb28  1  0.428977  0.749995  0.373982  1
  Pb  Pb29  1  0.928957  0.749994  0.125996  1
  Pb  Pb30  1  0.571899  0.250004  0.625930  1
  Pb  Pb31  1  0.071889  0.249997  0.874071  1
  Pb  Pb32  1  0.651325  0.749968  0.844179  1
  Pb  Pb33  1  0.151325  0.750027  0.655825  1
  Pb  Pb34  1  0.348378  0.249963  0.154161  1
  Pb  Pb35  1  0.848315  0.249994  0.345889  1
