# generated using pymatgen
data_Er4Fe3Tc3Os2
_symmetry_space_group_name_H-M   'P 1'
_cell_length_a   5.23044800
_cell_length_b   5.23044900
_cell_length_c   8.77830300
_cell_angle_alpha   90.00000000
_cell_angle_beta   90.00000000
_cell_angle_gamma   119.99999365
_symmetry_Int_Tables_number   1
_chemical_formula_structural   Er4Fe3Tc3Os2
_chemical_formula_sum   'Er4 Fe3 Tc3 Os2'
_cell_volume   207.97880938
_cell_formula_units_Z   1
loop_
 _symmetry_equiv_pos_site_id
 _symmetry_equiv_pos_as_xyz
  1  'x, y, z'
loop_
 _atom_site_type_symbol
 _atom_site_label
 _atom_site_symmetry_multiplicity
 _atom_site_fract_x
 _atom_site_fract_y
 _atom_site_fract_z
 _atom_site_occupancy
  Er  Er0  1  0.666666  0.333334  0.057262  1
  Er  Er1  1  0.666666  0.333334  0.442738  1
  Er  Er2  1  0.333334  0.666668  0.566150  1
  Er  Er3  1  0.333334  0.666668  0.933850  1
  Fe  Fe4  1  0.340781  0.170392  0.750000  1
  Fe  Fe5  1  0.829609  0.170392  0.750000  1
  Fe  Fe6  1  0.829608  0.659218  0.750000  1
  Tc  Tc7  1  0.169085  0.338169  0.250000  1
  Tc  Tc8  1  0.169085  0.830915  0.250000  1
  Tc  Tc9  1  0.661831  0.830915  0.250000  1
  Os  Os10  1  0.000000  0.000000  0.986089  1
  Os  Os11  1  0.000000  0.000000  0.513911  1
