# generated using pymatgen
data_Y2ErIn3Ag2Ir
_symmetry_space_group_name_H-M   'P 1'
_cell_length_a   7.93421158
_cell_length_b   7.95387457
_cell_length_c   3.77105700
_cell_angle_alpha   90.00000000
_cell_angle_beta   90.00000000
_cell_angle_gamma   120.15698963
_symmetry_Int_Tables_number   1
_chemical_formula_structural   Y2ErIn3Ag2Ir
_chemical_formula_sum   'Y2 Er1 In3 Ag2 Ir1'
_cell_volume   205.77236265
_cell_formula_units_Z   1
loop_
 _symmetry_equiv_pos_site_id
 _symmetry_equiv_pos_as_xyz
  1  'x, y, z'
loop_
 _atom_site_type_symbol
 _atom_site_label
 _atom_site_symmetry_multiplicity
 _atom_site_fract_x
 _atom_site_fract_y
 _atom_site_fract_z
 _atom_site_occupancy
  Y  Y0  1  0.581188  0.610641  0.000000  1
  Y  Y1  1  0.389092  0.969826  0.000000  1
  Er  Er2  1  0.031685  0.420834  0.000000  1
  In  In3  1  0.992700  0.725214  0.500000  1
  In  In4  1  0.274981  0.268067  0.500000  1
  In  In5  1  0.732452  0.007543  0.500000  1
  Ag  Ag6  1  0.000205  0.001450  0.000000  1
  Ag  Ag7  1  0.668360  0.333215  0.500000  1
  Ir  Ir8  1  0.329337  0.663210  0.500000  1
