# generated using pymatgen
data_YHoNb3Co3As7Rh6
_symmetry_space_group_name_H-M   'P 1'
_cell_length_a   3.92137600
_cell_length_b   9.79831018
_cell_length_c   9.79831000
_cell_angle_alpha   120.00000616
_cell_angle_beta   90.00000000
_cell_angle_gamma   90.00000000
_symmetry_Int_Tables_number   1
_chemical_formula_structural   YHoNb3Co3As7Rh6
_chemical_formula_sum   'Y1 Ho1 Nb3 Co3 As7 Rh6'
_cell_volume   326.04042474
_cell_formula_units_Z   1
loop_
 _symmetry_equiv_pos_site_id
 _symmetry_equiv_pos_as_xyz
  1  'x, y, z'
loop_
 _atom_site_type_symbol
 _atom_site_label
 _atom_site_symmetry_multiplicity
 _atom_site_fract_x
 _atom_site_fract_y
 _atom_site_fract_z
 _atom_site_occupancy
  Y  Y0  1  0.500000  0.333333  0.666667  1
  Ho  Ho1  1  0.000000  0.666667  0.333333  1
  Nb  Nb2  1  0.500000  0.784568  0.903131  1
  Nb  Nb3  1  0.500000  0.118561  0.215432  1
  Nb  Nb4  1  0.500000  0.096869  0.881439  1
  Co  Co5  1  0.000000  0.883225  0.159613  1
  Co  Co6  1  0.000000  0.276387  0.116775  1
  Co  Co7  1  0.000000  0.840387  0.723613  1
  As  As8  1  0.000000  0.000000  0.000000  1
  As  As9  1  0.500000  0.717417  0.123773  1
  As  As10  1  0.500000  0.406358  0.282583  1
  As  As11  1  0.500000  0.876227  0.593642  1
  As  As12  1  0.000000  0.589891  0.701922  1
  As  As13  1  0.000000  0.112032  0.410109  1
  As  As14  1  0.000000  0.298078  0.887968  1
  Rh  Rh15  1  0.000000  0.568514  0.935912  1
  Rh  Rh16  1  0.000000  0.367398  0.431486  1
  Rh  Rh17  1  0.000000  0.064088  0.632602  1
  Rh  Rh18  1  0.500000  0.945134  0.385376  1
  Rh  Rh19  1  0.500000  0.440242  0.054866  1
  Rh  Rh20  1  0.500000  0.614624  0.559758  1
