# generated using pymatgen
data_YHo(MnAl5)4
_symmetry_space_group_name_H-M   'P 1'
_cell_length_a   6.79978006
_cell_length_b   6.79978128
_cell_length_c   9.04880900
_cell_angle_alpha   90.00000000
_cell_angle_beta   90.00000000
_cell_angle_gamma   97.35005078
_symmetry_Int_Tables_number   1
_chemical_formula_structural   YHo(MnAl5)4
_chemical_formula_sum   'Y1 Ho1 Mn4 Al20'
_cell_volume   414.95205485
_cell_formula_units_Z   1
loop_
 _symmetry_equiv_pos_site_id
 _symmetry_equiv_pos_as_xyz
  1  'x, y, z'
loop_
 _atom_site_type_symbol
 _atom_site_label
 _atom_site_symmetry_multiplicity
 _atom_site_fract_x
 _atom_site_fract_y
 _atom_site_fract_z
 _atom_site_occupancy
  Y  Y0  1  0.873123  0.126877  0.750000  1
  Ho  Ho1  1  0.126815  0.873185  0.250000  1
  Mn  Mn2  1  0.999960  0.500226  0.499712  1
  Mn  Mn3  1  0.999960  0.500226  0.000288  1
  Mn  Mn4  1  0.499774  0.000040  0.000288  1
  Mn  Mn5  1  0.499774  0.000040  0.499712  1
  Al  Al6  1  0.625779  0.374221  0.545245  1
  Al  Al7  1  0.374351  0.625649  0.452630  1
  Al  Al8  1  0.374351  0.625649  0.047370  1
  Al  Al9  1  0.625779  0.374221  0.954755  1
  Al  Al10  1  0.229205  0.229028  0.499715  1
  Al  Al11  1  0.770972  0.770795  0.499715  1
  Al  Al12  1  0.770972  0.770795  0.000285  1
  Al  Al13  1  0.229205  0.229028  0.000285  1
  Al  Al14  1  0.843200  0.156800  0.096860  1
  Al  Al15  1  0.157657  0.842343  0.903600  1
  Al  Al16  1  0.157657  0.842343  0.596400  1
  Al  Al17  1  0.843200  0.156800  0.403140  1
  Al  Al18  1  0.867073  0.588244  0.750000  1
  Al  Al19  1  0.132202  0.412025  0.250000  1
  Al  Al20  1  0.411756  0.132927  0.750000  1
  Al  Al21  1  0.587975  0.867798  0.250000  1
  Al  Al22  1  0.218669  0.476009  0.750000  1
  Al  Al23  1  0.781716  0.525114  0.250000  1
  Al  Al24  1  0.523991  0.781331  0.750000  1
  Al  Al25  1  0.474886  0.218284  0.250000  1
