# generated using pymatgen
data_CaDyInAg
_symmetry_space_group_name_H-M   'P 1'
_cell_length_a   3.66882300
_cell_length_b   3.66882300
_cell_length_c   7.81795100
_cell_angle_alpha   90.00000000
_cell_angle_beta   90.00000000
_cell_angle_gamma   90.00000000
_symmetry_Int_Tables_number   1
_chemical_formula_structural   CaDyInAg
_chemical_formula_sum   'Ca1 Dy1 In1 Ag1'
_cell_volume   105.23167037
_cell_formula_units_Z   1
loop_
 _symmetry_equiv_pos_site_id
 _symmetry_equiv_pos_as_xyz
  1  'x, y, z'
loop_
 _atom_site_type_symbol
 _atom_site_label
 _atom_site_symmetry_multiplicity
 _atom_site_fract_x
 _atom_site_fract_y
 _atom_site_fract_z
 _atom_site_occupancy
  Ca  Ca0  1  0.000000  0.000000  0.763884  1
  Dy  Dy1  1  0.000000  0.000000  0.233940  1
  In  In2  1  0.500000  0.500000  0.493605  1
  Ag  Ag3  1  0.500000  0.500000  0.008570  1
