# generated using pymatgen
data_Tm12Tc3Pd2
_symmetry_space_group_name_H-M   'P 1'
_cell_length_a   8.15909623
_cell_length_b   8.15909661
_cell_length_c   8.15909684
_cell_angle_alpha   110.57963420
_cell_angle_beta   110.57963648
_cell_angle_gamma   107.27643689
_symmetry_Int_Tables_number   1
_chemical_formula_structural   Tm12Tc3Pd2
_chemical_formula_sum   'Tm12 Tc3 Pd2'
_cell_volume   417.66528745
_cell_formula_units_Z   1
loop_
 _symmetry_equiv_pos_site_id
 _symmetry_equiv_pos_as_xyz
  1  'x, y, z'
loop_
 _atom_site_type_symbol
 _atom_site_label
 _atom_site_symmetry_multiplicity
 _atom_site_fract_x
 _atom_site_fract_y
 _atom_site_fract_z
 _atom_site_occupancy
  Tm  Tm0  1  0.181662  0.436497  0.254836  1
  Tm  Tm1  1  0.818338  0.563503  0.745164  1
  Tm  Tm2  1  0.181662  0.926827  0.745164  1
  Tm  Tm3  1  0.926827  0.181662  0.745164  1
  Tm  Tm4  1  0.818338  0.073173  0.254836  1
  Tm  Tm5  1  0.073173  0.818338  0.254836  1
  Tm  Tm6  1  0.436497  0.181662  0.254836  1
  Tm  Tm7  1  0.563503  0.818338  0.745164  1
  Tm  Tm8  1  0.321047  0.321047  0.642095  1
  Tm  Tm9  1  0.678953  0.678953  0.357905  1
  Tm  Tm10  1  0.678953  0.321047  0.000000  1
  Tm  Tm11  1  0.321047  0.678953  0.000000  1
  Tc  Tc12  1  0.333791  0.333791  0.000000  1
  Tc  Tc13  1  0.666209  0.666209  0.000000  1
  Tc  Tc14  1  0.000000  0.000000  0.000000  1
  Pd  Pd15  1  0.000000  0.500000  0.500000  1
  Pd  Pd16  1  0.500000  0.000000  0.500000  1
