# generated using pymatgen
data_Li2AcLaGe2
_symmetry_space_group_name_H-M   'P 1'
_cell_length_a   4.60202900
_cell_length_b   4.60203060
_cell_length_c   7.81372800
_cell_angle_alpha   90.00000000
_cell_angle_beta   90.00000000
_cell_angle_gamma   120.00001009
_symmetry_Int_Tables_number   1
_chemical_formula_structural   Li2AcLaGe2
_chemical_formula_sum   'Li2 Ac1 La1 Ge2'
_cell_volume   143.31370690
_cell_formula_units_Z   1
loop_
 _symmetry_equiv_pos_site_id
 _symmetry_equiv_pos_as_xyz
  1  'x, y, z'
loop_
 _atom_site_type_symbol
 _atom_site_label
 _atom_site_symmetry_multiplicity
 _atom_site_fract_x
 _atom_site_fract_y
 _atom_site_fract_z
 _atom_site_occupancy
  Li  Li0  1  0.666667  0.333333  0.209227  1
  Li  Li1  1  0.333333  0.666667  0.790773  1
  Ac  Ac2  1  0.000000  0.000000  0.500000  1
  La  La3  1  0.000000  0.000000  0.000000  1
  Ge  Ge4  1  0.333333  0.666667  0.230460  1
  Ge  Ge5  1  0.666667  0.333333  0.769540  1
