# generated using pymatgen
data_HfZr2Sn3Rh10
_symmetry_space_group_name_H-M   'P 1'
_cell_length_a   4.17698300
_cell_length_b   5.64995167
_cell_length_c   11.15006890
_cell_angle_alpha   90.83516364
_cell_angle_beta   90.00000000
_cell_angle_gamma   90.00000000
_symmetry_Int_Tables_number   1
_chemical_formula_structural   HfZr2Sn3Rh10
_chemical_formula_sum   'Hf1 Zr2 Sn3 Rh10'
_cell_volume   263.11090729
_cell_formula_units_Z   1
loop_
 _symmetry_equiv_pos_site_id
 _symmetry_equiv_pos_as_xyz
  1  'x, y, z'
loop_
 _atom_site_type_symbol
 _atom_site_label
 _atom_site_symmetry_multiplicity
 _atom_site_fract_x
 _atom_site_fract_y
 _atom_site_fract_z
 _atom_site_occupancy
  Hf  Hf0  1  0.500000  0.320437  0.141866  1
  Zr  Zr1  1  0.500000  0.827573  0.357886  1
  Zr  Zr2  1  0.500000  0.673985  0.858903  1
  Sn  Sn3  1  0.500000  0.170329  0.645644  1
  Sn  Sn4  1  0.000000  0.516699  0.495315  1
  Sn  Sn5  1  0.000000  0.996600  0.000953  1
  Rh  Rh6  1  0.500000  0.198567  0.889839  1
  Rh  Rh7  1  0.500000  0.796364  0.115126  1
  Rh  Rh8  1  0.500000  0.696211  0.613855  1
  Rh  Rh9  1  0.500000  0.307176  0.382935  1
  Rh  Rh10  1  0.000000  0.429756  0.741075  1
  Rh  Rh11  1  0.000000  0.564128  0.249072  1
  Rh  Rh12  1  0.000000  0.019254  0.502434  1
  Rh  Rh13  1  0.000000  0.495198  0.999227  1
  Rh  Rh14  1  0.000000  0.065065  0.248150  1
  Rh  Rh15  1  0.000000  0.922659  0.757722  1
