# generated using pymatgen
data_Dy3YGa18NiIr5
_symmetry_space_group_name_H-M   'P 1'
_cell_length_a   7.57744840
_cell_length_b   7.57642402
_cell_length_c   9.46525576
_cell_angle_alpha   90.17749336
_cell_angle_beta   90.18548006
_cell_angle_gamma   119.98150316
_symmetry_Int_Tables_number   1
_chemical_formula_structural   Dy3YGa18NiIr5
_chemical_formula_sum   'Dy3 Y1 Ga18 Ni1 Ir5'
_cell_volume   470.67642880
_cell_formula_units_Z   1
loop_
 _symmetry_equiv_pos_site_id
 _symmetry_equiv_pos_as_xyz
  1  'x, y, z'
loop_
 _atom_site_type_symbol
 _atom_site_label
 _atom_site_symmetry_multiplicity
 _atom_site_fract_x
 _atom_site_fract_y
 _atom_site_fract_z
 _atom_site_occupancy
  Dy  Dy0  1  0.003285  0.333728  0.749804  1
  Dy  Dy1  1  0.666300  0.996843  0.250221  1
  Dy  Dy2  1  0.333592  0.003179  0.749735  1
  Y  Y3  1  0.996647  0.666299  0.250154  1
  Ga  Ga4  1  0.120923  0.120963  0.245438  1
  Ga  Ga5  1  0.879033  0.879037  0.754592  1
  Ga  Ga6  1  0.999138  0.330034  0.079606  1
  Ga  Ga7  1  0.000873  0.669948  0.920253  1
  Ga  Ga8  1  0.000711  0.666768  0.580253  1
  Ga  Ga9  1  0.333283  0.999435  0.419875  1
  Ga  Ga10  1  0.999381  0.333147  0.419850  1
  Ga  Ga11  1  0.666737  0.000639  0.580256  1
  Ga  Ga12  1  0.669836  0.000772  0.920354  1
  Ga  Ga13  1  0.330246  0.999367  0.079586  1
  Ga  Ga14  1  0.332516  0.332515  0.564247  1
  Ga  Ga15  1  0.667436  0.667563  0.435878  1
  Ga  Ga16  1  0.672076  0.672104  0.064011  1
  Ga  Ga17  1  0.327807  0.327785  0.935865  1
  Ga  Ga18  1  0.338874  0.545249  0.249382  1
  Ga  Ga19  1  0.661200  0.454672  0.750639  1
  Ga  Ga20  1  0.545266  0.338612  0.249359  1
  Ga  Ga21  1  0.454702  0.661226  0.750641  1
  Ni  Ni22  1  0.000037  0.000082  0.999932  1
  Ir  Ir23  1  0.671846  0.328035  0.999908  1
  Ir  Ir24  1  0.328200  0.671936  0.999992  1
  Ir  Ir25  1  0.328455  0.671675  0.500041  1
  Ir  Ir26  1  0.671685  0.328298  0.500054  1
  Ir  Ir27  1  0.999915  0.000090  0.500074  1
