# generated using pymatgen
data_LaDy3(Rh2O7)2
_symmetry_space_group_name_H-M   'P 1'
_cell_length_a   7.31193981
_cell_length_b   7.31194042
_cell_length_c   7.31194063
_cell_angle_alpha   59.42274463
_cell_angle_beta   59.42275202
_cell_angle_gamma   59.42274190
_symmetry_Int_Tables_number   1
_chemical_formula_structural   LaDy3(Rh2O7)2
_chemical_formula_sum   'La1 Dy3 Rh4 O14'
_cell_volume   272.79782571
_cell_formula_units_Z   1
loop_
 _symmetry_equiv_pos_site_id
 _symmetry_equiv_pos_as_xyz
  1  'x, y, z'
loop_
 _atom_site_type_symbol
 _atom_site_label
 _atom_site_symmetry_multiplicity
 _atom_site_fract_x
 _atom_site_fract_y
 _atom_site_fract_z
 _atom_site_occupancy
  La  La0  1  0.125000  0.125000  0.125000  1
  Dy  Dy1  1  0.125000  0.625000  0.125000  1
  Dy  Dy2  1  0.625000  0.125000  0.125000  1
  Dy  Dy3  1  0.125000  0.125000  0.625000  1
  Rh  Rh4  1  0.625000  0.625000  0.625000  1
  Rh  Rh5  1  0.625000  0.625000  0.125000  1
  Rh  Rh6  1  0.125000  0.625000  0.625000  1
  Rh  Rh7  1  0.625000  0.125000  0.625000  1
  O  O8  1  0.253591  0.253591  0.253591  1
  O  O9  1  0.290381  0.699686  0.290381  1
  O  O10  1  0.959619  0.959619  0.550314  1
  O  O11  1  0.538981  0.960392  0.538981  1
  O  O12  1  0.711019  0.711019  0.289608  1
  O  O13  1  0.960392  0.538981  0.538981  1
  O  O14  1  0.711019  0.289608  0.711019  1
  O  O15  1  0.290381  0.290381  0.699686  1
  O  O16  1  0.699686  0.290381  0.290381  1
  O  O17  1  0.289608  0.711019  0.711019  1
  O  O18  1  0.959619  0.550314  0.959619  1
  O  O19  1  0.538981  0.538981  0.960392  1
  O  O20  1  0.996409  0.996409  0.996409  1
  O  O21  1  0.550314  0.959619  0.959619  1
