# generated using pymatgen
data_HfZr9Zn2(SnSb)3
_symmetry_space_group_name_H-M   'P 1'
_cell_length_a   8.69491500
_cell_length_b   8.69491365
_cell_length_c   5.87190400
_cell_angle_alpha   90.00000000
_cell_angle_beta   90.00000000
_cell_angle_gamma   120.00000134
_symmetry_Int_Tables_number   1
_chemical_formula_structural   HfZr9Zn2(SnSb)3
_chemical_formula_sum   'Hf1 Zr9 Zn2 Sn3 Sb3'
_cell_volume   384.45028434
_cell_formula_units_Z   1
loop_
 _symmetry_equiv_pos_site_id
 _symmetry_equiv_pos_as_xyz
  1  'x, y, z'
loop_
 _atom_site_type_symbol
 _atom_site_label
 _atom_site_symmetry_multiplicity
 _atom_site_fract_x
 _atom_site_fract_y
 _atom_site_fract_z
 _atom_site_occupancy
  Hf  Hf0  1  0.666667  0.333333  0.001275  1
  Zr  Zr1  1  0.333333  0.666667  0.000874  1
  Zr  Zr2  1  0.333333  0.666667  0.499093  1
  Zr  Zr3  1  0.666667  0.333333  0.499104  1
  Zr  Zr4  1  0.731264  0.730950  0.749978  1
  Zr  Zr5  1  0.269050  0.000314  0.749978  1
  Zr  Zr6  1  0.999686  0.268736  0.749978  1
  Zr  Zr7  1  0.269549  0.269375  0.249936  1
  Zr  Zr8  1  0.730625  0.000174  0.249936  1
  Zr  Zr9  1  0.999826  0.730451  0.249936  1
  Zn  Zn10  1  0.000000  0.000000  0.001721  1
  Zn  Zn11  1  0.000000  0.000000  0.498301  1
  Sn  Sn12  1  0.616432  0.616142  0.249730  1
  Sn  Sn13  1  0.383858  0.000290  0.249730  1
  Sn  Sn14  1  0.999710  0.383568  0.249730  1
  Sb  Sb15  1  0.385294  0.384960  0.750233  1
  Sb  Sb16  1  0.615040  0.000335  0.750233  1
  Sb  Sb17  1  0.999665  0.614706  0.750233  1
