# generated using pymatgen
data_Pr16TlIn3(RuRh)2
_symmetry_space_group_name_H-M   'P 1'
_cell_length_a   10.03852737
_cell_length_b   10.00707511
_cell_length_c   10.01417448
_cell_angle_alpha   59.82688748
_cell_angle_beta   59.91952314
_cell_angle_gamma   59.89597708
_symmetry_Int_Tables_number   1
_chemical_formula_structural   Pr16TlIn3(RuRh)2
_chemical_formula_sum   'Pr16 Tl1 In3 Ru2 Rh2'
_cell_volume   709.41520324
_cell_formula_units_Z   1
loop_
 _symmetry_equiv_pos_site_id
 _symmetry_equiv_pos_as_xyz
  1  'x, y, z'
loop_
 _atom_site_type_symbol
 _atom_site_label
 _atom_site_symmetry_multiplicity
 _atom_site_fract_x
 _atom_site_fract_y
 _atom_site_fract_z
 _atom_site_occupancy
  Pr  Pr0  1  0.690076  0.310634  0.309216  1
  Pr  Pr1  1  0.692534  0.688776  0.310131  1
  Pr  Pr2  1  0.308560  0.688776  0.310131  1
  Pr  Pr3  1  0.937618  0.942994  0.561480  1
  Pr  Pr4  1  0.151938  0.152449  0.543671  1
  Pr  Pr5  1  0.557908  0.942994  0.561480  1
  Pr  Pr6  1  0.151792  0.151300  0.150625  1
  Pr  Pr7  1  0.307494  0.310777  0.688825  1
  Pr  Pr8  1  0.941298  0.557743  0.559662  1
  Pr  Pr9  1  0.559455  0.561286  0.942224  1
  Pr  Pr10  1  0.562449  0.937666  0.937435  1
  Pr  Pr11  1  0.937035  0.561286  0.942224  1
  Pr  Pr12  1  0.152129  0.543773  0.151966  1
  Pr  Pr13  1  0.307641  0.692612  0.692106  1
  Pr  Pr14  1  0.692904  0.310777  0.688825  1
  Pr  Pr15  1  0.546282  0.151300  0.150625  1
  Tl  Tl16  1  0.916149  0.916168  0.251533  1
  In  In17  1  0.243254  0.919493  0.918163  1
  In  In18  1  0.918469  0.245234  0.917827  1
  In  In19  1  0.919090  0.919493  0.918163  1
  Ru  Ru20  1  0.363119  0.357679  0.357647  1
  Ru  Ru21  1  0.921555  0.357679  0.357647  1
  Rh  Rh22  1  0.360693  0.357192  0.921423  1
  Rh  Rh23  1  0.360557  0.921918  0.356969  1
