# generated using pymatgen
data_GaAs3Rh4
_symmetry_space_group_name_H-M   'P 1'
_cell_length_a   5.62470601
_cell_length_b   3.62226100
_cell_length_c   6.24077839
_cell_angle_alpha   90.00000000
_cell_angle_beta   90.05444161
_cell_angle_gamma   90.00000000
_symmetry_Int_Tables_number   1
_chemical_formula_structural   GaAs3Rh4
_chemical_formula_sum   'Ga1 As3 Rh4'
_cell_volume   127.15051758
_cell_formula_units_Z   1
loop_
 _symmetry_equiv_pos_site_id
 _symmetry_equiv_pos_as_xyz
  1  'x, y, z'
loop_
 _atom_site_type_symbol
 _atom_site_label
 _atom_site_symmetry_multiplicity
 _atom_site_fract_x
 _atom_site_fract_y
 _atom_site_fract_z
 _atom_site_occupancy
  Ga  Ga0  1  0.194290  0.250001  0.583046  1
  As  As1  1  0.301314  0.750001  0.083306  1
  As  As2  1  0.694503  0.250001  0.912223  1
  As  As3  1  0.815948  0.750001  0.424846  1
  Rh  Rh4  1  0.998057  0.250001  0.196299  1
  Rh  Rh5  1  0.501370  0.750001  0.703042  1
  Rh  Rh6  1  0.502516  0.250001  0.291423  1
  Rh  Rh7  1  0.992002  0.750001  0.805817  1
