# generated using pymatgen
data_Ti3Nb3Re5Si6W
_symmetry_space_group_name_H-M   'P 1'
_cell_length_a   7.57993599
_cell_length_b   7.60958638
_cell_length_c   7.58039272
_cell_angle_alpha   126.08362515
_cell_angle_beta   128.28410954
_cell_angle_gamma   77.88802744
_symmetry_Int_Tables_number   1
_chemical_formula_structural   Ti3Nb3Re5Si6W
_chemical_formula_sum   'Ti3 Nb3 Re5 Si6 W1'
_cell_volume   268.95196431
_cell_formula_units_Z   1
loop_
 _symmetry_equiv_pos_site_id
 _symmetry_equiv_pos_as_xyz
  1  'x, y, z'
loop_
 _atom_site_type_symbol
 _atom_site_label
 _atom_site_symmetry_multiplicity
 _atom_site_fract_x
 _atom_site_fract_y
 _atom_site_fract_z
 _atom_site_occupancy
  Ti  Ti0  1  0.552805  0.095911  0.042832  1
  Ti  Ti1  1  0.447746  0.490281  0.544629  1
  Ti  Ti2  1  0.949052  0.492621  0.041763  1
  Nb  Nb3  1  0.051748  0.090149  0.541781  1
  Nb  Nb4  1  0.752832  0.907654  0.652988  1
  Nb  Nb5  1  0.248937  0.901104  0.153883  1
  Re  Re6  1  0.998682  0.240713  0.239180  1
  Re  Re7  1  0.132102  0.755726  0.628854  1
  Re  Re8  1  0.867508  0.496692  0.624354  1
  Re  Re9  1  0.626550  0.756141  0.123268  1
  Re  Re10  1  0.371780  0.496684  0.129369  1
  Si  Si11  1  0.751751  0.501442  0.250275  1
  Si  Si12  1  0.247772  0.498360  0.748602  1
  Si  Si13  1  0.335682  0.821683  0.497856  1
  Si  Si14  1  0.665385  0.166198  0.491472  1
  Si  Si15  1  0.825524  0.824964  0.988823  1
  Si  Si16  1  0.173949  0.167303  0.003342  1
  W  W17  1  0.500194  0.238572  0.738928  1
