# generated using pymatgen
data_Ho12Si12Tc3Rh
_symmetry_space_group_name_H-M   'P 1'
_cell_length_a   4.17440600
_cell_length_b   10.81523018
_cell_length_c   12.38890316
_cell_angle_alpha   90.15943546
_cell_angle_beta   90.00000000
_cell_angle_gamma   90.00000000
_symmetry_Int_Tables_number   1
_chemical_formula_structural   Ho12Si12Tc3Rh
_chemical_formula_sum   'Ho12 Si12 Tc3 Rh1'
_cell_volume   559.32164932
_cell_formula_units_Z   1
loop_
 _symmetry_equiv_pos_site_id
 _symmetry_equiv_pos_as_xyz
  1  'x, y, z'
loop_
 _atom_site_type_symbol
 _atom_site_label
 _atom_site_symmetry_multiplicity
 _atom_site_fract_x
 _atom_site_fract_y
 _atom_site_fract_z
 _atom_site_occupancy
  Ho  Ho0  1  0.250000  0.879440  0.021195  1
  Ho  Ho1  1  0.250000  0.622108  0.521742  1
  Ho  Ho2  1  0.750000  0.120564  0.979613  1
  Ho  Ho3  1  0.750000  0.380164  0.479372  1
  Ho  Ho4  1  0.250000  0.921549  0.605170  1
  Ho  Ho5  1  0.250000  0.577579  0.104580  1
  Ho  Ho6  1  0.750000  0.077809  0.395036  1
  Ho  Ho7  1  0.750000  0.421728  0.893484  1
  Ho  Ho8  1  0.250000  0.665859  0.800223  1
  Ho  Ho9  1  0.250000  0.835007  0.299613  1
  Ho  Ho10  1  0.750000  0.335296  0.200105  1
  Ho  Ho11  1  0.750000  0.159545  0.699392  1
  Si  Si12  1  0.250000  0.012971  0.822619  1
  Si  Si13  1  0.250000  0.488840  0.321794  1
  Si  Si14  1  0.750000  0.987155  0.178685  1
  Si  Si15  1  0.750000  0.514402  0.679008  1
  Si  Si16  1  0.250000  0.248652  0.841981  1
  Si  Si17  1  0.250000  0.248781  0.344034  1
  Si  Si18  1  0.750000  0.748994  0.156108  1
  Si  Si19  1  0.750000  0.751030  0.657378  1
  Si  Si20  1  0.250000  0.200961  0.542340  1
  Si  Si21  1  0.250000  0.298969  0.041551  1
  Si  Si22  1  0.750000  0.800706  0.458073  1
  Si  Si23  1  0.750000  0.699222  0.958019  1
  Tc  Tc24  1  0.250000  0.391687  0.681441  1
  Tc  Tc25  1  0.250000  0.109812  0.180266  1
  Tc  Tc26  1  0.750000  0.610785  0.318935  1
  Rh  Rh27  1  0.750000  0.890385  0.818243  1
