# generated using pymatgen
data_La14Ir4PdRh
_symmetry_space_group_name_H-M   'P 1'
_cell_length_a   10.24835767
_cell_length_b   10.25114201
_cell_length_c   6.56133375
_cell_angle_alpha   89.83458972
_cell_angle_beta   89.95967141
_cell_angle_gamma   120.00095353
_symmetry_Int_Tables_number   1
_chemical_formula_structural   La14Ir4PdRh
_chemical_formula_sum   'La14 Ir4 Pd1 Rh1'
_cell_volume   596.95551228
_cell_formula_units_Z   1
loop_
 _symmetry_equiv_pos_site_id
 _symmetry_equiv_pos_as_xyz
  1  'x, y, z'
loop_
 _atom_site_type_symbol
 _atom_site_label
 _atom_site_symmetry_multiplicity
 _atom_site_fract_x
 _atom_site_fract_y
 _atom_site_fract_z
 _atom_site_occupancy
  La  La0  1  0.335211  0.671375  0.468678  1
  La  La1  1  0.666244  0.332515  0.975293  1
  La  La2  1  0.125017  0.876581  0.242048  1
  La  La3  1  0.752308  0.876854  0.241458  1
  La  La4  1  0.123942  0.247781  0.232813  1
  La  La5  1  0.866949  0.120206  0.741925  1
  La  La6  1  0.252907  0.119521  0.741692  1
  La  La7  1  0.876393  0.751448  0.744544  1
  La  La8  1  0.540473  0.462438  0.437823  1
  La  La9  1  0.922021  0.462776  0.438142  1
  La  La10  1  0.538360  0.077221  0.432618  1
  La  La11  1  0.469567  0.542976  0.941325  1
  La  La12  1  0.073667  0.543240  0.940970  1
  La  La13  1  0.459068  0.918842  0.939002  1
  Ir  Ir14  1  0.813873  0.188361  0.195509  1
  Ir  Ir15  1  0.374929  0.188910  0.195757  1
  Ir  Ir16  1  0.811170  0.622941  0.192316  1
  Ir  Ir17  1  0.187533  0.810115  0.695464  1
  Pd  Pd18  1  0.187954  0.375913  0.692009  1
  Rh  Rh19  1  0.622414  0.809985  0.696402  1
