# generated using pymatgen
data_Dy10IrOs2Pt3
_symmetry_space_group_name_H-M   'P 1'
_cell_length_a   10.97350046
_cell_length_b   10.96711800
_cell_length_c   6.42638928
_cell_angle_alpha   90.00000000
_cell_angle_beta   89.96650844
_cell_angle_gamma   90.00000000
_symmetry_Int_Tables_number   1
_chemical_formula_structural   Dy10IrOs2Pt3
_chemical_formula_sum   'Dy20 Ir2 Os4 Pt6'
_cell_volume   773.40087257
_cell_formula_units_Z   2
loop_
 _symmetry_equiv_pos_site_id
 _symmetry_equiv_pos_as_xyz
  1  'x, y, z'
loop_
 _atom_site_type_symbol
 _atom_site_label
 _atom_site_symmetry_multiplicity
 _atom_site_fract_x
 _atom_site_fract_y
 _atom_site_fract_z
 _atom_site_occupancy
  Dy  Dy0  1  0.297089  0.088436  0.374511  1
  Dy  Dy1  1  0.297089  0.911564  0.874511  1
  Dy  Dy2  1  0.702844  0.085678  0.874032  1
  Dy  Dy3  1  0.702844  0.914322  0.374032  1
  Dy  Dy4  1  0.583283  0.795495  0.874160  1
  Dy  Dy5  1  0.583283  0.204505  0.374160  1
  Dy  Dy6  1  0.412757  0.795658  0.378188  1
  Dy  Dy7  1  0.412757  0.204342  0.878188  1
  Dy  Dy8  1  0.206001  0.415251  0.622694  1
  Dy  Dy9  1  0.206001  0.584749  0.122694  1
  Dy  Dy10  1  0.797404  0.413992  0.124882  1
  Dy  Dy11  1  0.797404  0.586008  0.624882  1
  Dy  Dy12  1  0.914779  0.702827  0.125093  1
  Dy  Dy13  1  0.914779  0.297173  0.625093  1
  Dy  Dy14  1  0.088896  0.702994  0.626470  1
  Dy  Dy15  1  0.088896  0.297006  0.126470  1
  Dy  Dy16  1  0.000039  0.999762  0.499958  1
  Dy  Dy17  1  0.000039  0.000238  0.999958  1
  Dy  Dy18  1  0.496721  0.499896  0.000006  1
  Dy  Dy19  1  0.496721  0.500104  0.500006  1
  Ir  Ir20  1  0.348095  0.347200  0.249929  1
  Ir  Ir21  1  0.348095  0.652800  0.749929  1
  Os  Os22  1  0.500446  0.999833  0.126407  1
  Os  Os23  1  0.500446  0.000167  0.626407  1
  Os  Os24  1  0.999443  0.500146  0.873517  1
  Os  Os25  1  0.999443  0.499854  0.373517  1
  Pt  Pt26  1  0.846958  0.152523  0.250337  1
  Pt  Pt27  1  0.846958  0.847477  0.750337  1
  Pt  Pt28  1  0.152040  0.152652  0.749713  1
  Pt  Pt29  1  0.152040  0.847348  0.249713  1
  Pt  Pt30  1  0.653205  0.347430  0.750100  1
  Pt  Pt31  1  0.653205  0.652570  0.250100  1
