# generated using pymatgen
data_La19NdSi15Br
_symmetry_space_group_name_H-M   'P 1'
_cell_length_a   8.03454031
_cell_length_b   8.09021156
_cell_length_c   15.51439743
_cell_angle_alpha   89.71028626
_cell_angle_beta   84.88521628
_cell_angle_gamma   89.98405560
_symmetry_Int_Tables_number   1
_chemical_formula_structural   La19NdSi15Br
_chemical_formula_sum   'La19 Nd1 Si15 Br1'
_cell_volume   1004.42495652
_cell_formula_units_Z   1
loop_
 _symmetry_equiv_pos_site_id
 _symmetry_equiv_pos_as_xyz
  1  'x, y, z'
loop_
 _atom_site_type_symbol
 _atom_site_label
 _atom_site_symmetry_multiplicity
 _atom_site_fract_x
 _atom_site_fract_y
 _atom_site_fract_z
 _atom_site_occupancy
  La  La0  1  0.162795  0.511144  0.744854  1
  La  La1  1  0.867980  0.330390  0.620320  1
  La  La2  1  0.462970  0.691299  0.895001  1
  La  La3  1  0.962940  0.809349  0.895619  1
  La  La4  1  0.182759  0.677376  0.120415  1
  La  La5  1  0.681825  0.816354  0.120354  1
  La  La6  1  0.319749  0.181752  0.881079  1
  La  La7  1  0.144753  0.665529  0.383487  1
  La  La8  1  0.037501  0.187650  0.104605  1
  La  La9  1  0.365785  0.166705  0.615627  1
  La  La10  1  0.836862  0.493260  0.241844  1
  La  La11  1  0.333960  0.002945  0.252100  1
  La  La12  1  0.484232  0.308974  0.395042  1
  La  La13  1  0.818438  0.321664  0.879804  1
  La  La14  1  0.011732  0.832316  0.606433  1
  La  La15  1  0.492390  0.692047  0.607774  1
  La  La16  1  0.997936  0.171809  0.395641  1
  La  La17  1  0.633091  0.843208  0.382983  1
  La  La18  1  0.664618  0.995589  0.746203  1
  Nd  Nd19  1  0.539161  0.305820  0.106330  1
  Si  Si20  1  0.454033  0.596081  0.252233  1
  Si  Si21  1  0.229023  0.375816  0.248893  1
  Si  Si22  1  0.547839  0.403360  0.750643  1
  Si  Si23  1  0.632764  0.025814  0.958493  1
  Si  Si24  1  0.047357  0.104098  0.752518  1
  Si  Si25  1  0.769128  0.622345  0.751126  1
  Si  Si26  1  0.726581  0.120895  0.249205  1
  Si  Si27  1  0.289541  0.970816  0.453828  1
  Si  Si28  1  0.950947  0.897526  0.250560  1
  Si  Si29  1  0.371037  0.977200  0.044152  1
  Si  Si30  1  0.717535  0.029310  0.543051  1
  Si  Si31  1  0.131143  0.475584  0.957208  1
  Si  Si32  1  0.212798  0.472098  0.544193  1
  Si  Si33  1  0.868331  0.520798  0.043172  1
  Si  Si34  1  0.270939  0.882690  0.753051  1
  Br  Br35  1  0.779525  0.520389  0.452157  1
