# generated using pymatgen
data_Dy7ErCd3SnAu8
_symmetry_space_group_name_H-M   'P 1'
_cell_length_a   8.02613829
_cell_length_b   8.02157052
_cell_length_c   7.33988722
_cell_angle_alpha   90.02763829
_cell_angle_beta   90.00231645
_cell_angle_gamma   89.91345466
_symmetry_Int_Tables_number   1
_chemical_formula_structural   Dy7ErCd3SnAu8
_chemical_formula_sum   'Dy7 Er1 Cd3 Sn1 Au8'
_cell_volume   472.55774404
_cell_formula_units_Z   1
loop_
 _symmetry_equiv_pos_site_id
 _symmetry_equiv_pos_as_xyz
  1  'x, y, z'
loop_
 _atom_site_type_symbol
 _atom_site_label
 _atom_site_symmetry_multiplicity
 _atom_site_fract_x
 _atom_site_fract_y
 _atom_site_fract_z
 _atom_site_occupancy
  Dy  Dy0  1  0.154876  0.832107  0.500227  1
  Dy  Dy1  1  0.331982  0.345055  0.999962  1
  Dy  Dy2  1  0.668361  0.654995  0.999985  1
  Dy  Dy3  1  0.685779  0.673261  0.500337  1
  Dy  Dy4  1  0.314199  0.326521  0.500284  1
  Dy  Dy5  1  0.173289  0.814683  0.999693  1
  Dy  Dy6  1  0.826593  0.185653  0.999606  1
  Er  Er7  1  0.844676  0.167857  0.499818  1
  Cd  Cd8  1  0.500119  0.000115  0.250194  1
  Cd  Cd9  1  0.999857  0.499830  0.749818  1
  Cd  Cd10  1  0.500069  0.000139  0.749806  1
  Sn  Sn11  1  0.999807  0.499648  0.250160  1
  Au  Au12  1  0.621563  0.363818  0.269885  1
  Au  Au13  1  0.379587  0.635264  0.268414  1
  Au  Au14  1  0.131926  0.124803  0.766660  1
  Au  Au15  1  0.867079  0.876135  0.766725  1
  Au  Au16  1  0.375562  0.632636  0.732701  1
  Au  Au17  1  0.625583  0.366395  0.731134  1
  Au  Au18  1  0.864561  0.880123  0.232361  1
  Au  Au19  1  0.134531  0.120961  0.232230  1
