# generated using pymatgen
data_Hf16Co4Ir3Pt
_symmetry_space_group_name_H-M   'P 1'
_cell_length_a   8.60986707
_cell_length_b   8.60986741
_cell_length_c   8.60986774
_cell_angle_alpha   60.00728627
_cell_angle_beta   60.00728306
_cell_angle_gamma   60.00728912
_symmetry_Int_Tables_number   1
_chemical_formula_structural   Hf16Co4Ir3Pt
_chemical_formula_sum   'Hf16 Co4 Ir3 Pt1'
_cell_volume   451.38396449
_cell_formula_units_Z   1
loop_
 _symmetry_equiv_pos_site_id
 _symmetry_equiv_pos_as_xyz
  1  'x, y, z'
loop_
 _atom_site_type_symbol
 _atom_site_label
 _atom_site_symmetry_multiplicity
 _atom_site_fract_x
 _atom_site_fract_y
 _atom_site_fract_z
 _atom_site_occupancy
  Hf  Hf0  1  0.066647  0.644771  0.644771  1
  Hf  Hf1  1  0.644771  0.066647  0.644771  1
  Hf  Hf2  1  0.644771  0.644771  0.066647  1
  Hf  Hf3  1  0.645327  0.645327  0.645327  1
  Hf  Hf4  1  0.805071  0.805071  0.194813  1
  Hf  Hf5  1  0.193967  0.193967  0.807124  1
  Hf  Hf6  1  0.805071  0.194813  0.805071  1
  Hf  Hf7  1  0.193967  0.807124  0.193967  1
  Hf  Hf8  1  0.194813  0.805071  0.805071  1
  Hf  Hf9  1  0.807124  0.193967  0.193967  1
  Hf  Hf10  1  0.437019  0.437019  0.058810  1
  Hf  Hf11  1  0.062649  0.062649  0.437297  1
  Hf  Hf12  1  0.437019  0.058810  0.437019  1
  Hf  Hf13  1  0.062649  0.437297  0.062649  1
  Hf  Hf14  1  0.058810  0.437019  0.437019  1
  Hf  Hf15  1  0.437297  0.062649  0.062649  1
  Co  Co16  1  0.428734  0.857567  0.857567  1
  Co  Co17  1  0.857567  0.428734  0.857567  1
  Co  Co18  1  0.857567  0.857567  0.428734  1
  Co  Co19  1  0.856716  0.856716  0.856716  1
  Ir  Ir20  1  0.754789  0.415954  0.415954  1
  Ir  Ir21  1  0.415954  0.754789  0.415954  1
  Ir  Ir22  1  0.415954  0.415954  0.754789  1
  Pt  Pt23  1  0.415747  0.415747  0.415747  1
