# generated using pymatgen
data_Rb2CoSiO4
_symmetry_space_group_name_H-M   'P 1'
_cell_length_a   6.75327555
_cell_length_b   10.60182550
_cell_length_c   7.96127500
_cell_angle_alpha   90.00000446
_cell_angle_beta   90.00007761
_cell_angle_gamma   80.21497126
_symmetry_Int_Tables_number   1
_chemical_formula_structural   Rb2CoSiO4
_chemical_formula_sum   'Rb8 Co4 Si4 O16'
_cell_volume   561.71157446
_cell_formula_units_Z   4
loop_
 _symmetry_equiv_pos_site_id
 _symmetry_equiv_pos_as_xyz
  1  'x, y, z'
loop_
 _atom_site_type_symbol
 _atom_site_label
 _atom_site_symmetry_multiplicity
 _atom_site_fract_x
 _atom_site_fract_y
 _atom_site_fract_z
 _atom_site_occupancy
  Rb  Rb0  1  0.889581  0.963231  0.271466  1
  Rb  Rb1  1  0.389581  0.463233  0.271465  1
  Rb  Rb2  1  0.110414  0.036765  0.771465  1
  Rb  Rb3  1  0.610416  0.536768  0.771466  1
  Rb  Rb4  1  0.616340  0.205429  0.918730  1
  Rb  Rb5  1  0.116342  0.705432  0.918730  1
  Rb  Rb6  1  0.383658  0.794570  0.418736  1
  Rb  Rb7  1  0.883658  0.294567  0.418736  1
  Co  Co8  1  0.804291  0.601468  0.193507  1
  Co  Co9  1  0.695710  0.898533  0.693505  1
  Co  Co10  1  0.304290  0.101466  0.193507  1
  Co  Co11  1  0.195710  0.398534  0.693506  1
  Si  Si12  1  0.463645  0.154567  0.478953  1
  Si  Si13  1  0.963642  0.654568  0.478952  1
  Si  Si14  1  0.536357  0.845433  0.978950  1
  Si  Si15  1  0.036357  0.345432  0.978952  1
  O  O16  1  0.538682  0.179618  0.283410  1
  O  O17  1  0.038684  0.679620  0.283411  1
  O  O18  1  0.461313  0.820382  0.783408  1
  O  O19  1  0.961318  0.320381  0.783409  1
  O  O20  1  0.261029  0.087057  0.447291  1
  O  O21  1  0.761023  0.587061  0.447291  1
  O  O22  1  0.738975  0.912942  0.947289  1
  O  O23  1  0.238975  0.412941  0.947288  1
  O  O24  1  0.646235  0.061981  0.580033  1
  O  O25  1  0.146226  0.561982  0.580037  1
  O  O26  1  0.353773  0.938021  0.080030  1
  O  O27  1  0.853772  0.438020  0.080032  1
  O  O28  1  0.416276  0.292165  0.580110  1
  O  O29  1  0.916277  0.792167  0.580109  1
  O  O30  1  0.583726  0.707835  0.080107  1
  O  O31  1  0.083726  0.207835  0.080110  1
