# generated using pymatgen
data_Nd4ErUSe10
_symmetry_space_group_name_H-M   'P 1'
_cell_length_a   7.88229500
_cell_length_b   8.34732400
_cell_length_c   12.51098200
_cell_angle_alpha   90.00000000
_cell_angle_beta   90.00000000
_cell_angle_gamma   90.00000000
_symmetry_Int_Tables_number   1
_chemical_formula_structural   Nd4ErUSe10
_chemical_formula_sum   'Nd8 Er2 U2 Se20'
_cell_volume   823.17345030
_cell_formula_units_Z   2
loop_
 _symmetry_equiv_pos_site_id
 _symmetry_equiv_pos_as_xyz
  1  'x, y, z'
loop_
 _atom_site_type_symbol
 _atom_site_label
 _atom_site_symmetry_multiplicity
 _atom_site_fract_x
 _atom_site_fract_y
 _atom_site_fract_z
 _atom_site_occupancy
  Nd  Nd0  1  0.527653  0.501048  0.321935  1
  Nd  Nd1  1  0.972347  0.998952  0.821935  1
  Nd  Nd2  1  0.476298  0.996276  0.677769  1
  Nd  Nd3  1  0.023702  0.503724  0.177769  1
  Nd  Nd4  1  0.476298  0.503724  0.677769  1
  Nd  Nd5  1  0.023702  0.996276  0.177769  1
  Nd  Nd6  1  0.527653  0.998952  0.321935  1
  Nd  Nd7  1  0.972347  0.501048  0.821935  1
  Er  Er8  1  0.072872  0.750000  0.494982  1
  Er  Er9  1  0.427128  0.750000  0.994982  1
  U  U10  1  0.941034  0.250000  0.506169  1
  U  U11  1  0.558966  0.250000  0.006169  1
  Se  Se12  1  0.834749  0.964288  0.595965  1
  Se  Se13  1  0.665251  0.535712  0.095965  1
  Se  Se14  1  0.164405  0.455758  0.404774  1
  Se  Se15  1  0.335595  0.044242  0.904774  1
  Se  Se16  1  0.164405  0.044242  0.404774  1
  Se  Se17  1  0.335595  0.455758  0.904774  1
  Se  Se18  1  0.834749  0.535712  0.595965  1
  Se  Se19  1  0.665251  0.964288  0.095965  1
  Se  Se20  1  0.830502  0.750000  0.315522  1
  Se  Se21  1  0.669498  0.750000  0.815522  1
  Se  Se22  1  0.169600  0.250000  0.683581  1
  Se  Se23  1  0.330400  0.250000  0.183581  1
  Se  Se24  1  0.453680  0.750000  0.497672  1
  Se  Se25  1  0.046320  0.750000  0.997672  1
  Se  Se26  1  0.549817  0.250000  0.499275  1
  Se  Se27  1  0.950183  0.250000  0.999275  1
  Se  Se28  1  0.192128  0.750000  0.712693  1
  Se  Se29  1  0.307872  0.750000  0.212693  1
  Se  Se30  1  0.809050  0.250000  0.289221  1
  Se  Se31  1  0.690950  0.250000  0.789221  1
