# generated using pymatgen
data_Tb4Sb3Rh7Pb3
_symmetry_space_group_name_H-M   'P 1'
_cell_length_a   7.71738256
_cell_length_b   7.69129043
_cell_length_c   7.69129053
_cell_angle_alpha   109.40239742
_cell_angle_beta   109.53995776
_cell_angle_gamma   109.53995867
_symmetry_Int_Tables_number   1
_chemical_formula_structural   Tb4Sb3Rh7Pb3
_chemical_formula_sum   'Tb4 Sb3 Rh7 Pb3'
_cell_volume   351.13768014
_cell_formula_units_Z   1
loop_
 _symmetry_equiv_pos_site_id
 _symmetry_equiv_pos_as_xyz
  1  'x, y, z'
loop_
 _atom_site_type_symbol
 _atom_site_label
 _atom_site_symmetry_multiplicity
 _atom_site_fract_x
 _atom_site_fract_y
 _atom_site_fract_z
 _atom_site_occupancy
  Tb  Tb0  1  0.467770  0.000000  0.000000  1
  Tb  Tb1  1  0.999287  0.511868  0.000000  1
  Tb  Tb2  1  0.999287  0.000000  0.511868  1
  Tb  Tb3  1  0.487419  0.488132  0.488132  1
  Sb  Sb4  1  0.989609  0.664509  0.664509  1
  Sb  Sb5  1  0.325101  0.000000  0.335491  1
  Sb  Sb6  1  0.325101  0.335491  0.000000  1
  Rh  Rh7  1  0.052278  0.000000  0.000000  1
  Rh  Rh8  1  0.500177  0.754018  0.255255  1
  Rh  Rh9  1  0.746159  0.501238  0.245982  1
  Rh  Rh10  1  0.244922  0.744745  0.498762  1
  Rh  Rh11  1  0.244922  0.498762  0.744745  1
  Rh  Rh12  1  0.500177  0.255255  0.754018  1
  Rh  Rh13  1  0.746159  0.245982  0.501238  1
  Pb  Pb14  1  0.986130  0.293379  0.293379  1
  Pb  Pb15  1  0.692751  0.000000  0.706621  1
  Pb  Pb16  1  0.692751  0.706621  0.000000  1
