# generated using pymatgen
data_Tm3U(B4Mo)4
_symmetry_space_group_name_H-M   'P 1'
_cell_length_a   3.61228900
_cell_length_b   5.98847157
_cell_length_c   11.58078104
_cell_angle_alpha   89.91701864
_cell_angle_beta   90.00000000
_cell_angle_gamma   90.00000000
_symmetry_Int_Tables_number   1
_chemical_formula_structural   Tm3U(B4Mo)4
_chemical_formula_sum   'Tm3 U1 B16 Mo4'
_cell_volume   250.51623468
_cell_formula_units_Z   1
loop_
 _symmetry_equiv_pos_site_id
 _symmetry_equiv_pos_as_xyz
  1  'x, y, z'
loop_
 _atom_site_type_symbol
 _atom_site_label
 _atom_site_symmetry_multiplicity
 _atom_site_fract_x
 _atom_site_fract_y
 _atom_site_fract_z
 _atom_site_occupancy
  Tm  Tm0  1  0.000000  0.127269  0.650211  1
  Tm  Tm1  1  0.000000  0.872505  0.351070  1
  Tm  Tm2  1  0.000000  0.627755  0.848994  1
  U  U3  1  0.000000  0.373494  0.149584  1
  B  B4  1  0.500000  0.477401  0.693972  1
  B  B5  1  0.500000  0.520882  0.305694  1
  B  B6  1  0.500000  0.977691  0.805944  1
  B  B7  1  0.500000  0.026565  0.193579  1
  B  B8  1  0.500000  0.288327  0.812653  1
  B  B9  1  0.500000  0.706851  0.185992  1
  B  B10  1  0.500000  0.790043  0.686150  1
  B  B11  1  0.500000  0.211145  0.313113  1
  B  B12  1  0.500000  0.366843  0.968722  1
  B  B13  1  0.500000  0.631874  0.032732  1
  B  B14  1  0.500000  0.868005  0.532001  1
  B  B15  1  0.500000  0.132821  0.468133  1
  B  B16  1  0.500000  0.385001  0.548004  1
  B  B17  1  0.500000  0.615142  0.452459  1
  B  B18  1  0.500000  0.884280  0.952014  1
  B  B19  1  0.500000  0.115027  0.048103  1
  Mo  Mo20  1  0.000000  0.132229  0.915148  1
  Mo  Mo21  1  0.000000  0.866970  0.087609  1
  Mo  Mo22  1  0.000000  0.631369  0.584037  1
  Mo  Mo23  1  0.000000  0.370511  0.414082  1
