# generated using pymatgen
data_Yb8Re11Si16Rh
_symmetry_space_group_name_H-M   'P 1'
_cell_length_a   6.72978932
_cell_length_b   6.71637027
_cell_length_c   12.75039700
_cell_angle_alpha   89.64712266
_cell_angle_beta   89.87380050
_cell_angle_gamma   90.02874767
_symmetry_Int_Tables_number   1
_chemical_formula_structural   Yb8Re11Si16Rh
_chemical_formula_sum   'Yb8 Re11 Si16 Rh1'
_cell_volume   576.30244085
_cell_formula_units_Z   1
loop_
 _symmetry_equiv_pos_site_id
 _symmetry_equiv_pos_as_xyz
  1  'x, y, z'
loop_
 _atom_site_type_symbol
 _atom_site_label
 _atom_site_symmetry_multiplicity
 _atom_site_fract_x
 _atom_site_fract_y
 _atom_site_fract_z
 _atom_site_occupancy
  Yb  Yb0  1  0.998911  0.680238  0.028060  1
  Yb  Yb1  1  0.002521  0.322035  0.529951  1
  Yb  Yb2  1  0.327068  0.998621  0.471190  1
  Yb  Yb3  1  0.168723  0.505027  0.775887  1
  Yb  Yb4  1  0.825879  0.495337  0.277547  1
  Yb  Yb5  1  0.503817  0.171610  0.223051  1
  Yb  Yb6  1  0.498142  0.830264  0.724047  1
  Yb  Yb7  1  0.672432  0.001872  0.970753  1
  Re  Re8  1  0.662116  0.659228  0.498613  1
  Re  Re9  1  0.164148  0.834097  0.250582  1
  Re  Re10  1  0.337216  0.344934  0.003100  1
  Re  Re11  1  0.990440  0.178739  0.126383  1
  Re  Re12  1  0.821018  0.997625  0.373586  1
  Re  Re13  1  0.320892  0.486470  0.377634  1
  Re  Re14  1  0.682887  0.515145  0.877108  1
  Re  Re15  1  0.484612  0.313648  0.620103  1
  Re  Re16  1  0.502089  0.679425  0.123515  1
  Re  Re17  1  0.184367  0.014741  0.880625  1
  Re  Re18  1  0.837162  0.165574  0.749314  1
  Si  Si19  1  0.023462  0.703941  0.432835  1
  Si  Si20  1  0.621011  0.295821  0.437166  1
  Si  Si21  1  0.380810  0.704528  0.936944  1
  Si  Si22  1  0.191660  0.105574  0.691196  1
  Si  Si23  1  0.306928  0.615128  0.560845  1
  Si  Si24  1  0.700156  0.384412  0.062287  1
  Si  Si25  1  0.801897  0.880351  0.186997  1
  Si  Si26  1  0.117200  0.193949  0.312574  1
  Si  Si27  1  0.975199  0.299933  0.936749  1
  Si  Si28  1  0.713594  0.015966  0.566726  1
  Si  Si29  1  0.209443  0.475720  0.185559  1
  Si  Si30  1  0.775602  0.516893  0.682764  1
  Si  Si31  1  0.479771  0.223140  0.814075  1
  Si  Si32  1  0.520293  0.782082  0.315777  1
  Si  Si33  1  0.291096  0.982149  0.068737  1
  Si  Si34  1  0.891195  0.814643  0.809709  1
  Rh  Rh35  1  0.016244  0.811140  0.618007  1
