# generated using pymatgen
data_Sm2TiCrO8
_symmetry_space_group_name_H-M   'P 1'
_cell_length_a   6.12681207
_cell_length_b   6.12681084
_cell_length_c   6.12681100
_cell_angle_alpha   106.06558155
_cell_angle_beta   106.06557824
_cell_angle_gamma   116.52095493
_symmetry_Int_Tables_number   1
_chemical_formula_structural   Sm2TiCrO8
_chemical_formula_sum   'Sm2 Ti1 Cr1 O8'
_cell_volume   175.01024687
_cell_formula_units_Z   1
loop_
 _symmetry_equiv_pos_site_id
 _symmetry_equiv_pos_as_xyz
  1  'x, y, z'
loop_
 _atom_site_type_symbol
 _atom_site_label
 _atom_site_symmetry_multiplicity
 _atom_site_fract_x
 _atom_site_fract_y
 _atom_site_fract_z
 _atom_site_occupancy
  Sm  Sm0  1  0.000000  0.000000  0.000000  1
  Sm  Sm1  1  0.250000  0.750000  0.500000  1
  Ti  Ti2  1  0.750000  0.250000  0.500000  1
  Cr  Cr3  1  0.500000  0.500000  0.000000  1
  O  O4  1  0.341109  0.518631  0.177520  1
  O  O5  1  0.374367  0.060346  0.314020  1
  O  O6  1  0.746325  0.060346  0.685980  1
  O  O7  1  0.341109  0.163589  0.822480  1
  O  O8  1  0.836411  0.658891  0.177520  1
  O  O9  1  0.939654  0.253675  0.314020  1
  O  O10  1  0.939654  0.625633  0.685980  1
  O  O11  1  0.481369  0.658891  0.822480  1
