# generated using pymatgen
data_Lu10Ga3ReTe4
_symmetry_space_group_name_H-M   'P 1'
_cell_length_a   8.54595663
_cell_length_b   8.54595839
_cell_length_c   7.76363013
_cell_angle_alpha   90.28875243
_cell_angle_beta   90.28875495
_cell_angle_gamma   125.80122089
_symmetry_Int_Tables_number   1
_chemical_formula_structural   Lu10Ga3ReTe4
_chemical_formula_sum   'Lu10 Ga3 Re1 Te4'
_cell_volume   459.84140114
_cell_formula_units_Z   1
loop_
 _symmetry_equiv_pos_site_id
 _symmetry_equiv_pos_as_xyz
  1  'x, y, z'
loop_
 _atom_site_type_symbol
 _atom_site_label
 _atom_site_symmetry_multiplicity
 _atom_site_fract_x
 _atom_site_fract_y
 _atom_site_fract_z
 _atom_site_occupancy
  Lu  Lu0  1  0.994898  0.994898  0.011997  1
  Lu  Lu1  1  0.511722  0.511722  0.490812  1
  Lu  Lu2  1  0.811578  0.564882  0.182414  1
  Lu  Lu3  1  0.461214  0.218552  0.836156  1
  Lu  Lu4  1  0.952744  0.708908  0.651680  1
  Lu  Lu5  1  0.264644  0.025189  0.340163  1
  Lu  Lu6  1  0.218552  0.461214  0.836156  1
  Lu  Lu7  1  0.564882  0.811578  0.182414  1
  Lu  Lu8  1  0.025189  0.264644  0.340163  1
  Lu  Lu9  1  0.708908  0.952744  0.651680  1
  Ga  Ga10  1  0.129337  0.129337  0.633592  1
  Ga  Ga11  1  0.629765  0.629765  0.871170  1
  Ga  Ga12  1  0.368479  0.368479  0.126216  1
  Re  Re13  1  0.867877  0.867877  0.373371  1
  Te  Te14  1  0.225566  0.806005  0.988560  1
  Te  Te15  1  0.685412  0.273228  0.497448  1
  Te  Te16  1  0.806005  0.225566  0.988560  1
  Te  Te17  1  0.273228  0.685412  0.497448  1
