# generated using pymatgen
data_Y6Ho14CdIn5Ru2
_symmetry_space_group_name_H-M   'P 1'
_cell_length_a   9.71459603
_cell_length_b   9.78414742
_cell_length_c   9.65824000
_cell_angle_alpha   90.00000000
_cell_angle_beta   90.00000000
_cell_angle_gamma   120.23711515
_symmetry_Int_Tables_number   1
_chemical_formula_structural   Y6Ho14CdIn5Ru2
_chemical_formula_sum   'Y6 Ho14 Cd1 In5 Ru2'
_cell_volume   793.11053602
_cell_formula_units_Z   1
loop_
 _symmetry_equiv_pos_site_id
 _symmetry_equiv_pos_as_xyz
  1  'x, y, z'
loop_
 _atom_site_type_symbol
 _atom_site_label
 _atom_site_symmetry_multiplicity
 _atom_site_fract_x
 _atom_site_fract_y
 _atom_site_fract_z
 _atom_site_occupancy
  Y  Y0  1  0.541345  0.460282  0.250000  1
  Y  Y1  1  0.541345  0.081064  0.250000  1
  Y  Y2  1  0.923164  0.461582  0.250000  1
  Y  Y3  1  0.461863  0.541995  0.750000  1
  Y  Y4  1  0.461863  0.919866  0.750000  1
  Y  Y5  1  0.081665  0.540832  0.750000  1
  Ho  Ho6  1  0.996037  0.998018  0.502164  1
  Ho  Ho7  1  0.996037  0.998018  0.997836  1
  Ho  Ho8  1  0.210870  0.790221  0.440127  1
  Ho  Ho9  1  0.210870  0.420651  0.440127  1
  Ho  Ho10  1  0.578564  0.789283  0.437576  1
  Ho  Ho11  1  0.789873  0.211697  0.559903  1
  Ho  Ho12  1  0.789873  0.578175  0.559903  1
  Ho  Ho13  1  0.420188  0.210093  0.561852  1
  Ho  Ho14  1  0.789873  0.211697  0.940097  1
  Ho  Ho15  1  0.789873  0.578175  0.940097  1
  Ho  Ho16  1  0.420188  0.210093  0.938148  1
  Ho  Ho17  1  0.210870  0.790221  0.059873  1
  Ho  Ho18  1  0.210870  0.420651  0.059873  1
  Ho  Ho19  1  0.578564  0.789283  0.062424  1
  Cd  Cd20  1  0.767156  0.883578  0.750000  1
  In  In21  1  0.884697  0.117835  0.250000  1
  In  In22  1  0.884697  0.766862  0.250000  1
  In  In23  1  0.230337  0.115169  0.250000  1
  In  In24  1  0.115633  0.882203  0.750000  1
  In  In25  1  0.115633  0.233429  0.750000  1
  Ru  Ru26  1  0.330346  0.665174  0.250000  1
  Ru  Ru27  1  0.667712  0.333856  0.750000  1
