# generated using pymatgen
data_HoLuHf2(Al3Ir)6
_symmetry_space_group_name_H-M   'P 1'
_cell_length_a   7.50835705
_cell_length_b   7.49685410
_cell_length_c   9.31697800
_cell_angle_alpha   90.00000000
_cell_angle_beta   90.00000000
_cell_angle_gamma   119.73639596
_symmetry_Int_Tables_number   1
_chemical_formula_structural   HoLuHf2(Al3Ir)6
_chemical_formula_sum   'Ho1 Lu1 Hf2 Al18 Ir6'
_cell_volume   455.38335651
_cell_formula_units_Z   1
loop_
 _symmetry_equiv_pos_site_id
 _symmetry_equiv_pos_as_xyz
  1  'x, y, z'
loop_
 _atom_site_type_symbol
 _atom_site_label
 _atom_site_symmetry_multiplicity
 _atom_site_fract_x
 _atom_site_fract_y
 _atom_site_fract_z
 _atom_site_occupancy
  Ho  Ho0  1  0.670861  0.994396  0.250000  1
  Lu  Lu1  1  0.328903  0.005539  0.750000  1
  Hf  Hf2  1  0.995700  0.671673  0.250000  1
  Hf  Hf3  1  0.004409  0.328387  0.750000  1
  Al  Al4  1  0.126703  0.124708  0.250000  1
  Al  Al5  1  0.873932  0.875513  0.750000  1
  Al  Al6  1  0.000010  0.337124  0.075833  1
  Al  Al7  1  0.000509  0.663356  0.923515  1
  Al  Al8  1  0.000509  0.663356  0.576485  1
  Al  Al9  1  0.332581  0.998559  0.422035  1
  Al  Al10  1  0.000010  0.337124  0.424167  1
  Al  Al11  1  0.666944  0.001531  0.579028  1
  Al  Al12  1  0.666944  0.001531  0.920972  1
  Al  Al13  1  0.332581  0.998559  0.077965  1
  Al  Al14  1  0.331341  0.333193  0.558239  1
  Al  Al15  1  0.668700  0.666339  0.442425  1
  Al  Al16  1  0.668700  0.666339  0.057575  1
  Al  Al17  1  0.331341  0.333193  0.941761  1
  Al  Al18  1  0.334855  0.548032  0.250000  1
  Al  Al19  1  0.664572  0.451271  0.750000  1
  Al  Al20  1  0.553713  0.343281  0.250000  1
  Al  Al21  1  0.446024  0.656982  0.750000  1
  Ir  Ir22  1  0.672742  0.327616  0.999334  1
  Ir  Ir23  1  0.326972  0.672331  0.000301  1
  Ir  Ir24  1  0.326972  0.672331  0.499699  1
  Ir  Ir25  1  0.672742  0.327616  0.500666  1
  Ir  Ir26  1  0.000366  0.000059  0.999765  1
  Ir  Ir27  1  0.000366  0.000059  0.500235  1
