# generated using pymatgen
data_SrYb11(CuGe)12
_symmetry_space_group_name_H-M   'P 1'
_cell_length_a   4.33783500
_cell_length_b   7.39364014
_cell_length_c   20.93638760
_cell_angle_alpha   89.83432812
_cell_angle_beta   90.00000000
_cell_angle_gamma   90.00000000
_symmetry_Int_Tables_number   1
_chemical_formula_structural   SrYb11(CuGe)12
_chemical_formula_sum   'Sr1 Yb11 Cu12 Ge12'
_cell_volume   671.47720193
_cell_formula_units_Z   1
loop_
 _symmetry_equiv_pos_site_id
 _symmetry_equiv_pos_as_xyz
  1  'x, y, z'
loop_
 _atom_site_type_symbol
 _atom_site_label
 _atom_site_symmetry_multiplicity
 _atom_site_fract_x
 _atom_site_fract_y
 _atom_site_fract_z
 _atom_site_occupancy
  Sr  Sr0  1  0.250000  0.796415  0.832911  1
  Yb  Yb1  1  0.250000  0.717917  0.005190  1
  Yb  Yb2  1  0.750000  0.283745  0.001099  1
  Yb  Yb3  1  0.750000  0.218780  0.496583  1
  Yb  Yb4  1  0.250000  0.780156  0.500261  1
  Yb  Yb5  1  0.250000  0.789010  0.167894  1
  Yb  Yb6  1  0.750000  0.213543  0.833923  1
  Yb  Yb7  1  0.750000  0.288648  0.333844  1
  Yb  Yb8  1  0.250000  0.709535  0.663050  1
  Yb  Yb9  1  0.250000  0.709319  0.333142  1
  Yb  Yb10  1  0.750000  0.290276  0.663673  1
  Yb  Yb11  1  0.750000  0.210466  0.168668  1
  Cu  Cu12  1  0.250000  0.416982  0.097927  1
  Cu  Cu13  1  0.750000  0.578851  0.911187  1
  Cu  Cu14  1  0.750000  0.915285  0.403669  1
  Cu  Cu15  1  0.250000  0.083882  0.593443  1
  Cu  Cu16  1  0.250000  0.413159  0.237263  1
  Cu  Cu17  1  0.750000  0.578355  0.756286  1
  Cu  Cu18  1  0.750000  0.912728  0.264409  1
  Cu  Cu19  1  0.250000  0.091513  0.730076  1
  Cu  Cu20  1  0.250000  0.417898  0.434856  1
  Cu  Cu21  1  0.750000  0.581184  0.562352  1
  Cu  Cu22  1  0.750000  0.920224  0.066587  1
  Cu  Cu23  1  0.250000  0.086338  0.941890  1
  Ge  Ge24  1  0.250000  0.089852  0.071452  1
  Ge  Ge25  1  0.750000  0.915064  0.937302  1
  Ge  Ge26  1  0.750000  0.587844  0.430374  1
  Ge  Ge27  1  0.250000  0.411608  0.566842  1
  Ge  Ge28  1  0.250000  0.080478  0.269586  1
  Ge  Ge29  1  0.750000  0.921017  0.725060  1
  Ge  Ge30  1  0.750000  0.580496  0.232073  1
  Ge  Ge31  1  0.250000  0.413967  0.766924  1
  Ge  Ge32  1  0.250000  0.083727  0.398614  1
  Ge  Ge33  1  0.750000  0.914781  0.597554  1
  Ge  Ge34  1  0.750000  0.585801  0.103092  1
  Ge  Ge35  1  0.250000  0.411154  0.900941  1
