# generated using pymatgen
data_NaYCr2O8
_symmetry_space_group_name_H-M   'P 1'
_cell_length_a   6.02088674
_cell_length_b   6.02088675
_cell_length_c   6.02088736
_cell_angle_alpha   105.60741662
_cell_angle_beta   105.60741003
_cell_angle_gamma   117.51049917
_symmetry_Int_Tables_number   1
_chemical_formula_structural   NaYCr2O8
_chemical_formula_sum   'Na1 Y1 Cr2 O8'
_cell_volume   165.50624668
_cell_formula_units_Z   1
loop_
 _symmetry_equiv_pos_site_id
 _symmetry_equiv_pos_as_xyz
  1  'x, y, z'
loop_
 _atom_site_type_symbol
 _atom_site_label
 _atom_site_symmetry_multiplicity
 _atom_site_fract_x
 _atom_site_fract_y
 _atom_site_fract_z
 _atom_site_occupancy
  Na  Na0  1  0.000000  0.000000  0.000000  1
  Y  Y1  1  0.250000  0.750000  0.500000  1
  Cr  Cr2  1  0.750000  0.250000  0.500000  1
  Cr  Cr3  1  0.500000  0.500000  0.000000  1
  O  O4  1  0.918755  0.595971  0.677216  1
  O  O5  1  0.469666  0.655650  0.814015  1
  O  O6  1  0.841635  0.655650  0.185985  1
  O  O7  1  0.918755  0.241539  0.322784  1
  O  O8  1  0.344350  0.158365  0.814015  1
  O  O9  1  0.758461  0.081245  0.677216  1
  O  O10  1  0.404029  0.081245  0.322784  1
  O  O11  1  0.344350  0.530334  0.185985  1
