# generated using pymatgen
data_La(ThH4)3
_symmetry_space_group_name_H-M   'P 1'
_cell_length_a   6.95202300
_cell_length_b   6.95459100
_cell_length_c   6.95459100
_cell_angle_alpha   90.00000000
_cell_angle_beta   90.00000000
_cell_angle_gamma   90.00000000
_symmetry_Int_Tables_number   1
_chemical_formula_structural   La(ThH4)3
_chemical_formula_sum   'La2 Th6 H24'
_cell_volume   336.24388014
_cell_formula_units_Z   2
loop_
 _symmetry_equiv_pos_site_id
 _symmetry_equiv_pos_as_xyz
  1  'x, y, z'
loop_
 _atom_site_type_symbol
 _atom_site_label
 _atom_site_symmetry_multiplicity
 _atom_site_fract_x
 _atom_site_fract_y
 _atom_site_fract_z
 _atom_site_occupancy
  La  La0  1  0.250000  0.000000  0.500000  1
  La  La1  1  0.750000  0.000000  0.500000  1
  Th  Th2  1  0.000000  0.000000  0.000000  1
  Th  Th3  1  0.500000  0.500000  0.500000  1
  Th  Th4  1  0.000000  0.500000  0.250278  1
  Th  Th5  1  0.000000  0.500000  0.749722  1
  Th  Th6  1  0.500000  0.750278  0.000000  1
  Th  Th7  1  0.500000  0.249722  0.000000  1
  H  H8  1  0.000000  0.160232  0.295056  1
  H  H9  1  0.500000  0.204944  0.660232  1
  H  H10  1  0.500000  0.795056  0.339768  1
  H  H11  1  0.807514  0.647488  0.500000  1
  H  H12  1  0.192486  0.647488  0.500000  1
  H  H13  1  0.344673  0.500000  0.803963  1
  H  H14  1  0.655327  0.500000  0.803963  1
  H  H15  1  0.307514  0.000000  0.147488  1
  H  H16  1  0.155327  0.303963  0.000000  1
  H  H17  1  0.844673  0.696037  0.000000  1
  H  H18  1  0.307514  0.000000  0.852512  1
  H  H19  1  0.844673  0.303963  0.000000  1
  H  H20  1  0.692486  0.000000  0.147488  1
  H  H21  1  0.692486  0.000000  0.852512  1
  H  H22  1  0.155327  0.696037  0.000000  1
  H  H23  1  0.000000  0.839768  0.704944  1
  H  H24  1  0.000000  0.160232  0.704944  1
  H  H25  1  0.000000  0.839768  0.295056  1
  H  H26  1  0.655327  0.500000  0.196037  1
  H  H27  1  0.344673  0.500000  0.196037  1
  H  H28  1  0.807514  0.352512  0.500000  1
  H  H29  1  0.192486  0.352512  0.500000  1
  H  H30  1  0.500000  0.795056  0.660232  1
  H  H31  1  0.500000  0.204944  0.339768  1
