# generated using pymatgen
data_CeSmZn2(Ni3B)2
_symmetry_space_group_name_H-M   'P 1'
_cell_length_a   5.17314200
_cell_length_b   5.17442257
_cell_length_c   6.87610200
_cell_angle_alpha   90.00000000
_cell_angle_beta   90.00000000
_cell_angle_gamma   119.99181376
_symmetry_Int_Tables_number   1
_chemical_formula_structural   CeSmZn2(Ni3B)2
_chemical_formula_sum   'Ce1 Sm1 Zn2 Ni6 B2'
_cell_volume   159.41348390
_cell_formula_units_Z   1
loop_
 _symmetry_equiv_pos_site_id
 _symmetry_equiv_pos_as_xyz
  1  'x, y, z'
loop_
 _atom_site_type_symbol
 _atom_site_label
 _atom_site_symmetry_multiplicity
 _atom_site_fract_x
 _atom_site_fract_y
 _atom_site_fract_z
 _atom_site_occupancy
  Ce  Ce0  1  0.999983  0.000000  0.500000  1
  Sm  Sm1  1  0.999978  0.000000  0.000000  1
  Zn  Zn2  1  0.333297  0.666634  0.000000  1
  Zn  Zn3  1  0.666666  0.333366  0.000000  1
  Ni  Ni4  1  0.499987  0.000000  0.298684  1
  Ni  Ni5  1  0.499983  0.500001  0.298742  1
  Ni  Ni6  1  0.999983  0.499999  0.298742  1
  Ni  Ni7  1  0.499987  0.000000  0.701316  1
  Ni  Ni8  1  0.499983  0.500001  0.701258  1
  Ni  Ni9  1  0.999983  0.499999  0.701258  1
  B  B10  1  0.333336  0.666705  0.500000  1
  B  B11  1  0.666631  0.333295  0.500000  1
