# generated using pymatgen
data_LiSmThSi3Ag
_symmetry_space_group_name_H-M   'P 1'
_cell_length_a   9.44611473
_cell_length_b   9.44611576
_cell_length_c   6.90635720
_cell_angle_alpha   89.63476641
_cell_angle_beta   90.36523447
_cell_angle_gamma   153.25390823
_symmetry_Int_Tables_number   1
_chemical_formula_structural   LiSmThSi3Ag
_chemical_formula_sum   'Li2 Sm2 Th2 Si6 Ag2'
_cell_volume   277.32876937
_cell_formula_units_Z   2
loop_
 _symmetry_equiv_pos_site_id
 _symmetry_equiv_pos_as_xyz
  1  'x, y, z'
loop_
 _atom_site_type_symbol
 _atom_site_label
 _atom_site_symmetry_multiplicity
 _atom_site_fract_x
 _atom_site_fract_y
 _atom_site_fract_z
 _atom_site_occupancy
  Li  Li0  1  0.188422  0.811578  0.059074  1
  Li  Li1  1  0.811578  0.188422  0.940926  1
  Sm  Sm2  1  0.346609  0.653391  0.243288  1
  Sm  Sm3  1  0.653391  0.346609  0.756712  1
  Th  Th4  1  0.552640  0.447360  0.251513  1
  Th  Th5  1  0.447360  0.552640  0.748487  1
  Si  Si6  1  0.941404  0.058596  0.068797  1
  Si  Si7  1  0.058596  0.941404  0.931203  1
  Si  Si8  1  0.057629  0.942371  0.576476  1
  Si  Si9  1  0.942371  0.057629  0.423524  1
  Si  Si10  1  0.721963  0.278037  0.241025  1
  Si  Si11  1  0.278037  0.721963  0.758975  1
  Ag  Ag12  1  0.813223  0.186777  0.566688  1
  Ag  Ag13  1  0.186777  0.813223  0.433312  1
