# generated using pymatgen
data_TbErTa4(B2Ru5)2
_symmetry_space_group_name_H-M   'P 1'
_cell_length_a   9.55480349
_cell_length_b   9.55480334
_cell_length_c   3.09018300
_cell_angle_alpha   90.00000000
_cell_angle_beta   90.00000000
_cell_angle_gamma   90.62886693
_symmetry_Int_Tables_number   1
_chemical_formula_structural   TbErTa4(B2Ru5)2
_chemical_formula_sum   'Tb1 Er1 Ta4 B4 Ru10'
_cell_volume   282.09900313
_cell_formula_units_Z   1
loop_
 _symmetry_equiv_pos_site_id
 _symmetry_equiv_pos_as_xyz
  1  'x, y, z'
loop_
 _atom_site_type_symbol
 _atom_site_label
 _atom_site_symmetry_multiplicity
 _atom_site_fract_x
 _atom_site_fract_y
 _atom_site_fract_z
 _atom_site_occupancy
  Tb  Tb0  1  0.824054  0.675946  0.000000  1
  Er  Er1  1  0.176459  0.323541  0.000000  1
  Ta  Ta2  1  0.323878  0.823992  0.000000  1
  Ta  Ta3  1  0.676008  0.176122  0.000000  1
  Ta  Ta4  1  0.499305  0.499723  0.000000  1
  Ta  Ta5  1  0.000277  0.000695  0.000000  1
  B  B6  1  0.619876  0.880124  0.000000  1
  B  B7  1  0.379275  0.120725  0.000000  1
  B  B8  1  0.121517  0.620795  0.000000  1
  B  B9  1  0.879205  0.378483  0.000000  1
  Ru  Ru10  1  0.558328  0.723617  0.500000  1
  Ru  Ru11  1  0.440355  0.276956  0.500000  1
  Ru  Ru12  1  0.082678  0.785638  0.500000  1
  Ru  Ru13  1  0.918731  0.214494  0.500000  1
  Ru  Ru14  1  0.285506  0.581269  0.500000  1
  Ru  Ru15  1  0.714362  0.417322  0.500000  1
  Ru  Ru16  1  0.223044  0.059645  0.500000  1
  Ru  Ru17  1  0.776383  0.941672  0.500000  1
  Ru  Ru18  1  0.499655  0.000345  0.500000  1
  Ru  Ru19  1  0.001103  0.498897  0.500000  1
