# generated using pymatgen
data_Tb2ErHf(Al3Ir)6
_symmetry_space_group_name_H-M   'P 1'
_cell_length_a   7.54533201
_cell_length_b   7.53679586
_cell_length_c   9.41727800
_cell_angle_alpha   90.00000000
_cell_angle_beta   90.00000000
_cell_angle_gamma   119.58135650
_symmetry_Int_Tables_number   1
_chemical_formula_structural   Tb2ErHf(Al3Ir)6
_chemical_formula_sum   'Tb2 Er1 Hf1 Al18 Ir6'
_cell_volume   465.73384529
_cell_formula_units_Z   1
loop_
 _symmetry_equiv_pos_site_id
 _symmetry_equiv_pos_as_xyz
  1  'x, y, z'
loop_
 _atom_site_type_symbol
 _atom_site_label
 _atom_site_symmetry_multiplicity
 _atom_site_fract_x
 _atom_site_fract_y
 _atom_site_fract_z
 _atom_site_occupancy
  Tb  Tb0  1  0.005421  0.327629  0.750000  1
  Tb  Tb1  1  0.329189  0.006259  0.750000  1
  Er  Er2  1  0.671120  0.995753  0.250000  1
  Hf  Hf3  1  0.997563  0.673246  0.250000  1
  Al  Al4  1  0.125940  0.123598  0.250000  1
  Al  Al5  1  0.870636  0.869244  0.750000  1
  Al  Al6  1  0.999973  0.337769  0.079533  1
  Al  Al7  1  0.999015  0.664925  0.929521  1
  Al  Al8  1  0.999015  0.664925  0.570479  1
  Al  Al9  1  0.332787  0.998237  0.420345  1
  Al  Al10  1  0.999973  0.337769  0.420467  1
  Al  Al11  1  0.664617  0.997995  0.574046  1
  Al  Al12  1  0.664617  0.997995  0.925954  1
  Al  Al13  1  0.332787  0.998237  0.079655  1
  Al  Al14  1  0.333813  0.333915  0.549931  1
  Al  Al15  1  0.668874  0.666970  0.443085  1
  Al  Al16  1  0.668874  0.666970  0.056915  1
  Al  Al17  1  0.333813  0.333915  0.950069  1
  Al  Al18  1  0.336155  0.549336  0.250000  1
  Al  Al19  1  0.660842  0.452683  0.750000  1
  Al  Al20  1  0.554977  0.344478  0.250000  1
  Al  Al21  1  0.451258  0.659508  0.750000  1
  Ir  Ir22  1  0.672645  0.328450  0.001448  1
  Ir  Ir23  1  0.327745  0.672349  0.002183  1
  Ir  Ir24  1  0.327745  0.672349  0.497817  1
  Ir  Ir25  1  0.672645  0.328450  0.498552  1
  Ir  Ir26  1  0.998981  0.998522  0.001737  1
  Ir  Ir27  1  0.998981  0.998522  0.498263  1
