# generated using pymatgen
data_LaGd2Mg3Si2Ag
_symmetry_space_group_name_H-M   'P 1'
_cell_length_a   7.45248403
_cell_length_b   7.39183758
_cell_length_c   4.38667500
_cell_angle_alpha   90.00000000
_cell_angle_beta   90.00000000
_cell_angle_gamma   119.73116953
_symmetry_Int_Tables_number   1
_chemical_formula_structural   LaGd2Mg3Si2Ag
_chemical_formula_sum   'La1 Gd2 Mg3 Si2 Ag1'
_cell_volume   209.84067033
_cell_formula_units_Z   1
loop_
 _symmetry_equiv_pos_site_id
 _symmetry_equiv_pos_as_xyz
  1  'x, y, z'
loop_
 _atom_site_type_symbol
 _atom_site_label
 _atom_site_symmetry_multiplicity
 _atom_site_fract_x
 _atom_site_fract_y
 _atom_site_fract_z
 _atom_site_occupancy
  La  La0  1  0.000000  0.577508  0.500000  1
  Gd  Gd1  1  0.423034  0.420941  0.500000  1
  Gd  Gd2  1  0.576966  0.997907  0.500000  1
  Mg  Mg3  1  0.751006  0.753220  0.000000  1
  Mg  Mg4  1  0.248994  0.002215  0.000000  1
  Mg  Mg5  1  0.000000  0.244227  0.000000  1
  Si  Si6  1  0.658713  0.328228  0.000000  1
  Si  Si7  1  0.341287  0.669516  0.000000  1
  Ag  Ag8  1  0.000000  0.006238  0.500000  1
