# generated using pymatgen
data_Ce3Th3(Co3Sb4)2
_symmetry_space_group_name_H-M   'P 1'
_cell_length_a   8.27177995
_cell_length_b   8.26953478
_cell_length_c   8.27177945
_cell_angle_alpha   109.35608303
_cell_angle_beta   109.48593271
_cell_angle_gamma   109.58271958
_symmetry_Int_Tables_number   1
_chemical_formula_structural   Ce3Th3(Co3Sb4)2
_chemical_formula_sum   'Ce3 Th3 Co6 Sb8'
_cell_volume   435.50832247
_cell_formula_units_Z   1
loop_
 _symmetry_equiv_pos_site_id
 _symmetry_equiv_pos_as_xyz
  1  'x, y, z'
loop_
 _atom_site_type_symbol
 _atom_site_label
 _atom_site_symmetry_multiplicity
 _atom_site_fract_x
 _atom_site_fract_y
 _atom_site_fract_z
 _atom_site_occupancy
  Ce  Ce0  1  0.375622  0.250000  0.625622  1
  Ce  Ce1  1  0.749711  0.875091  0.125294  1
  Ce  Ce2  1  0.250202  0.624909  0.374620  1
  Th  Th3  1  0.624847  0.374839  0.250288  1
  Th  Th4  1  0.875449  0.125161  0.750008  1
  Th  Th5  1  0.124406  0.750000  0.874406  1
  Co  Co6  1  0.124502  0.875139  0.250873  1
  Co  Co7  1  0.623882  0.750000  0.373882  1
  Co  Co8  1  0.876102  0.250000  0.126102  1
  Co  Co9  1  0.250631  0.125338  0.874226  1
  Co  Co10  1  0.748888  0.374662  0.625293  1
  Co  Co11  1  0.375734  0.624861  0.749363  1
  Sb  Sb12  1  0.001814  0.340091  0.498827  1
  Sb  Sb13  1  0.840743  0.501145  0.001501  1
  Sb  Sb14  1  0.500357  0.998855  0.839598  1
  Sb  Sb15  1  0.656209  0.657776  0.658941  1
  Sb  Sb16  1  0.158736  0.159909  0.161723  1
  Sb  Sb17  1  0.342591  0.501228  0.999638  1
  Sb  Sb18  1  0.498410  0.998772  0.341363  1
  Sb  Sb19  1  0.001164  0.842224  0.498433  1
