# generated using pymatgen
data_Ac7PrSe12
_symmetry_space_group_name_H-M   'P 1'
_cell_length_a   8.16923648
_cell_length_b   4.45319700
_cell_length_c   16.97917522
_cell_angle_alpha   90.00000000
_cell_angle_beta   90.11968829
_cell_angle_gamma   90.00000000
_symmetry_Int_Tables_number   1
_chemical_formula_structural   Ac7PrSe12
_chemical_formula_sum   'Ac7 Pr1 Se12'
_cell_volume   617.68779230
_cell_formula_units_Z   1
loop_
 _symmetry_equiv_pos_site_id
 _symmetry_equiv_pos_as_xyz
  1  'x, y, z'
loop_
 _atom_site_type_symbol
 _atom_site_label
 _atom_site_symmetry_multiplicity
 _atom_site_fract_x
 _atom_site_fract_y
 _atom_site_fract_z
 _atom_site_occupancy
  Ac  Ac0  1  0.730014  0.499999  0.042766  1
  Ac  Ac1  1  0.144865  0.000000  0.200937  1
  Ac  Ac2  1  0.643126  0.000000  0.294935  1
  Ac  Ac3  1  0.233245  0.499999  0.456296  1
  Ac  Ac4  1  0.766611  0.000000  0.543712  1
  Ac  Ac5  1  0.357055  0.499999  0.705896  1
  Ac  Ac6  1  0.859203  0.499999  0.796641  1
  Pr  Pr7  1  0.263787  0.000000  0.956170  1
  Se  Se8  1  0.131249  0.499999  0.062076  1
  Se  Se9  1  0.503282  0.000000  0.108014  1
  Se  Se10  1  0.854939  0.499999  0.218559  1
  Se  Se11  1  0.353089  0.499999  0.280040  1
  Se  Se12  1  0.006021  0.000000  0.389640  1
  Se  Se13  1  0.626968  0.499999  0.433117  1
  Se  Se14  1  0.373279  0.000000  0.567215  1
  Se  Se15  1  0.994231  0.499999  0.611230  1
  Se  Se16  1  0.647119  0.000000  0.720757  1
  Se  Se17  1  0.150723  0.000000  0.784354  1
  Se  Se18  1  0.481905  0.499999  0.893620  1
  Se  Se19  1  0.879282  0.000000  0.934027  1
