# generated using pymatgen
data_Tm7Lu5Ni4AgSn
_symmetry_space_group_name_H-M   'P 1'
_cell_length_a   8.22418623
_cell_length_b   8.22676695
_cell_length_c   8.22118589
_cell_angle_alpha   106.71191325
_cell_angle_beta   109.38757028
_cell_angle_gamma   112.36163857
_symmetry_Int_Tables_number   1
_chemical_formula_structural   Tm7Lu5Ni4AgSn
_chemical_formula_sum   'Tm7 Lu5 Ni4 Ag1 Sn1'
_cell_volume   427.15544685
_cell_formula_units_Z   1
loop_
 _symmetry_equiv_pos_site_id
 _symmetry_equiv_pos_as_xyz
  1  'x, y, z'
loop_
 _atom_site_type_symbol
 _atom_site_label
 _atom_site_symmetry_multiplicity
 _atom_site_fract_x
 _atom_site_fract_y
 _atom_site_fract_z
 _atom_site_occupancy
  Tm  Tm0  1  0.805934  0.482393  0.676412  1
  Tm  Tm1  1  0.194199  0.870523  0.676302  1
  Tm  Tm2  1  0.193740  0.516995  0.323336  1
  Tm  Tm3  1  0.611475  0.793243  0.818783  1
  Tm  Tm4  1  0.974276  0.793121  0.181631  1
  Tm  Tm5  1  0.025468  0.207074  0.818206  1
  Tm  Tm6  1  0.388880  0.207083  0.181548  1
  Lu  Lu7  1  0.700243  0.275461  0.975913  1
  Lu  Lu8  1  0.300150  0.724902  0.024857  1
  Lu  Lu9  1  0.700074  0.724594  0.424479  1
  Lu  Lu10  1  0.299474  0.275276  0.574874  1
  Lu  Lu11  1  0.806556  0.130414  0.323931  1
  Ni  Ni12  1  0.857230  0.499500  0.357362  1
  Ni  Ni13  1  0.142483  0.499474  0.642483  1
  Ni  Ni14  1  0.999805  0.126087  0.126517  1
  Ni  Ni15  1  0.000049  0.873938  0.873843  1
  Ag  Ag16  1  0.499632  0.499894  0.999645  1
  Sn  Sn17  1  0.500329  0.000029  0.499876  1
