# generated using pymatgen
data_Er5Ge3P9Ir16Os3
_symmetry_space_group_name_H-M   'P 1'
_cell_length_a   12.76560000
_cell_length_b   12.76559923
_cell_length_c   3.99161300
_cell_angle_alpha   90.00000000
_cell_angle_beta   90.00000000
_cell_angle_gamma   120.00000201
_symmetry_Int_Tables_number   1
_chemical_formula_structural   Er5Ge3P9Ir16Os3
_chemical_formula_sum   'Er5 Ge3 P9 Ir16 Os3'
_cell_volume   563.32819559
_cell_formula_units_Z   1
loop_
 _symmetry_equiv_pos_site_id
 _symmetry_equiv_pos_as_xyz
  1  'x, y, z'
loop_
 _atom_site_type_symbol
 _atom_site_label
 _atom_site_symmetry_multiplicity
 _atom_site_fract_x
 _atom_site_fract_y
 _atom_site_fract_z
 _atom_site_occupancy
  Er  Er0  1  0.666667  0.333333  0.000000  1
  Er  Er1  1  0.333333  0.666667  0.000000  1
  Er  Er2  1  0.820490  0.820490  0.500000  1
  Er  Er3  1  0.179510  0.000000  0.500000  1
  Er  Er4  1  0.000000  0.179510  0.500000  1
  Ge  Ge5  1  0.641744  0.641744  0.000000  1
  Ge  Ge6  1  0.358256  0.000000  0.000000  1
  Ge  Ge7  1  0.000000  0.358256  0.000000  1
  P  P8  1  0.690740  0.172331  0.500000  1
  P  P9  1  0.827669  0.518408  0.500000  1
  P  P10  1  0.481592  0.309260  0.500000  1
  P  P11  1  0.172331  0.690740  0.500000  1
  P  P12  1  0.518408  0.827669  0.500000  1
  P  P13  1  0.309260  0.481592  0.500000  1
  P  P14  1  0.180441  0.180441  0.000000  1
  P  P15  1  0.819559  0.000000  0.000000  1
  P  P16  1  0.000000  0.819559  0.000000  1
  Ir  Ir17  1  0.798171  0.176218  0.000000  1
  Ir  Ir18  1  0.823782  0.621954  0.000000  1
  Ir  Ir19  1  0.378046  0.201829  0.000000  1
  Ir  Ir20  1  0.176218  0.798171  0.000000  1
  Ir  Ir21  1  0.621954  0.823782  0.000000  1
  Ir  Ir22  1  0.201829  0.378046  0.000000  1
  Ir  Ir23  1  0.449856  0.449856  0.000000  1
  Ir  Ir24  1  0.550144  0.000000  0.000000  1
  Ir  Ir25  1  0.000000  0.550144  0.000000  1
  Ir  Ir26  1  0.866081  0.362502  0.500000  1
  Ir  Ir27  1  0.637498  0.503579  0.500000  1
  Ir  Ir28  1  0.496421  0.133919  0.500000  1
  Ir  Ir29  1  0.362502  0.866081  0.500000  1
  Ir  Ir30  1  0.503579  0.637498  0.500000  1
  Ir  Ir31  1  0.133919  0.496421  0.500000  1
  Ir  Ir32  1  0.000000  0.000000  0.000000  1
  Os  Os33  1  0.288169  0.288169  0.500000  1
  Os  Os34  1  0.711831  0.000000  0.500000  1
  Os  Os35  1  0.000000  0.711831  0.500000  1
