# generated using pymatgen
data_Tb4LuIr2Rh
_symmetry_space_group_name_H-M   'P 1'
_cell_length_a   10.89455300
_cell_length_b   10.89455300
_cell_length_c   6.38140000
_cell_angle_alpha   90.00000000
_cell_angle_beta   90.00000000
_cell_angle_gamma   90.00000000
_symmetry_Int_Tables_number   1
_chemical_formula_structural   Tb4LuIr2Rh
_chemical_formula_sum   'Tb16 Lu4 Ir8 Rh4'
_cell_volume   757.41656654
_cell_formula_units_Z   4
loop_
 _symmetry_equiv_pos_site_id
 _symmetry_equiv_pos_as_xyz
  1  'x, y, z'
loop_
 _atom_site_type_symbol
 _atom_site_label
 _atom_site_symmetry_multiplicity
 _atom_site_fract_x
 _atom_site_fract_y
 _atom_site_fract_z
 _atom_site_occupancy
  Tb  Tb0  1  0.289153  0.088022  0.378919  1
  Tb  Tb1  1  0.289153  0.911978  0.878919  1
  Tb  Tb2  1  0.710847  0.088022  0.878919  1
  Tb  Tb3  1  0.710847  0.911978  0.378919  1
  Tb  Tb4  1  0.588022  0.789153  0.878919  1
  Tb  Tb5  1  0.588022  0.210847  0.378919  1
  Tb  Tb6  1  0.411978  0.789153  0.378919  1
  Tb  Tb7  1  0.411978  0.210847  0.878919  1
  Tb  Tb8  1  0.210847  0.411978  0.621081  1
  Tb  Tb9  1  0.210847  0.588022  0.121081  1
  Tb  Tb10  1  0.789153  0.411978  0.121081  1
  Tb  Tb11  1  0.789153  0.588022  0.621081  1
  Tb  Tb12  1  0.911978  0.710847  0.121081  1
  Tb  Tb13  1  0.911978  0.289153  0.621081  1
  Tb  Tb14  1  0.088022  0.710847  0.621081  1
  Tb  Tb15  1  0.088022  0.289153  0.121081  1
  Lu  Lu16  1  0.000000  0.000000  0.500000  1
  Lu  Lu17  1  0.000000  0.000000  0.000000  1
  Lu  Lu18  1  0.500000  0.500000  0.000000  1
  Lu  Lu19  1  0.500000  0.500000  0.500000  1
  Ir  Ir20  1  0.848959  0.151041  0.250000  1
  Ir  Ir21  1  0.848959  0.848959  0.750000  1
  Ir  Ir22  1  0.151041  0.151041  0.750000  1
  Ir  Ir23  1  0.151041  0.848959  0.250000  1
  Ir  Ir24  1  0.651041  0.348959  0.750000  1
  Ir  Ir25  1  0.651041  0.651041  0.250000  1
  Ir  Ir26  1  0.348959  0.348959  0.250000  1
  Ir  Ir27  1  0.348959  0.651041  0.750000  1
  Rh  Rh28  1  0.500000  0.000000  0.122512  1
  Rh  Rh29  1  0.500000  0.000000  0.622512  1
  Rh  Rh30  1  0.000000  0.500000  0.877488  1
  Rh  Rh31  1  0.000000  0.500000  0.377488  1
