# generated using pymatgen
data_Ho4Zr3PdF28
_symmetry_space_group_name_H-M   'P 1'
_cell_length_a   5.68899801
_cell_length_b   9.03401030
_cell_length_c   12.11961600
_cell_angle_alpha   62.77024914
_cell_angle_beta   90.15195641
_cell_angle_gamma   90.05368622
_symmetry_Int_Tables_number   1
_chemical_formula_structural   Ho4Zr3PdF28
_chemical_formula_sum   'Ho4 Zr3 Pd1 F28'
_cell_volume   553.85084860
_cell_formula_units_Z   1
loop_
 _symmetry_equiv_pos_site_id
 _symmetry_equiv_pos_as_xyz
  1  'x, y, z'
loop_
 _atom_site_type_symbol
 _atom_site_label
 _atom_site_symmetry_multiplicity
 _atom_site_fract_x
 _atom_site_fract_y
 _atom_site_fract_z
 _atom_site_occupancy
  Ho  Ho0  1  0.757142  0.816085  0.766434  1
  Ho  Ho1  1  0.257886  0.183710  0.730419  1
  Ho  Ho2  1  0.242196  0.184668  0.239258  1
  Ho  Ho3  1  0.743601  0.815672  0.267500  1
  Zr  Zr4  1  0.756222  0.273317  0.955730  1
  Zr  Zr5  1  0.254577  0.725569  0.544013  1
  Zr  Zr6  1  0.244630  0.725196  0.046354  1
  Pd  Pd7  1  0.742679  0.271936  0.455569  1
  F  F8  1  0.464818  0.707509  0.920988  1
  F  F9  1  0.947854  0.292506  0.577186  1
  F  F10  1  0.533687  0.290281  0.080447  1
  F  F11  1  0.032668  0.711345  0.418230  1
  F  F12  1  0.460271  0.282468  0.544303  1
  F  F13  1  0.946403  0.722847  0.951195  1
  F  F14  1  0.548935  0.717931  0.449671  1
  F  F15  1  0.051224  0.275873  0.052508  1
  F  F16  1  0.774467  0.526037  0.857692  1
  F  F17  1  0.264458  0.472456  0.640290  1
  F  F18  1  0.225192  0.472569  0.144209  1
  F  F19  1  0.735190  0.514201  0.359313  1
  F  F20  1  0.756779  0.021246  0.058915  1
  F  F21  1  0.261148  0.977630  0.442649  1
  F  F22  1  0.244122  0.976681  0.940400  1
  F  F23  1  0.743458  0.029521  0.548061  1
  F  F24  1  0.977801  0.736874  0.646544  1
  F  F25  1  0.484420  0.266148  0.847779  1
  F  F26  1  0.017140  0.270441  0.359763  1
  F  F27  1  0.518514  0.730747  0.153053  1
  F  F28  1  0.034813  0.749150  0.174677  1
  F  F29  1  0.544055  0.258204  0.327980  1
  F  F30  1  0.969482  0.250370  0.826862  1
  F  F31  1  0.467633  0.749060  0.672277  1
  F  F32  1  0.428950  0.976305  0.235976  1
  F  F33  1  0.928190  0.027944  0.266844  1
  F  F34  1  0.568190  0.024828  0.763671  1
  F  F35  1  0.071205  0.972677  0.733238  1
