# generated using pymatgen
data_Sc(Zn2Ni)4
_symmetry_space_group_name_H-M   'P 1'
_cell_length_a   6.50409100
_cell_length_b   6.50409101
_cell_length_c   6.50409204
_cell_angle_alpha   98.64217435
_cell_angle_beta   98.64218173
_cell_angle_gamma   134.38479198
_symmetry_Int_Tables_number   1
_chemical_formula_structural   Sc(Zn2Ni)4
_chemical_formula_sum   'Sc1 Zn8 Ni4'
_cell_volume   181.25942492
_cell_formula_units_Z   1
loop_
 _symmetry_equiv_pos_site_id
 _symmetry_equiv_pos_as_xyz
  1  'x, y, z'
loop_
 _atom_site_type_symbol
 _atom_site_label
 _atom_site_symmetry_multiplicity
 _atom_site_fract_x
 _atom_site_fract_y
 _atom_site_fract_z
 _atom_site_occupancy
  Sc  Sc0  1  0.000000  0.000000  0.000000  1
  Zn  Zn1  1  0.338449  0.000000  0.338449  1
  Zn  Zn2  1  0.000000  0.661551  0.661551  1
  Zn  Zn3  1  0.000000  0.338449  0.338449  1
  Zn  Zn4  1  0.661551  0.000000  0.661551  1
  Zn  Zn5  1  0.280738  0.500000  0.780738  1
  Zn  Zn6  1  0.500000  0.719262  0.219262  1
  Zn  Zn7  1  0.500000  0.280738  0.780738  1
  Zn  Zn8  1  0.719262  0.500000  0.219262  1
  Ni  Ni9  1  0.000000  0.500000  0.000000  1
  Ni  Ni10  1  0.500000  0.500000  0.500000  1
  Ni  Ni11  1  0.000000  0.000000  0.500000  1
  Ni  Ni12  1  0.500000  0.000000  0.000000  1
