# generated using pymatgen
data_Tb2Er6In3Ir
_symmetry_space_group_name_H-M   'P 1'
_cell_length_a   10.35074300
_cell_length_b   10.35568092
_cell_length_c   7.05693315
_cell_angle_alpha   89.98493710
_cell_angle_beta   90.00000000
_cell_angle_gamma   119.98422458
_symmetry_Int_Tables_number   1
_chemical_formula_structural   Tb2Er6In3Ir
_chemical_formula_sum   'Tb4 Er12 In6 Ir2'
_cell_volume   655.18782145
_cell_formula_units_Z   2
loop_
 _symmetry_equiv_pos_site_id
 _symmetry_equiv_pos_as_xyz
  1  'x, y, z'
loop_
 _atom_site_type_symbol
 _atom_site_label
 _atom_site_symmetry_multiplicity
 _atom_site_fract_x
 _atom_site_fract_y
 _atom_site_fract_z
 _atom_site_occupancy
  Tb  Tb0  1  0.532956  0.065911  0.792645  1
  Tb  Tb1  1  0.934565  0.467279  0.792888  1
  Tb  Tb2  1  0.532714  0.467279  0.792888  1
  Tb  Tb3  1  0.466717  0.933435  0.292702  1
  Er  Er4  1  0.067622  0.533759  0.292994  1
  Er  Er5  1  0.466137  0.533759  0.292994  1
  Er  Er6  1  0.823304  0.646610  0.497711  1
  Er  Er7  1  0.352906  0.176965  0.498170  1
  Er  Er8  1  0.824059  0.176965  0.498170  1
  Er  Er9  1  0.176563  0.353126  0.999657  1
  Er  Er10  1  0.646960  0.823133  0.999196  1
  Er  Er11  1  0.176173  0.823133  0.999196  1
  Er  Er12  1  0.666970  0.333938  0.175716  1
  Er  Er13  1  0.333021  0.666043  0.675301  1
  Er  Er14  1  0.999943  0.999885  0.778637  1
  Er  Er15  1  0.000009  0.000020  0.278884  1
  In  In16  1  0.837534  0.675069  0.040890  1
  In  In17  1  0.324953  0.162447  0.040641  1
  In  In18  1  0.837493  0.162447  0.040641  1
  In  In19  1  0.163095  0.326190  0.539682  1
  In  In20  1  0.674585  0.836967  0.540276  1
  In  In21  1  0.162385  0.836967  0.540276  1
  Ir  Ir22  1  0.666644  0.333288  0.567346  1
  Ir  Ir23  1  0.332690  0.665382  0.068405  1
