# generated using pymatgen
data_Cs5Rb3Al2(GaSe5)2
_symmetry_space_group_name_H-M   'P 1'
_cell_length_a   8.54137636
_cell_length_b   8.96924417
_cell_length_c   11.41951150
_cell_angle_alpha   77.43451866
_cell_angle_beta   85.83054694
_cell_angle_gamma   80.85115142
_symmetry_Int_Tables_number   1
_chemical_formula_structural   Cs5Rb3Al2(GaSe5)2
_chemical_formula_sum   'Cs5 Rb3 Al2 Ga2 Se10'
_cell_volume   842.36855331
_cell_formula_units_Z   1
loop_
 _symmetry_equiv_pos_site_id
 _symmetry_equiv_pos_as_xyz
  1  'x, y, z'
loop_
 _atom_site_type_symbol
 _atom_site_label
 _atom_site_symmetry_multiplicity
 _atom_site_fract_x
 _atom_site_fract_y
 _atom_site_fract_z
 _atom_site_occupancy
  Cs  Cs0  1  0.051720  0.605915  0.759781  1
  Cs  Cs1  1  0.823125  0.910919  0.129924  1
  Cs  Cs2  1  0.950572  0.395088  0.238123  1
  Cs  Cs3  1  0.557040  0.715864  0.505342  1
  Cs  Cs4  1  0.443598  0.279680  0.493406  1
  Rb  Rb5  1  0.436728  0.329210  0.089283  1
  Rb  Rb6  1  0.559992  0.673317  0.906458  1
  Rb  Rb7  1  0.160104  0.092165  0.869305  1
  Al  Al8  1  0.904177  0.085579  0.598030  1
  Al  Al9  1  0.100716  0.915047  0.404581  1
  Ga  Ga10  1  0.295165  0.731102  0.207492  1
  Ga  Ga11  1  0.704877  0.268645  0.792584  1
  Se  Se12  1  0.863470  0.354214  0.603178  1
  Se  Se13  1  0.183162  0.971657  0.587995  1
  Se  Se14  1  0.431144  0.381441  0.778615  1
  Se  Se15  1  0.179392  0.698165  0.031377  1
  Se  Se16  1  0.823714  0.313395  0.963418  1
  Se  Se17  1  0.563973  0.603984  0.224228  1
  Se  Se18  1  0.134910  0.647374  0.396659  1
  Se  Se19  1  0.255119  0.013592  0.227685  1
  Se  Se20  1  0.755329  0.984750  0.777132  1
  Se  Se21  1  0.821973  0.028895  0.415404  1
