# generated using pymatgen
data_Pa6Ga7Co16
_symmetry_space_group_name_H-M   'P 1'
_cell_length_a   8.40930565
_cell_length_b   8.41075416
_cell_length_c   8.41347308
_cell_angle_alpha   60.02068629
_cell_angle_beta   60.01185622
_cell_angle_gamma   59.99979780
_symmetry_Int_Tables_number   1
_chemical_formula_structural   Pa6Ga7Co16
_chemical_formula_sum   'Pa6 Ga7 Co16'
_cell_volume   420.88309846
_cell_formula_units_Z   1
loop_
 _symmetry_equiv_pos_site_id
 _symmetry_equiv_pos_as_xyz
  1  'x, y, z'
loop_
 _atom_site_type_symbol
 _atom_site_label
 _atom_site_symmetry_multiplicity
 _atom_site_fract_x
 _atom_site_fract_y
 _atom_site_fract_z
 _atom_site_occupancy
  Pa  Pa0  1  0.718578  0.718672  0.281321  1
  Pa  Pa1  1  0.281452  0.718646  0.281286  1
  Pa  Pa2  1  0.718579  0.281428  0.281354  1
  Pa  Pa3  1  0.281422  0.281328  0.718679  1
  Pa  Pa4  1  0.718548  0.281354  0.718714  1
  Pa  Pa5  1  0.281421  0.718572  0.718646  1
  Ga  Ga6  1  0.000000  0.000000  0.000000  1
  Ga  Ga7  1  0.000000  0.000000  0.500000  1
  Ga  Ga8  1  0.500000  0.000000  0.500000  1
  Ga  Ga9  1  0.000000  0.500000  0.500000  1
  Ga  Ga10  1  0.500000  0.500000  0.000000  1
  Ga  Ga11  1  0.000000  0.500000  0.000000  1
  Ga  Ga12  1  0.500000  0.000000  0.000000  1
  Co  Co13  1  0.876249  0.876222  0.371287  1
  Co  Co14  1  0.876280  0.371263  0.876189  1
  Co  Co15  1  0.371289  0.876252  0.876184  1
  Co  Co16  1  0.876289  0.876260  0.876197  1
  Co  Co17  1  0.123751  0.123778  0.628713  1
  Co  Co18  1  0.123720  0.628737  0.123811  1
  Co  Co19  1  0.628711  0.123748  0.123816  1
  Co  Co20  1  0.123711  0.123740  0.123803  1
  Co  Co21  1  0.667294  0.667315  0.998100  1
  Co  Co22  1  0.667249  0.998172  0.667341  1
  Co  Co23  1  0.998183  0.667259  0.667332  1
  Co  Co24  1  0.667228  0.667249  0.667325  1
  Co  Co25  1  0.332706  0.332685  0.001900  1
  Co  Co26  1  0.332751  0.001828  0.332659  1
  Co  Co27  1  0.001817  0.332741  0.332668  1
  Co  Co28  1  0.332772  0.332751  0.332675  1
