# generated using pymatgen
data_Th4I13Cl3
_symmetry_space_group_name_H-M   'P 1'
_cell_length_a   7.99444364
_cell_length_b   8.58960475
_cell_length_c   14.24231490
_cell_angle_alpha   69.13501945
_cell_angle_beta   88.62210233
_cell_angle_gamma   88.94011883
_symmetry_Int_Tables_number   1
_chemical_formula_structural   Th4I13Cl3
_chemical_formula_sum   'Th4 I13 Cl3'
_cell_volume   913.55578373
_cell_formula_units_Z   1
loop_
 _symmetry_equiv_pos_site_id
 _symmetry_equiv_pos_as_xyz
  1  'x, y, z'
loop_
 _atom_site_type_symbol
 _atom_site_label
 _atom_site_symmetry_multiplicity
 _atom_site_fract_x
 _atom_site_fract_y
 _atom_site_fract_z
 _atom_site_occupancy
  Th  Th0  1  0.490219  0.999560  0.315599  1
  Th  Th1  1  0.995188  0.991625  0.187450  1
  Th  Th2  1  0.506251  0.996001  0.680238  1
  Th  Th3  1  0.013558  0.006153  0.812851  1
  I  I4  1  0.660817  0.142989  0.843661  1
  I  I5  1  0.093594  0.217724  0.953647  1
  I  I6  1  0.574898  0.766806  0.549626  1
  I  I7  1  0.928535  0.775139  0.049125  1
  I  I8  1  0.424968  0.226651  0.447749  1
  I  I9  1  0.784673  0.716918  0.799076  1
  I  I10  1  0.268463  0.296451  0.690519  1
  I  I11  1  0.209608  0.287080  0.204405  1
  I  I12  1  0.717818  0.704154  0.298002  1
  I  I13  1  0.340265  0.797204  0.900212  1
  I  I14  1  0.839871  0.185535  0.591772  1
  I  I15  1  0.666446  0.204567  0.101084  1
  I  I16  1  0.159665  0.798407  0.406908  1
  Cl  Cl17  1  0.816431  0.082890  0.339828  1
  Cl  Cl18  1  0.325336  0.901984  0.165836  1
  Cl  Cl19  1  0.183396  0.902163  0.662412  1
