# generated using pymatgen
data_Ca2Pa(SnPd)3
_symmetry_space_group_name_H-M   'P 1'
_cell_length_a   7.58972894
_cell_length_b   7.62636437
_cell_length_c   4.07355700
_cell_angle_alpha   90.00000000
_cell_angle_beta   90.00000000
_cell_angle_gamma   120.15980404
_symmetry_Int_Tables_number   1
_chemical_formula_structural   Ca2Pa(SnPd)3
_chemical_formula_sum   'Ca2 Pa1 Sn3 Pd3'
_cell_volume   203.86686797
_cell_formula_units_Z   1
loop_
 _symmetry_equiv_pos_site_id
 _symmetry_equiv_pos_as_xyz
  1  'x, y, z'
loop_
 _atom_site_type_symbol
 _atom_site_label
 _atom_site_symmetry_multiplicity
 _atom_site_fract_x
 _atom_site_fract_y
 _atom_site_fract_z
 _atom_site_occupancy
  Ca  Ca0  1  0.406033  0.407157  0.000000  1
  Ca  Ca1  1  0.593967  0.001124  0.000000  1
  Pa  Pa2  1  0.000000  0.583944  0.000000  1
  Sn  Sn3  1  0.736903  0.745093  0.500000  1
  Sn  Sn4  1  0.000000  0.248612  0.500000  1
  Sn  Sn5  1  0.263097  0.008189  0.500000  1
  Pd  Pd6  1  0.308530  0.665014  0.500000  1
  Pd  Pd7  1  0.000000  0.984384  0.000000  1
  Pd  Pd8  1  0.691470  0.356483  0.500000  1
