# generated using pymatgen
data_Th3Al3GaIrRu
_symmetry_space_group_name_H-M   'P 1'
_cell_length_a   7.21326600
_cell_length_b   7.21326548
_cell_length_c   4.25235800
_cell_angle_alpha   90.00000000
_cell_angle_beta   90.00000000
_cell_angle_gamma   120.00000238
_symmetry_Int_Tables_number   1
_chemical_formula_structural   Th3Al3GaIrRu
_chemical_formula_sum   'Th3 Al3 Ga1 Ir1 Ru1'
_cell_volume   191.61270660
_cell_formula_units_Z   1
loop_
 _symmetry_equiv_pos_site_id
 _symmetry_equiv_pos_as_xyz
  1  'x, y, z'
loop_
 _atom_site_type_symbol
 _atom_site_label
 _atom_site_symmetry_multiplicity
 _atom_site_fract_x
 _atom_site_fract_y
 _atom_site_fract_z
 _atom_site_occupancy
  Th  Th0  1  0.420262  0.012028  0.500000  1
  Th  Th1  1  0.987972  0.408234  0.500000  1
  Th  Th2  1  0.591766  0.579738  0.500000  1
  Al  Al3  1  0.775866  0.010877  0.000000  1
  Al  Al4  1  0.989123  0.764988  0.000000  1
  Al  Al5  1  0.235012  0.224134  0.000000  1
  Ga  Ga6  1  0.333333  0.666667  0.000000  1
  Ir  Ir7  1  0.000000  0.000000  0.500000  1
  Ru  Ru8  1  0.666667  0.333333  0.000000  1
