# generated using pymatgen
data_DySc7(Si4Ru3)4
_symmetry_space_group_name_H-M   'P 1'
_cell_length_a   9.97077078
_cell_length_b   9.97350532
_cell_length_c   13.44879025
_cell_angle_alpha   53.75091987
_cell_angle_beta   53.79508663
_cell_angle_gamma   31.02657803
_symmetry_Int_Tables_number   1
_chemical_formula_structural   DySc7(Si4Ru3)4
_chemical_formula_sum   'Dy1 Sc7 Si16 Ru12'
_cell_volume   544.45932167
_cell_formula_units_Z   1
loop_
 _symmetry_equiv_pos_site_id
 _symmetry_equiv_pos_as_xyz
  1  'x, y, z'
loop_
 _atom_site_type_symbol
 _atom_site_label
 _atom_site_symmetry_multiplicity
 _atom_site_fract_x
 _atom_site_fract_y
 _atom_site_fract_z
 _atom_site_occupancy
  Dy  Dy0  1  0.289741  0.037043  0.140971  1
  Sc  Sc1  1  0.294647  0.560372  0.643863  1
  Sc  Sc2  1  0.440576  0.704275  0.855339  1
  Sc  Sc3  1  0.704026  0.439764  0.357052  1
  Sc  Sc4  1  0.559779  0.295500  0.144451  1
  Sc  Sc5  1  0.037432  0.292078  0.638709  1
  Sc  Sc6  1  0.708956  0.962703  0.860272  1
  Sc  Sc7  1  0.961519  0.707611  0.361979  1
  Si  Si8  1  0.866940  0.128421  0.251506  1
  Si  Si9  1  0.128821  0.871103  0.750026  1
  Si  Si10  1  0.382958  0.612208  0.251676  1
  Si  Si11  1  0.617371  0.382977  0.749919  1
  Si  Si12  1  0.975547  0.252516  0.892754  1
  Si  Si13  1  0.747238  0.024657  0.607280  1
  Si  Si14  1  0.024692  0.749034  0.107087  1
  Si  Si15  1  0.253907  0.972009  0.397301  1
  Si  Si16  1  0.577812  0.082555  0.066445  1
  Si  Si17  1  0.918729  0.426001  0.433054  1
  Si  Si18  1  0.427129  0.918416  0.929223  1
  Si  Si19  1  0.079185  0.575615  0.566623  1
  Si  Si20  1  0.385979  0.141732  0.399361  1
  Si  Si21  1  0.860231  0.616600  0.099850  1
  Si  Si22  1  0.613752  0.857128  0.601182  1
  Si  Si23  1  0.141166  0.388831  0.896079  1
  Ru  Ru24  1  0.647204  0.832311  0.282528  1
  Ru  Ru25  1  0.170206  0.355748  0.218329  1
  Ru  Ru26  1  0.750014  0.493202  0.066664  1
  Ru  Ru27  1  0.832224  0.646993  0.781140  1
  Ru  Ru28  1  0.895361  0.142142  0.586904  1
  Ru  Ru29  1  0.860499  0.102741  0.912979  1
  Ru  Ru30  1  0.102768  0.858252  0.414513  1
  Ru  Ru31  1  0.141943  0.895917  0.086265  1
  Ru  Ru32  1  0.250077  0.505784  0.931966  1
  Ru  Ru33  1  0.491933  0.751198  0.568096  1
  Ru  Ru34  1  0.506751  0.247599  0.432697  1
  Ru  Ru35  1  0.352888  0.168960  0.715917  1
