# generated using pymatgen
data_KNp(NbCl3)6
_symmetry_space_group_name_H-M   'P 1'
_cell_length_a   10.29999498
_cell_length_b   10.31532833
_cell_length_c   10.31375366
_cell_angle_alpha   55.05578592
_cell_angle_beta   55.04635092
_cell_angle_gamma   55.03739202
_symmetry_Int_Tables_number   1
_chemical_formula_structural   KNp(NbCl3)6
_chemical_formula_sum   'K1 Np1 Nb6 Cl18'
_cell_volume   685.56996424
_cell_formula_units_Z   1
loop_
 _symmetry_equiv_pos_site_id
 _symmetry_equiv_pos_as_xyz
  1  'x, y, z'
loop_
 _atom_site_type_symbol
 _atom_site_label
 _atom_site_symmetry_multiplicity
 _atom_site_fract_x
 _atom_site_fract_y
 _atom_site_fract_z
 _atom_site_occupancy
  K  K0  1  0.221534  0.221667  0.221837  1
  Np  Np1  1  0.498643  0.498657  0.498633  1
  Nb  Nb2  1  0.800050  0.148733  0.914160  1
  Nb  Nb3  1  0.913696  0.800648  0.148845  1
  Nb  Nb4  1  0.148948  0.913959  0.800479  1
  Nb  Nb5  1  0.201070  0.851512  0.084862  1
  Nb  Nb6  1  0.085381  0.200422  0.851390  1
  Nb  Nb7  1  0.851356  0.085036  0.200565  1
  Cl  Cl8  1  0.862397  0.411525  0.727620  1
  Cl  Cl9  1  0.727063  0.862696  0.411869  1
  Cl  Cl10  1  0.412412  0.727612  0.862393  1
  Cl  Cl11  1  0.137690  0.587489  0.273222  1
  Cl  Cl12  1  0.273829  0.137313  0.587146  1
  Cl  Cl13  1  0.586596  0.273392  0.137580  1
  Cl  Cl14  1  0.531996  0.340061  0.811101  1
  Cl  Cl15  1  0.811537  0.532450  0.339631  1
  Cl  Cl16  1  0.339597  0.810725  0.533135  1
  Cl  Cl17  1  0.462942  0.660782  0.193097  1
  Cl  Cl18  1  0.192756  0.462369  0.661227  1
  Cl  Cl19  1  0.661184  0.193557  0.461754  1
  Cl  Cl20  1  0.661984  0.939088  0.074047  1
  Cl  Cl21  1  0.073271  0.663475  0.939011  1
  Cl  Cl22  1  0.938581  0.073624  0.663286  1
  Cl  Cl23  1  0.337895  0.061465  0.926081  1
  Cl  Cl24  1  0.926746  0.336518  0.061508  1
  Cl  Cl25  1  0.061985  0.926366  0.336662  1
