# generated using pymatgen
data_Nd3HfZr2(SnRh)6
_symmetry_space_group_name_H-M   'P 1'
_cell_length_a   7.53824800
_cell_length_b   7.52317717
_cell_length_c   7.70329200
_cell_angle_alpha   90.00000000
_cell_angle_beta   90.00000000
_cell_angle_gamma   120.06731770
_symmetry_Int_Tables_number   1
_chemical_formula_structural   Nd3HfZr2(SnRh)6
_chemical_formula_sum   'Nd3 Hf1 Zr2 Sn6 Rh6'
_cell_volume   378.08000018
_cell_formula_units_Z   1
loop_
 _symmetry_equiv_pos_site_id
 _symmetry_equiv_pos_as_xyz
  1  'x, y, z'
loop_
 _atom_site_type_symbol
 _atom_site_label
 _atom_site_symmetry_multiplicity
 _atom_site_fract_x
 _atom_site_fract_y
 _atom_site_fract_z
 _atom_site_occupancy
  Nd  Nd0  1  0.999856  0.407901  0.750000  1
  Nd  Nd1  1  0.592057  0.592043  0.750000  1
  Nd  Nd2  1  0.408365  0.000085  0.750000  1
  Hf  Hf3  1  0.395113  0.000439  0.250000  1
  Zr  Zr4  1  0.999588  0.394788  0.250000  1
  Zr  Zr5  1  0.605231  0.604746  0.250000  1
  Sn  Sn6  1  0.264074  0.264323  0.488063  1
  Sn  Sn7  1  0.000411  0.736023  0.488045  1
  Sn  Sn8  1  0.000411  0.736023  0.011955  1
  Sn  Sn9  1  0.736137  0.999645  0.487287  1
  Sn  Sn10  1  0.736137  0.999645  0.012713  1
  Sn  Sn11  1  0.264074  0.264323  0.011937  1
  Rh  Rh12  1  0.333899  0.669670  0.454944  1
  Rh  Rh13  1  0.664239  0.330335  0.455610  1
  Rh  Rh14  1  0.333899  0.669670  0.045056  1
  Rh  Rh15  1  0.000540  0.000006  0.750000  1
  Rh  Rh16  1  0.001727  0.000002  0.250000  1
  Rh  Rh17  1  0.664239  0.330335  0.044390  1
