# generated using pymatgen
data_TbHf2Al7Ag2
_symmetry_space_group_name_H-M   'P 1'
_cell_length_a   9.09951484
_cell_length_b   9.09951368
_cell_length_c   9.09951400
_cell_angle_alpha   34.68247554
_cell_angle_beta   34.68247507
_cell_angle_gamma   34.68247093
_symmetry_Int_Tables_number   1
_chemical_formula_structural   TbHf2Al7Ag2
_chemical_formula_sum   'Tb1 Hf2 Al7 Ag2'
_cell_volume   217.71115774
_cell_formula_units_Z   1
loop_
 _symmetry_equiv_pos_site_id
 _symmetry_equiv_pos_as_xyz
  1  'x, y, z'
loop_
 _atom_site_type_symbol
 _atom_site_label
 _atom_site_symmetry_multiplicity
 _atom_site_fract_x
 _atom_site_fract_y
 _atom_site_fract_z
 _atom_site_occupancy
  Tb  Tb0  1  0.000000  0.000000  0.000000  1
  Hf  Hf1  1  0.855249  0.855249  0.855249  1
  Hf  Hf2  1  0.144751  0.144751  0.144751  1
  Al  Al3  1  0.409496  0.409496  0.921137  1
  Al  Al4  1  0.921137  0.409496  0.409496  1
  Al  Al5  1  0.409496  0.921137  0.409496  1
  Al  Al6  1  0.500000  0.500000  0.500000  1
  Al  Al7  1  0.590504  0.078863  0.590504  1
  Al  Al8  1  0.078863  0.590504  0.590504  1
  Al  Al9  1  0.590504  0.590504  0.078863  1
  Ag  Ag10  1  0.665501  0.665501  0.665501  1
  Ag  Ag11  1  0.334499  0.334499  0.334499  1
