# generated using pymatgen
data_Dy3CoSn3PdPt
_symmetry_space_group_name_H-M   'P 1'
_cell_length_a   7.63162800
_cell_length_b   7.63162464
_cell_length_c   3.76973700
_cell_angle_alpha   90.00000000
_cell_angle_beta   90.00000000
_cell_angle_gamma   119.99999721
_symmetry_Int_Tables_number   1
_chemical_formula_structural   Dy3CoSn3PdPt
_chemical_formula_sum   'Dy3 Co1 Sn3 Pd1 Pt1'
_cell_volume   190.14105122
_cell_formula_units_Z   1
loop_
 _symmetry_equiv_pos_site_id
 _symmetry_equiv_pos_as_xyz
  1  'x, y, z'
loop_
 _atom_site_type_symbol
 _atom_site_label
 _atom_site_symmetry_multiplicity
 _atom_site_fract_x
 _atom_site_fract_y
 _atom_site_fract_z
 _atom_site_occupancy
  Dy  Dy0  1  0.398864  0.403300  0.500000  1
  Dy  Dy1  1  0.596700  0.995564  0.500000  1
  Dy  Dy2  1  0.004436  0.601136  0.500000  1
  Co  Co3  1  0.000000  0.000000  0.500000  1
  Sn  Sn4  1  0.751342  0.747401  0.000000  1
  Sn  Sn5  1  0.252599  0.003941  0.000000  1
  Sn  Sn6  1  0.996059  0.248658  0.000000  1
  Pd  Pd7  1  0.666667  0.333333  0.000000  1
  Pt  Pt8  1  0.333333  0.666667  0.000000  1
