# generated using pymatgen
data_TmLuTh2(ReB6)2
_symmetry_space_group_name_H-M   'P 1'
_cell_length_a   3.74302800
_cell_length_b   9.20684009
_cell_length_c   11.64288912
_cell_angle_alpha   90.01612469
_cell_angle_beta   90.00000000
_cell_angle_gamma   90.00000000
_symmetry_Int_Tables_number   1
_chemical_formula_structural   TmLuTh2(ReB6)2
_chemical_formula_sum   'Tm2 Lu2 Th4 Re4 B24'
_cell_volume   401.23094458
_cell_formula_units_Z   2
loop_
 _symmetry_equiv_pos_site_id
 _symmetry_equiv_pos_as_xyz
  1  'x, y, z'
loop_
 _atom_site_type_symbol
 _atom_site_label
 _atom_site_symmetry_multiplicity
 _atom_site_fract_x
 _atom_site_fract_y
 _atom_site_fract_z
 _atom_site_occupancy
  Tm  Tm0  1  0.000000  0.945121  0.372788  1
  Tm  Tm1  1  0.000000  0.054879  0.627212  1
  Lu  Lu2  1  0.000000  0.445230  0.126996  1
  Lu  Lu3  1  0.000000  0.554770  0.873004  1
  Th  Th4  1  0.000000  0.322009  0.414178  1
  Th  Th5  1  0.000000  0.677991  0.585822  1
  Th  Th6  1  0.000000  0.821731  0.085667  1
  Th  Th7  1  0.000000  0.178269  0.914333  1
  Re  Re8  1  0.000000  0.639429  0.319084  1
  Re  Re9  1  0.000000  0.360571  0.680916  1
  Re  Re10  1  0.000000  0.140274  0.180505  1
  Re  Re11  1  0.000000  0.859726  0.819495  1
  B  B12  1  0.500000  0.556594  0.429583  1
  B  B13  1  0.500000  0.443406  0.570417  1
  B  B14  1  0.500000  0.056668  0.070356  1
  B  B15  1  0.500000  0.943332  0.929644  1
  B  B16  1  0.500000  0.750833  0.416935  1
  B  B17  1  0.500000  0.249167  0.583065  1
  B  B18  1  0.500000  0.251291  0.083050  1
  B  B19  1  0.500000  0.748709  0.916950  1
  B  B20  1  0.500000  0.791677  0.266500  1
  B  B21  1  0.500000  0.208323  0.733500  1
  B  B22  1  0.500000  0.292159  0.233354  1
  B  B23  1  0.500000  0.707841  0.766646  1
  B  B24  1  0.500000  0.629894  0.185618  1
  B  B25  1  0.500000  0.370106  0.814382  1
  B  B26  1  0.500000  0.130324  0.314131  1
  B  B27  1  0.500000  0.869676  0.685869  1
  B  B28  1  0.500000  0.984981  0.214369  1
  B  B29  1  0.500000  0.015019  0.785631  1
  B  B30  1  0.500000  0.484743  0.285335  1
  B  B31  1  0.500000  0.515257  0.714665  1
  B  B32  1  0.500000  0.600711  0.027578  1
  B  B33  1  0.500000  0.399289  0.972422  1
  B  B34  1  0.500000  0.101255  0.472291  1
  B  B35  1  0.500000  0.898745  0.527709  1
