# generated using pymatgen
data_Mg6B6Rh11
_symmetry_space_group_name_H-M   'P 1'
_cell_length_a   2.93061900
_cell_length_b   8.71867000
_cell_length_c   11.52209300
_cell_angle_alpha   90.00000000
_cell_angle_beta   90.00000000
_cell_angle_gamma   90.00000000
_symmetry_Int_Tables_number   1
_chemical_formula_structural   Mg6B6Rh11
_chemical_formula_sum   'Mg6 B6 Rh11'
_cell_volume   294.40214995
_cell_formula_units_Z   1
loop_
 _symmetry_equiv_pos_site_id
 _symmetry_equiv_pos_as_xyz
  1  'x, y, z'
loop_
 _atom_site_type_symbol
 _atom_site_label
 _atom_site_symmetry_multiplicity
 _atom_site_fract_x
 _atom_site_fract_y
 _atom_site_fract_z
 _atom_site_occupancy
  Mg  Mg0  1  0.500000  0.000000  0.500000  1
  Mg  Mg1  1  0.500000  0.500000  0.000000  1
  Mg  Mg2  1  0.500000  0.654749  0.500000  1
  Mg  Mg3  1  0.500000  0.345251  0.500000  1
  Mg  Mg4  1  0.500000  0.000000  0.201822  1
  Mg  Mg5  1  0.500000  0.000000  0.798178  1
  B  B6  1  0.500000  0.808669  0.000000  1
  B  B7  1  0.500000  0.191331  0.000000  1
  B  B8  1  0.500000  0.685722  0.270186  1
  B  B9  1  0.500000  0.314278  0.270186  1
  B  B10  1  0.500000  0.314278  0.729814  1
  B  B11  1  0.500000  0.685722  0.729814  1
  Rh  Rh12  1  0.000000  0.000000  0.000000  1
  Rh  Rh13  1  0.000000  0.500000  0.310017  1
  Rh  Rh14  1  0.000000  0.500000  0.689983  1
  Rh  Rh15  1  0.000000  0.719004  0.123214  1
  Rh  Rh16  1  0.000000  0.280996  0.123214  1
  Rh  Rh17  1  0.000000  0.280996  0.876786  1
  Rh  Rh18  1  0.000000  0.719004  0.876786  1
  Rh  Rh19  1  0.000000  0.823114  0.353368  1
  Rh  Rh20  1  0.000000  0.176886  0.353368  1
  Rh  Rh21  1  0.000000  0.176886  0.646632  1
  Rh  Rh22  1  0.000000  0.823114  0.646632  1
