# generated using pymatgen
data_Ho8Si12Ni3Pt
_symmetry_space_group_name_H-M   'P 1'
_cell_length_a   7.98095900
_cell_length_b   7.98095954
_cell_length_c   8.01616000
_cell_angle_alpha   90.00000000
_cell_angle_beta   90.00000000
_cell_angle_gamma   120.00001019
_symmetry_Int_Tables_number   1
_chemical_formula_structural   Ho8Si12Ni3Pt
_chemical_formula_sum   'Ho8 Si12 Ni3 Pt1'
_cell_volume   442.18820409
_cell_formula_units_Z   1
loop_
 _symmetry_equiv_pos_site_id
 _symmetry_equiv_pos_as_xyz
  1  'x, y, z'
loop_
 _atom_site_type_symbol
 _atom_site_label
 _atom_site_symmetry_multiplicity
 _atom_site_fract_x
 _atom_site_fract_y
 _atom_site_fract_z
 _atom_site_occupancy
  Ho  Ho0  1  0.000000  0.000000  0.247307  1
  Ho  Ho1  1  0.000000  0.000000  0.751660  1
  Ho  Ho2  1  0.502482  0.497518  0.248604  1
  Ho  Ho3  1  0.502482  0.004964  0.248604  1
  Ho  Ho4  1  0.995036  0.497518  0.248604  1
  Ho  Ho5  1  0.499651  0.500349  0.751460  1
  Ho  Ho6  1  0.499651  0.999300  0.751460  1
  Ho  Ho7  1  0.000700  0.500349  0.751460  1
  Si  Si8  1  0.163778  0.836222  0.496912  1
  Si  Si9  1  0.163778  0.327555  0.496912  1
  Si  Si10  1  0.672445  0.836222  0.496912  1
  Si  Si11  1  0.827900  0.172100  0.503114  1
  Si  Si12  1  0.827900  0.655802  0.503114  1
  Si  Si13  1  0.344198  0.172100  0.503114  1
  Si  Si14  1  0.829429  0.170571  0.998424  1
  Si  Si15  1  0.829429  0.658859  0.998424  1
  Si  Si16  1  0.341141  0.170571  0.998424  1
  Si  Si17  1  0.171040  0.828960  0.001001  1
  Si  Si18  1  0.171040  0.342079  0.001001  1
  Si  Si19  1  0.657921  0.828960  0.001001  1
  Ni  Ni20  1  0.666667  0.333333  0.502402  1
  Ni  Ni21  1  0.666667  0.333333  0.000523  1
  Ni  Ni22  1  0.333333  0.666667  0.002407  1
  Pt  Pt23  1  0.333333  0.666667  0.497157  1
