# generated using pymatgen
data_TbDy7Ti3Si16Mo9
_symmetry_space_group_name_H-M   'P 1'
_cell_length_a   6.91572624
_cell_length_b   6.91559707
_cell_length_c   12.82221280
_cell_angle_alpha   90.00960916
_cell_angle_beta   89.97985604
_cell_angle_gamma   89.71864165
_symmetry_Int_Tables_number   1
_chemical_formula_structural   TbDy7Ti3Si16Mo9
_chemical_formula_sum   'Tb1 Dy7 Ti3 Si16 Mo9'
_cell_volume   613.23253161
_cell_formula_units_Z   1
loop_
 _symmetry_equiv_pos_site_id
 _symmetry_equiv_pos_as_xyz
  1  'x, y, z'
loop_
 _atom_site_type_symbol
 _atom_site_label
 _atom_site_symmetry_multiplicity
 _atom_site_fract_x
 _atom_site_fract_y
 _atom_site_fract_z
 _atom_site_occupancy
  Tb  Tb0  1  0.997420  0.660418  0.031562  1
  Dy  Dy1  1  0.000671  0.340776  0.531342  1
  Dy  Dy2  1  0.660108  0.997779  0.968453  1
  Dy  Dy3  1  0.160920  0.503450  0.780837  1
  Dy  Dy4  1  0.838493  0.500121  0.282700  1
  Dy  Dy5  1  0.503500  0.160858  0.219067  1
  Dy  Dy6  1  0.500164  0.838518  0.717350  1
  Dy  Dy7  1  0.340770  0.000674  0.468657  1
  Ti  Ti8  1  0.829232  0.169008  0.748547  1
  Ti  Ti9  1  0.169054  0.829255  0.251547  1
  Ti  Ti10  1  0.330683  0.330513  0.999991  1
  Si  Si11  1  0.036677  0.713014  0.438352  1
  Si  Si12  1  0.958387  0.288677  0.936026  1
  Si  Si13  1  0.713003  0.036683  0.561630  1
  Si  Si14  1  0.209803  0.459662  0.186518  1
  Si  Si15  1  0.788454  0.542433  0.685013  1
  Si  Si16  1  0.459900  0.209595  0.813667  1
  Si  Si17  1  0.542419  0.788464  0.314986  1
  Si  Si18  1  0.289384  0.958684  0.063887  1
  Si  Si19  1  0.799657  0.871457  0.184239  1
  Si  Si20  1  0.303459  0.625754  0.565361  1
  Si  Si21  1  0.700071  0.371285  0.065942  1
  Si  Si22  1  0.625762  0.303459  0.434638  1
  Si  Si23  1  0.371996  0.700332  0.933986  1
  Si  Si24  1  0.127925  0.202460  0.315347  1
  Si  Si25  1  0.202462  0.127913  0.684649  1
  Si  Si26  1  0.871114  0.799995  0.815815  1
  Mo  Mo27  1  0.333672  0.504619  0.375094  1
  Mo  Mo28  1  0.843952  0.998073  0.373226  1
  Mo  Mo29  1  0.006817  0.159482  0.125524  1
  Mo  Mo30  1  0.998048  0.843960  0.626784  1
  Mo  Mo31  1  0.504619  0.333634  0.624945  1
  Mo  Mo32  1  0.159503  0.006949  0.874400  1
  Mo  Mo33  1  0.668785  0.668801  0.500007  1
  Mo  Mo34  1  0.493905  0.659443  0.124882  1
  Mo  Mo35  1  0.659213  0.493799  0.875030  1
