# generated using pymatgen
data_YPa5F24
_symmetry_space_group_name_H-M   'P 1'
_cell_length_a   8.41644561
_cell_length_b   8.41644679
_cell_length_c   8.50569819
_cell_angle_alpha   62.99445123
_cell_angle_beta   62.99444974
_cell_angle_gamma   80.11236676
_symmetry_Int_Tables_number   1
_chemical_formula_structural   YPa5F24
_chemical_formula_sum   'Y1 Pa5 F24'
_cell_volume   477.83345307
_cell_formula_units_Z   1
loop_
 _symmetry_equiv_pos_site_id
 _symmetry_equiv_pos_as_xyz
  1  'x, y, z'
loop_
 _atom_site_type_symbol
 _atom_site_label
 _atom_site_symmetry_multiplicity
 _atom_site_fract_x
 _atom_site_fract_y
 _atom_site_fract_z
 _atom_site_occupancy
  Y  Y0  1  0.786863  0.213137  0.250000  1
  Pa  Pa1  1  0.226051  0.364519  0.328498  1
  Pa  Pa2  1  0.635481  0.773949  0.171502  1
  Pa  Pa3  1  0.778810  0.635164  0.668385  1
  Pa  Pa4  1  0.364836  0.221190  0.831615  1
  Pa  Pa5  1  0.214275  0.785725  0.750000  1
  F  F6  1  0.721547  0.020906  0.158956  1
  F  F7  1  0.979094  0.278453  0.341044  1
  F  F8  1  0.273858  0.970342  0.847943  1
  F  F9  1  0.029658  0.726142  0.652057  1
  F  F10  1  0.500048  0.260064  0.287869  1
  F  F11  1  0.739936  0.499952  0.212131  1
  F  F12  1  0.495191  0.996304  0.004232  1
  F  F13  1  0.003696  0.504809  0.495768  1
  F  F14  1  0.394230  0.605770  0.250000  1
  F  F15  1  0.599613  0.400387  0.750000  1
  F  F16  1  0.811376  0.406284  0.922499  1
  F  F17  1  0.593716  0.188624  0.577501  1
  F  F18  1  0.193855  0.601426  0.067076  1
  F  F19  1  0.398574  0.806145  0.432924  1
  F  F20  1  0.071698  0.174340  0.041367  1
  F  F21  1  0.825660  0.928302  0.458633  1
  F  F22  1  0.934771  0.826709  0.952775  1
  F  F23  1  0.173291  0.065229  0.547225  1
  F  F24  1  0.678382  0.741724  0.894505  1
  F  F25  1  0.258276  0.321618  0.605495  1
  F  F26  1  0.325452  0.262162  0.099999  1
  F  F27  1  0.737838  0.674548  0.400001  1
  F  F28  1  0.255678  0.501755  0.788932  1
  F  F29  1  0.498245  0.744322  0.711068  1
