# generated using pymatgen
data_Hf5Co4Si6Mo
_symmetry_space_group_name_H-M   'P 1'
_cell_length_a   3.83509300
_cell_length_b   5.24575737
_cell_length_c   12.57804700
_cell_angle_alpha   90.00000000
_cell_angle_beta   90.00000000
_cell_angle_gamma   111.44096979
_symmetry_Int_Tables_number   1
_chemical_formula_structural   Hf5Co4Si6Mo
_chemical_formula_sum   'Hf5 Co4 Si6 Mo1'
_cell_volume   235.53269444
_cell_formula_units_Z   1
loop_
 _symmetry_equiv_pos_site_id
 _symmetry_equiv_pos_as_xyz
  1  'x, y, z'
loop_
 _atom_site_type_symbol
 _atom_site_label
 _atom_site_symmetry_multiplicity
 _atom_site_fract_x
 _atom_site_fract_y
 _atom_site_fract_z
 _atom_site_occupancy
  Hf  Hf0  1  0.073273  0.146545  0.121558  1
  Hf  Hf1  1  0.073273  0.146545  0.378442  1
  Hf  Hf2  1  0.923031  0.846061  0.614494  1
  Hf  Hf3  1  0.633551  0.267103  0.750000  1
  Hf  Hf4  1  0.923031  0.846061  0.885506  1
  Co  Co5  1  0.781342  0.562682  0.083142  1
  Co  Co6  1  0.781342  0.562682  0.416858  1
  Co  Co7  1  0.218961  0.437921  0.578306  1
  Co  Co8  1  0.218961  0.437921  0.921694  1
  Si  Si9  1  0.388484  0.776968  0.050520  1
  Si  Si10  1  0.678666  0.357332  0.250000  1
  Si  Si11  1  0.388484  0.776968  0.449481  1
  Si  Si12  1  0.609289  0.218578  0.538841  1
  Si  Si13  1  0.335222  0.670443  0.750000  1
  Si  Si14  1  0.609289  0.218578  0.961160  1
  Mo  Mo15  1  0.363805  0.727610  0.250000  1
