# generated using pymatgen
data_CaLa(In2Ir)2
_symmetry_space_group_name_H-M   'P 1'
_cell_length_a   5.63859463
_cell_length_b   5.63859471
_cell_length_c   8.21838900
_cell_angle_alpha   90.00000000
_cell_angle_beta   90.00000000
_cell_angle_gamma   134.05935133
_symmetry_Int_Tables_number   1
_chemical_formula_structural   CaLa(In2Ir)2
_chemical_formula_sum   'Ca1 La1 In4 Ir2'
_cell_volume   187.77062269
_cell_formula_units_Z   1
loop_
 _symmetry_equiv_pos_site_id
 _symmetry_equiv_pos_as_xyz
  1  'x, y, z'
loop_
 _atom_site_type_symbol
 _atom_site_label
 _atom_site_symmetry_multiplicity
 _atom_site_fract_x
 _atom_site_fract_y
 _atom_site_fract_z
 _atom_site_occupancy
  Ca  Ca0  1  0.933907  0.066093  0.750000  1
  La  La1  1  0.065134  0.934866  0.250000  1
  In  In2  1  0.649657  0.350343  0.557063  1
  In  In3  1  0.350694  0.649306  0.453898  1
  In  In4  1  0.649657  0.350343  0.942937  1
  In  In5  1  0.350694  0.649306  0.046102  1
  Ir  Ir6  1  0.782365  0.217635  0.250000  1
  Ir  Ir7  1  0.217893  0.782107  0.750000  1
