# generated using pymatgen
data_Tb19DyIr11Ru
_symmetry_space_group_name_H-M   'P 1'
_cell_length_a   10.92114400
_cell_length_b   10.92113700
_cell_length_c   6.42526200
_cell_angle_alpha   90.00000000
_cell_angle_beta   90.00000000
_cell_angle_gamma   90.00027281
_symmetry_Int_Tables_number   1
_chemical_formula_structural   Tb19DyIr11Ru
_chemical_formula_sum   'Tb19 Dy1 Ir11 Ru1'
_cell_volume   766.34941468
_cell_formula_units_Z   1
loop_
 _symmetry_equiv_pos_site_id
 _symmetry_equiv_pos_as_xyz
  1  'x, y, z'
loop_
 _atom_site_type_symbol
 _atom_site_label
 _atom_site_symmetry_multiplicity
 _atom_site_fract_x
 _atom_site_fract_y
 _atom_site_fract_z
 _atom_site_occupancy
  Tb  Tb0  1  0.292446  0.087515  0.377179  1
  Tb  Tb1  1  0.292679  0.912490  0.879902  1
  Tb  Tb2  1  0.707321  0.087510  0.879902  1
  Tb  Tb3  1  0.707554  0.912485  0.377179  1
  Tb  Tb4  1  0.587508  0.792665  0.879888  1
  Tb  Tb5  1  0.587500  0.207597  0.377195  1
  Tb  Tb6  1  0.412500  0.792403  0.377195  1
  Tb  Tb7  1  0.412492  0.207335  0.879888  1
  Tb  Tb8  1  0.209081  0.411535  0.621415  1
  Tb  Tb9  1  0.209047  0.588378  0.121234  1
  Tb  Tb10  1  0.790953  0.411622  0.121234  1
  Tb  Tb11  1  0.790919  0.588465  0.621415  1
  Tb  Tb12  1  0.911620  0.709034  0.121219  1
  Tb  Tb13  1  0.911519  0.290963  0.621429  1
  Tb  Tb14  1  0.088481  0.709037  0.621429  1
  Tb  Tb15  1  0.088380  0.290966  0.121219  1
  Tb  Tb16  1  0.000000  0.000000  0.499542  1
  Tb  Tb17  1  0.000000  0.000000  0.999506  1
  Tb  Tb18  1  0.500000  0.500000  0.999506  1
  Dy  Dy19  1  0.500000  0.500000  0.499538  1
  Ir  Ir20  1  0.846976  0.153773  0.250137  1
  Ir  Ir21  1  0.847110  0.846492  0.749888  1
  Ir  Ir22  1  0.152890  0.153508  0.749888  1
  Ir  Ir23  1  0.153024  0.846227  0.250137  1
  Ir  Ir24  1  0.653444  0.347168  0.749787  1
  Ir  Ir25  1  0.653712  0.652959  0.250233  1
  Ir  Ir26  1  0.346288  0.347041  0.250233  1
  Ir  Ir27  1  0.346556  0.652832  0.749787  1
  Ir  Ir28  1  0.500000  0.000000  0.624051  1
  Ir  Ir29  1  0.000000  0.500000  0.877033  1
  Ir  Ir30  1  0.000000  0.500000  0.377156  1
  Ru  Ru31  1  0.500000  0.000000  0.124659  1
