# generated using pymatgen
data_V5SiNiGeP
_symmetry_space_group_name_H-M   'P 1'
_cell_length_a   6.46614376
_cell_length_b   6.48067514
_cell_length_c   3.23885300
_cell_angle_alpha   90.00000000
_cell_angle_beta   90.00000000
_cell_angle_gamma   120.69301179
_symmetry_Int_Tables_number   1
_chemical_formula_structural   V5SiNiGeP
_chemical_formula_sum   'V5 Si1 Ni1 Ge1 P1'
_cell_volume   116.71109263
_cell_formula_units_Z   1
loop_
 _symmetry_equiv_pos_site_id
 _symmetry_equiv_pos_as_xyz
  1  'x, y, z'
loop_
 _atom_site_type_symbol
 _atom_site_label
 _atom_site_symmetry_multiplicity
 _atom_site_fract_x
 _atom_site_fract_y
 _atom_site_fract_z
 _atom_site_occupancy
  V  V0  1  0.748241  0.998690  0.000000  1
  V  V1  1  0.006068  0.750557  0.000000  1
  V  V2  1  0.394531  0.968643  0.500000  1
  V  V3  1  0.983877  0.400839  0.500000  1
  V  V4  1  0.623155  0.629637  0.500000  1
  Si  Si5  1  0.328625  0.646246  0.000000  1
  Ni  Ni6  1  0.248139  0.256800  0.000000  1
  Ge  Ge7  1  0.645737  0.328013  0.000000  1
  P  P8  1  0.021626  0.020574  0.500000  1
