# generated using pymatgen
data_Eu2Co2Br
_symmetry_space_group_name_H-M   'P 1'
_cell_length_a   3.97244900
_cell_length_b   3.97244810
_cell_length_c   17.27658400
_cell_angle_alpha   90.00000000
_cell_angle_beta   90.00000000
_cell_angle_gamma   119.99999916
_symmetry_Int_Tables_number   1
_chemical_formula_structural   Eu2Co2Br
_chemical_formula_sum   'Eu4 Co4 Br2'
_cell_volume   236.10493990
_cell_formula_units_Z   2
loop_
 _symmetry_equiv_pos_site_id
 _symmetry_equiv_pos_as_xyz
  1  'x, y, z'
loop_
 _atom_site_type_symbol
 _atom_site_label
 _atom_site_symmetry_multiplicity
 _atom_site_fract_x
 _atom_site_fract_y
 _atom_site_fract_z
 _atom_site_occupancy
  Eu  Eu0  1  0.000000  0.000000  0.115331  1
  Eu  Eu1  1  0.000000  0.000000  0.384669  1
  Eu  Eu2  1  0.000000  0.000000  0.884669  1
  Eu  Eu3  1  0.000000  0.000000  0.615331  1
  Co  Co4  1  0.333333  0.666667  0.000899  1
  Co  Co5  1  0.666667  0.333333  0.999101  1
  Co  Co6  1  0.333333  0.666667  0.499101  1
  Co  Co7  1  0.666667  0.333333  0.500899  1
  Br  Br8  1  0.333333  0.666667  0.750000  1
  Br  Br9  1  0.666667  0.333333  0.250000  1
