# generated using pymatgen
data_TbSm5(RuBr3)2
_symmetry_space_group_name_H-M   'P 1'
_cell_length_a   4.16388900
_cell_length_b   8.78608477
_cell_length_c   12.04011408
_cell_angle_alpha   87.44228810
_cell_angle_beta   90.00000000
_cell_angle_gamma   90.00000000
_symmetry_Int_Tables_number   1
_chemical_formula_structural   TbSm5(RuBr3)2
_chemical_formula_sum   'Tb1 Sm5 Ru2 Br6'
_cell_volume   440.04011122
_cell_formula_units_Z   1
loop_
 _symmetry_equiv_pos_site_id
 _symmetry_equiv_pos_as_xyz
  1  'x, y, z'
loop_
 _atom_site_type_symbol
 _atom_site_label
 _atom_site_symmetry_multiplicity
 _atom_site_fract_x
 _atom_site_fract_y
 _atom_site_fract_z
 _atom_site_occupancy
  Tb  Tb0  1  0.750000  0.109804  0.171825  1
  Sm  Sm1  1  0.250000  0.289558  0.390692  1
  Sm  Sm2  1  0.750000  0.711208  0.607641  1
  Sm  Sm3  1  0.250000  0.873734  0.370582  1
  Sm  Sm4  1  0.750000  0.127772  0.629768  1
  Sm  Sm5  1  0.250000  0.890006  0.831124  1
  Ru  Ru6  1  0.250000  0.926951  0.602955  1
  Ru  Ru7  1  0.750000  0.074010  0.397308  1
  Br  Br8  1  0.250000  0.419030  0.628426  1
  Br  Br9  1  0.750000  0.580798  0.369223  1
  Br  Br10  1  0.250000  0.882302  0.106830  1
  Br  Br11  1  0.750000  0.123183  0.896598  1
  Br  Br12  1  0.250000  0.338682  0.135116  1
  Br  Br13  1  0.750000  0.652963  0.861911  1
