# generated using pymatgen
data_Li4Tb2GdSn4
_symmetry_space_group_name_H-M   'P 1'
_cell_length_a   4.49327812
_cell_length_b   7.28243012
_cell_length_c   8.64124800
_cell_angle_alpha   114.92148828
_cell_angle_beta   105.06947699
_cell_angle_gamma   90.00000474
_symmetry_Int_Tables_number   1
_chemical_formula_structural   Li4Tb2GdSn4
_chemical_formula_sum   'Li4 Tb2 Gd1 Sn4'
_cell_volume   245.66635383
_cell_formula_units_Z   1
loop_
 _symmetry_equiv_pos_site_id
 _symmetry_equiv_pos_as_xyz
  1  'x, y, z'
loop_
 _atom_site_type_symbol
 _atom_site_label
 _atom_site_symmetry_multiplicity
 _atom_site_fract_x
 _atom_site_fract_y
 _atom_site_fract_z
 _atom_site_occupancy
  Li  Li0  1  0.326811  0.018282  0.653622  1
  Li  Li1  1  0.673189  0.981718  0.346378  1
  Li  Li2  1  0.326811  0.635340  0.653622  1
  Li  Li3  1  0.673189  0.364660  0.346378  1
  Tb  Tb4  1  0.871312  0.371312  0.742625  1
  Tb  Tb5  1  0.128688  0.628688  0.257375  1
  Gd  Gd6  1  0.000000  0.000000  0.000000  1
  Sn  Sn7  1  0.214926  0.214926  0.429852  1
  Sn  Sn8  1  0.785074  0.785074  0.570148  1
  Sn  Sn9  1  0.500000  0.302202  0.000000  1
  Sn  Sn10  1  0.500000  0.697798  0.000000  1
