# generated using pymatgen
data_Ta4Fe(CoS6)2
_symmetry_space_group_name_H-M   'P 1'
_cell_length_a   7.14077671
_cell_length_b   7.14077675
_cell_length_c   18.62434046
_cell_angle_alpha   68.39269636
_cell_angle_beta   68.39269646
_cell_angle_gamma   26.69527050
_symmetry_Int_Tables_number   1
_chemical_formula_structural   Ta4Fe(CoS6)2
_chemical_formula_sum   'Ta4 Fe1 Co2 S12'
_cell_volume   394.89868754
_cell_formula_units_Z   1
loop_
 _symmetry_equiv_pos_site_id
 _symmetry_equiv_pos_as_xyz
  1  'x, y, z'
loop_
 _atom_site_type_symbol
 _atom_site_label
 _atom_site_symmetry_multiplicity
 _atom_site_fract_x
 _atom_site_fract_y
 _atom_site_fract_z
 _atom_site_occupancy
  Ta  Ta0  1  0.619624  0.619624  0.853959  1
  Ta  Ta1  1  0.380376  0.380376  0.146041  1
  Ta  Ta2  1  0.743459  0.743459  0.589439  1
  Ta  Ta3  1  0.256541  0.256541  0.410561  1
  Fe  Fe4  1  0.000000  0.000000  0.000000  1
  Co  Co5  1  0.228573  0.228573  0.718082  1
  Co  Co6  1  0.771427  0.771427  0.281918  1
  S  S7  1  0.976134  0.976134  0.887416  1
  S  S8  1  0.023866  0.023866  0.112584  1
  S  S9  1  0.636267  0.636267  0.395887  1
  S  S10  1  0.363733  0.363733  0.604113  1
  S  S11  1  0.136470  0.136470  0.552156  1
  S  S12  1  0.863530  0.863530  0.447844  1
  S  S13  1  0.798266  0.798266  0.765233  1
  S  S14  1  0.201734  0.201734  0.234767  1
  S  S15  1  0.172794  0.172794  0.931436  1
  S  S16  1  0.827206  0.827206  0.068564  1
  S  S17  1  0.612942  0.612942  0.721220  1
  S  S18  1  0.387058  0.387058  0.278780  1
