# generated using pymatgen
data_La2Gd4RhBr10
_symmetry_space_group_name_H-M   'P 1'
_cell_length_a   7.65394584
_cell_length_b   9.54812360
_cell_length_c   9.61325600
_cell_angle_alpha   108.84969380
_cell_angle_beta   106.37286043
_cell_angle_gamma   96.80061039
_symmetry_Int_Tables_number   1
_chemical_formula_structural   La2Gd4RhBr10
_chemical_formula_sum   'La2 Gd4 Rh1 Br10'
_cell_volume   620.69482165
_cell_formula_units_Z   1
loop_
 _symmetry_equiv_pos_site_id
 _symmetry_equiv_pos_as_xyz
  1  'x, y, z'
loop_
 _atom_site_type_symbol
 _atom_site_label
 _atom_site_symmetry_multiplicity
 _atom_site_fract_x
 _atom_site_fract_y
 _atom_site_fract_z
 _atom_site_occupancy
  La  La0  1  0.372322  0.191843  0.145070  1
  La  La1  1  0.027492  0.903026  0.701358  1
  Gd  Gd2  1  0.127973  0.752946  0.049457  1
  Gd  Gd3  1  0.637642  0.815892  0.866340  1
  Gd  Gd4  1  0.867353  0.244771  0.945389  1
  Gd  Gd5  1  0.967667  0.089884  0.286352  1
  Rh  Rh6  1  0.003468  0.000540  0.996980  1
  Br  Br7  1  0.456536  0.078924  0.826316  1
  Br  Br8  1  0.754332  0.545110  0.918479  1
  Br  Br9  1  0.236816  0.459573  0.079647  1
  Br  Br10  1  0.909428  0.172292  0.629473  1
  Br  Br11  1  0.631155  0.723394  0.553228  1
  Br  Br12  1  0.554452  0.915950  0.172062  1
  Br  Br13  1  0.086050  0.833980  0.363107  1
  Br  Br14  1  0.803511  0.348083  0.251389  1
  Br  Br15  1  0.222423  0.652339  0.758221  1
  Br  Br16  1  0.341381  0.271453  0.457132  1
