# generated using pymatgen
data_HfSnPt2(SeO3)8
_symmetry_space_group_name_H-M   'P 1'
_cell_length_a   8.27910142
_cell_length_b   8.34772516
_cell_length_c   8.23718634
_cell_angle_alpha   89.66826382
_cell_angle_beta   90.39791738
_cell_angle_gamma   90.82148081
_symmetry_Int_Tables_number   1
_chemical_formula_structural   HfSnPt2(SeO3)8
_chemical_formula_sum   'Hf1 Sn1 Pt2 Se8 O24'
_cell_volume   569.20419112
_cell_formula_units_Z   1
loop_
 _symmetry_equiv_pos_site_id
 _symmetry_equiv_pos_as_xyz
  1  'x, y, z'
loop_
 _atom_site_type_symbol
 _atom_site_label
 _atom_site_symmetry_multiplicity
 _atom_site_fract_x
 _atom_site_fract_y
 _atom_site_fract_z
 _atom_site_occupancy
  Hf  Hf0  1  0.500000  0.500000  0.000000  1
  Sn  Sn1  1  0.000000  0.500000  0.500000  1
  Pt  Pt2  1  0.500000  0.000000  0.500000  1
  Pt  Pt3  1  0.000000  0.000000  0.000000  1
  Se  Se4  1  0.823477  0.158842  0.677656  1
  Se  Se5  1  0.176523  0.841158  0.322344  1
  Se  Se6  1  0.675605  0.686139  0.651068  1
  Se  Se7  1  0.153247  0.690486  0.830271  1
  Se  Se8  1  0.317576  0.149069  0.812581  1
  Se  Se9  1  0.846753  0.309514  0.169729  1
  Se  Se10  1  0.682424  0.850931  0.187419  1
  Se  Se11  1  0.324395  0.313861  0.348932  1
  O  O12  1  0.244681  0.450981  0.483941  1
  O  O13  1  0.984246  0.241061  0.024273  1
  O  O14  1  0.046258  0.743803  0.454389  1
  O  O15  1  0.439334  0.267410  0.932071  1
  O  O16  1  0.257738  0.976181  0.465671  1
  O  O17  1  0.558139  0.556553  0.762685  1
  O  O18  1  0.965047  0.023540  0.756842  1
  O  O19  1  0.560666  0.732590  0.067929  1
  O  O20  1  0.535006  0.984143  0.256540  1
  O  O21  1  0.464994  0.015857  0.743460  1
  O  O22  1  0.757152  0.982642  0.035779  1
  O  O23  1  0.265091  0.570238  0.955377  1
  O  O24  1  0.024821  0.544997  0.746689  1
  O  O25  1  0.034953  0.976460  0.243158  1
  O  O26  1  0.242848  0.017358  0.964221  1
  O  O27  1  0.441861  0.443447  0.237315  1
  O  O28  1  0.755319  0.549019  0.516059  1
  O  O29  1  0.975179  0.455003  0.253311  1
  O  O30  1  0.015754  0.758939  0.975727  1
  O  O31  1  0.474075  0.241401  0.483164  1
  O  O32  1  0.525925  0.758599  0.516836  1
  O  O33  1  0.953742  0.256197  0.545611  1
  O  O34  1  0.742262  0.023819  0.534329  1
  O  O35  1  0.734909  0.429762  0.044623  1
