# generated using pymatgen
data_ErZr3Np4(P3Ir4)4
_symmetry_space_group_name_H-M   'P 1'
_cell_length_a   12.83030800
_cell_length_b   12.83030692
_cell_length_c   3.92307000
_cell_angle_alpha   90.00000000
_cell_angle_beta   90.00000000
_cell_angle_gamma   119.99999762
_symmetry_Int_Tables_number   1
_chemical_formula_structural   ErZr3Np4(P3Ir4)4
_chemical_formula_sum   'Er1 Zr3 Np4 P12 Ir16'
_cell_volume   559.28198058
_cell_formula_units_Z   1
loop_
 _symmetry_equiv_pos_site_id
 _symmetry_equiv_pos_as_xyz
  1  'x, y, z'
loop_
 _atom_site_type_symbol
 _atom_site_label
 _atom_site_symmetry_multiplicity
 _atom_site_fract_x
 _atom_site_fract_y
 _atom_site_fract_z
 _atom_site_occupancy
  Er  Er0  1  0.333333  0.666667  0.000000  1
  Zr  Zr1  1  0.448728  0.999476  0.000000  1
  Zr  Zr2  1  0.000524  0.449254  0.000000  1
  Zr  Zr3  1  0.550746  0.551272  0.000000  1
  Np  Np4  1  0.666667  0.333333  0.000000  1
  Np  Np5  1  0.816606  0.999450  0.500000  1
  Np  Np6  1  0.000550  0.817156  0.500000  1
  Np  Np7  1  0.182844  0.183394  0.500000  1
  P  P8  1  0.177716  0.000284  0.000000  1
  P  P9  1  0.999716  0.177432  0.000000  1
  P  P10  1  0.822568  0.822284  0.000000  1
  P  P11  1  0.170405  0.485287  0.500000  1
  P  P12  1  0.514713  0.685118  0.500000  1
  P  P13  1  0.314882  0.829595  0.500000  1
  P  P14  1  0.685298  0.515399  0.500000  1
  P  P15  1  0.830101  0.314702  0.500000  1
  P  P16  1  0.484601  0.169899  0.500000  1
  P  P17  1  0.650070  0.999973  0.000000  1
  P  P18  1  0.000027  0.650097  0.000000  1
  P  P19  1  0.349903  0.349930  0.000000  1
  Ir  Ir20  1  0.355095  0.490380  0.500000  1
  Ir  Ir21  1  0.509620  0.864715  0.500000  1
  Ir  Ir22  1  0.135285  0.644905  0.500000  1
  Ir  Ir23  1  0.869477  0.513562  0.500000  1
  Ir  Ir24  1  0.644084  0.130523  0.500000  1
  Ir  Ir25  1  0.486438  0.355916  0.500000  1
  Ir  Ir26  1  0.177142  0.371802  0.000000  1
  Ir  Ir27  1  0.628198  0.805341  0.000000  1
  Ir  Ir28  1  0.194659  0.822858  0.000000  1
  Ir  Ir29  1  0.804726  0.627245  0.000000  1
  Ir  Ir30  1  0.822520  0.195274  0.000000  1
  Ir  Ir31  1  0.372755  0.177480  0.000000  1
  Ir  Ir32  1  0.280583  0.999721  0.500000  1
  Ir  Ir33  1  0.000279  0.280862  0.500000  1
  Ir  Ir34  1  0.719138  0.719417  0.500000  1
  Ir  Ir35  1  0.000000  0.000000  0.000000  1
