# generated using pymatgen
data_Nd5SmCo16(P6Ru)2
_symmetry_space_group_name_H-M   'P 1'
_cell_length_a   3.76968100
_cell_length_b   10.64018902
_cell_length_c   12.45137435
_cell_angle_alpha   89.92945965
_cell_angle_beta   90.00000000
_cell_angle_gamma   90.00000000
_symmetry_Int_Tables_number   1
_chemical_formula_structural   Nd5SmCo16(P6Ru)2
_chemical_formula_sum   'Nd5 Sm1 Co16 P12 Ru2'
_cell_volume   499.42572091
_cell_formula_units_Z   1
loop_
 _symmetry_equiv_pos_site_id
 _symmetry_equiv_pos_as_xyz
  1  'x, y, z'
loop_
 _atom_site_type_symbol
 _atom_site_label
 _atom_site_symmetry_multiplicity
 _atom_site_fract_x
 _atom_site_fract_y
 _atom_site_fract_z
 _atom_site_occupancy
  Nd  Nd0  1  0.000000  0.499799  0.523107  1
  Nd  Nd1  1  0.500000  0.000147  0.476488  1
  Nd  Nd2  1  0.500000  0.182944  0.206904  1
  Nd  Nd3  1  0.000000  0.683090  0.793546  1
  Nd  Nd4  1  0.000000  0.316934  0.793269  1
  Sm  Sm5  1  0.500000  0.816474  0.206359  1
  Co  Co6  1  0.500000  0.500093  0.706030  1
  Co  Co7  1  0.000000  0.998827  0.293586  1
  Co  Co8  1  0.000000  0.500518  0.988040  1
  Co  Co9  1  0.500000  0.999455  0.012754  1
  Co  Co10  1  0.500000  0.332510  0.992536  1
  Co  Co11  1  0.500000  0.667977  0.992847  1
  Co  Co12  1  0.000000  0.167168  0.007787  1
  Co  Co13  1  0.000000  0.832303  0.008298  1
  Co  Co14  1  0.500000  0.297624  0.429885  1
  Co  Co15  1  0.500000  0.702698  0.429276  1
  Co  Co16  1  0.000000  0.202316  0.569969  1
  Co  Co17  1  0.000000  0.797562  0.569547  1
  Co  Co18  1  0.500000  0.881595  0.709489  1
  Co  Co19  1  0.500000  0.118380  0.709649  1
  Co  Co20  1  0.000000  0.619202  0.289889  1
  Co  Co21  1  0.000000  0.381840  0.290445  1
  P  P22  1  0.500000  0.500191  0.886725  1
  P  P23  1  0.000000  0.998984  0.114190  1
  P  P24  1  0.500000  0.499924  0.345134  1
  P  P25  1  0.000000  0.000093  0.654737  1
  P  P26  1  0.500000  0.306820  0.614187  1
  P  P27  1  0.500000  0.693161  0.614035  1
  P  P28  1  0.000000  0.193111  0.385796  1
  P  P29  1  0.000000  0.807271  0.384359  1
  P  P30  1  0.500000  0.847934  0.895897  1
  P  P31  1  0.500000  0.151934  0.896071  1
  P  P32  1  0.000000  0.652930  0.104825  1
  P  P33  1  0.000000  0.347924  0.104157  1
  Ru  Ru34  1  0.500000  0.500448  0.157704  1
  Ru  Ru35  1  0.000000  0.999819  0.842481  1
