# generated using pymatgen
data_Dy8Si12IrRh3
_symmetry_space_group_name_H-M   'P 1'
_cell_length_a   8.17174300
_cell_length_b   8.17174359
_cell_length_c   7.91681700
_cell_angle_alpha   90.00000000
_cell_angle_beta   90.00000000
_cell_angle_gamma   119.99999357
_symmetry_Int_Tables_number   1
_chemical_formula_structural   Dy8Si12IrRh3
_chemical_formula_sum   'Dy8 Si12 Ir1 Rh3'
_cell_volume   457.83679920
_cell_formula_units_Z   1
loop_
 _symmetry_equiv_pos_site_id
 _symmetry_equiv_pos_as_xyz
  1  'x, y, z'
loop_
 _atom_site_type_symbol
 _atom_site_label
 _atom_site_symmetry_multiplicity
 _atom_site_fract_x
 _atom_site_fract_y
 _atom_site_fract_z
 _atom_site_occupancy
  Dy  Dy0  1  0.000000  0.000000  0.249096  1
  Dy  Dy1  1  0.000000  0.000000  0.750387  1
  Dy  Dy2  1  0.508611  0.491389  0.250176  1
  Dy  Dy3  1  0.508611  0.017223  0.250176  1
  Dy  Dy4  1  0.982777  0.491389  0.250176  1
  Dy  Dy5  1  0.490822  0.509178  0.749866  1
  Dy  Dy6  1  0.490822  0.981643  0.749866  1
  Dy  Dy7  1  0.018357  0.509178  0.749866  1
  Si  Si8  1  0.166446  0.833554  0.499260  1
  Si  Si9  1  0.166446  0.332894  0.499260  1
  Si  Si10  1  0.667106  0.833554  0.499260  1
  Si  Si11  1  0.832857  0.167143  0.500232  1
  Si  Si12  1  0.832857  0.665714  0.500232  1
  Si  Si13  1  0.334286  0.167143  0.500232  1
  Si  Si14  1  0.833104  0.166896  0.999650  1
  Si  Si15  1  0.833104  0.666207  0.999650  1
  Si  Si16  1  0.333793  0.166896  0.999650  1
  Si  Si17  1  0.166817  0.833183  0.999845  1
  Si  Si18  1  0.166817  0.333635  0.999845  1
  Si  Si19  1  0.666365  0.833183  0.999845  1
  Ir  Ir20  1  0.333333  0.666667  0.468612  1
  Rh  Rh21  1  0.666667  0.333333  0.533223  1
  Rh  Rh22  1  0.666667  0.333333  0.966414  1
  Rh  Rh23  1  0.333333  0.666667  0.035178  1
