# generated using pymatgen
data_Dy4Ga18Ir5Pd
_symmetry_space_group_name_H-M   'P 1'
_cell_length_a   7.60480810
_cell_length_b   7.60480717
_cell_length_c   9.49008464
_cell_angle_alpha   90.05009358
_cell_angle_beta   90.05009566
_cell_angle_gamma   119.87540805
_symmetry_Int_Tables_number   1
_chemical_formula_structural   Dy4Ga18Ir5Pd
_chemical_formula_sum   'Dy4 Ga18 Ir5 Pd1'
_cell_volume   475.90514298
_cell_formula_units_Z   1
loop_
 _symmetry_equiv_pos_site_id
 _symmetry_equiv_pos_as_xyz
  1  'x, y, z'
loop_
 _atom_site_type_symbol
 _atom_site_label
 _atom_site_symmetry_multiplicity
 _atom_site_fract_x
 _atom_site_fract_y
 _atom_site_fract_z
 _atom_site_occupancy
  Dy  Dy0  1  0.997010  0.668813  0.251052  1
  Dy  Dy1  1  0.002990  0.331187  0.748948  1
  Dy  Dy2  1  0.668813  0.997010  0.251052  1
  Dy  Dy3  1  0.331187  0.002990  0.748948  1
  Ga  Ga4  1  0.127556  0.127556  0.251066  1
  Ga  Ga5  1  0.872444  0.872444  0.748934  1
  Ga  Ga6  1  0.999370  0.336814  0.082229  1
  Ga  Ga7  1  0.000630  0.663186  0.917771  1
  Ga  Ga8  1  0.001254  0.666015  0.579830  1
  Ga  Ga9  1  0.333985  0.998746  0.420170  1
  Ga  Ga10  1  0.998746  0.333985  0.420170  1
  Ga  Ga11  1  0.666015  0.001254  0.579830  1
  Ga  Ga12  1  0.663186  0.000630  0.917771  1
  Ga  Ga13  1  0.336814  0.999370  0.082229  1
  Ga  Ga14  1  0.332141  0.332141  0.564299  1
  Ga  Ga15  1  0.667859  0.667859  0.435701  1
  Ga  Ga16  1  0.664589  0.664589  0.067148  1
  Ga  Ga17  1  0.335411  0.335411  0.932852  1
  Ga  Ga18  1  0.338533  0.546746  0.250264  1
  Ga  Ga19  1  0.661467  0.453254  0.749736  1
  Ga  Ga20  1  0.546746  0.338533  0.250264  1
  Ga  Ga21  1  0.453254  0.661467  0.749736  1
  Ir  Ir22  1  0.671819  0.328181  0.000000  1
  Ir  Ir23  1  0.328181  0.671819  0.000000  1
  Ir  Ir24  1  0.328482  0.671518  0.500000  1
  Ir  Ir25  1  0.671518  0.328482  0.500000  1
  Ir  Ir26  1  0.000000  0.000000  0.500000  1
  Pd  Pd27  1  0.000000  0.000000  0.000000  1
