# generated using pymatgen
data_Np2Ta2O7F2
_symmetry_space_group_name_H-M   'P 1'
_cell_length_a   8.09519157
_cell_length_b   8.09519189
_cell_length_c   6.69194165
_cell_angle_alpha   114.99919530
_cell_angle_beta   114.99919544
_cell_angle_gamma   28.03414610
_symmetry_Int_Tables_number   1
_chemical_formula_structural   Np2Ta2O7F2
_chemical_formula_sum   'Np2 Ta2 O7 F2'
_cell_volume   185.53169411
_cell_formula_units_Z   1
loop_
 _symmetry_equiv_pos_site_id
 _symmetry_equiv_pos_as_xyz
  1  'x, y, z'
loop_
 _atom_site_type_symbol
 _atom_site_label
 _atom_site_symmetry_multiplicity
 _atom_site_fract_x
 _atom_site_fract_y
 _atom_site_fract_z
 _atom_site_occupancy
  Np  Np0  1  0.295151  0.295151  0.308846  1
  Np  Np1  1  0.704847  0.704847  0.691187  1
  Ta  Ta2  1  0.036983  0.036983  0.312559  1
  Ta  Ta3  1  0.963002  0.963002  0.687429  1
  O  O4  1  0.000005  0.000005  0.000025  1
  O  O5  1  0.915716  0.915716  0.329208  1
  O  O6  1  0.551833  0.551833  0.345604  1
  O  O7  1  0.180105  0.180105  0.437841  1
  O  O8  1  0.819895  0.819895  0.562145  1
  O  O9  1  0.448166  0.448166  0.654378  1
  O  O10  1  0.084294  0.084294  0.670787  1
  F  F11  1  0.713860  0.713860  0.079440  1
  F  F12  1  0.286143  0.286143  0.920555  1
