# generated using pymatgen
data_Sm7PBr12
_symmetry_space_group_name_H-M   'P 1'
_cell_length_a   9.30118633
_cell_length_b   9.30118523
_cell_length_c   9.30118519
_cell_angle_alpha   107.69880710
_cell_angle_beta   107.69881340
_cell_angle_gamma   107.69882244
_symmetry_Int_Tables_number   1
_chemical_formula_structural   Sm7PBr12
_chemical_formula_sum   'Sm7 P1 Br12'
_cell_volume   656.93925311
_cell_formula_units_Z   1
loop_
 _symmetry_equiv_pos_site_id
 _symmetry_equiv_pos_as_xyz
  1  'x, y, z'
loop_
 _atom_site_type_symbol
 _atom_site_label
 _atom_site_symmetry_multiplicity
 _atom_site_fract_x
 _atom_site_fract_y
 _atom_site_fract_z
 _atom_site_occupancy
  Sm  Sm0  1  0.500000  0.500000  0.500000  1
  Sm  Sm1  1  0.104964  0.029509  0.315768  1
  Sm  Sm2  1  0.029509  0.315768  0.104964  1
  Sm  Sm3  1  0.315768  0.104964  0.029509  1
  Sm  Sm4  1  0.895035  0.970491  0.684232  1
  Sm  Sm5  1  0.970491  0.684232  0.895035  1
  Sm  Sm6  1  0.684232  0.895035  0.970491  1
  P  P7  1  0.000000  0.000000  0.000000  1
  Br  Br8  1  0.076542  0.686435  0.226808  1
  Br  Br9  1  0.686435  0.226808  0.076542  1
  Br  Br10  1  0.226808  0.076542  0.686435  1
  Br  Br11  1  0.923458  0.313565  0.773192  1
  Br  Br12  1  0.313565  0.773192  0.923458  1
  Br  Br13  1  0.773192  0.923458  0.313565  1
  Br  Br14  1  0.466382  0.158252  0.385885  1
  Br  Br15  1  0.158252  0.385885  0.466382  1
  Br  Br16  1  0.385885  0.466382  0.158252  1
  Br  Br17  1  0.533618  0.841748  0.614115  1
  Br  Br18  1  0.841748  0.614115  0.533618  1
  Br  Br19  1  0.614115  0.533618  0.841748  1
