# generated using pymatgen
data_La12CuOs2Pt
_symmetry_space_group_name_H-M   'P 1'
_cell_length_a   6.65657099
_cell_length_b   7.47386684
_cell_length_c   10.17726300
_cell_angle_alpha   90.00000000
_cell_angle_beta   90.00000000
_cell_angle_gamma   89.77670848
_symmetry_Int_Tables_number   1
_chemical_formula_structural   La12CuOs2Pt
_chemical_formula_sum   'La12 Cu1 Os2 Pt1'
_cell_volume   506.31829885
_cell_formula_units_Z   1
loop_
 _symmetry_equiv_pos_site_id
 _symmetry_equiv_pos_as_xyz
  1  'x, y, z'
loop_
 _atom_site_type_symbol
 _atom_site_label
 _atom_site_symmetry_multiplicity
 _atom_site_fract_x
 _atom_site_fract_y
 _atom_site_fract_z
 _atom_site_occupancy
  La  La0  1  0.337434  0.669248  0.066140  1
  La  La1  1  0.173401  0.179900  0.433846  1
  La  La2  1  0.667214  0.331219  0.566476  1
  La  La3  1  0.826524  0.821678  0.932538  1
  La  La4  1  0.667214  0.331219  0.933524  1
  La  La5  1  0.826524  0.821678  0.567462  1
  La  La6  1  0.337434  0.669248  0.433860  1
  La  La7  1  0.173401  0.179900  0.066154  1
  La  La8  1  0.849040  0.521808  0.250000  1
  La  La9  1  0.632837  0.046983  0.250000  1
  La  La10  1  0.153278  0.470011  0.750000  1
  La  La11  1  0.361056  0.954711  0.750000  1
  Cu  Cu12  1  0.064071  0.882887  0.250000  1
  Os  Os13  1  0.427533  0.379191  0.250000  1
  Os  Os14  1  0.569468  0.621077  0.750000  1
  Pt  Pt15  1  0.933569  0.119242  0.750000  1
