# generated using pymatgen
data_AcCo6(BIr)6
_symmetry_space_group_name_H-M   'P 1'
_cell_length_a   6.33260482
_cell_length_b   6.33260383
_cell_length_c   6.33260501
_cell_angle_alpha   103.32701945
_cell_angle_beta   103.32701468
_cell_angle_gamma   103.32699275
_symmetry_Int_Tables_number   1
_chemical_formula_structural   AcCo6(BIr)6
_chemical_formula_sum   'Ac1 Co6 B6 Ir6'
_cell_volume   229.41366060
_cell_formula_units_Z   1
loop_
 _symmetry_equiv_pos_site_id
 _symmetry_equiv_pos_as_xyz
  1  'x, y, z'
loop_
 _atom_site_type_symbol
 _atom_site_label
 _atom_site_symmetry_multiplicity
 _atom_site_fract_x
 _atom_site_fract_y
 _atom_site_fract_z
 _atom_site_occupancy
  Ac  Ac0  1  0.000000  0.000000  0.000000  1
  Co  Co1  1  0.540195  0.799339  0.540195  1
  Co  Co2  1  0.540195  0.540195  0.799339  1
  Co  Co3  1  0.799339  0.540195  0.540195  1
  Co  Co4  1  0.459805  0.200661  0.459805  1
  Co  Co5  1  0.459805  0.459805  0.200661  1
  Co  Co6  1  0.200661  0.459805  0.459805  1
  B  B7  1  0.766350  0.348069  0.766350  1
  B  B8  1  0.766350  0.766350  0.348069  1
  B  B9  1  0.348069  0.766350  0.766350  1
  B  B10  1  0.233650  0.651931  0.233650  1
  B  B11  1  0.233650  0.233650  0.651931  1
  B  B12  1  0.651931  0.233650  0.233650  1
  Ir  Ir13  1  0.138346  0.861654  0.500000  1
  Ir  Ir14  1  0.500000  0.138346  0.861654  1
  Ir  Ir15  1  0.861654  0.500000  0.138346  1
  Ir  Ir16  1  0.500000  0.861654  0.138346  1
  Ir  Ir17  1  0.138346  0.500000  0.861654  1
  Ir  Ir18  1  0.861654  0.138346  0.500000  1
