# generated using pymatgen
data_Ce2PrSn3IrRh2
_symmetry_space_group_name_H-M   'P 1'
_cell_length_a   7.57885509
_cell_length_b   7.51678749
_cell_length_c   4.07798600
_cell_angle_alpha   90.00000000
_cell_angle_beta   90.00000000
_cell_angle_gamma   119.77900739
_symmetry_Int_Tables_number   1
_chemical_formula_structural   Ce2PrSn3IrRh2
_chemical_formula_sum   'Ce2 Pr1 Sn3 Ir1 Rh2'
_cell_volume   201.63924072
_cell_formula_units_Z   1
loop_
 _symmetry_equiv_pos_site_id
 _symmetry_equiv_pos_as_xyz
  1  'x, y, z'
loop_
 _atom_site_type_symbol
 _atom_site_label
 _atom_site_symmetry_multiplicity
 _atom_site_fract_x
 _atom_site_fract_y
 _atom_site_fract_z
 _atom_site_occupancy
  Ce  Ce0  1  0.586218  0.584701  0.000000  1
  Ce  Ce1  1  0.415350  0.001517  0.000000  1
  Pr  Pr2  1  0.999270  0.411079  0.000000  1
  Sn  Sn3  1  0.249113  0.252218  0.500000  1
  Sn  Sn4  1  0.000480  0.745222  0.500000  1
  Sn  Sn5  1  0.749956  0.001769  0.500000  1
  Ir  Ir6  1  0.650429  0.330596  0.500000  1
  Rh  Rh7  1  0.349066  0.679976  0.500000  1
  Rh  Rh8  1  0.000117  0.992920  0.000000  1
