# generated using pymatgen
data_HoCu2HgPt2
_symmetry_space_group_name_H-M   'P 1'
_cell_length_a   5.09649805
_cell_length_b   5.22818746
_cell_length_c   5.22818748
_cell_angle_alpha   63.71494170
_cell_angle_beta   60.82978404
_cell_angle_gamma   60.82978835
_symmetry_Int_Tables_number   1
_chemical_formula_structural   HoCu2HgPt2
_chemical_formula_sum   'Ho1 Cu2 Hg1 Pt2'
_cell_volume   102.29100499
_cell_formula_units_Z   1
loop_
 _symmetry_equiv_pos_site_id
 _symmetry_equiv_pos_as_xyz
  1  'x, y, z'
loop_
 _atom_site_type_symbol
 _atom_site_label
 _atom_site_symmetry_multiplicity
 _atom_site_fract_x
 _atom_site_fract_y
 _atom_site_fract_z
 _atom_site_occupancy
  Ho  Ho0  1  0.744819  0.755181  0.755181  1
  Cu  Cu1  1  0.378679  0.371105  0.371105  1
  Cu  Cu2  1  0.879110  0.371105  0.371105  1
  Hg  Hg3  1  0.992658  0.007342  0.007342  1
  Pt  Pt4  1  0.377366  0.373636  0.871631  1
  Pt  Pt5  1  0.377366  0.871631  0.373636  1
