# generated using pymatgen
data_UCoP2Rh
_symmetry_space_group_name_H-M   'P 1'
_cell_length_a   4.00541400
_cell_length_b   4.00541400
_cell_length_c   9.29309100
_cell_angle_alpha   90.00000000
_cell_angle_beta   90.00000000
_cell_angle_gamma   90.00000000
_symmetry_Int_Tables_number   1
_chemical_formula_structural   UCoP2Rh
_chemical_formula_sum   'U2 Co2 P4 Rh2'
_cell_volume   149.09223075
_cell_formula_units_Z   2
loop_
 _symmetry_equiv_pos_site_id
 _symmetry_equiv_pos_as_xyz
  1  'x, y, z'
loop_
 _atom_site_type_symbol
 _atom_site_label
 _atom_site_symmetry_multiplicity
 _atom_site_fract_x
 _atom_site_fract_y
 _atom_site_fract_z
 _atom_site_occupancy
  U  U0  1  0.500000  0.000000  0.233839  1
  U  U1  1  0.000000  0.500000  0.766218  1
  Co  Co2  1  0.000000  0.500000  0.107968  1
  Co  Co3  1  0.500000  0.000000  0.892075  1
  P  P4  1  0.000000  0.500000  0.347392  1
  P  P5  1  0.500000  0.500000  0.000080  1
  P  P6  1  0.500000  0.000000  0.652504  1
  P  P7  1  0.000000  0.000000  0.000080  1
  Rh  Rh8  1  0.000000  0.000000  0.499922  1
  Rh  Rh9  1  0.500000  0.500000  0.499922  1
