# generated using pymatgen
data_Ho3Mg2CdIrPb2
_symmetry_space_group_name_H-M   'P 1'
_cell_length_a   7.51522200
_cell_length_b   7.47452066
_cell_length_c   4.54443200
_cell_angle_alpha   90.00000000
_cell_angle_beta   90.00000000
_cell_angle_gamma   120.18030347
_symmetry_Int_Tables_number   1
_chemical_formula_structural   Ho3Mg2CdIrPb2
_chemical_formula_sum   'Ho3 Mg2 Cd1 Ir1 Pb2'
_cell_volume   220.67009414
_cell_formula_units_Z   1
loop_
 _symmetry_equiv_pos_site_id
 _symmetry_equiv_pos_as_xyz
  1  'x, y, z'
loop_
 _atom_site_type_symbol
 _atom_site_label
 _atom_site_symmetry_multiplicity
 _atom_site_fract_x
 _atom_site_fract_y
 _atom_site_fract_z
 _atom_site_occupancy
  Ho  Ho0  1  0.611984  0.000000  0.000000  1
  Ho  Ho1  1  0.003551  0.620564  0.000000  1
  Ho  Ho2  1  0.382987  0.379436  0.000000  1
  Mg  Mg3  1  0.998591  0.222154  0.500000  1
  Mg  Mg4  1  0.776435  0.777846  0.500000  1
  Cd  Cd5  1  0.231214  0.000000  0.500000  1
  Ir  Ir6  1  0.986433  0.000000  0.000000  1
  Pb  Pb7  1  0.334066  0.659329  0.500000  1
  Pb  Pb8  1  0.674738  0.340671  0.500000  1
