# generated using pymatgen
data_TbDyTh2(Ga3Ir)6
_symmetry_space_group_name_H-M   'P 1'
_cell_length_a   7.65752800
_cell_length_b   7.66664433
_cell_length_c   9.49735200
_cell_angle_alpha   90.00000000
_cell_angle_beta   90.00000000
_cell_angle_gamma   119.80503030
_symmetry_Int_Tables_number   1
_chemical_formula_structural   TbDyTh2(Ga3Ir)6
_chemical_formula_sum   'Tb1 Dy1 Th2 Ga18 Ir6'
_cell_volume   483.81236300
_cell_formula_units_Z   1
loop_
 _symmetry_equiv_pos_site_id
 _symmetry_equiv_pos_as_xyz
  1  'x, y, z'
loop_
 _atom_site_type_symbol
 _atom_site_label
 _atom_site_symmetry_multiplicity
 _atom_site_fract_x
 _atom_site_fract_y
 _atom_site_fract_z
 _atom_site_occupancy
  Tb  Tb0  1  0.331131  0.003992  0.750000  1
  Dy  Dy1  1  0.668942  0.996047  0.250000  1
  Th  Th2  1  0.996516  0.668804  0.250000  1
  Th  Th3  1  0.003481  0.331207  0.750000  1
  Ga  Ga4  1  0.130010  0.130020  0.250000  1
  Ga  Ga5  1  0.869909  0.869977  0.750000  1
  Ga  Ga6  1  0.998939  0.328937  0.082306  1
  Ga  Ga7  1  0.000795  0.670819  0.917770  1
  Ga  Ga8  1  0.000795  0.670819  0.582230  1
  Ga  Ga9  1  0.340037  0.003191  0.422384  1
  Ga  Ga10  1  0.998939  0.328937  0.417694  1
  Ga  Ga11  1  0.660215  0.996817  0.577389  1
  Ga  Ga12  1  0.660215  0.996817  0.922611  1
  Ga  Ga13  1  0.340037  0.003191  0.077616  1
  Ga  Ga14  1  0.336362  0.331674  0.563638  1
  Ga  Ga15  1  0.663662  0.668534  0.436259  1
  Ga  Ga16  1  0.663662  0.668534  0.063741  1
  Ga  Ga17  1  0.336362  0.331674  0.936362  1
  Ga  Ga18  1  0.342466  0.546575  0.250000  1
  Ga  Ga19  1  0.657593  0.453528  0.750000  1
  Ga  Ga20  1  0.542305  0.335705  0.250000  1
  Ga  Ga21  1  0.457673  0.664251  0.750000  1
  Ir  Ir22  1  0.675311  0.331776  0.000265  1
  Ir  Ir23  1  0.324696  0.668219  0.999854  1
  Ir  Ir24  1  0.324696  0.668219  0.500146  1
  Ir  Ir25  1  0.675311  0.331776  0.499735  1
  Ir  Ir26  1  0.999970  0.999980  0.000070  1
  Ir  Ir27  1  0.999970  0.999980  0.499930  1
