# generated using pymatgen
data_Zr3MnI12
_symmetry_space_group_name_H-M   'P 1'
_cell_length_a   6.71679501
_cell_length_b   7.97173501
_cell_length_c   13.85628100
_cell_angle_alpha   90.00000000
_cell_angle_beta   90.00000000
_cell_angle_gamma   89.99457032
_symmetry_Int_Tables_number   1
_chemical_formula_structural   Zr3MnI12
_chemical_formula_sum   'Zr3 Mn1 I12'
_cell_volume   741.92777201
_cell_formula_units_Z   1
loop_
 _symmetry_equiv_pos_site_id
 _symmetry_equiv_pos_as_xyz
  1  'x, y, z'
loop_
 _atom_site_type_symbol
 _atom_site_label
 _atom_site_symmetry_multiplicity
 _atom_site_fract_x
 _atom_site_fract_y
 _atom_site_fract_z
 _atom_site_occupancy
  Zr  Zr0  1  0.750343  0.752119  0.500000  1
  Zr  Zr1  1  0.254809  0.247755  0.000000  1
  Zr  Zr2  1  0.745299  0.247735  0.000000  1
  Mn  Mn3  1  0.248776  0.752291  0.500000  1
  I  I4  1  0.000485  0.604988  0.646509  1
  I  I5  1  0.000653  0.045162  0.500000  1
  I  I6  1  0.999927  0.098997  0.850763  1
  I  I7  1  0.999927  0.098997  0.149237  1
  I  I8  1  0.499648  0.899020  0.353484  1
  I  I9  1  0.500192  0.398552  0.150666  1
  I  I10  1  0.499503  0.459268  0.500000  1
  I  I11  1  0.499648  0.899020  0.646516  1
  I  I12  1  0.500192  0.398552  0.849334  1
  I  I13  1  0.499942  0.945440  0.000000  1
  I  I14  1  0.000170  0.547118  0.000000  1
  I  I15  1  0.000485  0.604988  0.353491  1
