# generated using pymatgen
data_LiYb4CoC8
_symmetry_space_group_name_H-M   'P 1'
_cell_length_a   6.80266000
_cell_length_b   6.80266023
_cell_length_c   6.80265890
_cell_angle_alpha   134.83423825
_cell_angle_beta   111.87158020
_cell_angle_gamma   85.55019855
_symmetry_Int_Tables_number   1
_chemical_formula_structural   LiYb4CoC8
_chemical_formula_sum   'Li1 Yb4 Co1 C8'
_cell_volume   198.81205497
_cell_formula_units_Z   1
loop_
 _symmetry_equiv_pos_site_id
 _symmetry_equiv_pos_as_xyz
  1  'x, y, z'
loop_
 _atom_site_type_symbol
 _atom_site_label
 _atom_site_symmetry_multiplicity
 _atom_site_fract_x
 _atom_site_fract_y
 _atom_site_fract_z
 _atom_site_occupancy
  Li  Li0  1  0.000000  0.250000  0.250000  1
  Yb  Yb1  1  0.196609  0.351222  0.837313  1
  Yb  Yb2  1  0.803391  0.640705  0.154614  1
  Yb  Yb3  1  0.513908  0.859295  0.662687  1
  Yb  Yb4  1  0.486092  0.148778  0.345386  1
  Co  Co5  1  0.000000  0.750000  0.750000  1
  C  C6  1  0.798460  0.135787  0.680832  1
  C  C7  1  0.201540  0.882370  0.337325  1
  C  C8  1  0.454954  0.617630  0.819168  1
  C  C9  1  0.545046  0.364213  0.162675  1
  C  C10  1  0.909016  0.019534  0.758016  1
  C  C11  1  0.090984  0.849000  0.110518  1
  C  C12  1  0.261519  0.651000  0.741984  1
  C  C13  1  0.738481  0.480466  0.389482  1
