# generated using pymatgen
data_DyThIr4
_symmetry_space_group_name_H-M   'P 1'
_cell_length_a   5.41668987
_cell_length_b   5.41669072
_cell_length_c   5.41669100
_cell_angle_alpha   60.00000440
_cell_angle_beta   59.99999924
_cell_angle_gamma   60.00001171
_symmetry_Int_Tables_number   1
_chemical_formula_structural   DyThIr4
_chemical_formula_sum   'Dy1 Th1 Ir4'
_cell_volume   112.37950754
_cell_formula_units_Z   1
loop_
 _symmetry_equiv_pos_site_id
 _symmetry_equiv_pos_as_xyz
  1  'x, y, z'
loop_
 _atom_site_type_symbol
 _atom_site_label
 _atom_site_symmetry_multiplicity
 _atom_site_fract_x
 _atom_site_fract_y
 _atom_site_fract_z
 _atom_site_occupancy
  Dy  Dy0  1  0.500000  0.500000  0.500000  1
  Th  Th1  1  0.750000  0.750000  0.750000  1
  Ir  Ir2  1  0.125547  0.623360  0.125547  1
  Ir  Ir3  1  0.125547  0.125547  0.623360  1
  Ir  Ir4  1  0.623360  0.125547  0.125547  1
  Ir  Ir5  1  0.125547  0.125547  0.125547  1
