# generated using pymatgen
data_Tb16Lu4Ir11Ru
_symmetry_space_group_name_H-M   'P 1'
_cell_length_a   10.87885900
_cell_length_b   10.87885900
_cell_length_c   6.37186800
_cell_angle_alpha   90.00000000
_cell_angle_beta   90.00000000
_cell_angle_gamma   90.00000000
_symmetry_Int_Tables_number   1
_chemical_formula_structural   Tb16Lu4Ir11Ru
_chemical_formula_sum   'Tb16 Lu4 Ir11 Ru1'
_cell_volume   754.10785792
_cell_formula_units_Z   1
loop_
 _symmetry_equiv_pos_site_id
 _symmetry_equiv_pos_as_xyz
  1  'x, y, z'
loop_
 _atom_site_type_symbol
 _atom_site_label
 _atom_site_symmetry_multiplicity
 _atom_site_fract_x
 _atom_site_fract_y
 _atom_site_fract_z
 _atom_site_occupancy
  Tb  Tb0  1  0.291093  0.087013  0.377857  1
  Tb  Tb1  1  0.291364  0.912941  0.880118  1
  Tb  Tb2  1  0.708636  0.087059  0.880118  1
  Tb  Tb3  1  0.708907  0.912987  0.377857  1
  Tb  Tb4  1  0.587059  0.791364  0.880118  1
  Tb  Tb5  1  0.587013  0.208907  0.377857  1
  Tb  Tb6  1  0.412987  0.791093  0.377857  1
  Tb  Tb7  1  0.412941  0.208636  0.880118  1
  Tb  Tb8  1  0.210174  0.412079  0.621249  1
  Tb  Tb9  1  0.210134  0.587823  0.120913  1
  Tb  Tb10  1  0.789866  0.412177  0.120913  1
  Tb  Tb11  1  0.789826  0.587921  0.621249  1
  Tb  Tb12  1  0.912177  0.710134  0.120913  1
  Tb  Tb13  1  0.912079  0.289826  0.621249  1
  Tb  Tb14  1  0.087921  0.710174  0.621249  1
  Tb  Tb15  1  0.087823  0.289866  0.120913  1
  Lu  Lu16  1  0.000000  0.000000  0.499480  1
  Lu  Lu17  1  0.000000  0.000000  0.999776  1
  Lu  Lu18  1  0.500000  0.500000  0.999776  1
  Lu  Lu19  1  0.500000  0.500000  0.499480  1
  Ir  Ir20  1  0.850265  0.150706  0.249955  1
  Ir  Ir21  1  0.850238  0.849741  0.749560  1
  Ir  Ir22  1  0.149762  0.150259  0.749560  1
  Ir  Ir23  1  0.149735  0.849294  0.249955  1
  Ir  Ir24  1  0.650259  0.350238  0.749560  1
  Ir  Ir25  1  0.650706  0.649735  0.249955  1
  Ir  Ir26  1  0.349294  0.350265  0.249955  1
  Ir  Ir27  1  0.349741  0.649762  0.749560  1
  Ir  Ir28  1  0.500000  0.000000  0.624239  1
  Ir  Ir29  1  0.000000  0.500000  0.876954  1
  Ir  Ir30  1  0.000000  0.500000  0.377116  1
  Ru  Ru31  1  0.500000  0.000000  0.124573  1
