# generated using pymatgen
data_U2SbH4
_symmetry_space_group_name_H-M   'P 1'
_cell_length_a   6.10231730
_cell_length_b   6.10231907
_cell_length_c   6.10231735
_cell_angle_alpha   107.07681377
_cell_angle_beta   107.07681276
_cell_angle_gamma   114.37410987
_symmetry_Int_Tables_number   1
_chemical_formula_structural   U2SbH4
_chemical_formula_sum   'U4 Sb2 H8'
_cell_volume   173.96020532
_cell_formula_units_Z   2
loop_
 _symmetry_equiv_pos_site_id
 _symmetry_equiv_pos_as_xyz
  1  'x, y, z'
loop_
 _atom_site_type_symbol
 _atom_site_label
 _atom_site_symmetry_multiplicity
 _atom_site_fract_x
 _atom_site_fract_y
 _atom_site_fract_z
 _atom_site_occupancy
  U  U0  1  0.838214  0.661786  0.500000  1
  U  U1  1  0.661786  0.161786  0.823571  1
  U  U2  1  0.161786  0.338214  0.500000  1
  U  U3  1  0.338214  0.838214  0.176429  1
  Sb  Sb4  1  0.750000  0.750000  0.000000  1
  Sb  Sb5  1  0.250000  0.250000  0.000000  1
  H  H6  1  0.221307  0.975204  0.500000  1
  H  H7  1  0.475204  0.721307  0.500000  1
  H  H8  1  0.721307  0.221307  0.246104  1
  H  H9  1  0.975204  0.475204  0.753896  1
  H  H10  1  0.278693  0.778693  0.753896  1
  H  H11  1  0.524796  0.278693  0.500000  1
  H  H12  1  0.024796  0.524796  0.246104  1
  H  H13  1  0.778693  0.024796  0.500000  1
