# generated using pymatgen
data_Tb4Pd3PtO14
_symmetry_space_group_name_H-M   'P 1'
_cell_length_a   7.27550304
_cell_length_b   7.27550262
_cell_length_c   7.27550319
_cell_angle_alpha   60.02115871
_cell_angle_beta   60.02116322
_cell_angle_gamma   60.02116551
_symmetry_Int_Tables_number   1
_chemical_formula_structural   Tb4Pd3PtO14
_chemical_formula_sum   'Tb4 Pd3 Pt1 O14'
_cell_volume   272.44720992
_cell_formula_units_Z   1
loop_
 _symmetry_equiv_pos_site_id
 _symmetry_equiv_pos_as_xyz
  1  'x, y, z'
loop_
 _atom_site_type_symbol
 _atom_site_label
 _atom_site_symmetry_multiplicity
 _atom_site_fract_x
 _atom_site_fract_y
 _atom_site_fract_z
 _atom_site_occupancy
  Tb  Tb0  1  0.625000  0.625000  0.125000  1
  Tb  Tb1  1  0.625000  0.625000  0.625000  1
  Tb  Tb2  1  0.625000  0.125000  0.625000  1
  Tb  Tb3  1  0.125000  0.625000  0.625000  1
  Pd  Pd4  1  0.625000  0.125000  0.125000  1
  Pd  Pd5  1  0.125000  0.625000  0.125000  1
  Pd  Pd6  1  0.125000  0.125000  0.625000  1
  Pt  Pt7  1  0.125000  0.125000  0.125000  1
  O  O8  1  0.035269  0.464783  0.464783  1
  O  O9  1  0.785217  0.785217  0.214731  1
  O  O10  1  0.786079  0.215067  0.215067  1
  O  O11  1  0.464783  0.035269  0.464783  1
  O  O12  1  0.034933  0.463921  0.034933  1
  O  O13  1  0.750068  0.750068  0.750068  1
  O  O14  1  0.034933  0.034933  0.463921  1
  O  O15  1  0.215067  0.786079  0.215067  1
  O  O16  1  0.215067  0.215067  0.786079  1
  O  O17  1  0.499932  0.499932  0.499932  1
  O  O18  1  0.785217  0.214731  0.785217  1
  O  O19  1  0.463921  0.034933  0.034933  1
  O  O20  1  0.464783  0.464783  0.035269  1
  O  O21  1  0.214731  0.785217  0.785217  1
