# generated using pymatgen
data_Lu3Sc5VTc11Ge16
_symmetry_space_group_name_H-M   'P 1'
_cell_length_a   6.84041915
_cell_length_b   6.87570268
_cell_length_c   12.66445114
_cell_angle_alpha   90.02170628
_cell_angle_beta   89.93678827
_cell_angle_gamma   90.62701724
_symmetry_Int_Tables_number   1
_chemical_formula_structural   Lu3Sc5VTc11Ge16
_chemical_formula_sum   'Lu3 Sc5 V1 Tc11 Ge16'
_cell_volume   595.60711321
_cell_formula_units_Z   1
loop_
 _symmetry_equiv_pos_site_id
 _symmetry_equiv_pos_as_xyz
  1  'x, y, z'
loop_
 _atom_site_type_symbol
 _atom_site_label
 _atom_site_symmetry_multiplicity
 _atom_site_fract_x
 _atom_site_fract_y
 _atom_site_fract_z
 _atom_site_occupancy
  Lu  Lu0  1  0.007996  0.167831  0.089875  1
  Lu  Lu1  1  0.517156  0.331188  0.411114  1
  Lu  Lu2  1  0.488580  0.666330  0.908894  1
  Sc  Sc3  1  0.983803  0.830754  0.592058  1
  Sc  Sc4  1  0.985843  0.828309  0.906010  1
  Sc  Sc5  1  0.484000  0.672258  0.592515  1
  Sc  Sc6  1  0.519316  0.325273  0.092444  1
  Sc  Sc7  1  0.008671  0.171345  0.409313  1
  V  V8  1  0.330908  0.999058  0.749178  1
  Tc  Tc9  1  0.663973  0.020857  0.250088  1
  Tc  Tc10  1  0.179000  0.493643  0.250438  1
  Tc  Tc11  1  0.833851  0.504828  0.749988  1
  Tc  Tc12  1  0.839830  0.644745  0.115382  1
  Tc  Tc13  1  0.304559  0.858997  0.371936  1
  Tc  Tc14  1  0.667142  0.138512  0.874490  1
  Tc  Tc15  1  0.190808  0.354378  0.625349  1
  Tc  Tc16  1  0.188610  0.353865  0.873049  1
  Tc  Tc17  1  0.667330  0.137560  0.625104  1
  Tc  Tc18  1  0.303549  0.860163  0.128941  1
  Tc  Tc19  1  0.838430  0.643454  0.385132  1
  Ge  Ge20  1  0.817546  0.363459  0.250872  1
  Ge  Ge21  1  0.308443  0.155781  0.250322  1
  Ge  Ge22  1  0.687806  0.847198  0.748144  1
  Ge  Ge23  1  0.187563  0.656496  0.748452  1
  Ge  Ge24  1  0.008147  0.865040  0.252083  1
  Ge  Ge25  1  0.528043  0.650206  0.248184  1
  Ge  Ge26  1  0.484362  0.362625  0.748223  1
  Ge  Ge27  1  0.976100  0.135940  0.749674  1
  Ge  Ge28  1  0.836318  0.445197  0.947702  1
  Ge  Ge29  1  0.319506  0.041939  0.548659  1
  Ge  Ge30  1  0.661528  0.944060  0.050606  1
  Ge  Ge31  1  0.176304  0.548629  0.453102  1
  Ge  Ge32  1  0.179985  0.546617  0.048653  1
  Ge  Ge33  1  0.665311  0.942569  0.450434  1
  Ge  Ge34  1  0.323227  0.045204  0.950357  1
  Ge  Ge35  1  0.836456  0.445696  0.553232  1
