# generated using pymatgen
data_Zr4Ni4IrPb
_symmetry_space_group_name_H-M   'P 1'
_cell_length_a   7.13473600
_cell_length_b   7.13473600
_cell_length_c   3.32587500
_cell_angle_alpha   90.00000000
_cell_angle_beta   90.00000000
_cell_angle_gamma   90.00000000
_symmetry_Int_Tables_number   1
_chemical_formula_structural   Zr4Ni4IrPb
_chemical_formula_sum   'Zr4 Ni4 Ir1 Pb1'
_cell_volume   169.30186355
_cell_formula_units_Z   1
loop_
 _symmetry_equiv_pos_site_id
 _symmetry_equiv_pos_as_xyz
  1  'x, y, z'
loop_
 _atom_site_type_symbol
 _atom_site_label
 _atom_site_symmetry_multiplicity
 _atom_site_fract_x
 _atom_site_fract_y
 _atom_site_fract_z
 _atom_site_occupancy
  Zr  Zr0  1  0.805510  0.652087  0.500000  1
  Zr  Zr1  1  0.347913  0.805510  0.500000  1
  Zr  Zr2  1  0.652087  0.194490  0.500000  1
  Zr  Zr3  1  0.194490  0.347913  0.500000  1
  Ni  Ni4  1  0.124659  0.622307  0.000000  1
  Ni  Ni5  1  0.622307  0.875341  0.000000  1
  Ni  Ni6  1  0.875341  0.377693  0.000000  1
  Ni  Ni7  1  0.377693  0.124659  0.000000  1
  Ir  Ir8  1  0.500000  0.500000  0.000000  1
  Pb  Pb9  1  0.000000  0.000000  0.000000  1
