# generated using pymatgen
data_Ca8YEr(Sn3H)2
_symmetry_space_group_name_H-M   'P 1'
_cell_length_a   9.44574987
_cell_length_b   9.42928652
_cell_length_c   9.44153427
_cell_angle_alpha   129.24948822
_cell_angle_beta   129.21259160
_cell_angle_gamma   74.58150709
_symmetry_Int_Tables_number   1
_chemical_formula_structural   Ca8YEr(Sn3H)2
_chemical_formula_sum   'Ca8 Y1 Er1 Sn6 H2'
_cell_volume   491.79469721
_cell_formula_units_Z   1
loop_
 _symmetry_equiv_pos_site_id
 _symmetry_equiv_pos_as_xyz
  1  'x, y, z'
loop_
 _atom_site_type_symbol
 _atom_site_label
 _atom_site_symmetry_multiplicity
 _atom_site_fract_x
 _atom_site_fract_y
 _atom_site_fract_z
 _atom_site_occupancy
  Ca  Ca0  1  0.001177  0.997992  0.000670  1
  Ca  Ca1  1  0.185318  0.685913  0.174055  1
  Ca  Ca2  1  0.007377  0.185304  0.497549  1
  Ca  Ca3  1  0.687243  0.508871  0.500330  1
  Ca  Ca4  1  0.489794  0.989981  0.178325  1
  Ca  Ca5  1  0.812006  0.311879  0.821771  1
  Ca  Ca6  1  0.988772  0.812133  0.499362  1
  Ca  Ca7  1  0.312750  0.488878  0.499532  1
  Y  Y8  1  0.513529  0.015624  0.825376  1
  Er  Er9  1  0.497533  0.501783  0.000362  1
  Sn  Sn10  1  0.261019  0.247771  0.994425  1
  Sn  Sn11  1  0.739936  0.751295  0.995060  1
  Sn  Sn12  1  0.862050  0.371559  0.234382  1
  Sn  Sn13  1  0.131745  0.621262  0.754904  1
  Sn  Sn14  1  0.373859  0.133472  0.512900  1
  Sn  Sn15  1  0.623620  0.864543  0.494896  1
  H  H16  1  0.262096  0.761836  0.513552  1
  H  H17  1  0.750176  0.249905  0.502549  1
