# generated using pymatgen
data_Ta3Nb9Al6Ga2(NiN)4
_symmetry_space_group_name_H-M   'P 1'
_cell_length_a   8.21918668
_cell_length_b   8.21918518
_cell_length_c   8.22125800
_cell_angle_alpha   59.99166523
_cell_angle_beta   59.99167126
_cell_angle_gamma   60.01470750
_symmetry_Int_Tables_number   1
_chemical_formula_structural   Ta3Nb9Al6Ga2(NiN)4
_chemical_formula_sum   'Ta3 Nb9 Al6 Ga2 Ni4 N4'
_cell_volume   392.71222646
_cell_formula_units_Z   1
loop_
 _symmetry_equiv_pos_site_id
 _symmetry_equiv_pos_as_xyz
  1  'x, y, z'
loop_
 _atom_site_type_symbol
 _atom_site_label
 _atom_site_symmetry_multiplicity
 _atom_site_fract_x
 _atom_site_fract_y
 _atom_site_fract_z
 _atom_site_occupancy
  Ta  Ta0  1  0.813149  0.812521  0.186937  1
  Ta  Ta1  1  0.185971  0.186750  0.813819  1
  Ta  Ta2  1  0.813547  0.187198  0.813376  1
  Nb  Nb3  1  0.188202  0.812302  0.187258  1
  Nb  Nb4  1  0.187652  0.812375  0.812841  1
  Nb  Nb5  1  0.812978  0.188167  0.186439  1
  Nb  Nb6  1  0.436422  0.437051  0.063179  1
  Nb  Nb7  1  0.062054  0.062098  0.437598  1
  Nb  Nb8  1  0.436400  0.063264  0.437443  1
  Nb  Nb9  1  0.062246  0.437533  0.061802  1
  Nb  Nb10  1  0.062344  0.437670  0.438030  1
  Nb  Nb11  1  0.436924  0.062445  0.062022  1
  Al  Al12  1  0.748421  0.417082  0.417142  1
  Al  Al13  1  0.417230  0.748188  0.417556  1
  Al  Al14  1  0.417416  0.417726  0.748043  1
  Al  Al15  1  0.417782  0.417398  0.417008  1
  Al  Al16  1  0.502474  0.832849  0.832014  1
  Al  Al17  1  0.832664  0.502983  0.832371  1
  Ga  Ga18  1  0.833518  0.834010  0.498893  1
  Ga  Ga19  1  0.833858  0.833615  0.833352  1
  Ni  Ni20  1  0.127766  0.620724  0.625668  1
  Ni  Ni21  1  0.621659  0.128268  0.626747  1
  Ni  Ni22  1  0.625263  0.625442  0.125326  1
  Ni  Ni23  1  0.626436  0.622669  0.625024  1
  N  N24  1  0.628093  0.122259  0.123332  1
  N  N25  1  0.121743  0.626713  0.125730  1
  N  N26  1  0.122697  0.125513  0.627521  1
  N  N27  1  0.125095  0.125189  0.123526  1
