# generated using pymatgen
data_Ho4PBr6
_symmetry_space_group_name_H-M   'P 1'
_cell_length_a   3.97685600
_cell_length_b   13.02882800
_cell_length_c   13.74336900
_cell_angle_alpha   90.00000000
_cell_angle_beta   90.00000000
_cell_angle_gamma   90.00000000
_symmetry_Int_Tables_number   1
_chemical_formula_structural   Ho4PBr6
_chemical_formula_sum   'Ho8 P2 Br12'
_cell_volume   712.09579894
_cell_formula_units_Z   2
loop_
 _symmetry_equiv_pos_site_id
 _symmetry_equiv_pos_as_xyz
  1  'x, y, z'
loop_
 _atom_site_type_symbol
 _atom_site_label
 _atom_site_symmetry_multiplicity
 _atom_site_fract_x
 _atom_site_fract_y
 _atom_site_fract_z
 _atom_site_occupancy
  Ho  Ho0  1  0.500000  0.117320  0.342779  1
  Ho  Ho1  1  0.500000  0.882680  0.657221  1
  Ho  Ho2  1  0.500000  0.617320  0.157221  1
  Ho  Ho3  1  0.500000  0.382680  0.842779  1
  Ho  Ho4  1  0.000000  0.115035  0.576378  1
  Ho  Ho5  1  0.000000  0.884965  0.423622  1
  Ho  Ho6  1  0.000000  0.615035  0.923622  1
  Ho  Ho7  1  0.000000  0.384965  0.076378  1
  P  P8  1  0.500000  0.000000  0.500000  1
  P  P9  1  0.500000  0.500000  0.000000  1
  Br  Br10  1  0.500000  0.242871  0.162602  1
  Br  Br11  1  0.500000  0.757129  0.837398  1
  Br  Br12  1  0.500000  0.742871  0.337398  1
  Br  Br13  1  0.500000  0.257129  0.662602  1
  Br  Br14  1  0.000000  0.257463  0.412278  1
  Br  Br15  1  0.000000  0.742537  0.587722  1
  Br  Br16  1  0.000000  0.757463  0.087722  1
  Br  Br17  1  0.000000  0.242537  0.912278  1
  Br  Br18  1  0.000000  0.000212  0.241433  1
  Br  Br19  1  0.000000  0.999788  0.758567  1
  Br  Br20  1  0.000000  0.500212  0.258567  1
  Br  Br21  1  0.000000  0.499788  0.741433  1
