# generated using pymatgen
data_Mg2AlPd5
_symmetry_space_group_name_H-M   'P 1'
_cell_length_a   4.17337400
_cell_length_b   5.51468200
_cell_length_c   10.69629200
_cell_angle_alpha   90.00000000
_cell_angle_beta   90.00000000
_cell_angle_gamma   90.00000000
_symmetry_Int_Tables_number   1
_chemical_formula_structural   Mg2AlPd5
_chemical_formula_sum   'Mg4 Al2 Pd10'
_cell_volume   246.17334711
_cell_formula_units_Z   2
loop_
 _symmetry_equiv_pos_site_id
 _symmetry_equiv_pos_as_xyz
  1  'x, y, z'
loop_
 _atom_site_type_symbol
 _atom_site_label
 _atom_site_symmetry_multiplicity
 _atom_site_fract_x
 _atom_site_fract_y
 _atom_site_fract_z
 _atom_site_occupancy
  Mg  Mg0  1  0.500000  0.163798  0.358922  1
  Mg  Mg1  1  0.500000  0.836202  0.641078  1
  Mg  Mg2  1  0.500000  0.663798  0.141078  1
  Mg  Mg3  1  0.500000  0.336202  0.858922  1
  Al  Al4  1  0.000000  0.000000  0.000000  1
  Al  Al5  1  0.000000  0.500000  0.500000  1
  Pd  Pd6  1  0.500000  0.176117  0.105092  1
  Pd  Pd7  1  0.500000  0.823883  0.894908  1
  Pd  Pd8  1  0.500000  0.676117  0.394908  1
  Pd  Pd9  1  0.500000  0.323883  0.605092  1
  Pd  Pd10  1  0.000000  0.000000  0.500000  1
  Pd  Pd11  1  0.000000  0.500000  0.000000  1
  Pd  Pd12  1  0.000000  0.910868  0.237350  1
  Pd  Pd13  1  0.000000  0.089132  0.762650  1
  Pd  Pd14  1  0.000000  0.410868  0.262650  1
  Pd  Pd15  1  0.000000  0.589132  0.737350  1
