# generated using pymatgen
data_SrEu(GaP)4
_symmetry_space_group_name_H-M   'P 1'
_cell_length_a   3.93204200
_cell_length_b   9.38671950
_cell_length_c   12.21951627
_cell_angle_alpha   95.43027648
_cell_angle_beta   90.00000000
_cell_angle_gamma   90.00000000
_symmetry_Int_Tables_number   1
_chemical_formula_structural   SrEu(GaP)4
_chemical_formula_sum   'Sr2 Eu2 Ga8 P8'
_cell_volume   448.98573587
_cell_formula_units_Z   2
loop_
 _symmetry_equiv_pos_site_id
 _symmetry_equiv_pos_as_xyz
  1  'x, y, z'
loop_
 _atom_site_type_symbol
 _atom_site_label
 _atom_site_symmetry_multiplicity
 _atom_site_fract_x
 _atom_site_fract_y
 _atom_site_fract_z
 _atom_site_occupancy
  Sr  Sr0  1  0.000000  0.194938  0.279608  1
  Sr  Sr1  1  0.000000  0.805062  0.720392  1
  Eu  Eu2  1  0.500000  0.000000  0.000000  1
  Eu  Eu3  1  0.500000  0.500000  0.500000  1
  Ga  Ga4  1  0.500000  0.395062  0.056111  1
  Ga  Ga5  1  0.500000  0.604938  0.943889  1
  Ga  Ga6  1  0.500000  0.887268  0.433730  1
  Ga  Ga7  1  0.500000  0.112732  0.566270  1
  Ga  Ga8  1  0.000000  0.597599  0.279712  1
  Ga  Ga9  1  0.000000  0.402401  0.720288  1
  Ga  Ga10  1  0.000000  0.803097  0.172557  1
  Ga  Ga11  1  0.000000  0.196903  0.827443  1
  P  P12  1  0.500000  0.443620  0.257407  1
  P  P13  1  0.500000  0.556380  0.742593  1
  P  P14  1  0.000000  0.265881  0.537028  1
  P  P15  1  0.000000  0.734119  0.462972  1
  P  P16  1  0.500000  0.943851  0.238855  1
  P  P17  1  0.500000  0.056149  0.761145  1
  P  P18  1  0.000000  0.238178  0.026512  1
  P  P19  1  0.000000  0.761822  0.973488  1
