# generated using pymatgen
data_LuBeBOs
_symmetry_space_group_name_H-M   'P 1'
_cell_length_a   5.37088700
_cell_length_b   6.00483900
_cell_length_c   6.38453700
_cell_angle_alpha   90.00000000
_cell_angle_beta   90.00000000
_cell_angle_gamma   90.00000000
_symmetry_Int_Tables_number   1
_chemical_formula_structural   LuBeBOs
_chemical_formula_sum   'Lu4 Be4 B4 Os4'
_cell_volume   205.90969299
_cell_formula_units_Z   4
loop_
 _symmetry_equiv_pos_site_id
 _symmetry_equiv_pos_as_xyz
  1  'x, y, z'
loop_
 _atom_site_type_symbol
 _atom_site_label
 _atom_site_symmetry_multiplicity
 _atom_site_fract_x
 _atom_site_fract_y
 _atom_site_fract_z
 _atom_site_occupancy
  Lu  Lu0  1  0.257468  0.004046  0.345986  1
  Lu  Lu1  1  0.242532  0.504046  0.154014  1
  Lu  Lu2  1  0.757468  0.995954  0.654014  1
  Lu  Lu3  1  0.742532  0.495954  0.845986  1
  Be  Be4  1  0.062833  0.360027  0.539946  1
  Be  Be5  1  0.437167  0.860027  0.960054  1
  Be  Be6  1  0.562833  0.639973  0.460054  1
  Be  Be7  1  0.937167  0.139973  0.039946  1
  B  B8  1  0.933316  0.645329  0.451018  1
  B  B9  1  0.566684  0.145329  0.048982  1
  B  B10  1  0.433316  0.354671  0.548982  1
  B  B11  1  0.066684  0.854671  0.951018  1
  Os  Os12  1  0.265844  0.175439  0.811896  1
  Os  Os13  1  0.234156  0.675439  0.688104  1
  Os  Os14  1  0.765844  0.824561  0.188104  1
  Os  Os15  1  0.734156  0.324561  0.311896  1
