# generated using pymatgen
data_NaZrNi12As7
_symmetry_space_group_name_H-M   'P 1'
_cell_length_a   9.32942500
_cell_length_b   9.32942434
_cell_length_c   3.73285000
_cell_angle_alpha   90.00000000
_cell_angle_beta   90.00000000
_cell_angle_gamma   120.00000589
_symmetry_Int_Tables_number   1
_chemical_formula_structural   NaZrNi12As7
_chemical_formula_sum   'Na1 Zr1 Ni12 As7'
_cell_volume   281.37199460
_cell_formula_units_Z   1
loop_
 _symmetry_equiv_pos_site_id
 _symmetry_equiv_pos_as_xyz
  1  'x, y, z'
loop_
 _atom_site_type_symbol
 _atom_site_label
 _atom_site_symmetry_multiplicity
 _atom_site_fract_x
 _atom_site_fract_y
 _atom_site_fract_z
 _atom_site_occupancy
  Na  Na0  1  0.333333  0.666667  0.500000  1
  Zr  Zr1  1  0.000000  0.000000  0.000000  1
  Ni  Ni2  1  0.821546  0.614667  0.000000  1
  Ni  Ni3  1  0.385333  0.206880  0.000000  1
  Ni  Ni4  1  0.793120  0.178454  0.000000  1
  Ni  Ni5  1  0.041479  0.758838  0.500000  1
  Ni  Ni6  1  0.241162  0.282641  0.500000  1
  Ni  Ni7  1  0.717359  0.958521  0.500000  1
  Ni  Ni8  1  0.104241  0.383362  0.000000  1
  Ni  Ni9  1  0.616638  0.720880  0.000000  1
  Ni  Ni10  1  0.279120  0.895759  0.000000  1
  Ni  Ni11  1  0.878778  0.425840  0.500000  1
  Ni  Ni12  1  0.574160  0.452938  0.500000  1
  Ni  Ni13  1  0.547062  0.121222  0.500000  1
  As  As14  1  0.666667  0.333333  0.000000  1
  As  As15  1  0.782720  0.748157  0.500000  1
  As  As16  1  0.251843  0.034563  0.500000  1
  As  As17  1  0.965437  0.217280  0.500000  1
  As  As18  1  0.074208  0.616606  0.000000  1
  As  As19  1  0.383394  0.457601  0.000000  1
  As  As20  1  0.542399  0.925792  0.000000  1
