# generated using pymatgen
data_Sm3MgCd2Sn2Au
_symmetry_space_group_name_H-M   'P 1'
_cell_length_a   7.58123438
_cell_length_b   7.58123426
_cell_length_c   4.61828400
_cell_angle_alpha   90.00000000
_cell_angle_beta   90.00000000
_cell_angle_gamma   120.61554868
_symmetry_Int_Tables_number   1
_chemical_formula_structural   Sm3MgCd2Sn2Au
_chemical_formula_sum   'Sm3 Mg1 Cd2 Sn2 Au1'
_cell_volume   228.43558739
_cell_formula_units_Z   1
loop_
 _symmetry_equiv_pos_site_id
 _symmetry_equiv_pos_as_xyz
  1  'x, y, z'
loop_
 _atom_site_type_symbol
 _atom_site_label
 _atom_site_symmetry_multiplicity
 _atom_site_fract_x
 _atom_site_fract_y
 _atom_site_fract_z
 _atom_site_occupancy
  Sm  Sm0  1  0.592822  0.002398  0.000000  1
  Sm  Sm1  1  0.002398  0.592822  0.000000  1
  Sm  Sm2  1  0.403205  0.403205  0.000000  1
  Mg  Mg3  1  0.772007  0.772007  0.500000  1
  Cd  Cd4  1  0.239725  0.998647  0.500000  1
  Cd  Cd5  1  0.998647  0.239725  0.500000  1
  Sn  Sn6  1  0.338337  0.667223  0.500000  1
  Sn  Sn7  1  0.667223  0.338337  0.500000  1
  Au  Au8  1  0.985637  0.985637  0.000000  1
