# generated using pymatgen
data_YbPu9O20
_symmetry_space_group_name_H-M   'P 1'
_cell_length_a   6.57597674
_cell_length_b   7.57577533
_cell_length_c   8.47500131
_cell_angle_alpha   102.85790380
_cell_angle_beta   97.43831600
_cell_angle_gamma   106.77246513
_symmetry_Int_Tables_number   1
_chemical_formula_structural   YbPu9O20
_chemical_formula_sum   'Yb1 Pu9 O20'
_cell_volume   385.53420362
_cell_formula_units_Z   1
loop_
 _symmetry_equiv_pos_site_id
 _symmetry_equiv_pos_as_xyz
  1  'x, y, z'
loop_
 _atom_site_type_symbol
 _atom_site_label
 _atom_site_symmetry_multiplicity
 _atom_site_fract_x
 _atom_site_fract_y
 _atom_site_fract_z
 _atom_site_occupancy
  Yb  Yb0  1  0.000000  0.000000  0.000000  1
  Pu  Pu1  1  0.800647  0.601877  0.602287  1
  Pu  Pu2  1  0.000000  0.500000  0.000000  1
  Pu  Pu3  1  0.599701  0.198521  0.198468  1
  Pu  Pu4  1  0.799879  0.099623  0.602546  1
  Pu  Pu5  1  0.603806  0.701863  0.199275  1
  Pu  Pu6  1  0.199353  0.398123  0.397713  1
  Pu  Pu7  1  0.396194  0.298137  0.800725  1
  Pu  Pu8  1  0.200121  0.900377  0.397454  1
  Pu  Pu9  1  0.400299  0.801479  0.801532  1
  O  O10  1  0.849943  0.324903  0.454413  1
  O  O11  1  0.639369  0.921514  0.053462  1
  O  O12  1  0.853040  0.827431  0.451321  1
  O  O13  1  0.949678  0.766075  0.155007  1
  O  O14  1  0.445225  0.521264  0.649759  1
  O  O15  1  0.646657  0.425626  0.048338  1
  O  O16  1  0.743133  0.373068  0.751222  1
  O  O17  1  0.259937  0.129030  0.257507  1
  O  O18  1  0.947351  0.285986  0.155404  1
  O  O19  1  0.553805  0.974219  0.352880  1
  O  O20  1  0.052649  0.714014  0.844596  1
  O  O21  1  0.446195  0.025781  0.647120  1
  O  O22  1  0.740063  0.870970  0.742493  1
  O  O23  1  0.353343  0.574374  0.951662  1
  O  O24  1  0.256867  0.626932  0.248778  1
  O  O25  1  0.050322  0.233925  0.844993  1
  O  O26  1  0.554775  0.478736  0.350241  1
  O  O27  1  0.146960  0.172569  0.548679  1
  O  O28  1  0.360631  0.078486  0.946538  1
  O  O29  1  0.150057  0.675097  0.545587  1
