# generated using pymatgen
data_BaAg3(NO3)8
_symmetry_space_group_name_H-M   'P 1'
_cell_length_a   8.10956512
_cell_length_b   8.10956615
_cell_length_c   8.10956489
_cell_angle_alpha   86.71121394
_cell_angle_beta   86.71121906
_cell_angle_gamma   86.71121078
_symmetry_Int_Tables_number   1
_chemical_formula_structural   BaAg3(NO3)8
_chemical_formula_sum   'Ba1 Ag3 N8 O24'
_cell_volume   530.78774629
_cell_formula_units_Z   1
loop_
 _symmetry_equiv_pos_site_id
 _symmetry_equiv_pos_as_xyz
  1  'x, y, z'
loop_
 _atom_site_type_symbol
 _atom_site_label
 _atom_site_symmetry_multiplicity
 _atom_site_fract_x
 _atom_site_fract_y
 _atom_site_fract_z
 _atom_site_occupancy
  Ba  Ba0  1  0.500000  0.500000  0.500000  1
  Ag  Ag1  1  0.500000  0.000000  0.000000  1
  Ag  Ag2  1  0.000000  0.000000  0.500000  1
  Ag  Ag3  1  0.000000  0.500000  0.000000  1
  N  N4  1  0.658819  0.876296  0.322709  1
  N  N5  1  0.341181  0.123704  0.677291  1
  N  N6  1  0.166224  0.166224  0.166224  1
  N  N7  1  0.876296  0.322709  0.658819  1
  N  N8  1  0.322709  0.658819  0.876296  1
  N  N9  1  0.833776  0.833776  0.833776  1
  N  N10  1  0.123704  0.677291  0.341181  1
  N  N11  1  0.677291  0.341181  0.123704  1
  O  O12  1  0.045819  0.181349  0.271438  1
  O  O13  1  0.787031  0.454053  0.674462  1
  O  O14  1  0.289309  0.738848  0.000572  1
  O  O15  1  0.954181  0.818651  0.728562  1
  O  O16  1  0.212969  0.545947  0.325538  1
  O  O17  1  0.710691  0.261152  0.999428  1
  O  O18  1  0.271438  0.045819  0.181349  1
  O  O19  1  0.831094  0.221505  0.553076  1
  O  O20  1  0.454053  0.674462  0.787031  1
  O  O21  1  0.728562  0.954181  0.818651  1
  O  O22  1  0.168906  0.778495  0.446924  1
  O  O23  1  0.545947  0.325538  0.212969  1
  O  O24  1  0.181349  0.271438  0.045819  1
  O  O25  1  0.000572  0.289309  0.738848  1
  O  O26  1  0.221505  0.553076  0.831094  1
  O  O27  1  0.818651  0.728562  0.954181  1
  O  O28  1  0.999428  0.710691  0.261152  1
  O  O29  1  0.778495  0.446924  0.168906  1
  O  O30  1  0.738848  0.000572  0.289309  1
  O  O31  1  0.674462  0.787031  0.454053  1
  O  O32  1  0.553076  0.831094  0.221505  1
  O  O33  1  0.261152  0.999428  0.710691  1
  O  O34  1  0.325538  0.212969  0.545947  1
  O  O35  1  0.446924  0.168906  0.778495  1
