# generated using pymatgen
data_Pa6MnSb8Pt5
_symmetry_space_group_name_H-M   'P 1'
_cell_length_a   8.41427069
_cell_length_b   8.41426971
_cell_length_c   8.41427096
_cell_angle_alpha   109.43217331
_cell_angle_beta   109.54935743
_cell_angle_gamma   109.43216380
_symmetry_Int_Tables_number   1
_chemical_formula_structural   Pa6MnSb8Pt5
_chemical_formula_sum   'Pa6 Mn1 Sb8 Pt5'
_cell_volume   458.59242910
_cell_formula_units_Z   1
loop_
 _symmetry_equiv_pos_site_id
 _symmetry_equiv_pos_as_xyz
  1  'x, y, z'
loop_
 _atom_site_type_symbol
 _atom_site_label
 _atom_site_symmetry_multiplicity
 _atom_site_fract_x
 _atom_site_fract_y
 _atom_site_fract_z
 _atom_site_occupancy
  Pa  Pa0  1  0.875000  0.250000  0.125000  1
  Pa  Pa1  1  0.625000  0.750000  0.375000  1
  Pa  Pa2  1  0.252403  0.130381  0.867597  1
  Pa  Pa3  1  0.737216  0.369619  0.622022  1
  Pa  Pa4  1  0.132403  0.884806  0.262784  1
  Pa  Pa5  1  0.377978  0.615194  0.747597  1
  Mn  Mn6  1  0.375000  0.250000  0.625000  1
  Sb  Sb7  1  0.666781  0.491538  0.985534  1
  Sb  Sb8  1  0.493996  0.008462  0.675243  1
  Sb  Sb9  1  0.000153  0.677207  0.501120  1
  Sb  Sb10  1  0.823914  0.822793  0.822946  1
  Sb  Sb11  1  0.498880  0.999033  0.176086  1
  Sb  Sb12  1  0.177054  0.500967  0.999847  1
  Sb  Sb13  1  0.014466  0.181247  0.506004  1
  Sb  Sb14  1  0.324757  0.318753  0.333219  1
  Pt  Pt15  1  0.125000  0.750000  0.875000  1
  Pt  Pt16  1  0.252533  0.624191  0.376666  1
  Pt  Pt17  1  0.752475  0.875809  0.128342  1
  Pt  Pt18  1  0.623334  0.375867  0.247525  1
  Pt  Pt19  1  0.871658  0.124133  0.747467  1
