# generated using pymatgen
data_K2LiInBi2
_symmetry_space_group_name_H-M   'P 1'
_cell_length_a   11.08839198
_cell_length_b   11.08839272
_cell_length_c   6.97977500
_cell_angle_alpha   90.00000000
_cell_angle_beta   90.00000000
_cell_angle_gamma   100.47778633
_symmetry_Int_Tables_number   1
_chemical_formula_structural   K2LiInBi2
_chemical_formula_sum   'K8 Li4 In4 Bi8'
_cell_volume   843.87066052
_cell_formula_units_Z   4
loop_
 _symmetry_equiv_pos_site_id
 _symmetry_equiv_pos_as_xyz
  1  'x, y, z'
loop_
 _atom_site_type_symbol
 _atom_site_label
 _atom_site_symmetry_multiplicity
 _atom_site_fract_x
 _atom_site_fract_y
 _atom_site_fract_z
 _atom_site_occupancy
  K  K0  1  0.577716  0.922284  0.750000  1
  K  K1  1  0.922284  0.577716  0.250000  1
  K  K2  1  0.422284  0.077716  0.250000  1
  K  K3  1  0.077716  0.422284  0.750000  1
  K  K4  1  0.670195  0.329805  0.770158  1
  K  K5  1  0.829805  0.170195  0.270158  1
  K  K6  1  0.329805  0.670195  0.229842  1
  K  K7  1  0.170195  0.829805  0.729842  1
  Li  Li8  1  0.620828  0.620828  0.000000  1
  Li  Li9  1  0.879172  0.879172  0.500000  1
  Li  Li10  1  0.379172  0.379172  0.000000  1
  Li  Li11  1  0.120828  0.120828  0.500000  1
  In  In12  1  0.868615  0.868615  0.000000  1
  In  In13  1  0.631385  0.631385  0.500000  1
  In  In14  1  0.131385  0.131385  0.000000  1
  In  In15  1  0.368615  0.368615  0.500000  1
  Bi  Bi16  1  0.355947  0.144053  0.750000  1
  Bi  Bi17  1  0.144053  0.355947  0.250000  1
  Bi  Bi18  1  0.644053  0.855947  0.250000  1
  Bi  Bi19  1  0.855947  0.644053  0.750000  1
  Bi  Bi20  1  0.897215  0.102785  0.765190  1
  Bi  Bi21  1  0.602785  0.397215  0.265190  1
  Bi  Bi22  1  0.102785  0.897215  0.234810  1
  Bi  Bi23  1  0.397215  0.602785  0.734810  1
