# generated using pymatgen
data_Y4Ho3Sn23Ru6
_symmetry_space_group_name_H-M   'P 1'
_cell_length_a   9.86053800
_cell_length_b   9.86053765
_cell_length_c   10.07809700
_cell_angle_alpha   90.00000000
_cell_angle_beta   90.00000000
_cell_angle_gamma   120.00000117
_symmetry_Int_Tables_number   1
_chemical_formula_structural   Y4Ho3Sn23Ru6
_chemical_formula_sum   'Y4 Ho3 Sn23 Ru6'
_cell_volume   848.61434230
_cell_formula_units_Z   1
loop_
 _symmetry_equiv_pos_site_id
 _symmetry_equiv_pos_as_xyz
  1  'x, y, z'
loop_
 _atom_site_type_symbol
 _atom_site_label
 _atom_site_symmetry_multiplicity
 _atom_site_fract_x
 _atom_site_fract_y
 _atom_site_fract_z
 _atom_site_occupancy
  Y  Y0  1  0.000000  0.000000  0.000464  1
  Y  Y1  1  0.516050  0.483950  0.696549  1
  Y  Y2  1  0.516050  0.032099  0.696549  1
  Y  Y3  1  0.967901  0.483950  0.696549  1
  Ho  Ho4  1  0.030252  0.515127  0.302563  1
  Ho  Ho5  1  0.484873  0.969748  0.302563  1
  Ho  Ho6  1  0.484873  0.515127  0.302563  1
  Sn  Sn7  1  0.666667  0.333333  0.177258  1
  Sn  Sn8  1  0.666667  0.333333  0.873484  1
  Sn  Sn9  1  0.333333  0.666667  0.128881  1
  Sn  Sn10  1  0.348807  0.348801  0.000214  1
  Sn  Sn11  1  0.999995  0.651193  0.000214  1
  Sn  Sn12  1  0.651199  0.000005  0.000214  1
  Sn  Sn13  1  0.651199  0.651193  0.000214  1
  Sn  Sn14  1  0.333333  0.666667  0.822682  1
  Sn  Sn15  1  0.439310  0.219656  0.462070  1
  Sn  Sn16  1  0.219729  0.780271  0.536962  1
  Sn  Sn17  1  0.219729  0.439457  0.536962  1
  Sn  Sn18  1  0.560543  0.780271  0.536962  1
  Sn  Sn19  1  0.118451  0.881549  0.273799  1
  Sn  Sn20  1  0.780344  0.560690  0.462070  1
  Sn  Sn21  1  0.780344  0.219656  0.462070  1
  Sn  Sn22  1  0.348807  0.000005  0.000214  1
  Sn  Sn23  1  0.118451  0.236903  0.273799  1
  Sn  Sn24  1  0.763097  0.881549  0.273799  1
  Sn  Sn25  1  0.235917  0.117958  0.726577  1
  Sn  Sn26  1  0.882042  0.764083  0.726577  1
  Sn  Sn27  1  0.882042  0.117958  0.726577  1
  Sn  Sn28  1  0.000000  0.000000  0.499827  1
  Sn  Sn29  1  0.999995  0.348801  0.000214  1
  Ru  Ru30  1  0.169869  0.830131  0.797832  1
  Ru  Ru31  1  0.169869  0.339738  0.797832  1
  Ru  Ru32  1  0.660262  0.830131  0.797832  1
  Ru  Ru33  1  0.340068  0.170034  0.202356  1
  Ru  Ru34  1  0.829966  0.659932  0.202356  1
  Ru  Ru35  1  0.829966  0.170034  0.202356  1
