# generated using pymatgen
data_Ho2Tm6B24Ir3Rh
_symmetry_space_group_name_H-M   'P 1'
_cell_length_a   3.61659300
_cell_length_b   9.12108218
_cell_length_c   11.46654404
_cell_angle_alpha   90.03489179
_cell_angle_beta   90.00000000
_cell_angle_gamma   90.00000000
_symmetry_Int_Tables_number   1
_chemical_formula_structural   Ho2Tm6B24Ir3Rh
_chemical_formula_sum   'Ho2 Tm6 B24 Ir3 Rh1'
_cell_volume   378.24959273
_cell_formula_units_Z   1
loop_
 _symmetry_equiv_pos_site_id
 _symmetry_equiv_pos_as_xyz
  1  'x, y, z'
loop_
 _atom_site_type_symbol
 _atom_site_label
 _atom_site_symmetry_multiplicity
 _atom_site_fract_x
 _atom_site_fract_y
 _atom_site_fract_z
 _atom_site_occupancy
  Ho  Ho0  1  0.500000  0.322771  0.412742  1
  Ho  Ho1  1  0.500000  0.677536  0.586302  1
  Tm  Tm2  1  0.500000  0.178685  0.913407  1
  Tm  Tm3  1  0.500000  0.821340  0.087609  1
  Tm  Tm4  1  0.500000  0.445008  0.125902  1
  Tm  Tm5  1  0.500000  0.555744  0.875120  1
  Tm  Tm6  1  0.500000  0.055556  0.625165  1
  Tm  Tm7  1  0.500000  0.943207  0.374019  1
  B  B8  1  0.000000  0.108693  0.469935  1
  B  B9  1  0.000000  0.890884  0.529672  1
  B  B10  1  0.000000  0.390259  0.970136  1
  B  B11  1  0.000000  0.610201  0.030192  1
  B  B12  1  0.000000  0.131727  0.315413  1
  B  B13  1  0.000000  0.868047  0.684050  1
  B  B14  1  0.000000  0.367865  0.816513  1
  B  B15  1  0.000000  0.632661  0.183823  1
  B  B16  1  0.000000  0.053386  0.065791  1
  B  B17  1  0.000000  0.946932  0.934222  1
  B  B18  1  0.000000  0.446280  0.566308  1
  B  B19  1  0.000000  0.553270  0.433841  1
  B  B20  1  0.000000  0.481855  0.286821  1
  B  B21  1  0.000000  0.518034  0.713766  1
  B  B22  1  0.000000  0.018742  0.787015  1
  B  B23  1  0.000000  0.981207  0.212836  1
  B  B24  1  0.000000  0.250212  0.078949  1
  B  B25  1  0.000000  0.750154  0.921207  1
  B  B26  1  0.000000  0.249979  0.579259  1
  B  B27  1  0.000000  0.749580  0.420338  1
  B  B28  1  0.000000  0.293755  0.234340  1
  B  B29  1  0.000000  0.706576  0.765617  1
  B  B30  1  0.000000  0.206123  0.734998  1
  B  B31  1  0.000000  0.793952  0.264340  1
  Ir  Ir32  1  0.500000  0.138215  0.178003  1
  Ir  Ir33  1  0.500000  0.862298  0.821710  1
  Ir  Ir34  1  0.500000  0.360168  0.680540  1
  Rh  Rh35  1  0.500000  0.639099  0.320093  1
