# generated using pymatgen
data_Zr5V3Co13(P4Os)3
_symmetry_space_group_name_H-M   'P 1'
_cell_length_a   12.03786400
_cell_length_b   12.03786570
_cell_length_c   3.66351600
_cell_angle_alpha   90.00000000
_cell_angle_beta   90.00000000
_cell_angle_gamma   119.99999531
_symmetry_Int_Tables_number   1
_chemical_formula_structural   Zr5V3Co13(P4Os)3
_chemical_formula_sum   'Zr5 V3 Co13 P12 Os3'
_cell_volume   459.75628122
_cell_formula_units_Z   1
loop_
 _symmetry_equiv_pos_site_id
 _symmetry_equiv_pos_as_xyz
  1  'x, y, z'
loop_
 _atom_site_type_symbol
 _atom_site_label
 _atom_site_symmetry_multiplicity
 _atom_site_fract_x
 _atom_site_fract_y
 _atom_site_fract_z
 _atom_site_occupancy
  Zr  Zr0  1  0.666667  0.333333  0.000000  1
  Zr  Zr1  1  0.333333  0.666667  0.000000  1
  Zr  Zr2  1  0.820320  0.822310  0.500000  1
  Zr  Zr3  1  0.177690  0.998010  0.500000  1
  Zr  Zr4  1  0.001990  0.179680  0.500000  1
  V  V5  1  0.447879  0.441208  0.000000  1
  V  V6  1  0.558792  0.006671  0.000000  1
  V  V7  1  0.993329  0.552121  0.000000  1
  Co  Co8  1  0.199904  0.366886  0.000000  1
  Co  Co9  1  0.166983  0.800096  0.000000  1
  Co  Co10  1  0.820388  0.625628  0.000000  1
  Co  Co11  1  0.805240  0.179612  0.000000  1
  Co  Co12  1  0.374372  0.194760  0.000000  1
  Co  Co13  1  0.645565  0.512162  0.500000  1
  Co  Co14  1  0.866596  0.354435  0.500000  1
  Co  Co15  1  0.487838  0.133404  0.500000  1
  Co  Co16  1  0.000000  0.000000  0.000000  1
  Co  Co17  1  0.722595  0.006350  0.500000  1
  Co  Co18  1  0.993650  0.716245  0.500000  1
  Co  Co19  1  0.633114  0.833017  0.000000  1
  Co  Co20  1  0.283755  0.277405  0.500000  1
  P  P21  1  0.646114  0.643333  0.000000  1
  P  P22  1  0.356667  0.002781  0.000000  1
  P  P23  1  0.997219  0.353886  0.000000  1
  P  P24  1  0.482452  0.314417  0.500000  1
  P  P25  1  0.685583  0.168035  0.500000  1
  P  P26  1  0.831965  0.517548  0.500000  1
  P  P27  1  0.524684  0.842181  0.500000  1
  P  P28  1  0.157819  0.682503  0.500000  1
  P  P29  1  0.827066  0.003619  0.000000  1
  P  P30  1  0.996381  0.823447  0.000000  1
  P  P31  1  0.317497  0.475316  0.500000  1
  P  P32  1  0.176553  0.172934  0.000000  1
  Os  Os33  1  0.124307  0.476839  0.500000  1
  Os  Os34  1  0.352532  0.875693  0.500000  1
  Os  Os35  1  0.523161  0.647468  0.500000  1
