# generated using pymatgen
data_V4Co4Si3As
_symmetry_space_group_name_H-M   'P 1'
_cell_length_a   3.55982800
_cell_length_b   5.95798890
_cell_length_c   6.86241437
_cell_angle_alpha   90.28729614
_cell_angle_beta   90.00000000
_cell_angle_gamma   90.00000000
_symmetry_Int_Tables_number   1
_chemical_formula_structural   V4Co4Si3As
_chemical_formula_sum   'V4 Co4 Si3 As1'
_cell_volume   145.54596934
_cell_formula_units_Z   1
loop_
 _symmetry_equiv_pos_site_id
 _symmetry_equiv_pos_as_xyz
  1  'x, y, z'
loop_
 _atom_site_type_symbol
 _atom_site_label
 _atom_site_symmetry_multiplicity
 _atom_site_fract_x
 _atom_site_fract_y
 _atom_site_fract_z
 _atom_site_occupancy
  V  V0  1  0.750000  0.467345  0.678825  1
  V  V1  1  0.250000  0.027013  0.174487  1
  V  V2  1  0.750000  0.977277  0.827293  1
  V  V3  1  0.250000  0.523669  0.320313  1
  Co  Co4  1  0.250000  0.641483  0.943940  1
  Co  Co5  1  0.250000  0.147520  0.559529  1
  Co  Co6  1  0.750000  0.860401  0.434286  1
  Co  Co7  1  0.750000  0.356662  0.060686  1
  Si  Si8  1  0.250000  0.266879  0.876922  1
  Si  Si9  1  0.750000  0.234840  0.373586  1
  Si  Si10  1  0.750000  0.733660  0.124414  1
  As  As11  1  0.250000  0.763252  0.625719  1
