# generated using pymatgen
data_Zr10AlHgBi5Pb
_symmetry_space_group_name_H-M   'P 1'
_cell_length_a   8.95152117
_cell_length_b   8.94870136
_cell_length_c   5.98573206
_cell_angle_alpha   89.98430662
_cell_angle_beta   90.00784369
_cell_angle_gamma   119.98957523
_symmetry_Int_Tables_number   1
_chemical_formula_structural   Zr10AlHgBi5Pb
_chemical_formula_sum   'Zr10 Al1 Hg1 Bi5 Pb1'
_cell_volume   415.28893236
_cell_formula_units_Z   1
loop_
 _symmetry_equiv_pos_site_id
 _symmetry_equiv_pos_as_xyz
  1  'x, y, z'
loop_
 _atom_site_type_symbol
 _atom_site_label
 _atom_site_symmetry_multiplicity
 _atom_site_fract_x
 _atom_site_fract_y
 _atom_site_fract_z
 _atom_site_occupancy
  Zr  Zr0  1  0.667047  0.333640  0.000743  1
  Zr  Zr1  1  0.332953  0.666594  0.000743  1
  Zr  Zr2  1  0.332536  0.666164  0.499279  1
  Zr  Zr3  1  0.667464  0.333627  0.499279  1
  Zr  Zr4  1  0.726655  0.726892  0.736363  1
  Zr  Zr5  1  0.273345  0.000237  0.736363  1
  Zr  Zr6  1  0.000000  0.273160  0.736817  1
  Zr  Zr7  1  0.273485  0.273759  0.263471  1
  Zr  Zr8  1  0.726515  0.000273  0.263471  1
  Zr  Zr9  1  0.000000  0.726213  0.263881  1
  Al  Al10  1  0.000000  0.000386  0.499642  1
  Hg  Hg11  1  0.000000  0.000362  0.000376  1
  Bi  Bi12  1  0.384518  0.385170  0.753730  1
  Bi  Bi13  1  0.615482  0.000652  0.753730  1
  Bi  Bi14  1  0.000000  0.614714  0.753823  1
  Bi  Bi15  1  0.615143  0.615097  0.246162  1
  Bi  Bi16  1  0.384857  0.999954  0.246162  1
  Pb  Pb17  1  0.000000  0.383106  0.245965  1
