# generated using pymatgen
data_Pr4Tm(ThSe4)3
_symmetry_space_group_name_H-M   'P 1'
_cell_length_a   4.20070500
_cell_length_b   11.11068864
_cell_length_c   11.44222800
_cell_angle_alpha   90.31286044
_cell_angle_beta   90.00000000
_cell_angle_gamma   90.00000000
_symmetry_Int_Tables_number   1
_chemical_formula_structural   Pr4Tm(ThSe4)3
_chemical_formula_sum   'Pr4 Tm1 Th3 Se12'
_cell_volume   534.03200298
_cell_formula_units_Z   1
loop_
 _symmetry_equiv_pos_site_id
 _symmetry_equiv_pos_as_xyz
  1  'x, y, z'
loop_
 _atom_site_type_symbol
 _atom_site_label
 _atom_site_symmetry_multiplicity
 _atom_site_fract_x
 _atom_site_fract_y
 _atom_site_fract_z
 _atom_site_occupancy
  Pr  Pr0  1  0.750000  0.500545  0.699154  1
  Pr  Pr1  1  0.750000  0.000261  0.193097  1
  Pr  Pr2  1  0.250000  0.503976  0.305829  1
  Pr  Pr3  1  0.250000  0.991990  0.805734  1
  Tm  Tm4  1  0.750000  0.689159  0.011878  1
  Th  Th5  1  0.250000  0.188719  0.486373  1
  Th  Th6  1  0.250000  0.312706  0.986067  1
  Th  Th7  1  0.750000  0.811420  0.513622  1
  Se  Se8  1  0.250000  0.296010  0.727429  1
  Se  Se9  1  0.250000  0.205201  0.226564  1
  Se  Se10  1  0.750000  0.706394  0.269540  1
  Se  Se11  1  0.750000  0.791844  0.772855  1
  Se  Se12  1  0.750000  0.056386  0.619757  1
  Se  Se13  1  0.750000  0.450504  0.117073  1
  Se  Se14  1  0.250000  0.944201  0.379700  1
  Se  Se15  1  0.250000  0.559366  0.887777  1
  Se  Se16  1  0.250000  0.627168  0.546906  1
  Se  Se17  1  0.250000  0.863763  0.043308  1
  Se  Se18  1  0.750000  0.373810  0.453949  1
  Se  Se19  1  0.750000  0.126576  0.953389  1
