# generated using pymatgen
data_SmTh3(Si3Pd)2
_symmetry_space_group_name_H-M   'P 1'
_cell_length_a   8.25058560
_cell_length_b   8.24169627
_cell_length_c   8.47970100
_cell_angle_alpha   90.00000000
_cell_angle_beta   90.00000000
_cell_angle_gamma   119.96435195
_symmetry_Int_Tables_number   1
_chemical_formula_structural   SmTh3(Si3Pd)2
_chemical_formula_sum   'Sm2 Th6 Si12 Pd4'
_cell_volume   499.53789910
_cell_formula_units_Z   2
loop_
 _symmetry_equiv_pos_site_id
 _symmetry_equiv_pos_as_xyz
  1  'x, y, z'
loop_
 _atom_site_type_symbol
 _atom_site_label
 _atom_site_symmetry_multiplicity
 _atom_site_fract_x
 _atom_site_fract_y
 _atom_site_fract_z
 _atom_site_occupancy
  Sm  Sm0  1  0.499890  0.500098  0.750000  1
  Sm  Sm1  1  0.499890  0.999794  0.750000  1
  Th  Th2  1  0.500074  0.499934  0.250000  1
  Th  Th3  1  0.000150  0.500075  0.750000  1
  Th  Th4  1  0.999899  0.499948  0.250000  1
  Th  Th5  1  0.500074  0.000139  0.250000  1
  Th  Th6  1  0.000010  0.000005  0.750000  1
  Th  Th7  1  0.000019  0.000010  0.250000  1
  Si  Si8  1  0.834548  0.166059  0.999524  1
  Si  Si9  1  0.165451  0.833938  0.999911  1
  Si  Si10  1  0.332158  0.166079  0.998615  1
  Si  Si11  1  0.165451  0.833938  0.500089  1
  Si  Si12  1  0.667845  0.833923  0.999004  1
  Si  Si13  1  0.834548  0.166059  0.500476  1
  Si  Si14  1  0.834548  0.668488  0.999524  1
  Si  Si15  1  0.667845  0.833923  0.500996  1
  Si  Si16  1  0.165451  0.331514  0.999911  1
  Si  Si17  1  0.332158  0.166079  0.501385  1
  Si  Si18  1  0.165451  0.331514  0.500089  1
  Si  Si19  1  0.834548  0.668488  0.500476  1
  Pd  Pd20  1  0.665846  0.332923  0.998936  1
  Pd  Pd21  1  0.334149  0.667075  0.999527  1
  Pd  Pd22  1  0.334149  0.667075  0.500473  1
  Pd  Pd23  1  0.665846  0.332923  0.501064  1
