# generated using pymatgen
data_LiY9ErIn7
_symmetry_space_group_name_H-M   'P 1'
_cell_length_a   9.27811500
_cell_length_b   9.27811587
_cell_length_c   6.66156900
_cell_angle_alpha   90.00000000
_cell_angle_beta   90.00000000
_cell_angle_gamma   120.00000048
_symmetry_Int_Tables_number   1
_chemical_formula_structural   LiY9ErIn7
_chemical_formula_sum   'Li1 Y9 Er1 In7'
_cell_volume   496.62285599
_cell_formula_units_Z   1
loop_
 _symmetry_equiv_pos_site_id
 _symmetry_equiv_pos_as_xyz
  1  'x, y, z'
loop_
 _atom_site_type_symbol
 _atom_site_label
 _atom_site_symmetry_multiplicity
 _atom_site_fract_x
 _atom_site_fract_y
 _atom_site_fract_z
 _atom_site_occupancy
  Li  Li0  1  0.000000  0.000000  0.500000  1
  Y  Y1  1  0.333333  0.666667  0.500000  1
  Y  Y2  1  0.666667  0.333333  0.500000  1
  Y  Y3  1  0.666667  0.333333  0.000000  1
  Y  Y4  1  0.293015  0.999627  0.752670  1
  Y  Y5  1  0.706613  0.999627  0.247330  1
  Y  Y6  1  0.000373  0.293387  0.752670  1
  Y  Y7  1  0.000373  0.706985  0.247330  1
  Y  Y8  1  0.706613  0.706985  0.752670  1
  Y  Y9  1  0.293015  0.293387  0.247330  1
  Er  Er10  1  0.333333  0.666667  0.000000  1
  In  In11  1  0.000000  0.000000  0.000000  1
  In  In12  1  0.632504  0.999486  0.746880  1
  In  In13  1  0.366984  0.999486  0.253120  1
  In  In14  1  0.000514  0.633016  0.746880  1
  In  In15  1  0.000514  0.367496  0.253120  1
  In  In16  1  0.366984  0.367496  0.746880  1
  In  In17  1  0.632504  0.633016  0.253120  1
