# generated using pymatgen
data_Mn18Cr3(TcC3)2
_symmetry_space_group_name_H-M   'P 1'
_cell_length_a   7.39427910
_cell_length_b   7.39427851
_cell_length_c   7.39427751
_cell_angle_alpha   60.10333576
_cell_angle_beta   60.10333617
_cell_angle_gamma   60.10334161
_symmetry_Int_Tables_number   1
_chemical_formula_structural   Mn18Cr3(TcC3)2
_chemical_formula_sum   'Mn18 Cr3 Tc2 C6'
_cell_volume   286.54184849
_cell_formula_units_Z   1
loop_
 _symmetry_equiv_pos_site_id
 _symmetry_equiv_pos_as_xyz
  1  'x, y, z'
loop_
 _atom_site_type_symbol
 _atom_site_label
 _atom_site_symmetry_multiplicity
 _atom_site_fract_x
 _atom_site_fract_y
 _atom_site_fract_z
 _atom_site_occupancy
  Mn  Mn0  1  0.999933  0.999933  0.999933  1
  Mn  Mn1  1  0.615786  0.615786  0.151403  1
  Mn  Mn2  1  0.615786  0.151403  0.615786  1
  Mn  Mn3  1  0.151403  0.615786  0.615786  1
  Mn  Mn4  1  0.616243  0.616243  0.616243  1
  Mn  Mn5  1  0.382588  0.382588  0.850541  1
  Mn  Mn6  1  0.382588  0.850541  0.382588  1
  Mn  Mn7  1  0.850541  0.382588  0.382588  1
  Mn  Mn8  1  0.383276  0.383276  0.383276  1
  Mn  Mn9  1  0.000470  0.000470  0.338373  1
  Mn  Mn10  1  0.662826  0.998705  0.338818  1
  Mn  Mn11  1  0.998705  0.662826  0.338818  1
  Mn  Mn12  1  0.662826  0.338818  0.998705  1
  Mn  Mn13  1  0.000470  0.338373  0.000470  1
  Mn  Mn14  1  0.998705  0.338818  0.662826  1
  Mn  Mn15  1  0.338818  0.662826  0.998705  1
  Mn  Mn16  1  0.338818  0.998705  0.662826  1
  Mn  Mn17  1  0.338373  0.000470  0.000470  1
  Cr  Cr18  1  0.001132  0.001132  0.659146  1
  Cr  Cr19  1  0.001132  0.659146  0.001132  1
  Cr  Cr20  1  0.659146  0.001132  0.001132  1
  Tc  Tc21  1  0.750736  0.750736  0.750736  1
  Tc  Tc22  1  0.250410  0.250410  0.250410  1
  C  C23  1  0.722736  0.722736  0.279810  1
  C  C24  1  0.274113  0.725780  0.274113  1
  C  C25  1  0.725780  0.274113  0.274113  1
  C  C26  1  0.274113  0.274113  0.725780  1
  C  C27  1  0.722736  0.279810  0.722736  1
  C  C28  1  0.279810  0.722736  0.722736  1
