# generated using pymatgen
data_NbMo(IrRh)3
_symmetry_space_group_name_H-M   'P 1'
_cell_length_a   5.55079400
_cell_length_b   5.56346736
_cell_length_c   4.43088700
_cell_angle_alpha   90.00000000
_cell_angle_beta   90.00000000
_cell_angle_gamma   119.92467423
_symmetry_Int_Tables_number   1
_chemical_formula_structural   NbMo(IrRh)3
_chemical_formula_sum   'Nb1 Mo1 Ir3 Rh3'
_cell_volume   118.59082881
_cell_formula_units_Z   1
loop_
 _symmetry_equiv_pos_site_id
 _symmetry_equiv_pos_as_xyz
  1  'x, y, z'
loop_
 _atom_site_type_symbol
 _atom_site_label
 _atom_site_symmetry_multiplicity
 _atom_site_fract_x
 _atom_site_fract_y
 _atom_site_fract_z
 _atom_site_occupancy
  Nb  Nb0  1  0.665747  0.331494  0.750000  1
  Mo  Mo1  1  0.333147  0.666296  0.250000  1
  Ir  Ir2  1  0.837003  0.674006  0.250000  1
  Ir  Ir3  1  0.166569  0.832863  0.750000  1
  Ir  Ir4  1  0.666294  0.832863  0.750000  1
  Rh  Rh5  1  0.328535  0.164433  0.250000  1
  Rh  Rh6  1  0.835898  0.164433  0.250000  1
  Rh  Rh7  1  0.166806  0.333612  0.750000  1
