# generated using pymatgen
data_Dy2Er13Th(CdNi)4
_symmetry_space_group_name_H-M   'P 1'
_cell_length_a   9.48697010
_cell_length_b   9.48600803
_cell_length_c   9.48600868
_cell_angle_alpha   60.13409914
_cell_angle_beta   60.15403494
_cell_angle_gamma   60.15403417
_symmetry_Int_Tables_number   1
_chemical_formula_structural   Dy2Er13Th(CdNi)4
_chemical_formula_sum   'Dy2 Er13 Th1 Cd4 Ni4'
_cell_volume   605.65737718
_cell_formula_units_Z   1
loop_
 _symmetry_equiv_pos_site_id
 _symmetry_equiv_pos_as_xyz
  1  'x, y, z'
loop_
 _atom_site_type_symbol
 _atom_site_label
 _atom_site_symmetry_multiplicity
 _atom_site_fract_x
 _atom_site_fract_y
 _atom_site_fract_z
 _atom_site_occupancy
  Dy  Dy0  1  0.350109  0.350269  0.947002  1
  Dy  Dy1  1  0.350109  0.947002  0.350269  1
  Er  Er2  1  0.947157  0.350263  0.350263  1
  Er  Er3  1  0.813197  0.188636  0.188636  1
  Er  Er4  1  0.189888  0.813196  0.813196  1
  Er  Er5  1  0.188571  0.813281  0.188488  1
  Er  Er6  1  0.813166  0.189948  0.812918  1
  Er  Er7  1  0.188571  0.188488  0.813281  1
  Er  Er8  1  0.813166  0.812918  0.189948  1
  Er  Er9  1  0.936444  0.566048  0.566048  1
  Er  Er10  1  0.564175  0.937297  0.937297  1
  Er  Er11  1  0.565966  0.936467  0.566033  1
  Er  Er12  1  0.937202  0.564267  0.937345  1
  Er  Er13  1  0.565966  0.566033  0.936467  1
  Er  Er14  1  0.937202  0.937345  0.564267  1
  Th  Th15  1  0.343493  0.343794  0.343794  1
  Cd  Cd16  1  0.581874  0.581287  0.581287  1
  Cd  Cd17  1  0.581930  0.581417  0.254428  1
  Cd  Cd18  1  0.581930  0.254428  0.581417  1
  Cd  Cd19  1  0.254472  0.581551  0.581551  1
  Ni  Ni20  1  0.143047  0.143452  0.143452  1
  Ni  Ni21  1  0.140086  0.140378  0.571971  1
  Ni  Ni22  1  0.140086  0.571971  0.140378  1
  Ni  Ni23  1  0.572190  0.140262  0.140262  1
