# generated using pymatgen
data_Ti12Cu12CN3
_symmetry_space_group_name_H-M   'P 1'
_cell_length_a   7.97138971
_cell_length_b   7.95290417
_cell_length_c   7.95290500
_cell_angle_alpha   60.00000070
_cell_angle_beta   60.07668255
_cell_angle_gamma   60.07667795
_symmetry_Int_Tables_number   1
_chemical_formula_structural   Ti12Cu12CN3
_chemical_formula_sum   'Ti12 Cu12 C1 N3'
_cell_volume   356.92171886
_cell_formula_units_Z   1
loop_
 _symmetry_equiv_pos_site_id
 _symmetry_equiv_pos_as_xyz
  1  'x, y, z'
loop_
 _atom_site_type_symbol
 _atom_site_label
 _atom_site_symmetry_multiplicity
 _atom_site_fract_x
 _atom_site_fract_y
 _atom_site_fract_z
 _atom_site_occupancy
  Ti  Ti0  1  0.935573  0.563442  0.563442  1
  Ti  Ti1  1  0.686256  0.313965  0.685814  1
  Ti  Ti2  1  0.935573  0.563442  0.937543  1
  Ti  Ti3  1  0.563744  0.936035  0.936035  1
  Ti  Ti4  1  0.314427  0.686558  0.312457  1
  Ti  Ti5  1  0.563744  0.936035  0.564186  1
  Ti  Ti6  1  0.686256  0.685814  0.313965  1
  Ti  Ti7  1  0.935573  0.937543  0.563442  1
  Ti  Ti8  1  0.314427  0.312457  0.686558  1
  Ti  Ti9  1  0.686256  0.313965  0.313965  1
  Ti  Ti10  1  0.563744  0.564186  0.936035  1
  Ti  Ti11  1  0.314427  0.686558  0.686558  1
  Cu  Cu12  1  0.252126  0.915958  0.915958  1
  Cu  Cu13  1  0.334298  0.334022  0.334022  1
  Cu  Cu14  1  0.334298  0.334022  0.997656  1
  Cu  Cu15  1  0.915702  0.252344  0.915978  1
  Cu  Cu16  1  0.915702  0.915978  0.915978  1
  Cu  Cu17  1  0.997874  0.334042  0.334042  1
  Cu  Cu18  1  0.915702  0.915978  0.252344  1
  Cu  Cu19  1  0.334298  0.997656  0.334022  1
  Cu  Cu20  1  0.125000  0.625000  0.125000  1
  Cu  Cu21  1  0.125000  0.125000  0.625000  1
  Cu  Cu22  1  0.625000  0.125000  0.125000  1
  Cu  Cu23  1  0.125000  0.125000  0.125000  1
  C  C24  1  0.125000  0.625000  0.625000  1
  N  N25  1  0.625000  0.125000  0.625000  1
  N  N26  1  0.625000  0.625000  0.125000  1
  N  N27  1  0.625000  0.625000  0.625000  1
