# generated using pymatgen
data_Er2AlCdPt2
_symmetry_space_group_name_H-M   'P 1'
_cell_length_a   4.34481600
_cell_length_b   6.91331565
_cell_length_c   8.19368721
_cell_angle_alpha   92.65601786
_cell_angle_beta   90.00000000
_cell_angle_gamma   90.00000000
_symmetry_Int_Tables_number   1
_chemical_formula_structural   Er2AlCdPt2
_chemical_formula_sum   'Er4 Al2 Cd2 Pt4'
_cell_volume   245.85008405
_cell_formula_units_Z   2
loop_
 _symmetry_equiv_pos_site_id
 _symmetry_equiv_pos_as_xyz
  1  'x, y, z'
loop_
 _atom_site_type_symbol
 _atom_site_label
 _atom_site_symmetry_multiplicity
 _atom_site_fract_x
 _atom_site_fract_y
 _atom_site_fract_z
 _atom_site_occupancy
  Er  Er0  1  0.250000  0.468761  0.187167  1
  Er  Er1  1  0.750000  0.531239  0.812833  1
  Er  Er2  1  0.750000  0.032761  0.677799  1
  Er  Er3  1  0.250000  0.967239  0.322201  1
  Al  Al4  1  0.750000  0.642061  0.441796  1
  Al  Al5  1  0.250000  0.357939  0.558204  1
  Cd  Cd6  1  0.250000  0.853187  0.933195  1
  Cd  Cd7  1  0.750000  0.146813  0.066805  1
  Pt  Pt8  1  0.250000  0.731729  0.597418  1
  Pt  Pt9  1  0.750000  0.268271  0.402582  1
  Pt  Pt10  1  0.750000  0.739787  0.141306  1
  Pt  Pt11  1  0.250000  0.260213  0.858694  1
