# generated using pymatgen
data_Ce3Th3(As5Pd6)2
_symmetry_space_group_name_H-M   'P 1'
_cell_length_a   4.20397500
_cell_length_b   9.97759401
_cell_length_c   12.93752302
_cell_angle_alpha   89.99409759
_cell_angle_beta   90.00000000
_cell_angle_gamma   90.00000000
_symmetry_Int_Tables_number   1
_chemical_formula_structural   Ce3Th3(As5Pd6)2
_chemical_formula_sum   'Ce3 Th3 As10 Pd12'
_cell_volume   542.67159064
_cell_formula_units_Z   1
loop_
 _symmetry_equiv_pos_site_id
 _symmetry_equiv_pos_as_xyz
  1  'x, y, z'
loop_
 _atom_site_type_symbol
 _atom_site_label
 _atom_site_symmetry_multiplicity
 _atom_site_fract_x
 _atom_site_fract_y
 _atom_site_fract_z
 _atom_site_occupancy
  Ce  Ce0  1  0.000000  0.254054  0.999479  1
  Ce  Ce1  1  0.500000  0.744672  0.499988  1
  Ce  Ce2  1  0.000000  0.247943  0.665567  1
  Th  Th3  1  0.000000  0.246243  0.334910  1
  Th  Th4  1  0.500000  0.753683  0.833885  1
  Th  Th5  1  0.500000  0.753877  0.166288  1
  As  As6  1  0.000000  0.524513  0.125177  1
  As  As7  1  0.000000  0.852348  0.338756  1
  As  As8  1  0.000000  0.838834  0.999918  1
  As  As9  1  0.500000  0.474835  0.375387  1
  As  As10  1  0.500000  0.161449  0.502303  1
  As  As11  1  0.000000  0.524005  0.873960  1
  As  As12  1  0.500000  0.472555  0.625710  1
  As  As13  1  0.000000  0.853249  0.661644  1
  As  As14  1  0.500000  0.147641  0.161471  1
  As  As15  1  0.500000  0.148035  0.836428  1
  Pd  Pd16  1  0.000000  0.996273  0.169698  1
  Pd  Pd17  1  0.500000  0.004439  0.330624  1
  Pd  Pd18  1  0.500000  0.394063  0.184668  1
  Pd  Pd19  1  0.500000  0.528961  0.000165  1
  Pd  Pd20  1  0.000000  0.472276  0.499910  1
  Pd  Pd21  1  0.000000  0.605893  0.315200  1
  Pd  Pd22  1  0.000000  0.606775  0.683995  1
  Pd  Pd23  1  0.500000  0.997909  0.999299  1
  Pd  Pd24  1  0.000000  0.995982  0.831048  1
  Pd  Pd25  1  0.500000  0.394574  0.816080  1
  Pd  Pd26  1  0.000000  0.002079  0.499411  1
  Pd  Pd27  1  0.500000  0.002842  0.669030  1
