# generated using pymatgen
data_SrAcGeN3
_symmetry_space_group_name_H-M   'P 1'
_cell_length_a   6.41616200
_cell_length_b   6.41616307
_cell_length_c   12.39664000
_cell_angle_alpha   90.00000000
_cell_angle_beta   90.00000000
_cell_angle_gamma   127.18311234
_symmetry_Int_Tables_number   1
_chemical_formula_structural   SrAcGeN3
_chemical_formula_sum   'Sr4 Ac4 Ge4 N12'
_cell_volume   406.58741181
_cell_formula_units_Z   4
loop_
 _symmetry_equiv_pos_site_id
 _symmetry_equiv_pos_as_xyz
  1  'x, y, z'
loop_
 _atom_site_type_symbol
 _atom_site_label
 _atom_site_symmetry_multiplicity
 _atom_site_fract_x
 _atom_site_fract_y
 _atom_site_fract_z
 _atom_site_occupancy
  Sr  Sr0  1  0.047545  0.952455  0.855317  1
  Sr  Sr1  1  0.952455  0.047545  0.144683  1
  Sr  Sr2  1  0.452455  0.547545  0.355317  1
  Sr  Sr3  1  0.547545  0.452455  0.644683  1
  Ac  Ac4  1  0.642837  0.357163  0.078646  1
  Ac  Ac5  1  0.357163  0.642837  0.921354  1
  Ac  Ac6  1  0.857163  0.142837  0.578646  1
  Ac  Ac7  1  0.142837  0.857163  0.421354  1
  Ge  Ge8  1  0.735694  0.264306  0.836373  1
  Ge  Ge9  1  0.264306  0.735694  0.163627  1
  Ge  Ge10  1  0.764306  0.235694  0.336373  1
  Ge  Ge11  1  0.235694  0.764306  0.663627  1
  N  N12  1  0.573645  0.426355  0.866147  1
  N  N13  1  0.426355  0.573645  0.133853  1
  N  N14  1  0.926355  0.073645  0.366147  1
  N  N15  1  0.073645  0.926355  0.633853  1
  N  N16  1  0.535686  0.964314  0.750000  1
  N  N17  1  0.964314  0.535686  0.250000  1
  N  N18  1  0.464314  0.035686  0.250000  1
  N  N19  1  0.035686  0.464314  0.750000  1
  N  N20  1  0.836991  0.163009  0.957903  1
  N  N21  1  0.163009  0.836991  0.042097  1
  N  N22  1  0.663009  0.336991  0.457903  1
  N  N23  1  0.336991  0.663009  0.542097  1
