# generated using pymatgen
data_Li3Ac4HoPt4
_symmetry_space_group_name_H-M   'P 1'
_cell_length_a   4.28277000
_cell_length_b   7.58063785
_cell_length_c   9.19467600
_cell_angle_alpha   91.12907531
_cell_angle_beta   90.00000000
_cell_angle_gamma   90.00000000
_symmetry_Int_Tables_number   1
_chemical_formula_structural   Li3Ac4HoPt4
_chemical_formula_sum   'Li3 Ac4 Ho1 Pt4'
_cell_volume   298.45757178
_cell_formula_units_Z   1
loop_
 _symmetry_equiv_pos_site_id
 _symmetry_equiv_pos_as_xyz
  1  'x, y, z'
loop_
 _atom_site_type_symbol
 _atom_site_label
 _atom_site_symmetry_multiplicity
 _atom_site_fract_x
 _atom_site_fract_y
 _atom_site_fract_z
 _atom_site_occupancy
  Li  Li0  1  0.250000  0.122525  0.052950  1
  Li  Li1  1  0.250000  0.642480  0.435202  1
  Li  Li2  1  0.750000  0.880323  0.952834  1
  Ac  Ac3  1  0.250000  0.022688  0.697498  1
  Ac  Ac4  1  0.250000  0.551851  0.832199  1
  Ac  Ac5  1  0.750000  0.955035  0.307921  1
  Ac  Ac6  1  0.750000  0.456347  0.175538  1
  Ho  Ho7  1  0.750000  0.376098  0.554735  1
  Pt  Pt8  1  0.250000  0.245402  0.385267  1
  Pt  Pt9  1  0.250000  0.755253  0.119490  1
  Pt  Pt10  1  0.750000  0.739458  0.618363  1
  Pt  Pt11  1  0.750000  0.252540  0.868002  1
