# generated using pymatgen
data_Hf5TiGa7Cu16
_symmetry_space_group_name_H-M   'P 1'
_cell_length_a   8.37718837
_cell_length_b   8.39524542
_cell_length_c   8.39524622
_cell_angle_alpha   59.85773996
_cell_angle_beta   60.07112787
_cell_angle_gamma   60.07112188
_symmetry_Int_Tables_number   1
_chemical_formula_structural   Hf5TiGa7Cu16
_chemical_formula_sum   'Hf5 Ti1 Ga7 Cu16'
_cell_volume   417.48999632
_cell_formula_units_Z   1
loop_
 _symmetry_equiv_pos_site_id
 _symmetry_equiv_pos_as_xyz
  1  'x, y, z'
loop_
 _atom_site_type_symbol
 _atom_site_label
 _atom_site_symmetry_multiplicity
 _atom_site_fract_x
 _atom_site_fract_y
 _atom_site_fract_z
 _atom_site_occupancy
  Hf  Hf0  1  0.700989  0.701794  0.299011  1
  Hf  Hf1  1  0.298206  0.701794  0.299011  1
  Hf  Hf2  1  0.702207  0.297793  0.297793  1
  Hf  Hf3  1  0.298206  0.299011  0.701794  1
  Hf  Hf4  1  0.700989  0.299011  0.701794  1
  Ti  Ti5  1  0.296776  0.703224  0.703224  1
  Ga  Ga6  1  0.000285  0.999715  0.999715  1
  Ga  Ga7  1  0.002282  0.997718  0.502328  1
  Ga  Ga8  1  0.497672  0.997718  0.502328  1
  Ga  Ga9  1  0.999721  0.500279  0.500279  1
  Ga  Ga10  1  0.497672  0.502328  0.997718  1
  Ga  Ga11  1  0.002282  0.502328  0.997718  1
  Ga  Ga12  1  0.499721  0.000279  0.000279  1
  Cu  Cu13  1  0.880708  0.881207  0.357377  1
  Cu  Cu14  1  0.880708  0.357377  0.881207  1
  Cu  Cu15  1  0.356928  0.880009  0.880009  1
  Cu  Cu16  1  0.883054  0.880009  0.880009  1
  Cu  Cu17  1  0.119991  0.116946  0.643072  1
  Cu  Cu18  1  0.119991  0.643072  0.116946  1
  Cu  Cu19  1  0.642623  0.119292  0.119292  1
  Cu  Cu20  1  0.118793  0.119292  0.119292  1
  Cu  Cu21  1  0.668949  0.668711  0.993390  1
  Cu  Cu22  1  0.668949  0.993390  0.668711  1
  Cu  Cu23  1  0.994524  0.668900  0.668900  1
  Cu  Cu24  1  0.667675  0.668900  0.668900  1
  Cu  Cu25  1  0.331100  0.332325  0.005476  1
  Cu  Cu26  1  0.331100  0.005476  0.332325  1
  Cu  Cu27  1  0.006610  0.331051  0.331051  1
  Cu  Cu28  1  0.331289  0.331051  0.331051  1
