# generated using pymatgen
data_NdTm2Ir9
_symmetry_space_group_name_H-M   'P 1'
_cell_length_a   5.32951483
_cell_length_b   5.33052852
_cell_length_c   17.42515000
_cell_angle_alpha   90.00000000
_cell_angle_beta   90.00000000
_cell_angle_gamma   120.01940189
_symmetry_Int_Tables_number   1
_chemical_formula_structural   NdTm2Ir9
_chemical_formula_sum   'Nd2 Tm4 Ir18'
_cell_volume   428.62762999
_cell_formula_units_Z   2
loop_
 _symmetry_equiv_pos_site_id
 _symmetry_equiv_pos_as_xyz
  1  'x, y, z'
loop_
 _atom_site_type_symbol
 _atom_site_label
 _atom_site_symmetry_multiplicity
 _atom_site_fract_x
 _atom_site_fract_y
 _atom_site_fract_z
 _atom_site_occupancy
  Nd  Nd0  1  0.333354  0.666681  0.750000  1
  Nd  Nd1  1  0.666646  0.333319  0.250000  1
  Tm  Tm2  1  0.333339  0.666682  0.540293  1
  Tm  Tm3  1  0.666661  0.333318  0.040293  1
  Tm  Tm4  1  0.666661  0.333318  0.459707  1
  Tm  Tm5  1  0.333339  0.666682  0.959707  1
  Ir  Ir6  1  0.167463  0.334982  0.125276  1
  Ir  Ir7  1  0.832537  0.665018  0.625276  1
  Ir  Ir8  1  0.665027  0.832513  0.125232  1
  Ir  Ir9  1  0.167488  0.832450  0.125315  1
  Ir  Ir10  1  0.832512  0.167550  0.625315  1
  Ir  Ir11  1  0.334973  0.167487  0.625232  1
  Ir  Ir12  1  0.832537  0.665018  0.874724  1
  Ir  Ir13  1  0.832512  0.167550  0.874685  1
  Ir  Ir14  1  0.334973  0.167487  0.874768  1
  Ir  Ir15  1  0.665027  0.832513  0.374768  1
  Ir  Ir16  1  0.167488  0.832450  0.374685  1
  Ir  Ir17  1  0.167463  0.334982  0.374724  1
  Ir  Ir18  1  0.999708  0.999967  0.250000  1
  Ir  Ir19  1  0.000292  0.000033  0.750000  1
  Ir  Ir20  1  0.333752  0.666665  0.250000  1
  Ir  Ir21  1  0.666248  0.333335  0.750000  1
  Ir  Ir22  1  0.000000  0.000000  0.000000  1
  Ir  Ir23  1  0.000000  0.000000  0.500000  1
