# generated using pymatgen
data_Cs2RbCaFe(P2O7)2
_symmetry_space_group_name_H-M   'P 1'
_cell_length_a   9.45464700
_cell_length_b   11.42138700
_cell_length_c   15.32278500
_cell_angle_alpha   90.00000000
_cell_angle_beta   90.00000000
_cell_angle_gamma   90.00000000
_symmetry_Int_Tables_number   1
_chemical_formula_structural   Cs2RbCaFe(P2O7)2
_chemical_formula_sum   'Cs8 Rb4 Ca4 Fe4 P16 O56'
_cell_volume   1654.63373211
_cell_formula_units_Z   4
loop_
 _symmetry_equiv_pos_site_id
 _symmetry_equiv_pos_as_xyz
  1  'x, y, z'
loop_
 _atom_site_type_symbol
 _atom_site_label
 _atom_site_symmetry_multiplicity
 _atom_site_fract_x
 _atom_site_fract_y
 _atom_site_fract_z
 _atom_site_occupancy
  Cs  Cs0  1  0.279017  0.712651  0.304772  1
  Cs  Cs1  1  0.220983  0.287349  0.804772  1
  Cs  Cs2  1  0.779017  0.787349  0.695228  1
  Cs  Cs3  1  0.720983  0.212651  0.195228  1
  Cs  Cs4  1  0.821358  0.488083  0.410722  1
  Cs  Cs5  1  0.678642  0.511917  0.910722  1
  Cs  Cs6  1  0.321358  0.011917  0.589278  1
  Cs  Cs7  1  0.178642  0.988083  0.089278  1
  Rb  Rb8  1  0.377351  0.366166  0.372730  1
  Rb  Rb9  1  0.122649  0.633834  0.872730  1
  Rb  Rb10  1  0.877351  0.133834  0.627270  1
  Rb  Rb11  1  0.622649  0.866166  0.127270  1
  Ca  Ca12  1  0.544127  0.364730  0.616903  1
  Ca  Ca13  1  0.955873  0.635270  0.116903  1
  Ca  Ca14  1  0.044127  0.135270  0.383097  1
  Ca  Ca15  1  0.455873  0.864730  0.883097  1
  Fe  Fe16  1  0.649853  0.876646  0.426990  1
  Fe  Fe17  1  0.850147  0.123354  0.926990  1
  Fe  Fe18  1  0.149853  0.623354  0.573010  1
  Fe  Fe19  1  0.350147  0.376646  0.073010  1
  P  P20  1  0.478745  0.644432  0.522056  1
  P  P21  1  0.021255  0.355568  0.022056  1
  P  P22  1  0.978745  0.855568  0.477944  1
  P  P23  1  0.521255  0.144432  0.977944  1
  P  P24  1  0.414717  0.627858  0.708564  1
  P  P25  1  0.085283  0.372142  0.208564  1
  P  P26  1  0.914717  0.872142  0.291436  1
  P  P27  1  0.585283  0.127858  0.791436  1
  P  P28  1  0.420649  0.038737  0.327967  1
  P  P29  1  0.079351  0.961263  0.827967  1
  P  P30  1  0.920649  0.461263  0.672033  1
  P  P31  1  0.579351  0.538737  0.172033  1
  P  P32  1  0.651316  0.151188  0.437741  1
  P  P33  1  0.848684  0.848812  0.937741  1
  P  P34  1  0.151316  0.348812  0.562259  1
  P  P35  1  0.348684  0.651188  0.062259  1
  O  O36  1  0.570700  0.730073  0.470139  1
  O  O37  1  0.929300  0.269927  0.970139  1
  O  O38  1  0.070700  0.769927  0.529861  1
  O  O39  1  0.429300  0.230073  0.029861  1
  O  O40  1  0.470582  0.504403  0.721218  1
  O  O41  1  0.029418  0.495597  0.221218  1
  O  O42  1  0.970582  0.995597  0.278782  1
  O  O43  1  0.529418  0.004403  0.778782  1
  O  O44  1  0.423276  0.028119  0.229603  1
  O  O45  1  0.076724  0.971881  0.729603  1
  O  O46  1  0.923276  0.471881  0.770397  1
  O  O47  1  0.576724  0.528119  0.270397  1
  O  O48  1  0.287831  0.088182  0.370281  1
  O  O49  1  0.212169  0.911818  0.870281  1
  O  O50  1  0.787831  0.411818  0.629719  1
  O  O51  1  0.712169  0.588182  0.129719  1
  O  O52  1  0.498647  0.686146  0.623828  1
  O  O53  1  0.001353  0.313854  0.123828  1
  O  O54  1  0.998647  0.813854  0.376172  1
  O  O55  1  0.501353  0.186146  0.876172  1
  O  O56  1  0.444065  0.710978  0.783281  1
  O  O57  1  0.055935  0.289022  0.283281  1
  O  O58  1  0.944065  0.789022  0.216719  1
  O  O59  1  0.555935  0.210978  0.716719  1
  O  O60  1  0.548930  0.134633  0.351742  1
  O  O61  1  0.951070  0.865367  0.851742  1
  O  O62  1  0.048930  0.365367  0.648258  1
  O  O63  1  0.451070  0.634633  0.148258  1
  O  O64  1  0.526192  0.518358  0.512556  1
  O  O65  1  0.973808  0.481642  0.012556  1
  O  O66  1  0.026192  0.981642  0.487444  1
  O  O67  1  0.473808  0.018358  0.987444  1
  O  O68  1  0.468150  0.921863  0.373017  1
  O  O69  1  0.031850  0.078137  0.873017  1
  O  O70  1  0.968150  0.578137  0.626983  1
  O  O71  1  0.531850  0.421863  0.126983  1
  O  O72  1  0.754688  0.870894  0.317568  1
  O  O73  1  0.745312  0.129106  0.817568  1
  O  O74  1  0.254688  0.629106  0.682432  1
  O  O75  1  0.245312  0.370894  0.182432  1
  O  O76  1  0.321255  0.664356  0.501168  1
  O  O77  1  0.178745  0.335644  0.001168  1
  O  O78  1  0.821255  0.835644  0.498832  1
  O  O79  1  0.678745  0.164356  0.998832  1
  O  O80  1  0.795589  0.182743  0.400833  1
  O  O81  1  0.704411  0.817257  0.900833  1
  O  O82  1  0.295589  0.317257  0.599167  1
  O  O83  1  0.204411  0.682743  0.099167  1
  O  O84  1  0.584799  0.245521  0.494397  1
  O  O85  1  0.915201  0.754479  0.994397  1
  O  O86  1  0.084799  0.254479  0.505603  1
  O  O87  1  0.415201  0.745521  0.005603  1
  O  O88  1  0.650462  0.030504  0.485930  1
  O  O89  1  0.849538  0.969496  0.985930  1
  O  O90  1  0.150462  0.469496  0.514070  1
  O  O91  1  0.349538  0.530504  0.014070  1
