# generated using pymatgen
data_TbYUCo2Si7
_symmetry_space_group_name_H-M   'P 1'
_cell_length_a   4.00680714
_cell_length_b   4.02056600
_cell_length_c   12.37023111
_cell_angle_alpha   90.00000000
_cell_angle_beta   99.32031916
_cell_angle_gamma   90.00000000
_symmetry_Int_Tables_number   1
_chemical_formula_structural   TbYUCo2Si7
_chemical_formula_sum   'Tb1 Y1 U1 Co2 Si7'
_cell_volume   196.64905322
_cell_formula_units_Z   1
loop_
 _symmetry_equiv_pos_site_id
 _symmetry_equiv_pos_as_xyz
  1  'x, y, z'
loop_
 _atom_site_type_symbol
 _atom_site_label
 _atom_site_symmetry_multiplicity
 _atom_site_fract_x
 _atom_site_fract_y
 _atom_site_fract_z
 _atom_site_occupancy
  Tb  Tb0  1  0.316208  0.000000  0.632416  1
  Y  Y1  1  0.683749  0.000000  0.367498  1
  U  U2  1  0.000024  0.500000  0.000048  1
  Co  Co3  1  0.127863  0.500000  0.255725  1
  Co  Co4  1  0.872176  0.500000  0.744353  1
  Si  Si5  1  0.499992  0.000000  0.999983  1
  Si  Si6  1  0.413629  0.500000  0.827259  1
  Si  Si7  1  0.586367  0.500000  0.172733  1
  Si  Si8  1  0.086356  0.000000  0.172713  1
  Si  Si9  1  0.913659  0.000000  0.827318  1
  Si  Si10  1  0.221124  0.500000  0.442247  1
  Si  Si11  1  0.778853  0.500000  0.557707  1
