# generated using pymatgen
data_Hf4Ga3Si
_symmetry_space_group_name_H-M   'P 1'
_cell_length_a   3.78837000
_cell_length_b   5.38920852
_cell_length_c   7.20088519
_cell_angle_alpha   89.89067843
_cell_angle_beta   90.00000000
_cell_angle_gamma   90.00000000
_symmetry_Int_Tables_number   1
_chemical_formula_structural   Hf4Ga3Si
_chemical_formula_sum   'Hf4 Ga3 Si1'
_cell_volume   147.01527901
_cell_formula_units_Z   1
loop_
 _symmetry_equiv_pos_site_id
 _symmetry_equiv_pos_as_xyz
  1  'x, y, z'
loop_
 _atom_site_type_symbol
 _atom_site_label
 _atom_site_symmetry_multiplicity
 _atom_site_fract_x
 _atom_site_fract_y
 _atom_site_fract_z
 _atom_site_occupancy
  Hf  Hf0  1  0.250000  0.380873  0.678135  1
  Hf  Hf1  1  0.750000  0.625882  0.317656  1
  Hf  Hf2  1  0.750000  0.874554  0.828184  1
  Hf  Hf3  1  0.250000  0.118314  0.175082  1
  Ga  Ga4  1  0.250000  0.857752  0.543081  1
  Ga  Ga5  1  0.750000  0.144967  0.457605  1
  Ga  Ga6  1  0.750000  0.358291  0.956910  1
  Si  Si7  1  0.250000  0.639369  0.043347  1
