# generated using pymatgen
data_La12Si(PBr4)3
_symmetry_space_group_name_H-M   'P 1'
_cell_length_a   10.51876330
_cell_length_b   10.51876360
_cell_length_c   10.51876330
_cell_angle_alpha   109.38711406
_cell_angle_beta   109.38711630
_cell_angle_gamma   109.38711977
_symmetry_Int_Tables_number   1
_chemical_formula_structural   La12Si(PBr4)3
_chemical_formula_sum   'La12 Si1 P3 Br12'
_cell_volume   898.70502684
_cell_formula_units_Z   1
loop_
 _symmetry_equiv_pos_site_id
 _symmetry_equiv_pos_as_xyz
  1  'x, y, z'
loop_
 _atom_site_type_symbol
 _atom_site_label
 _atom_site_symmetry_multiplicity
 _atom_site_fract_x
 _atom_site_fract_y
 _atom_site_fract_z
 _atom_site_occupancy
  La  La0  1  0.477779  0.491472  0.237460  1
  La  La1  1  0.750000  0.236723  0.263277  1
  La  La2  1  0.750000  0.013108  0.486892  1
  La  La3  1  0.237460  0.477779  0.491472  1
  La  La4  1  0.263277  0.750000  0.236723  1
  La  La5  1  0.022221  0.262540  0.008528  1
  La  La6  1  0.008528  0.022221  0.262540  1
  La  La7  1  0.486892  0.750000  0.013108  1
  La  La8  1  0.491472  0.237460  0.477779  1
  La  La9  1  0.013108  0.486892  0.750000  1
  La  La10  1  0.262540  0.008528  0.022221  1
  La  La11  1  0.236723  0.263277  0.750000  1
  Si  Si12  1  0.250000  0.250000  0.250000  1
  P  P13  1  0.500400  0.999600  0.250000  1
  P  P14  1  0.999600  0.250000  0.500400  1
  P  P15  1  0.250000  0.500400  0.999600  1
  Br  Br16  1  0.250000  0.755988  0.744012  1
  Br  Br17  1  0.511769  0.506417  0.756665  1
  Br  Br18  1  0.988231  0.743335  0.993583  1
  Br  Br19  1  0.744012  0.250000  0.755988  1
  Br  Br20  1  0.993583  0.988231  0.743335  1
  Br  Br21  1  0.250000  0.993864  0.506136  1
  Br  Br22  1  0.756665  0.511769  0.506417  1
  Br  Br23  1  0.506136  0.250000  0.993864  1
  Br  Br24  1  0.755988  0.744012  0.250000  1
  Br  Br25  1  0.743335  0.993583  0.988231  1
  Br  Br26  1  0.993864  0.506136  0.250000  1
  Br  Br27  1  0.506417  0.756665  0.511769  1
