# generated using pymatgen
data_Rb6Na4TmVP6
_symmetry_space_group_name_H-M   'P 1'
_cell_length_a   10.68618800
_cell_length_b   10.68618789
_cell_length_c   15.46287300
_cell_angle_alpha   90.00000000
_cell_angle_beta   90.00000000
_cell_angle_gamma   142.84565618
_symmetry_Int_Tables_number   1
_chemical_formula_structural   Rb6Na4TmVP6
_chemical_formula_sum   'Rb12 Na8 Tm2 V2 P12'
_cell_volume   1066.46598255
_cell_formula_units_Z   2
loop_
 _symmetry_equiv_pos_site_id
 _symmetry_equiv_pos_as_xyz
  1  'x, y, z'
loop_
 _atom_site_type_symbol
 _atom_site_label
 _atom_site_symmetry_multiplicity
 _atom_site_fract_x
 _atom_site_fract_y
 _atom_site_fract_z
 _atom_site_occupancy
  Rb  Rb0  1  0.946346  0.609232  0.819850  1
  Rb  Rb1  1  0.553654  0.890768  0.319850  1
  Rb  Rb2  1  0.390768  0.053654  0.180150  1
  Rb  Rb3  1  0.057229  0.397264  0.174039  1
  Rb  Rb4  1  0.897264  0.557229  0.325961  1
  Rb  Rb5  1  0.442771  0.102736  0.674039  1
  Rb  Rb6  1  0.602736  0.942771  0.825961  1
  Rb  Rb7  1  0.274518  0.277078  0.315447  1
  Rb  Rb8  1  0.777078  0.774518  0.184553  1
  Rb  Rb9  1  0.225482  0.222922  0.815447  1
  Rb  Rb10  1  0.722922  0.725482  0.684553  1
  Rb  Rb11  1  0.109232  0.446346  0.680150  1
  Na  Na12  1  0.919923  0.080077  0.000000  1
  Na  Na13  1  0.580077  0.419923  0.500000  1
  Na  Na14  1  0.080069  0.919931  0.000000  1
  Na  Na15  1  0.419931  0.580069  0.500000  1
  Na  Na16  1  0.754282  0.245718  0.000000  1
  Na  Na17  1  0.745718  0.254282  0.500000  1
  Na  Na18  1  0.244944  0.755056  0.000000  1
  Na  Na19  1  0.255056  0.744944  0.500000  1
  Tm  Tm20  1  0.586303  0.413697  0.000000  1
  Tm  Tm21  1  0.913697  0.086303  0.500000  1
  V  V22  1  0.415626  0.584374  0.000000  1
  V  V23  1  0.084374  0.915626  0.500000  1
  P  P24  1  0.889622  0.568792  0.101614  1
  P  P25  1  0.431208  0.110378  0.898386  1
  P  P26  1  0.610378  0.931208  0.601614  1
  P  P27  1  0.953149  0.655050  0.586904  1
  P  P28  1  0.155050  0.453149  0.913096  1
  P  P29  1  0.546851  0.844950  0.086904  1
  P  P30  1  0.344950  0.046851  0.413096  1
  P  P31  1  0.202895  0.179489  0.584829  1
  P  P32  1  0.679489  0.702895  0.915171  1
  P  P33  1  0.297105  0.320511  0.084829  1
  P  P34  1  0.068792  0.389622  0.398386  1
  P  P35  1  0.820511  0.797105  0.415171  1
