# generated using pymatgen
data_SmHo7(SiPd)8
_symmetry_space_group_name_H-M   'P 1'
_cell_length_a   4.34718500
_cell_length_b   7.50540800
_cell_length_c   13.88056000
_cell_angle_alpha   90.00000000
_cell_angle_beta   90.00000000
_cell_angle_gamma   90.00000000
_symmetry_Int_Tables_number   1
_chemical_formula_structural   SmHo7(SiPd)8
_chemical_formula_sum   'Sm1 Ho7 Si8 Pd8'
_cell_volume   452.88654276
_cell_formula_units_Z   1
loop_
 _symmetry_equiv_pos_site_id
 _symmetry_equiv_pos_as_xyz
  1  'x, y, z'
loop_
 _atom_site_type_symbol
 _atom_site_label
 _atom_site_symmetry_multiplicity
 _atom_site_fract_x
 _atom_site_fract_y
 _atom_site_fract_z
 _atom_site_occupancy
  Sm  Sm0  1  0.000000  0.299809  0.000000  1
  Ho  Ho1  1  0.500000  0.789057  0.748034  1
  Ho  Ho2  1  0.000000  0.210554  0.750132  1
  Ho  Ho3  1  0.500000  0.789057  0.251966  1
  Ho  Ho4  1  0.000000  0.210554  0.249868  1
  Ho  Ho5  1  0.500000  0.711845  0.000000  1
  Ho  Ho6  1  0.000000  0.289466  0.500000  1
  Ho  Ho7  1  0.500000  0.701510  0.500000  1
  Si  Si8  1  0.500000  0.409068  0.643217  1
  Si  Si9  1  0.000000  0.592135  0.854271  1
  Si  Si10  1  0.500000  0.409068  0.356783  1
  Si  Si11  1  0.000000  0.592135  0.145729  1
  Si  Si12  1  0.500000  0.088145  0.095154  1
  Si  Si13  1  0.000000  0.909449  0.406392  1
  Si  Si14  1  0.500000  0.088145  0.904846  1
  Si  Si15  1  0.000000  0.909449  0.593608  1
  Pd  Pd16  1  0.500000  0.076411  0.608956  1
  Pd  Pd17  1  0.000000  0.922176  0.890100  1
  Pd  Pd18  1  0.500000  0.076411  0.391044  1
  Pd  Pd19  1  0.000000  0.922176  0.109900  1
  Pd  Pd20  1  0.500000  0.422074  0.158409  1
  Pd  Pd21  1  0.000000  0.579617  0.344645  1
  Pd  Pd22  1  0.500000  0.422074  0.841591  1
  Pd  Pd23  1  0.000000  0.579617  0.655355  1
