# generated using pymatgen
data_TbDy3Tm4(B6Ir)4
_symmetry_space_group_name_H-M   'P 1'
_cell_length_a   3.62762700
_cell_length_b   9.14443300
_cell_length_c   11.50466200
_cell_angle_alpha   90.00096621
_cell_angle_beta   90.00000000
_cell_angle_gamma   90.00000000
_symmetry_Int_Tables_number   1
_chemical_formula_structural   TbDy3Tm4(B6Ir)4
_chemical_formula_sum   'Tb1 Dy3 Tm4 B24 Ir4'
_cell_volume   381.63945927
_cell_formula_units_Z   1
loop_
 _symmetry_equiv_pos_site_id
 _symmetry_equiv_pos_as_xyz
  1  'x, y, z'
loop_
 _atom_site_type_symbol
 _atom_site_label
 _atom_site_symmetry_multiplicity
 _atom_site_fract_x
 _atom_site_fract_y
 _atom_site_fract_z
 _atom_site_occupancy
  Tb  Tb0  1  0.000000  0.321513  0.413192  1
  Dy  Dy1  1  0.000000  0.678637  0.586789  1
  Dy  Dy2  1  0.000000  0.821361  0.086689  1
  Dy  Dy3  1  0.000000  0.178630  0.913232  1
  Tm  Tm4  1  0.000000  0.943924  0.374327  1
  Tm  Tm5  1  0.000000  0.055975  0.625811  1
  Tm  Tm6  1  0.000000  0.443973  0.125599  1
  Tm  Tm7  1  0.000000  0.556053  0.874350  1
  B  B8  1  0.500000  0.553851  0.433555  1
  B  B9  1  0.500000  0.446570  0.566675  1
  B  B10  1  0.500000  0.053528  0.066324  1
  B  B11  1  0.500000  0.946411  0.933578  1
  B  B12  1  0.500000  0.750406  0.420305  1
  B  B13  1  0.500000  0.249542  0.580037  1
  B  B14  1  0.500000  0.250314  0.079630  1
  B  B15  1  0.500000  0.749642  0.920268  1
  B  B16  1  0.500000  0.793142  0.265367  1
  B  B17  1  0.500000  0.206835  0.734739  1
  B  B18  1  0.500000  0.292976  0.234305  1
  B  B19  1  0.500000  0.706903  0.765450  1
  B  B20  1  0.500000  0.631169  0.183760  1
  B  B21  1  0.500000  0.368894  0.816218  1
  B  B22  1  0.500000  0.130886  0.315985  1
  B  B23  1  0.500000  0.868862  0.683895  1
  B  B24  1  0.500000  0.981488  0.213387  1
  B  B25  1  0.500000  0.018393  0.786610  1
  B  B26  1  0.500000  0.481863  0.286349  1
  B  B27  1  0.500000  0.518515  0.713518  1
  B  B28  1  0.500000  0.607482  0.029321  1
  B  B29  1  0.500000  0.392582  0.970617  1
  B  B30  1  0.500000  0.106906  0.470815  1
  B  B31  1  0.500000  0.892702  0.529355  1
  Ir  Ir32  1  0.000000  0.638799  0.320227  1
  Ir  Ir33  1  0.000000  0.361518  0.679850  1
  Ir  Ir34  1  0.000000  0.138180  0.179374  1
  Ir  Ir35  1  0.000000  0.861577  0.820502  1
