# generated using pymatgen
data_Zr6Ta4Sn6S
_symmetry_space_group_name_H-M   'P 1'
_cell_length_a   5.70810300
_cell_length_b   8.37949844
_cell_length_c   8.37930100
_cell_angle_alpha   119.98799798
_cell_angle_beta   89.99889586
_cell_angle_gamma   89.99811084
_symmetry_Int_Tables_number   1
_chemical_formula_structural   Zr6Ta4Sn6S
_chemical_formula_sum   'Zr6 Ta4 Sn6 S1'
_cell_volume   347.13688273
_cell_formula_units_Z   1
loop_
 _symmetry_equiv_pos_site_id
 _symmetry_equiv_pos_as_xyz
  1  'x, y, z'
loop_
 _atom_site_type_symbol
 _atom_site_label
 _atom_site_symmetry_multiplicity
 _atom_site_fract_x
 _atom_site_fract_y
 _atom_site_fract_z
 _atom_site_occupancy
  Zr  Zr0  1  0.759047  0.249549  0.999987  1
  Zr  Zr1  1  0.758993  0.750404  0.750423  1
  Zr  Zr2  1  0.759035  0.999977  0.249549  1
  Zr  Zr3  1  0.240958  0.750447  0.000007  1
  Zr  Zr4  1  0.241000  0.249592  0.249577  1
  Zr  Zr5  1  0.240972  0.000032  0.750456  1
  Ta  Ta6  1  0.500009  0.333319  0.666669  1
  Ta  Ta7  1  0.499987  0.666681  0.333333  1
  Ta  Ta8  1  0.999988  0.666679  0.333331  1
  Ta  Ta9  1  0.000012  0.333319  0.666669  1
  Sn  Sn10  1  0.750214  0.601897  0.999965  1
  Sn  Sn11  1  0.750222  0.398066  0.398096  1
  Sn  Sn12  1  0.750216  0.000022  0.601932  1
  Sn  Sn13  1  0.249787  0.398076  0.999976  1
  Sn  Sn14  1  0.249772  0.601906  0.601931  1
  Sn  Sn15  1  0.249783  0.000038  0.398098  1
  S  S16  1  0.500001  0.000000  0.000002  1
