# generated using pymatgen
data_Sc12Si12Pt3Au
_symmetry_space_group_name_H-M   'P 1'
_cell_length_a   4.04578900
_cell_length_b   10.31314378
_cell_length_c   11.74899990
_cell_angle_alpha   90.04470274
_cell_angle_beta   90.00000000
_cell_angle_gamma   90.00000000
_symmetry_Int_Tables_number   1
_chemical_formula_structural   Sc12Si12Pt3Au
_chemical_formula_sum   'Sc12 Si12 Pt3 Au1'
_cell_volume   490.22456480
_cell_formula_units_Z   1
loop_
 _symmetry_equiv_pos_site_id
 _symmetry_equiv_pos_as_xyz
  1  'x, y, z'
loop_
 _atom_site_type_symbol
 _atom_site_label
 _atom_site_symmetry_multiplicity
 _atom_site_fract_x
 _atom_site_fract_y
 _atom_site_fract_z
 _atom_site_occupancy
  Sc  Sc0  1  0.250000  0.875828  0.021796  1
  Sc  Sc1  1  0.250000  0.626609  0.520804  1
  Sc  Sc2  1  0.750000  0.123993  0.979952  1
  Sc  Sc3  1  0.750000  0.375593  0.477121  1
  Sc  Sc4  1  0.250000  0.920638  0.597686  1
  Sc  Sc5  1  0.250000  0.579839  0.099110  1
  Sc  Sc6  1  0.750000  0.079322  0.399808  1
  Sc  Sc7  1  0.750000  0.420603  0.902050  1
  Sc  Sc8  1  0.250000  0.662904  0.801499  1
  Sc  Sc9  1  0.250000  0.842398  0.300258  1
  Sc  Sc10  1  0.750000  0.342902  0.199709  1
  Sc  Sc11  1  0.750000  0.153920  0.698822  1
  Si  Si12  1  0.250000  0.015686  0.824318  1
  Si  Si13  1  0.250000  0.483014  0.326155  1
  Si  Si14  1  0.750000  0.982546  0.175677  1
  Si  Si15  1  0.750000  0.524826  0.674428  1
  Si  Si16  1  0.250000  0.242848  0.849132  1
  Si  Si17  1  0.250000  0.252963  0.343520  1
  Si  Si18  1  0.750000  0.753058  0.155953  1
  Si  Si19  1  0.750000  0.751153  0.655083  1
  Si  Si20  1  0.250000  0.180738  0.538460  1
  Si  Si21  1  0.250000  0.311436  0.044390  1
  Si  Si22  1  0.750000  0.811025  0.455980  1
  Si  Si23  1  0.750000  0.688484  0.958236  1
  Pt  Pt24  1  0.250000  0.112912  0.177625  1
  Pt  Pt25  1  0.750000  0.613247  0.321211  1
  Pt  Pt26  1  0.750000  0.886837  0.822921  1
  Au  Au27  1  0.250000  0.384677  0.678296  1
