# generated using pymatgen
data_Tb5Zr3(P3Ir4)4
_symmetry_space_group_name_H-M   'P 1'
_cell_length_a   12.90326200
_cell_length_b   12.90326091
_cell_length_c   3.99382700
_cell_angle_alpha   90.00000000
_cell_angle_beta   90.00000000
_cell_angle_gamma   119.99999767
_symmetry_Int_Tables_number   1
_chemical_formula_structural   Tb5Zr3(P3Ir4)4
_chemical_formula_sum   'Tb5 Zr3 P12 Ir16'
_cell_volume   575.86261517
_cell_formula_units_Z   1
loop_
 _symmetry_equiv_pos_site_id
 _symmetry_equiv_pos_as_xyz
  1  'x, y, z'
loop_
 _atom_site_type_symbol
 _atom_site_label
 _atom_site_symmetry_multiplicity
 _atom_site_fract_x
 _atom_site_fract_y
 _atom_site_fract_z
 _atom_site_occupancy
  Tb  Tb0  1  0.333333  0.666667  0.000000  1
  Tb  Tb1  1  0.666667  0.333333  0.000000  1
  Tb  Tb2  1  0.815079  0.000000  0.500000  1
  Tb  Tb3  1  0.000000  0.815079  0.500000  1
  Tb  Tb4  1  0.184921  0.184921  0.500000  1
  Zr  Zr5  1  0.448790  0.000000  0.000000  1
  Zr  Zr6  1  0.000000  0.448790  0.000000  1
  Zr  Zr7  1  0.551210  0.551210  0.000000  1
  P  P8  1  0.176303  0.000000  0.000000  1
  P  P9  1  0.000000  0.176303  0.000000  1
  P  P10  1  0.823697  0.823697  0.000000  1
  P  P11  1  0.169312  0.482463  0.500000  1
  P  P12  1  0.517537  0.686849  0.500000  1
  P  P13  1  0.313151  0.830688  0.500000  1
  P  P14  1  0.686849  0.517537  0.500000  1
  P  P15  1  0.830688  0.313151  0.500000  1
  P  P16  1  0.482463  0.169312  0.500000  1
  P  P17  1  0.648911  0.000000  0.000000  1
  P  P18  1  0.000000  0.648911  0.000000  1
  P  P19  1  0.351089  0.351089  0.000000  1
  Ir  Ir20  1  0.356577  0.492224  0.500000  1
  Ir  Ir21  1  0.507776  0.864353  0.500000  1
  Ir  Ir22  1  0.135647  0.643423  0.500000  1
  Ir  Ir23  1  0.864353  0.507776  0.500000  1
  Ir  Ir24  1  0.643423  0.135647  0.500000  1
  Ir  Ir25  1  0.492224  0.356577  0.500000  1
  Ir  Ir26  1  0.178167  0.371184  0.000000  1
  Ir  Ir27  1  0.628816  0.806983  0.000000  1
  Ir  Ir28  1  0.193017  0.821833  0.000000  1
  Ir  Ir29  1  0.806983  0.628816  0.000000  1
  Ir  Ir30  1  0.821833  0.193017  0.000000  1
  Ir  Ir31  1  0.371184  0.178167  0.000000  1
  Ir  Ir32  1  0.278735  0.000000  0.500000  1
  Ir  Ir33  1  0.000000  0.278735  0.500000  1
  Ir  Ir34  1  0.721265  0.721265  0.500000  1
  Ir  Ir35  1  0.000000  0.000000  0.000000  1
