# generated using pymatgen
data_Zr20Ga2AgSb9
_symmetry_space_group_name_H-M   'P 1'
_cell_length_a   5.54902600
_cell_length_b   8.40175575
_cell_length_c   15.82059000
_cell_angle_alpha   90.00000000
_cell_angle_beta   90.00000000
_cell_angle_gamma   109.28274481
_symmetry_Int_Tables_number   1
_chemical_formula_structural   Zr20Ga2AgSb9
_chemical_formula_sum   'Zr20 Ga2 Ag1 Sb9'
_cell_volume   696.20266051
_cell_formula_units_Z   1
loop_
 _symmetry_equiv_pos_site_id
 _symmetry_equiv_pos_as_xyz
  1  'x, y, z'
loop_
 _atom_site_type_symbol
 _atom_site_label
 _atom_site_symmetry_multiplicity
 _atom_site_fract_x
 _atom_site_fract_y
 _atom_site_fract_z
 _atom_site_occupancy
  Zr  Zr0  1  0.430880  0.862065  0.356352  1
  Zr  Zr1  1  0.927340  0.857893  0.849680  1
  Zr  Zr2  1  0.069447  0.142107  0.150320  1
  Zr  Zr3  1  0.568815  0.137935  0.643648  1
  Zr  Zr4  1  0.650420  0.298670  0.072317  1
  Zr  Zr5  1  0.144762  0.289022  0.567618  1
  Zr  Zr6  1  0.855740  0.710978  0.432382  1
  Zr  Zr7  1  0.351751  0.701330  0.927683  1
  Zr  Zr8  1  0.849580  0.701330  0.072317  1
  Zr  Zr9  1  0.355238  0.710978  0.567618  1
  Zr  Zr10  1  0.644260  0.289022  0.432382  1
  Zr  Zr11  1  0.148249  0.298670  0.927683  1
  Zr  Zr12  1  0.069120  0.137935  0.356352  1
  Zr  Zr13  1  0.572660  0.142107  0.849680  1
  Zr  Zr14  1  0.430553  0.857893  0.150320  1
  Zr  Zr15  1  0.931185  0.862065  0.643648  1
  Zr  Zr16  1  0.500257  0.499803  0.250430  1
  Zr  Zr17  1  0.000454  0.500197  0.749570  1
  Zr  Zr18  1  0.999743  0.500197  0.250430  1
  Zr  Zr19  1  0.499546  0.499803  0.749570  1
  Ga  Ga20  1  0.750000  0.000000  0.500000  1
  Ga  Ga21  1  0.250000  0.000000  0.500000  1
  Ag  Ag22  1  0.750000  0.000000  0.000000  1
  Sb  Sb23  1  0.913612  0.826430  0.251554  1
  Sb  Sb24  1  0.412818  0.826430  0.748446  1
  Sb  Sb25  1  0.586388  0.173570  0.251554  1
  Sb  Sb26  1  0.087182  0.173570  0.748446  1
  Sb  Sb27  1  0.250000  0.500000  0.086638  1
  Sb  Sb28  1  0.750000  0.500000  0.586409  1
  Sb  Sb29  1  0.250000  0.500000  0.413591  1
  Sb  Sb30  1  0.750000  0.500000  0.913362  1
  Sb  Sb31  1  0.250000  0.000000  0.000000  1
