# generated using pymatgen
data_Ho2Tm4TcOs
_symmetry_space_group_name_H-M   'P 1'
_cell_length_a   6.23747300
_cell_length_b   7.38719200
_cell_length_c   8.94479400
_cell_angle_alpha   90.00000000
_cell_angle_beta   90.00000000
_cell_angle_gamma   90.00000000
_symmetry_Int_Tables_number   1
_chemical_formula_structural   Ho2Tm4TcOs
_chemical_formula_sum   'Ho4 Tm8 Tc2 Os2'
_cell_volume   412.15294628
_cell_formula_units_Z   2
loop_
 _symmetry_equiv_pos_site_id
 _symmetry_equiv_pos_as_xyz
  1  'x, y, z'
loop_
 _atom_site_type_symbol
 _atom_site_label
 _atom_site_symmetry_multiplicity
 _atom_site_fract_x
 _atom_site_fract_y
 _atom_site_fract_z
 _atom_site_occupancy
  Ho  Ho0  1  0.876984  0.539122  0.250000  1
  Ho  Ho1  1  0.623016  0.039122  0.250000  1
  Ho  Ho2  1  0.128638  0.459722  0.750000  1
  Ho  Ho3  1  0.371362  0.959722  0.750000  1
  Tm  Tm4  1  0.338578  0.675088  0.062241  1
  Tm  Tm5  1  0.161422  0.175088  0.437759  1
  Tm  Tm6  1  0.663324  0.324679  0.562884  1
  Tm  Tm7  1  0.836676  0.824679  0.937116  1
  Tm  Tm8  1  0.663324  0.324679  0.937116  1
  Tm  Tm9  1  0.836676  0.824679  0.562884  1
  Tm  Tm10  1  0.338578  0.675088  0.437759  1
  Tm  Tm11  1  0.161422  0.175088  0.062241  1
  Tc  Tc12  1  0.039672  0.883777  0.250000  1
  Tc  Tc13  1  0.460328  0.383777  0.250000  1
  Os  Os14  1  0.957605  0.117841  0.750000  1
  Os  Os15  1  0.542395  0.617841  0.750000  1
