# generated using pymatgen
data_ErP2Ir3
_symmetry_space_group_name_H-M   'P 1'
_cell_length_a   3.96927900
_cell_length_b   11.18099100
_cell_length_c   12.76471400
_cell_angle_alpha   90.00000000
_cell_angle_beta   90.00000000
_cell_angle_gamma   90.00000000
_symmetry_Int_Tables_number   1
_chemical_formula_structural   ErP2Ir3
_chemical_formula_sum   'Er6 P12 Ir18'
_cell_volume   566.50404216
_cell_formula_units_Z   6
loop_
 _symmetry_equiv_pos_site_id
 _symmetry_equiv_pos_as_xyz
  1  'x, y, z'
loop_
 _atom_site_type_symbol
 _atom_site_label
 _atom_site_symmetry_multiplicity
 _atom_site_fract_x
 _atom_site_fract_y
 _atom_site_fract_z
 _atom_site_occupancy
  Er  Er0  1  0.750000  0.250000  0.477322  1
  Er  Er1  1  0.250000  0.750000  0.522678  1
  Er  Er2  1  0.250000  0.934688  0.795603  1
  Er  Er3  1  0.250000  0.565312  0.795603  1
  Er  Er4  1  0.750000  0.065312  0.204397  1
  Er  Er5  1  0.750000  0.434688  0.204397  1
  P  P6  1  0.250000  0.250000  0.124757  1
  P  P7  1  0.750000  0.750000  0.875243  1
  P  P8  1  0.250000  0.250000  0.639970  1
  P  P9  1  0.750000  0.750000  0.360030  1
  P  P10  1  0.250000  0.434608  0.381921  1
  P  P11  1  0.250000  0.065392  0.381921  1
  P  P12  1  0.750000  0.565392  0.618079  1
  P  P13  1  0.750000  0.934608  0.618079  1
  P  P14  1  0.250000  0.905368  0.106445  1
  P  P15  1  0.250000  0.594632  0.106445  1
  P  P16  1  0.750000  0.094632  0.893555  1
  P  P17  1  0.750000  0.405368  0.893555  1
  Ir  Ir18  1  0.250000  0.250000  0.819089  1
  Ir  Ir19  1  0.750000  0.750000  0.180911  1
  Ir  Ir20  1  0.250000  0.250000  0.301050  1
  Ir  Ir21  1  0.750000  0.750000  0.698950  1
  Ir  Ir22  1  0.750000  0.250000  0.028767  1
  Ir  Ir23  1  0.250000  0.750000  0.971233  1
  Ir  Ir24  1  0.250000  0.413586  0.999803  1
  Ir  Ir25  1  0.250000  0.086414  0.999803  1
  Ir  Ir26  1  0.750000  0.586414  0.000197  1
  Ir  Ir27  1  0.750000  0.913586  0.000197  1
  Ir  Ir28  1  0.250000  0.454516  0.569447  1
  Ir  Ir29  1  0.250000  0.045484  0.569447  1
  Ir  Ir30  1  0.750000  0.545484  0.430553  1
  Ir  Ir31  1  0.750000  0.954516  0.430553  1
  Ir  Ir32  1  0.250000  0.881081  0.286009  1
  Ir  Ir33  1  0.250000  0.618919  0.286009  1
  Ir  Ir34  1  0.750000  0.118919  0.713991  1
  Ir  Ir35  1  0.750000  0.381081  0.713991  1
