# generated using pymatgen
data_Y12Tc3Ni
_symmetry_space_group_name_H-M   'P 1'
_cell_length_a   7.38052496
_cell_length_b   9.25671800
_cell_length_c   6.30660217
_cell_angle_alpha   90.00000000
_cell_angle_beta   89.75488612
_cell_angle_gamma   90.00000000
_symmetry_Int_Tables_number   1
_chemical_formula_structural   Y12Tc3Ni
_chemical_formula_sum   'Y12 Tc3 Ni1'
_cell_volume   430.85957487
_cell_formula_units_Z   1
loop_
 _symmetry_equiv_pos_site_id
 _symmetry_equiv_pos_as_xyz
  1  'x, y, z'
loop_
 _atom_site_type_symbol
 _atom_site_label
 _atom_site_symmetry_multiplicity
 _atom_site_fract_x
 _atom_site_fract_y
 _atom_site_fract_z
 _atom_site_occupancy
  Y  Y0  1  0.457494  0.750000  0.128576  1
  Y  Y1  1  0.177181  0.067327  0.170979  1
  Y  Y2  1  0.177181  0.432674  0.170979  1
  Y  Y3  1  0.676983  0.062849  0.336220  1
  Y  Y4  1  0.676983  0.437152  0.336220  1
  Y  Y5  1  0.956415  0.750000  0.359605  1
  Y  Y6  1  0.041604  0.250000  0.629337  1
  Y  Y7  1  0.323470  0.561748  0.665086  1
  Y  Y8  1  0.323470  0.938252  0.665086  1
  Y  Y9  1  0.823435  0.562561  0.833218  1
  Y  Y10  1  0.823435  0.937439  0.833218  1
  Y  Y11  1  0.541116  0.250000  0.875026  1
  Tc  Tc12  1  0.887659  0.250000  0.040114  1
  Tc  Tc13  1  0.386085  0.250000  0.461523  1
  Tc  Tc14  1  0.612984  0.750000  0.541228  1
  Ni  Ni15  1  0.114505  0.750000  0.953586  1
