# generated using pymatgen
data_SmMnCuO5
_symmetry_space_group_name_H-M   'P 1'
_cell_length_a   5.67158000
_cell_length_b   7.68882300
_cell_length_c   8.54860300
_cell_angle_alpha   90.00000000
_cell_angle_beta   90.00000000
_cell_angle_gamma   90.00000000
_symmetry_Int_Tables_number   1
_chemical_formula_structural   SmMnCuO5
_chemical_formula_sum   'Sm4 Mn4 Cu4 O20'
_cell_volume   372.78555405
_cell_formula_units_Z   4
loop_
 _symmetry_equiv_pos_site_id
 _symmetry_equiv_pos_as_xyz
  1  'x, y, z'
loop_
 _atom_site_type_symbol
 _atom_site_label
 _atom_site_symmetry_multiplicity
 _atom_site_fract_x
 _atom_site_fract_y
 _atom_site_fract_z
 _atom_site_occupancy
  Sm  Sm0  1  0.000000  0.350344  0.674524  1
  Sm  Sm1  1  0.000000  0.649656  0.325476  1
  Sm  Sm2  1  0.000000  0.850344  0.825476  1
  Sm  Sm3  1  0.000000  0.149656  0.174524  1
  Mn  Mn4  1  0.260733  0.500000  0.000000  1
  Mn  Mn5  1  0.739267  0.000000  0.500000  1
  Mn  Mn6  1  0.739267  0.500000  0.000000  1
  Mn  Mn7  1  0.260733  0.000000  0.500000  1
  Cu  Cu8  1  0.500000  0.069949  0.849319  1
  Cu  Cu9  1  0.500000  0.930051  0.150681  1
  Cu  Cu10  1  0.500000  0.569949  0.650681  1
  Cu  Cu11  1  0.500000  0.430051  0.349319  1
  O  O12  1  0.245676  0.906430  0.287619  1
  O  O13  1  0.245676  0.093570  0.712381  1
  O  O14  1  0.754324  0.406430  0.212381  1
  O  O15  1  0.754324  0.593570  0.787619  1
  O  O16  1  0.754324  0.093570  0.712381  1
  O  O17  1  0.754324  0.906430  0.287619  1
  O  O18  1  0.245676  0.593570  0.787619  1
  O  O19  1  0.245676  0.406430  0.212381  1
  O  O20  1  0.500000  0.349395  0.938890  1
  O  O21  1  0.500000  0.650605  0.061110  1
  O  O22  1  0.500000  0.849395  0.561110  1
  O  O23  1  0.500000  0.150605  0.438890  1
  O  O24  1  0.276774  0.000000  0.000000  1
  O  O25  1  0.723226  0.500000  0.500000  1
  O  O26  1  0.723226  0.000000  0.000000  1
  O  O27  1  0.276774  0.500000  0.500000  1
  O  O28  1  0.000000  0.160445  0.449952  1
  O  O29  1  0.000000  0.839555  0.550048  1
  O  O30  1  0.000000  0.660445  0.050048  1
  O  O31  1  0.000000  0.339555  0.949952  1
