# generated using pymatgen
data_Ho5Er7Os3Rh
_symmetry_space_group_name_H-M   'P 1'
_cell_length_a   6.32878395
_cell_length_b   7.31353834
_cell_length_c   9.00255397
_cell_angle_alpha   89.99504486
_cell_angle_beta   90.12393285
_cell_angle_gamma   90.27322779
_symmetry_Int_Tables_number   1
_chemical_formula_structural   Ho5Er7Os3Rh
_chemical_formula_sum   'Ho5 Er7 Os3 Rh1'
_cell_volume   416.68473516
_cell_formula_units_Z   1
loop_
 _symmetry_equiv_pos_site_id
 _symmetry_equiv_pos_as_xyz
  1  'x, y, z'
loop_
 _atom_site_type_symbol
 _atom_site_label
 _atom_site_symmetry_multiplicity
 _atom_site_fract_x
 _atom_site_fract_y
 _atom_site_fract_z
 _atom_site_occupancy
  Ho  Ho0  1  0.333457  0.672371  0.061004  1
  Ho  Ho1  1  0.871611  0.538628  0.250405  1
  Ho  Ho2  1  0.629591  0.039275  0.250149  1
  Ho  Ho3  1  0.126444  0.462573  0.749697  1
  Ho  Ho4  1  0.370145  0.962206  0.749787  1
  Er  Er5  1  0.170104  0.177592  0.438655  1
  Er  Er6  1  0.670020  0.324371  0.562993  1
  Er  Er7  1  0.825853  0.824332  0.933692  1
  Er  Er8  1  0.670435  0.324355  0.936722  1
  Er  Er9  1  0.826163  0.824215  0.566193  1
  Er  Er10  1  0.333646  0.672133  0.439456  1
  Er  Er11  1  0.170432  0.177486  0.061162  1
  Os  Os12  1  0.461416  0.383113  0.250715  1
  Os  Os13  1  0.961154  0.115897  0.750484  1
  Os  Os14  1  0.537091  0.616127  0.749354  1
  Rh  Rh15  1  0.042439  0.885325  0.249531  1
