# generated using pymatgen
data_HoErGa9Ru5
_symmetry_space_group_name_H-M   'P 1'
_cell_length_a   8.04229854
_cell_length_b   8.04229857
_cell_length_c   8.04229807
_cell_angle_alpha   134.85498444
_cell_angle_beta   134.95808930
_cell_angle_gamma   65.67549300
_symmetry_Int_Tables_number   1
_chemical_formula_structural   HoErGa9Ru5
_chemical_formula_sum   'Ho1 Er1 Ga9 Ru5'
_cell_volume   257.02491446
_cell_formula_units_Z   1
loop_
 _symmetry_equiv_pos_site_id
 _symmetry_equiv_pos_as_xyz
  1  'x, y, z'
loop_
 _atom_site_type_symbol
 _atom_site_label
 _atom_site_symmetry_multiplicity
 _atom_site_fract_x
 _atom_site_fract_y
 _atom_site_fract_z
 _atom_site_occupancy
  Ho  Ho0  1  0.500000  0.000000  0.500000  1
  Er  Er1  1  0.000000  0.500000  0.500000  1
  Ga  Ga2  1  0.437228  0.858160  0.999703  1
  Ga  Ga3  1  0.141542  0.141840  0.579068  1
  Ga  Ga4  1  0.858458  0.437525  0.000297  1
  Ga  Ga5  1  0.858458  0.858160  0.420932  1
  Ga  Ga6  1  0.562772  0.141840  0.000297  1
  Ga  Ga7  1  0.141542  0.562475  0.999703  1
  Ga  Ga8  1  0.562772  0.562475  0.420932  1
  Ga  Ga9  1  0.000000  0.000000  0.000000  1
  Ga  Ga10  1  0.437228  0.437525  0.579068  1
  Ru  Ru11  1  0.181322  0.181322  0.000000  1
  Ru  Ru12  1  0.818678  0.818678  0.000000  1
  Ru  Ru13  1  0.249931  0.749931  0.500000  1
  Ru  Ru14  1  0.750069  0.250069  0.500000  1
  Ru  Ru15  1  0.500000  0.500000  0.000000  1
