# generated using pymatgen
data_Tb3Ho3Bi2(AuO5)4
_symmetry_space_group_name_H-M   'P 1'
_cell_length_a   8.53956323
_cell_length_b   8.54147564
_cell_length_c   5.73142023
_cell_angle_alpha   88.82721848
_cell_angle_beta   91.15696904
_cell_angle_gamma   89.90723225
_symmetry_Int_Tables_number   1
_chemical_formula_structural   Tb3Ho3Bi2(AuO5)4
_chemical_formula_sum   'Tb3 Ho3 Bi2 Au4 O20'
_cell_volume   417.87884508
_cell_formula_units_Z   1
loop_
 _symmetry_equiv_pos_site_id
 _symmetry_equiv_pos_as_xyz
  1  'x, y, z'
loop_
 _atom_site_type_symbol
 _atom_site_label
 _atom_site_symmetry_multiplicity
 _atom_site_fract_x
 _atom_site_fract_y
 _atom_site_fract_z
 _atom_site_occupancy
  Tb  Tb0  1  0.353371  0.655559  0.247119  1
  Tb  Tb1  1  0.652054  0.651278  0.749614  1
  Tb  Tb2  1  0.848609  0.848463  0.249895  1
  Ho  Ho3  1  0.844083  0.146052  0.747260  1
  Ho  Ho4  1  0.656224  0.353572  0.252816  1
  Ho  Ho5  1  0.145265  0.844635  0.752578  1
  Bi  Bi6  1  0.358891  0.357925  0.750398  1
  Bi  Bi7  1  0.141369  0.141583  0.250424  1
  Au  Au8  1  0.496045  0.000591  0.408365  1
  Au  Au9  1  0.500361  0.003740  0.908068  1
  Au  Au10  1  0.999448  0.495998  0.091507  1
  Au  Au11  1  0.004111  0.499769  0.591898  1
  O  O12  1  0.106799  0.289085  0.599191  1
  O  O13  1  0.909575  0.279423  0.109566  1
  O  O14  1  0.910162  0.716667  0.610945  1
  O  O15  1  0.717250  0.909844  0.888920  1
  O  O16  1  0.220464  0.590095  0.612687  1
  O  O17  1  0.403821  0.788961  0.892094  1
  O  O18  1  0.393345  0.211161  0.400473  1
  O  O19  1  0.782606  0.589896  0.111525  1
  O  O20  1  0.278860  0.911406  0.390791  1
  O  O21  1  0.590841  0.220095  0.890983  1
  O  O22  1  0.494303  0.497942  0.998954  1
  O  O23  1  0.499872  0.492021  0.501089  1
  O  O24  1  0.788993  0.403671  0.603982  1
  O  O25  1  0.093371  0.712094  0.103380  1
  O  O26  1  0.289596  0.106726  0.900759  1
  O  O27  1  0.591151  0.783962  0.389975  1
  O  O28  1  0.210441  0.393176  0.098991  1
  O  O29  1  0.007024  0.001453  0.999901  1
  O  O30  1  0.000437  0.006801  0.500134  1
  O  O31  1  0.711258  0.096355  0.395717  1
