# generated using pymatgen
data_CeTh3CoCu23
_symmetry_space_group_name_H-M   'P 1'
_cell_length_a   5.07161036
_cell_length_b   8.08648147
_cell_length_c   10.08223106
_cell_angle_alpha   90.25695936
_cell_angle_beta   90.15604852
_cell_angle_gamma   89.94177928
_symmetry_Int_Tables_number   1
_chemical_formula_structural   CeTh3CoCu23
_chemical_formula_sum   'Ce1 Th3 Co1 Cu23'
_cell_volume   413.48134986
_cell_formula_units_Z   1
loop_
 _symmetry_equiv_pos_site_id
 _symmetry_equiv_pos_as_xyz
  1  'x, y, z'
loop_
 _atom_site_type_symbol
 _atom_site_label
 _atom_site_symmetry_multiplicity
 _atom_site_fract_x
 _atom_site_fract_y
 _atom_site_fract_z
 _atom_site_occupancy
  Ce  Ce0  1  0.251005  0.260371  0.565073  1
  Th  Th1  1  0.748138  0.736700  0.430257  1
  Th  Th2  1  0.249661  0.758086  0.935780  1
  Th  Th3  1  0.747793  0.245906  0.067867  1
  Co  Co4  1  0.505768  0.565011  0.192712  1
  Cu  Cu5  1  0.005878  0.436360  0.808669  1
  Cu  Cu6  1  0.995205  0.064907  0.308527  1
  Cu  Cu7  1  0.495046  0.935623  0.691202  1
  Cu  Cu8  1  0.746050  0.355014  0.356263  1
  Cu  Cu9  1  0.249422  0.644929  0.641881  1
  Cu  Cu10  1  0.747936  0.851350  0.142609  1
  Cu  Cu11  1  0.250945  0.146143  0.857673  1
  Cu  Cu12  1  0.749793  0.682682  0.743804  1
  Cu  Cu13  1  0.254541  0.316918  0.254688  1
  Cu  Cu14  1  0.750114  0.183048  0.756228  1
  Cu  Cu15  1  0.252451  0.815230  0.244455  1
  Cu  Cu16  1  0.750624  0.940728  0.904507  1
  Cu  Cu17  1  0.246728  0.060494  0.096445  1
  Cu  Cu18  1  0.752418  0.435871  0.595746  1
  Cu  Cu19  1  0.253631  0.558456  0.403069  1
  Cu  Cu20  1  0.745968  0.598853  0.985670  1
  Cu  Cu21  1  0.251253  0.403686  0.016431  1
  Cu  Cu22  1  0.750892  0.101073  0.516209  1
  Cu  Cu23  1  0.248049  0.903119  0.484830  1
  Cu  Cu24  1  0.504356  0.063853  0.309344  1
  Cu  Cu25  1  0.005146  0.936061  0.691655  1
  Cu  Cu26  1  0.996321  0.564108  0.191179  1
  Cu  Cu27  1  0.494865  0.435420  0.807226  1
