# generated using pymatgen
data_SrLa5PrCoI12
_symmetry_space_group_name_H-M   'P 1'
_cell_length_a   10.18133478
_cell_length_b   10.21868464
_cell_length_c   10.04049926
_cell_angle_alpha   106.52719499
_cell_angle_beta   106.03882555
_cell_angle_gamma   106.45145051
_symmetry_Int_Tables_number   1
_chemical_formula_structural   SrLa5PrCoI12
_chemical_formula_sum   'Sr1 La5 Pr1 Co1 I12'
_cell_volume   885.16317645
_cell_formula_units_Z   1
loop_
 _symmetry_equiv_pos_site_id
 _symmetry_equiv_pos_as_xyz
  1  'x, y, z'
loop_
 _atom_site_type_symbol
 _atom_site_label
 _atom_site_symmetry_multiplicity
 _atom_site_fract_x
 _atom_site_fract_y
 _atom_site_fract_z
 _atom_site_occupancy
  Sr  Sr0  1  0.499673  0.501219  0.500340  1
  La  La1  1  0.979912  0.907504  0.715506  1
  La  La2  1  0.020563  0.092090  0.284454  1
  La  La3  1  0.098437  0.303749  0.020325  1
  La  La4  1  0.306158  0.021292  0.099062  1
  La  La5  1  0.899455  0.695133  0.979103  1
  Pr  Pr6  1  0.698818  0.978264  0.901660  1
  Co  Co7  1  0.000515  0.999501  0.000040  1
  I  I8  1  0.545152  0.630726  0.856567  1
  I  I9  1  0.454264  0.372107  0.143929  1
  I  I10  1  0.322434  0.926496  0.771556  1
  I  I11  1  0.373379  0.149057  0.457760  1
  I  I12  1  0.927673  0.776432  0.325736  1
  I  I13  1  0.678571  0.073422  0.225953  1
  I  I14  1  0.071589  0.223333  0.674124  1
  I  I15  1  0.773372  0.320022  0.926537  1
  I  I16  1  0.224031  0.676846  0.072600  1
  I  I17  1  0.851429  0.545055  0.624600  1
  I  I18  1  0.147418  0.454601  0.375176  1
  I  I19  1  0.627159  0.853149  0.544970  1
