# generated using pymatgen
data_Al8Ni3IrOs4
_symmetry_space_group_name_H-M   'P 1'
_cell_length_a   5.96397800
_cell_length_b   4.20050700
_cell_length_c   8.38999000
_cell_angle_alpha   90.00000000
_cell_angle_beta   90.00017524
_cell_angle_gamma   90.00000000
_symmetry_Int_Tables_number   1
_chemical_formula_structural   Al8Ni3IrOs4
_chemical_formula_sum   'Al8 Ni3 Ir1 Os4'
_cell_volume   210.18377540
_cell_formula_units_Z   1
loop_
 _symmetry_equiv_pos_site_id
 _symmetry_equiv_pos_as_xyz
  1  'x, y, z'
loop_
 _atom_site_type_symbol
 _atom_site_label
 _atom_site_symmetry_multiplicity
 _atom_site_fract_x
 _atom_site_fract_y
 _atom_site_fract_z
 _atom_site_occupancy
  Al  Al0  1  0.999297  0.750001  0.126228  1
  Al  Al1  1  0.500699  0.750001  0.126234  1
  Al  Al2  1  0.999394  0.250000  0.374963  1
  Al  Al3  1  0.500597  0.250000  0.374968  1
  Al  Al4  1  0.500695  0.750001  0.623807  1
  Al  Al5  1  0.999315  0.750001  0.623812  1
  Al  Al6  1  0.502879  0.250000  0.874986  1
  Al  Al7  1  0.997125  0.250000  0.874995  1
  Ni  Ni8  1  0.749988  0.250000  0.126391  1
  Ni  Ni9  1  0.249988  0.750001  0.375007  1
  Ni  Ni10  1  0.750014  0.250000  0.623583  1
  Ir  Ir11  1  0.250007  0.750001  0.875018  1
  Os  Os12  1  0.249999  0.250000  0.129703  1
  Os  Os13  1  0.749999  0.750001  0.375010  1
  Os  Os14  1  0.250001  0.250000  0.620273  1
  Os  Os15  1  0.750003  0.750001  0.875022  1
