# generated using pymatgen
data_NaHo11(SiAu)12
_symmetry_space_group_name_H-M   'P 1'
_cell_length_a   4.33165500
_cell_length_b   7.52836837
_cell_length_c   22.25944000
_cell_angle_alpha   89.98209214
_cell_angle_beta   90.00000000
_cell_angle_gamma   90.00000000
_symmetry_Int_Tables_number   1
_chemical_formula_structural   NaHo11(SiAu)12
_chemical_formula_sum   'Na1 Ho11 Si12 Au12'
_cell_volume   725.88685795
_cell_formula_units_Z   1
loop_
 _symmetry_equiv_pos_site_id
 _symmetry_equiv_pos_as_xyz
  1  'x, y, z'
loop_
 _atom_site_type_symbol
 _atom_site_label
 _atom_site_symmetry_multiplicity
 _atom_site_fract_x
 _atom_site_fract_y
 _atom_site_fract_z
 _atom_site_occupancy
  Na  Na0  1  0.250000  0.779564  0.498176  1
  Ho  Ho1  1  0.250000  0.728233  0.335986  1
  Ho  Ho2  1  0.750000  0.270931  0.663840  1
  Ho  Ho3  1  0.750000  0.233713  0.168053  1
  Ho  Ho4  1  0.250000  0.763062  0.832533  1
  Ho  Ho5  1  0.250000  0.765634  0.168750  1
  Ho  Ho6  1  0.750000  0.235835  0.832416  1
  Ho  Ho7  1  0.750000  0.270788  0.334525  1
  Ho  Ho8  1  0.250000  0.730999  0.664238  1
  Ho  Ho9  1  0.250000  0.731533  0.999816  1
  Ho  Ho10  1  0.750000  0.267996  0.002306  1
  Ho  Ho11  1  0.750000  0.219448  0.499139  1
  Si  Si12  1  0.250000  0.084262  0.088371  1
  Si  Si13  1  0.750000  0.914256  0.924518  1
  Si  Si14  1  0.750000  0.583449  0.412446  1
  Si  Si15  1  0.250000  0.415271  0.563361  1
  Si  Si16  1  0.250000  0.087030  0.260417  1
  Si  Si17  1  0.750000  0.912627  0.746533  1
  Si  Si18  1  0.750000  0.584785  0.252058  1
  Si  Si19  1  0.250000  0.415321  0.743164  1
  Si  Si20  1  0.250000  0.089891  0.401623  1
  Si  Si21  1  0.750000  0.913361  0.594428  1
  Si  Si22  1  0.750000  0.588337  0.089002  1
  Si  Si23  1  0.250000  0.413283  0.920891  1
  Au  Au24  1  0.250000  0.417516  0.242921  1
  Au  Au25  1  0.750000  0.579979  0.758938  1
  Au  Au26  1  0.750000  0.918871  0.255548  1
  Au  Au27  1  0.250000  0.083045  0.744924  1
  Au  Au28  1  0.250000  0.419895  0.432971  1
  Au  Au29  1  0.750000  0.581439  0.577491  1
  Au  Au30  1  0.750000  0.919389  0.074903  1
  Au  Au31  1  0.250000  0.082404  0.918075  1
  Au  Au32  1  0.250000  0.418369  0.092464  1
  Au  Au33  1  0.750000  0.579890  0.906082  1
  Au  Au34  1  0.750000  0.917121  0.409574  1
  Au  Au35  1  0.250000  0.082476  0.589521  1
