# generated using pymatgen
data_AcNiAgAs2
_symmetry_space_group_name_H-M   'P 1'
_cell_length_a   4.44306800
_cell_length_b   4.44306800
_cell_length_c   10.28932200
_cell_angle_alpha   90.00000000
_cell_angle_beta   90.00000000
_cell_angle_gamma   90.00000000
_symmetry_Int_Tables_number   1
_chemical_formula_structural   AcNiAgAs2
_chemical_formula_sum   'Ac2 Ni2 Ag2 As4'
_cell_volume   203.11999567
_cell_formula_units_Z   2
loop_
 _symmetry_equiv_pos_site_id
 _symmetry_equiv_pos_as_xyz
  1  'x, y, z'
loop_
 _atom_site_type_symbol
 _atom_site_label
 _atom_site_symmetry_multiplicity
 _atom_site_fract_x
 _atom_site_fract_y
 _atom_site_fract_z
 _atom_site_occupancy
  Ac  Ac0  1  0.000000  0.500000  0.765623  1
  Ac  Ac1  1  0.500000  0.000000  0.234377  1
  Ni  Ni2  1  0.000000  0.500000  0.099082  1
  Ni  Ni3  1  0.500000  0.000000  0.900918  1
  Ag  Ag4  1  0.000000  0.000000  0.500000  1
  Ag  Ag5  1  0.500000  0.500000  0.500000  1
  As  As6  1  0.000000  0.500000  0.336720  1
  As  As7  1  0.000000  0.000000  0.000000  1
  As  As8  1  0.500000  0.000000  0.663280  1
  As  As9  1  0.500000  0.500000  0.000000  1
