# generated using pymatgen
data_TmMn2BiF14
_symmetry_space_group_name_H-M   'P 1'
_cell_length_a   5.48414950
_cell_length_b   8.90734387
_cell_length_c   11.87545500
_cell_angle_alpha   61.76290243
_cell_angle_beta   90.11731532
_cell_angle_gamma   89.92575624
_symmetry_Int_Tables_number   1
_chemical_formula_structural   TmMn2BiF14
_chemical_formula_sum   'Tm2 Mn4 Bi2 F28'
_cell_volume   511.06953778
_cell_formula_units_Z   2
loop_
 _symmetry_equiv_pos_site_id
 _symmetry_equiv_pos_as_xyz
  1  'x, y, z'
loop_
 _atom_site_type_symbol
 _atom_site_label
 _atom_site_symmetry_multiplicity
 _atom_site_fract_x
 _atom_site_fract_y
 _atom_site_fract_z
 _atom_site_occupancy
  Tm  Tm0  1  0.762403  0.192637  0.237140  1
  Tm  Tm1  1  0.237597  0.807363  0.762860  1
  Mn  Mn2  1  0.758371  0.720866  0.040056  1
  Mn  Mn3  1  0.241629  0.279134  0.959944  1
  Mn  Mn4  1  0.260338  0.269482  0.454849  1
  Mn  Mn5  1  0.739662  0.730518  0.545151  1
  Bi  Bi6  1  0.266071  0.820011  0.261473  1
  Bi  Bi7  1  0.733929  0.179989  0.738527  1
  F  F8  1  0.927575  0.709276  0.425919  1
  F  F9  1  0.072425  0.290724  0.574081  1
  F  F10  1  0.436187  0.291650  0.082400  1
  F  F11  1  0.563813  0.708350  0.917600  1
  F  F12  1  0.483756  0.727043  0.126535  1
  F  F13  1  0.516244  0.272957  0.873465  1
  F  F14  1  0.984976  0.266460  0.364277  1
  F  F15  1  0.015024  0.733540  0.635723  1
  F  F16  1  0.944532  0.735329  0.164582  1
  F  F17  1  0.055468  0.264671  0.835418  1
  F  F18  1  0.454972  0.251592  0.331699  1
  F  F19  1  0.545028  0.748408  0.668301  1
  F  F20  1  0.768276  0.485078  0.135177  1
  F  F21  1  0.231724  0.514922  0.864823  1
  F  F22  1  0.272411  0.501932  0.361185  1
  F  F23  1  0.727589  0.498068  0.638815  1
  F  F24  1  0.959599  0.281945  0.046931  1
  F  F25  1  0.040401  0.718055  0.953069  1
  F  F26  1  0.455993  0.721998  0.461918  1
  F  F27  1  0.544007  0.278002  0.538082  1
  F  F28  1  0.739359  0.965230  0.449072  1
  F  F29  1  0.260641  0.034770  0.550928  1
  F  F30  1  0.239435  0.042819  0.048037  1
  F  F31  1  0.760565  0.957181  0.951963  1
  F  F32  1  0.604437  0.976971  0.226060  1
  F  F33  1  0.395563  0.023029  0.773940  1
  F  F34  1  0.093523  0.036702  0.273248  1
  F  F35  1  0.906477  0.963298  0.726752  1
