# generated using pymatgen
data_Y3Ho3Er14(Cd3Rh)2
_symmetry_space_group_name_H-M   'P 1'
_cell_length_a   9.58378600
_cell_length_b   9.58378588
_cell_length_c   9.73891700
_cell_angle_alpha   90.00000000
_cell_angle_beta   90.00000000
_cell_angle_gamma   120.00000042
_symmetry_Int_Tables_number   1
_chemical_formula_structural   Y3Ho3Er14(Cd3Rh)2
_chemical_formula_sum   'Y3 Ho3 Er14 Cd6 Rh2'
_cell_volume   774.66779965
_cell_formula_units_Z   1
loop_
 _symmetry_equiv_pos_site_id
 _symmetry_equiv_pos_as_xyz
  1  'x, y, z'
loop_
 _atom_site_type_symbol
 _atom_site_label
 _atom_site_symmetry_multiplicity
 _atom_site_fract_x
 _atom_site_fract_y
 _atom_site_fract_z
 _atom_site_occupancy
  Y  Y0  1  0.458701  0.541299  0.750000  1
  Y  Y1  1  0.458701  0.917401  0.750000  1
  Y  Y2  1  0.082599  0.541299  0.750000  1
  Ho  Ho3  1  0.541678  0.458322  0.250000  1
  Ho  Ho4  1  0.541678  0.083356  0.250000  1
  Ho  Ho5  1  0.916644  0.458322  0.250000  1
  Er  Er6  1  0.000000  0.000000  0.500179  1
  Er  Er7  1  0.000000  0.000000  0.999821  1
  Er  Er8  1  0.209113  0.790887  0.440441  1
  Er  Er9  1  0.209113  0.418227  0.440441  1
  Er  Er10  1  0.581773  0.790887  0.440441  1
  Er  Er11  1  0.790768  0.209232  0.558630  1
  Er  Er12  1  0.790768  0.581535  0.558630  1
  Er  Er13  1  0.418465  0.209232  0.558630  1
  Er  Er14  1  0.790768  0.209232  0.941370  1
  Er  Er15  1  0.790768  0.581535  0.941370  1
  Er  Er16  1  0.418465  0.209232  0.941370  1
  Er  Er17  1  0.209113  0.790887  0.059559  1
  Er  Er18  1  0.209113  0.418227  0.059559  1
  Er  Er19  1  0.581773  0.790887  0.059559  1
  Cd  Cd20  1  0.885930  0.114070  0.250000  1
  Cd  Cd21  1  0.885930  0.771860  0.250000  1
  Cd  Cd22  1  0.228140  0.114070  0.250000  1
  Cd  Cd23  1  0.113838  0.886162  0.750000  1
  Cd  Cd24  1  0.113838  0.227676  0.750000  1
  Cd  Cd25  1  0.772324  0.886162  0.750000  1
  Rh  Rh26  1  0.333333  0.666667  0.250000  1
  Rh  Rh27  1  0.666667  0.333333  0.750000  1
