# generated using pymatgen
data_Ho4Lu6SiBi5
_symmetry_space_group_name_H-M   'P 1'
_cell_length_a   8.04417600
_cell_length_b   9.28025900
_cell_length_c   11.92663800
_cell_angle_alpha   90.00000000
_cell_angle_beta   90.00000000
_cell_angle_gamma   90.00000000
_symmetry_Int_Tables_number   1
_chemical_formula_structural   Ho4Lu6SiBi5
_chemical_formula_sum   'Ho8 Lu12 Si2 Bi10'
_cell_volume   890.34781794
_cell_formula_units_Z   2
loop_
 _symmetry_equiv_pos_site_id
 _symmetry_equiv_pos_as_xyz
  1  'x, y, z'
loop_
 _atom_site_type_symbol
 _atom_site_label
 _atom_site_symmetry_multiplicity
 _atom_site_fract_x
 _atom_site_fract_y
 _atom_site_fract_z
 _atom_site_occupancy
  Ho  Ho0  1  0.171567  0.750000  0.711660  1
  Ho  Ho1  1  0.671567  0.750000  0.788340  1
  Ho  Ho2  1  0.813554  0.250000  0.280917  1
  Ho  Ho3  1  0.313554  0.250000  0.219083  1
  Ho  Ho4  1  0.351619  0.750000  0.205086  1
  Ho  Ho5  1  0.851619  0.750000  0.294914  1
  Ho  Ho6  1  0.651035  0.250000  0.782822  1
  Ho  Ho7  1  0.151035  0.250000  0.717178  1
  Lu  Lu8  1  0.039271  0.750000  0.988385  1
  Lu  Lu9  1  0.539271  0.750000  0.511615  1
  Lu  Lu10  1  0.982466  0.250000  0.008655  1
  Lu  Lu11  1  0.482466  0.250000  0.491345  1
  Lu  Lu12  1  0.312178  0.451868  0.940414  1
  Lu  Lu13  1  0.812178  0.048132  0.559586  1
  Lu  Lu14  1  0.682141  0.925894  0.054651  1
  Lu  Lu15  1  0.182141  0.574106  0.445349  1
  Lu  Lu16  1  0.682141  0.574106  0.054651  1
  Lu  Lu17  1  0.182141  0.925894  0.445349  1
  Lu  Lu18  1  0.312178  0.048132  0.940414  1
  Lu  Lu19  1  0.812178  0.451868  0.559586  1
  Si  Si20  1  0.411483  0.750000  0.964440  1
  Si  Si21  1  0.911483  0.750000  0.535560  1
  Bi  Bi22  1  0.435572  0.001464  0.672831  1
  Bi  Bi23  1  0.935572  0.498536  0.827169  1
  Bi  Bi24  1  0.561292  0.504150  0.326704  1
  Bi  Bi25  1  0.061292  0.995850  0.173296  1
  Bi  Bi26  1  0.561292  0.995850  0.326704  1
  Bi  Bi27  1  0.061292  0.504150  0.173296  1
  Bi  Bi28  1  0.435572  0.498536  0.672831  1
  Bi  Bi29  1  0.935572  0.001464  0.827169  1
  Bi  Bi30  1  0.596640  0.250000  0.042124  1
  Bi  Bi31  1  0.096640  0.250000  0.457876  1
