# generated using pymatgen
data_TbDy3Se3N2
_symmetry_space_group_name_H-M   'P 1'
_cell_length_a   6.95203936
_cell_length_b   6.95203984
_cell_length_c   10.35535575
_cell_angle_alpha   51.97700569
_cell_angle_beta   51.97700201
_cell_angle_gamma   32.93322978
_symmetry_Int_Tables_number   1
_chemical_formula_structural   TbDy3Se3N2
_chemical_formula_sum   'Tb1 Dy3 Se3 N2'
_cell_volume   208.54171945
_cell_formula_units_Z   1
loop_
 _symmetry_equiv_pos_site_id
 _symmetry_equiv_pos_as_xyz
  1  'x, y, z'
loop_
 _atom_site_type_symbol
 _atom_site_label
 _atom_site_symmetry_multiplicity
 _atom_site_fract_x
 _atom_site_fract_y
 _atom_site_fract_z
 _atom_site_occupancy
  Tb  Tb0  1  0.244638  0.244638  0.638616  1
  Dy  Dy1  1  0.441471  0.441471  0.850401  1
  Dy  Dy2  1  0.558558  0.558558  0.149671  1
  Dy  Dy3  1  0.755897  0.755897  0.361268  1
  Se  Se4  1  0.835483  0.835483  0.771440  1
  Se  Se5  1  0.999657  0.999657  0.000389  1
  Se  Se6  1  0.164502  0.164502  0.229330  1
  N  N7  1  0.351702  0.351702  0.360526  1
  N  N8  1  0.648092  0.648092  0.638360  1
