# generated using pymatgen
data_Ce4Sn2PdRuRh2
_symmetry_space_group_name_H-M   'P 1'
_cell_length_a   7.67723837
_cell_length_b   7.63906961
_cell_length_c   3.77221000
_cell_angle_alpha   90.00000000
_cell_angle_beta   90.00000000
_cell_angle_gamma   90.71950797
_symmetry_Int_Tables_number   1
_chemical_formula_structural   Ce4Sn2PdRuRh2
_chemical_formula_sum   'Ce4 Sn2 Pd1 Ru1 Rh2'
_cell_volume   221.21119930
_cell_formula_units_Z   1
loop_
 _symmetry_equiv_pos_site_id
 _symmetry_equiv_pos_as_xyz
  1  'x, y, z'
loop_
 _atom_site_type_symbol
 _atom_site_label
 _atom_site_symmetry_multiplicity
 _atom_site_fract_x
 _atom_site_fract_y
 _atom_site_fract_z
 _atom_site_occupancy
  Ce  Ce0  1  0.679554  0.169846  0.500000  1
  Ce  Ce1  1  0.321152  0.813879  0.500000  1
  Ce  Ce2  1  0.164788  0.339845  0.500000  1
  Ce  Ce3  1  0.826101  0.676222  0.500000  1
  Sn  Sn4  1  0.000021  0.000270  0.000000  1
  Sn  Sn5  1  0.499641  0.498382  0.000000  1
  Pd  Pd6  1  0.368772  0.129365  0.000000  1
  Ru  Ru7  1  0.141566  0.638981  0.000000  1
  Rh  Rh8  1  0.863112  0.365946  0.000000  1
  Rh  Rh9  1  0.635294  0.867263  0.000000  1
