# generated using pymatgen
data_AcY(ZnGe)2
_symmetry_space_group_name_H-M   'P 1'
_cell_length_a   4.35792000
_cell_length_b   4.35791963
_cell_length_c   16.28366200
_cell_angle_alpha   90.00000000
_cell_angle_beta   90.00000000
_cell_angle_gamma   120.00000281
_symmetry_Int_Tables_number   1
_chemical_formula_structural   AcY(ZnGe)2
_chemical_formula_sum   'Ac2 Y2 Zn4 Ge4'
_cell_volume   267.81886709
_cell_formula_units_Z   2
loop_
 _symmetry_equiv_pos_site_id
 _symmetry_equiv_pos_as_xyz
  1  'x, y, z'
loop_
 _atom_site_type_symbol
 _atom_site_label
 _atom_site_symmetry_multiplicity
 _atom_site_fract_x
 _atom_site_fract_y
 _atom_site_fract_z
 _atom_site_occupancy
  Ac  Ac0  1  0.000000  0.000000  0.000000  1
  Ac  Ac1  1  0.000000  0.000000  0.500000  1
  Y  Y2  1  0.000000  0.000000  0.250000  1
  Y  Y3  1  0.000000  0.000000  0.750000  1
  Zn  Zn4  1  0.333333  0.666667  0.159970  1
  Zn  Zn5  1  0.666667  0.333333  0.840030  1
  Zn  Zn6  1  0.666667  0.333333  0.659970  1
  Zn  Zn7  1  0.333333  0.666667  0.340030  1
  Ge  Ge8  1  0.333333  0.666667  0.623608  1
  Ge  Ge9  1  0.666667  0.333333  0.376392  1
  Ge  Ge10  1  0.666667  0.333333  0.123608  1
  Ge  Ge11  1  0.333333  0.666667  0.876392  1
