# generated using pymatgen
data_Nd4Cd3InCu20
_symmetry_space_group_name_H-M   'P 1'
_cell_length_a   5.08457500
_cell_length_b   5.08457465
_cell_length_c   20.13970400
_cell_angle_alpha   90.00000000
_cell_angle_beta   90.00000000
_cell_angle_gamma   119.99999578
_symmetry_Int_Tables_number   1
_chemical_formula_structural   Nd4Cd3InCu20
_chemical_formula_sum   'Nd4 Cd3 In1 Cu20'
_cell_volume   450.91327264
_cell_formula_units_Z   1
loop_
 _symmetry_equiv_pos_site_id
 _symmetry_equiv_pos_as_xyz
  1  'x, y, z'
loop_
 _atom_site_type_symbol
 _atom_site_label
 _atom_site_symmetry_multiplicity
 _atom_site_fract_x
 _atom_site_fract_y
 _atom_site_fract_z
 _atom_site_occupancy
  Nd  Nd0  1  0.333333  0.666667  0.749723  1
  Nd  Nd1  1  0.666667  0.333333  0.249799  1
  Nd  Nd2  1  0.000000  0.000000  0.001751  1
  Nd  Nd3  1  0.000000  0.000000  0.499863  1
  Cd  Cd4  1  0.333333  0.666667  0.583935  1
  Cd  Cd5  1  0.666667  0.333333  0.416152  1
  Cd  Cd6  1  0.666667  0.333333  0.084328  1
  In  In7  1  0.333333  0.666667  0.915925  1
  Cu  Cu8  1  0.333333  0.666667  0.047672  1
  Cu  Cu9  1  0.666667  0.333333  0.952353  1
  Cu  Cu10  1  0.666667  0.333333  0.547832  1
  Cu  Cu11  1  0.333333  0.666667  0.451918  1
  Cu  Cu12  1  0.000000  0.000000  0.250049  1
  Cu  Cu13  1  0.000000  0.000000  0.749424  1
  Cu  Cu14  1  0.333333  0.666667  0.250042  1
  Cu  Cu15  1  0.666667  0.333333  0.749790  1
  Cu  Cu16  1  0.165795  0.331591  0.147862  1
  Cu  Cu17  1  0.834789  0.669578  0.852120  1
  Cu  Cu18  1  0.668409  0.834205  0.147862  1
  Cu  Cu19  1  0.834241  0.668483  0.647682  1
  Cu  Cu20  1  0.330422  0.165211  0.852120  1
  Cu  Cu21  1  0.165584  0.331167  0.352150  1
  Cu  Cu22  1  0.165795  0.834205  0.147862  1
  Cu  Cu23  1  0.331517  0.165759  0.647682  1
  Cu  Cu24  1  0.834789  0.165211  0.852120  1
  Cu  Cu25  1  0.668833  0.834416  0.352150  1
  Cu  Cu26  1  0.834241  0.165759  0.647682  1
  Cu  Cu27  1  0.165584  0.834416  0.352150  1
