# generated using pymatgen
data_Er8Ta5Ti(Si8W3)2
_symmetry_space_group_name_H-M   'P 1'
_cell_length_a   6.92926984
_cell_length_b   6.92141007
_cell_length_c   12.85770916
_cell_angle_alpha   90.02609169
_cell_angle_beta   90.04838528
_cell_angle_gamma   90.00090956
_symmetry_Int_Tables_number   1
_chemical_formula_structural   Er8Ta5Ti(Si8W3)2
_chemical_formula_sum   'Er8 Ta5 Ti1 Si16 W6'
_cell_volume   616.65953636
_cell_formula_units_Z   1
loop_
 _symmetry_equiv_pos_site_id
 _symmetry_equiv_pos_as_xyz
  1  'x, y, z'
loop_
 _atom_site_type_symbol
 _atom_site_label
 _atom_site_symmetry_multiplicity
 _atom_site_fract_x
 _atom_site_fract_y
 _atom_site_fract_z
 _atom_site_occupancy
  Er  Er0  1  0.339155  0.000774  0.467782  1
  Er  Er1  1  0.499975  0.838808  0.718199  1
  Er  Er2  1  0.500271  0.161868  0.219523  1
  Er  Er3  1  0.838574  0.499933  0.280898  1
  Er  Er4  1  0.161572  0.500075  0.781710  1
  Er  Er5  1  0.661546  0.999449  0.969258  1
  Er  Er6  1  0.000451  0.338754  0.530573  1
  Er  Er7  1  0.999281  0.661975  0.032100  1
  Ta  Ta8  1  0.332768  0.331641  0.000396  1
  Ta  Ta9  1  0.168252  0.830719  0.250422  1
  Ta  Ta10  1  0.829898  0.170398  0.749919  1
  Ta  Ta11  1  0.667806  0.667272  0.499276  1
  Ta  Ta12  1  0.159025  0.006601  0.875000  1
  Ti  Ti13  1  0.993456  0.840920  0.625517  1
  Si  Si14  1  0.205514  0.128440  0.680173  1
  Si  Si15  1  0.372933  0.701982  0.932598  1
  Si  Si16  1  0.629369  0.296186  0.431632  1
  Si  Si17  1  0.703516  0.371011  0.068702  1
  Si  Si18  1  0.296577  0.629223  0.567673  1
  Si  Si19  1  0.795868  0.873011  0.181625  1
  Si  Si20  1  0.126428  0.203536  0.318600  1
  Si  Si21  1  0.869330  0.793964  0.817118  1
  Si  Si22  1  0.293425  0.958660  0.064418  1
  Si  Si23  1  0.540240  0.791335  0.313635  1
  Si  Si24  1  0.460415  0.208457  0.812064  1
  Si  Si25  1  0.793150  0.541016  0.686562  1
  Si  Si26  1  0.208331  0.459167  0.186496  1
  Si  Si27  1  0.707846  0.040903  0.563698  1
  Si  Si28  1  0.957821  0.295422  0.937070  1
  Si  Si29  1  0.041113  0.708103  0.437794  1
  W  W30  1  0.495892  0.659940  0.125054  1
  W  W31  1  0.506500  0.341095  0.622458  1
  W  W32  1  0.659063  0.492362  0.877167  1
  W  W33  1  0.340108  0.503912  0.374985  1
  W  W34  1  0.838824  0.993030  0.373677  1
  W  W35  1  0.005706  0.160058  0.126226  1
