# generated using pymatgen
data_Dy2Th(Ni3P2)3
_symmetry_space_group_name_H-M   'P 1'
_cell_length_a   3.80018400
_cell_length_b   10.46328100
_cell_length_c   12.35106100
_cell_angle_alpha   90.00000000
_cell_angle_beta   90.00000000
_cell_angle_gamma   90.00000000
_symmetry_Int_Tables_number   1
_chemical_formula_structural   Dy2Th(Ni3P2)3
_chemical_formula_sum   'Dy4 Th2 Ni18 P12'
_cell_volume   491.10774199
_cell_formula_units_Z   2
loop_
 _symmetry_equiv_pos_site_id
 _symmetry_equiv_pos_as_xyz
  1  'x, y, z'
loop_
 _atom_site_type_symbol
 _atom_site_label
 _atom_site_symmetry_multiplicity
 _atom_site_fract_x
 _atom_site_fract_y
 _atom_site_fract_z
 _atom_site_occupancy
  Dy  Dy0  1  0.251823  0.685027  0.795932  1
  Dy  Dy1  1  0.251823  0.314973  0.795932  1
  Dy  Dy2  1  0.751823  0.814973  0.204068  1
  Dy  Dy3  1  0.751823  0.185027  0.204068  1
  Th  Th4  1  0.751899  0.000000  0.478539  1
  Th  Th5  1  0.251899  0.500000  0.521461  1
  Ni  Ni6  1  0.751761  0.000000  0.017647  1
  Ni  Ni7  1  0.251761  0.500000  0.982353  1
  Ni  Ni8  1  0.251924  0.196945  0.574006  1
  Ni  Ni9  1  0.251924  0.803055  0.574006  1
  Ni  Ni10  1  0.751924  0.303055  0.425994  1
  Ni  Ni11  1  0.751924  0.696945  0.425994  1
  Ni  Ni12  1  0.251689  0.620548  0.284996  1
  Ni  Ni13  1  0.251689  0.379452  0.284996  1
  Ni  Ni14  1  0.751689  0.879452  0.715004  1
  Ni  Ni15  1  0.751689  0.120548  0.715004  1
  Ni  Ni16  1  0.251915  0.167029  0.005151  1
  Ni  Ni17  1  0.251915  0.832971  0.005151  1
  Ni  Ni18  1  0.751915  0.332971  0.994849  1
  Ni  Ni19  1  0.751915  0.667029  0.994849  1
  Ni  Ni20  1  0.251693  0.000000  0.846147  1
  Ni  Ni21  1  0.751693  0.500000  0.153853  1
  Ni  Ni22  1  0.251864  0.000000  0.300908  1
  Ni  Ni23  1  0.751864  0.500000  0.699092  1
  P  P24  1  0.251943  0.191967  0.384074  1
  P  P25  1  0.251943  0.808033  0.384074  1
  P  P26  1  0.751943  0.308033  0.615926  1
  P  P27  1  0.751943  0.691967  0.615926  1
  P  P28  1  0.251735  0.000000  0.124075  1
  P  P29  1  0.751735  0.500000  0.875925  1
  P  P30  1  0.251720  0.651972  0.105002  1
  P  P31  1  0.251720  0.348028  0.105002  1
  P  P32  1  0.751720  0.848028  0.894998  1
  P  P33  1  0.751720  0.151972  0.894998  1
  P  P34  1  0.251824  0.000000  0.663922  1
  P  P35  1  0.751824  0.500000  0.336078  1
