# generated using pymatgen
data_YHo3Al18CuRh5
_symmetry_space_group_name_H-M   'P 1'
_cell_length_a   7.56767163
_cell_length_b   7.56717961
_cell_length_c   9.44658502
_cell_angle_alpha   90.08424614
_cell_angle_beta   90.07314464
_cell_angle_gamma   119.62981330
_symmetry_Int_Tables_number   1
_chemical_formula_structural   YHo3Al18CuRh5
_chemical_formula_sum   'Y1 Ho3 Al18 Cu1 Rh5'
_cell_volume   470.22762233
_cell_formula_units_Z   1
loop_
 _symmetry_equiv_pos_site_id
 _symmetry_equiv_pos_as_xyz
  1  'x, y, z'
loop_
 _atom_site_type_symbol
 _atom_site_label
 _atom_site_symmetry_multiplicity
 _atom_site_fract_x
 _atom_site_fract_y
 _atom_site_fract_z
 _atom_site_occupancy
  Y  Y0  1  0.328482  0.005012  0.750309  1
  Ho  Ho1  1  0.995009  0.671486  0.249772  1
  Ho  Ho2  1  0.004948  0.328517  0.750225  1
  Ho  Ho3  1  0.671561  0.995047  0.249770  1
  Al  Al4  1  0.128401  0.128440  0.251344  1
  Al  Al5  1  0.871265  0.871507  0.748620  1
  Al  Al6  1  0.000552  0.337723  0.076651  1
  Al  Al7  1  0.999183  0.661978  0.923561  1
  Al  Al8  1  0.999963  0.665218  0.573860  1
  Al  Al9  1  0.334537  0.999762  0.425676  1
  Al  Al10  1  0.999780  0.334541  0.425926  1
  Al  Al11  1  0.665719  0.000224  0.573848  1
  Al  Al12  1  0.662534  0.999431  0.923579  1
  Al  Al13  1  0.337775  0.000549  0.076906  1
  Al  Al14  1  0.333055  0.333278  0.551279  1
  Al  Al15  1  0.666927  0.666929  0.448463  1
  Al  Al16  1  0.664326  0.664328  0.052916  1
  Al  Al17  1  0.335714  0.335945  0.947351  1
  Al  Al18  1  0.338841  0.549363  0.250377  1
  Al  Al19  1  0.661468  0.450973  0.749620  1
  Al  Al20  1  0.549363  0.338871  0.250376  1
  Al  Al21  1  0.450684  0.660923  0.749620  1
  Cu  Cu22  1  0.999914  0.999989  0.000063  1
  Rh  Rh23  1  0.672131  0.328025  0.000091  1
  Rh  Rh24  1  0.327937  0.671975  0.000103  1
  Rh  Rh25  1  0.327935  0.672020  0.499915  1
  Rh  Rh26  1  0.672140  0.327986  0.499905  1
  Rh  Rh27  1  0.999856  0.999961  0.499873  1
