# generated using pymatgen
data_K(HfS2)2
_symmetry_space_group_name_H-M   'P 1'
_cell_length_a   6.27446800
_cell_length_b   7.25025600
_cell_length_c   15.77679900
_cell_angle_alpha   90.00000000
_cell_angle_beta   90.00000000
_cell_angle_gamma   90.00000000
_symmetry_Int_Tables_number   1
_chemical_formula_structural   K(HfS2)2
_chemical_formula_sum   'K4 Hf8 S16'
_cell_volume   717.71024009
_cell_formula_units_Z   4
loop_
 _symmetry_equiv_pos_site_id
 _symmetry_equiv_pos_as_xyz
  1  'x, y, z'
loop_
 _atom_site_type_symbol
 _atom_site_label
 _atom_site_symmetry_multiplicity
 _atom_site_fract_x
 _atom_site_fract_y
 _atom_site_fract_z
 _atom_site_occupancy
  K  K0  1  0.341823  0.000000  0.000000  1
  K  K1  1  0.658177  0.500000  0.500000  1
  K  K2  1  0.031389  0.000000  0.500000  1
  K  K3  1  0.968611  0.500000  0.000000  1
  Hf  Hf4  1  0.999860  0.000000  0.248434  1
  Hf  Hf5  1  0.999860  0.000000  0.751566  1
  Hf  Hf6  1  0.000140  0.500000  0.251566  1
  Hf  Hf7  1  0.000140  0.500000  0.748434  1
  Hf  Hf8  1  0.500000  0.250000  0.250000  1
  Hf  Hf9  1  0.500000  0.750000  0.750000  1
  Hf  Hf10  1  0.500000  0.750000  0.250000  1
  Hf  Hf11  1  0.500000  0.250000  0.750000  1
  S  S12  1  0.833979  0.248345  0.345337  1
  S  S13  1  0.833979  0.751655  0.654663  1
  S  S14  1  0.166021  0.748345  0.154663  1
  S  S15  1  0.166021  0.251655  0.845337  1
  S  S16  1  0.166021  0.251655  0.154663  1
  S  S17  1  0.166021  0.748345  0.845337  1
  S  S18  1  0.833979  0.751655  0.345337  1
  S  S19  1  0.833979  0.248345  0.654663  1
  S  S20  1  0.667110  0.000000  0.155395  1
  S  S21  1  0.667110  0.000000  0.844605  1
  S  S22  1  0.332890  0.500000  0.344605  1
  S  S23  1  0.332890  0.500000  0.655395  1
  S  S24  1  0.334398  0.000000  0.343184  1
  S  S25  1  0.334398  0.000000  0.656816  1
  S  S26  1  0.665602  0.500000  0.156816  1
  S  S27  1  0.665602  0.500000  0.843184  1
