# generated using pymatgen
data_Cs2Ba(NbCl3)6
_symmetry_space_group_name_H-M   'P 1'
_cell_length_a   10.70749441
_cell_length_b   10.70749508
_cell_length_c   10.70749407
_cell_angle_alpha   54.84136605
_cell_angle_beta   54.84136421
_cell_angle_gamma   54.84136507
_symmetry_Int_Tables_number   1
_chemical_formula_structural   Cs2Ba(NbCl3)6
_chemical_formula_sum   'Cs2 Ba1 Nb6 Cl18'
_cell_volume   763.80114918
_cell_formula_units_Z   1
loop_
 _symmetry_equiv_pos_site_id
 _symmetry_equiv_pos_as_xyz
  1  'x, y, z'
loop_
 _atom_site_type_symbol
 _atom_site_label
 _atom_site_symmetry_multiplicity
 _atom_site_fract_x
 _atom_site_fract_y
 _atom_site_fract_z
 _atom_site_occupancy
  Cs  Cs0  1  0.276375  0.276375  0.276375  1
  Cs  Cs1  1  0.723625  0.723625  0.723625  1
  Ba  Ba2  1  0.000000  0.000000  0.000000  1
  Nb  Nb3  1  0.422050  0.302507  0.643202  1
  Nb  Nb4  1  0.356798  0.577950  0.697493  1
  Nb  Nb5  1  0.697493  0.356798  0.577950  1
  Nb  Nb6  1  0.643202  0.422050  0.302507  1
  Nb  Nb7  1  0.577950  0.697493  0.356798  1
  Nb  Nb8  1  0.302507  0.643202  0.422050  1
  Cl  Cl9  1  0.638500  0.101171  0.762531  1
  Cl  Cl10  1  0.762531  0.638500  0.101171  1
  Cl  Cl11  1  0.101171  0.762531  0.638500  1
  Cl  Cl12  1  0.819231  0.332188  0.046940  1
  Cl  Cl13  1  0.175155  0.435168  0.576626  1
  Cl  Cl14  1  0.667812  0.953060  0.180769  1
  Cl  Cl15  1  0.898829  0.237469  0.361500  1
  Cl  Cl16  1  0.564832  0.423374  0.824845  1
  Cl  Cl17  1  0.423374  0.824845  0.564832  1
  Cl  Cl18  1  0.953060  0.180769  0.667812  1
  Cl  Cl19  1  0.180769  0.667812  0.953060  1
  Cl  Cl20  1  0.046940  0.819231  0.332188  1
  Cl  Cl21  1  0.332188  0.046940  0.819231  1
  Cl  Cl22  1  0.237469  0.361500  0.898829  1
  Cl  Cl23  1  0.576626  0.175155  0.435168  1
  Cl  Cl24  1  0.435168  0.576626  0.175155  1
  Cl  Cl25  1  0.361500  0.898829  0.237469  1
  Cl  Cl26  1  0.824845  0.564832  0.423374  1
