# generated using pymatgen
data_Th2Si2P5Ru12
_symmetry_space_group_name_H-M   'P 1'
_cell_length_a   9.54298265
_cell_length_b   9.51491185
_cell_length_c   3.98595600
_cell_angle_alpha   90.00000000
_cell_angle_beta   90.00000000
_cell_angle_gamma   119.75458532
_symmetry_Int_Tables_number   1
_chemical_formula_structural   Th2Si2P5Ru12
_chemical_formula_sum   'Th2 Si2 P5 Ru12'
_cell_volume   314.21052280
_cell_formula_units_Z   1
loop_
 _symmetry_equiv_pos_site_id
 _symmetry_equiv_pos_as_xyz
  1  'x, y, z'
loop_
 _atom_site_type_symbol
 _atom_site_label
 _atom_site_symmetry_multiplicity
 _atom_site_fract_x
 _atom_site_fract_y
 _atom_site_fract_z
 _atom_site_occupancy
  Th  Th0  1  0.666739  0.335312  0.500000  1
  Th  Th1  1  0.333310  0.666207  0.000000  1
  Si  Si2  1  0.609007  0.715299  0.500000  1
  Si  Si3  1  0.000091  0.998205  0.000000  1
  P  P4  1  0.283407  0.891757  0.500000  1
  P  P5  1  0.106931  0.389445  0.500000  1
  P  P6  1  0.894118  0.584999  0.000000  1
  P  P7  1  0.417169  0.312654  0.000000  1
  P  P8  1  0.688269  0.107602  0.000000  1
  Ru  Ru9  1  0.555517  0.951445  0.500000  1
  Ru  Ru10  1  0.387467  0.437650  0.500000  1
  Ru  Ru11  1  0.907455  0.117652  0.500000  1
  Ru  Ru12  1  0.206470  0.088335  0.500000  1
  Ru  Ru13  1  0.888704  0.792090  0.500000  1
  Ru  Ru14  1  0.724782  0.887457  0.000000  1
  Ru  Ru15  1  0.118681  0.837863  0.000000  1
  Ru  Ru16  1  0.159581  0.276262  0.000000  1
  Ru  Ru17  1  0.426881  0.071787  0.000000  1
  Ru  Ru18  1  0.928869  0.357052  0.000000  1
  Ru  Ru19  1  0.643278  0.574158  0.000000  1
  Ru  Ru20  1  0.053274  0.606766  0.500000  1
