# generated using pymatgen
data_Mg2Co7Si4P3Ru5
_symmetry_space_group_name_H-M   'P 1'
_cell_length_a   9.07109585
_cell_length_b   9.20602967
_cell_length_c   3.67665700
_cell_angle_alpha   90.00000000
_cell_angle_beta   90.00000000
_cell_angle_gamma   119.15873086
_symmetry_Int_Tables_number   1
_chemical_formula_structural   Mg2Co7Si4P3Ru5
_chemical_formula_sum   'Mg2 Co7 Si4 P3 Ru5'
_cell_volume   268.12381972
_cell_formula_units_Z   1
loop_
 _symmetry_equiv_pos_site_id
 _symmetry_equiv_pos_as_xyz
  1  'x, y, z'
loop_
 _atom_site_type_symbol
 _atom_site_label
 _atom_site_symmetry_multiplicity
 _atom_site_fract_x
 _atom_site_fract_y
 _atom_site_fract_z
 _atom_site_occupancy
  Mg  Mg0  1  0.003049  0.002362  0.000000  1
  Mg  Mg1  1  0.338178  0.668847  0.500000  1
  Co  Co2  1  0.375809  0.207135  0.000000  1
  Co  Co3  1  0.795626  0.178951  0.000000  1
  Co  Co4  1  0.818386  0.607907  0.000000  1
  Co  Co5  1  0.606433  0.701708  0.000000  1
  Co  Co6  1  0.296825  0.909239  0.000000  1
  Co  Co7  1  0.097422  0.387961  0.000000  1
  Co  Co8  1  0.223162  0.280311  0.500000  1
  Si  Si9  1  0.370015  0.450265  0.000000  1
  Si  Si10  1  0.551205  0.923288  0.000000  1
  Si  Si11  1  0.081743  0.627634  0.000000  1
  Si  Si12  1  0.662959  0.330845  0.000000  1
  P  P13  1  0.264241  0.053514  0.500000  1
  P  P14  1  0.959112  0.219791  0.500000  1
  P  P15  1  0.776644  0.725295  0.500000  1
  Ru  Ru16  1  0.054206  0.780025  0.500000  1
  Ru  Ru17  1  0.730870  0.946437  0.500000  1
  Ru  Ru18  1  0.881739  0.425928  0.500000  1
  Ru  Ru19  1  0.546653  0.122534  0.500000  1
  Ru  Ru20  1  0.565722  0.450019  0.500000  1
