# generated using pymatgen
data_Ta4Al6IrOs
_symmetry_space_group_name_H-M   'P 1'
_cell_length_a   5.15079700
_cell_length_b   5.15079844
_cell_length_c   8.11950300
_cell_angle_alpha   90.00000000
_cell_angle_beta   90.00000000
_cell_angle_gamma   119.99998435
_symmetry_Int_Tables_number   1
_chemical_formula_structural   Ta4Al6IrOs
_chemical_formula_sum   'Ta4 Al6 Ir1 Os1'
_cell_volume   186.55596340
_cell_formula_units_Z   1
loop_
 _symmetry_equiv_pos_site_id
 _symmetry_equiv_pos_as_xyz
  1  'x, y, z'
loop_
 _atom_site_type_symbol
 _atom_site_label
 _atom_site_symmetry_multiplicity
 _atom_site_fract_x
 _atom_site_fract_y
 _atom_site_fract_z
 _atom_site_occupancy
  Ta  Ta0  1  0.333333  0.666667  0.426236  1
  Ta  Ta1  1  0.666667  0.333333  0.573764  1
  Ta  Ta2  1  0.666667  0.333333  0.929713  1
  Ta  Ta3  1  0.333333  0.666667  0.070287  1
  Al  Al4  1  0.830885  0.169115  0.248978  1
  Al  Al5  1  0.830885  0.661771  0.248978  1
  Al  Al6  1  0.338229  0.169115  0.248978  1
  Al  Al7  1  0.169115  0.830885  0.751022  1
  Al  Al8  1  0.169115  0.338229  0.751022  1
  Al  Al9  1  0.661771  0.830885  0.751022  1
  Ir  Ir10  1  0.000000  0.000000  0.000000  1
  Os  Os11  1  0.000000  0.000000  0.500000  1
