# generated using pymatgen
data_Ba2Sb3Au5
_symmetry_space_group_name_H-M   'P 1'
_cell_length_a   4.87034100
_cell_length_b   4.99533853
_cell_length_c   11.00033843
_cell_angle_alpha   88.70229890
_cell_angle_beta   90.00000000
_cell_angle_gamma   90.00000000
_symmetry_Int_Tables_number   1
_chemical_formula_structural   Ba2Sb3Au5
_chemical_formula_sum   'Ba2 Sb3 Au5'
_cell_volume   267.55861510
_cell_formula_units_Z   1
loop_
 _symmetry_equiv_pos_site_id
 _symmetry_equiv_pos_as_xyz
  1  'x, y, z'
loop_
 _atom_site_type_symbol
 _atom_site_label
 _atom_site_symmetry_multiplicity
 _atom_site_fract_x
 _atom_site_fract_y
 _atom_site_fract_z
 _atom_site_occupancy
  Ba  Ba0  1  0.250000  0.736908  0.746871  1
  Ba  Ba1  1  0.750000  0.263470  0.253010  1
  Sb  Sb2  1  0.250000  0.242898  0.499253  1
  Sb  Sb3  1  0.250000  0.803864  0.124308  1
  Sb  Sb4  1  0.750000  0.194144  0.874763  1
  Au  Au5  1  0.750000  0.757222  0.502518  1
  Au  Au6  1  0.750000  0.692574  0.000364  1
  Au  Au7  1  0.750000  0.252250  0.626195  1
  Au  Au8  1  0.250000  0.747229  0.373317  1
  Au  Au9  1  0.250000  0.309440  0.999402  1
