# generated using pymatgen
data_YHo3(OsO4)4
_symmetry_space_group_name_H-M   'P 1'
_cell_length_a   5.36030534
_cell_length_b   7.69509137
_cell_length_c   7.44160316
_cell_angle_alpha   79.67896435
_cell_angle_beta   91.10455710
_cell_angle_gamma   93.85505662
_symmetry_Int_Tables_number   1
_chemical_formula_structural   YHo3(OsO4)4
_chemical_formula_sum   'Y1 Ho3 Os4 O16'
_cell_volume   301.29338748
_cell_formula_units_Z   1
loop_
 _symmetry_equiv_pos_site_id
 _symmetry_equiv_pos_as_xyz
  1  'x, y, z'
loop_
 _atom_site_type_symbol
 _atom_site_label
 _atom_site_symmetry_multiplicity
 _atom_site_fract_x
 _atom_site_fract_y
 _atom_site_fract_z
 _atom_site_occupancy
  Y  Y0  1  0.802917  0.830036  0.897648  1
  Ho  Ho1  1  0.262510  0.115294  0.610163  1
  Ho  Ho2  1  0.737074  0.885532  0.389762  1
  Ho  Ho3  1  0.196226  0.169497  0.102928  1
  Os  Os4  1  0.246680  0.664718  0.206700  1
  Os  Os5  1  0.752755  0.334916  0.793898  1
  Os  Os6  1  0.715584  0.335022  0.299272  1
  Os  Os7  1  0.283729  0.664881  0.700275  1
  O  O8  1  0.055930  0.466164  0.710439  1
  O  O9  1  0.943208  0.533967  0.289344  1
  O  O10  1  0.613289  0.325456  0.550270  1
  O  O11  1  0.386638  0.673456  0.449980  1
  O  O12  1  0.845875  0.318893  0.054797  1
  O  O13  1  0.156781  0.681231  0.945325  1
  O  O14  1  0.407284  0.441059  0.198004  1
  O  O15  1  0.591309  0.557958  0.801733  1
  O  O16  1  0.052776  0.887383  0.179815  1
  O  O17  1  0.949583  0.114169  0.820744  1
  O  O18  1  0.490172  0.109833  0.321708  1
  O  O19  1  0.509073  0.890876  0.676000  1
  O  O20  1  0.448165  0.195961  0.869352  1
  O  O21  1  0.552007  0.803403  0.132977  1
  O  O22  1  0.977298  0.163451  0.382190  1
  O  O23  1  0.023135  0.836843  0.616676  1
