# generated using pymatgen
data_ErU(MoN2)2
_symmetry_space_group_name_H-M   'P 1'
_cell_length_a   3.17093500
_cell_length_b   5.61643100
_cell_length_c   10.81783100
_cell_angle_alpha   90.00000000
_cell_angle_beta   90.00000000
_cell_angle_gamma   90.00000000
_symmetry_Int_Tables_number   1
_chemical_formula_structural   ErU(MoN2)2
_chemical_formula_sum   'Er2 U2 Mo4 N8'
_cell_volume   192.65840474
_cell_formula_units_Z   2
loop_
 _symmetry_equiv_pos_site_id
 _symmetry_equiv_pos_as_xyz
  1  'x, y, z'
loop_
 _atom_site_type_symbol
 _atom_site_label
 _atom_site_symmetry_multiplicity
 _atom_site_fract_x
 _atom_site_fract_y
 _atom_site_fract_z
 _atom_site_occupancy
  Er  Er0  1  0.750000  0.921432  0.150678  1
  Er  Er1  1  0.750000  0.421432  0.349322  1
  U  U2  1  0.250000  0.070932  0.858581  1
  U  U3  1  0.250000  0.570932  0.641419  1
  Mo  Mo4  1  0.250000  0.433776  0.098313  1
  Mo  Mo5  1  0.250000  0.933776  0.401687  1
  Mo  Mo6  1  0.750000  0.569072  0.901798  1
  Mo  Mo7  1  0.750000  0.069072  0.598202  1
  N  N8  1  0.250000  0.165986  0.244467  1
  N  N9  1  0.250000  0.665986  0.255533  1
  N  N10  1  0.750000  0.834073  0.754493  1
  N  N11  1  0.750000  0.334073  0.745507  1
  N  N12  1  0.250000  0.762189  0.998372  1
  N  N13  1  0.250000  0.262189  0.501628  1
  N  N14  1  0.750000  0.242539  0.004580  1
  N  N15  1  0.750000  0.742539  0.495420  1
