# generated using pymatgen
data_Ti6BeBr12
_symmetry_space_group_name_H-M   'P 1'
_cell_length_a   8.48293239
_cell_length_b   8.48293132
_cell_length_c   8.48293219
_cell_angle_alpha   106.89270795
_cell_angle_beta   106.89270300
_cell_angle_gamma   106.89269233
_symmetry_Int_Tables_number   1
_chemical_formula_structural   Ti6BeBr12
_chemical_formula_sum   'Ti6 Be1 Br12'
_cell_volume   509.85507416
_cell_formula_units_Z   1
loop_
 _symmetry_equiv_pos_site_id
 _symmetry_equiv_pos_as_xyz
  1  'x, y, z'
loop_
 _atom_site_type_symbol
 _atom_site_label
 _atom_site_symmetry_multiplicity
 _atom_site_fract_x
 _atom_site_fract_y
 _atom_site_fract_z
 _atom_site_occupancy
  Ti  Ti0  1  0.970537  0.717001  0.906690  1
  Ti  Ti1  1  0.282999  0.093310  0.029463  1
  Ti  Ti2  1  0.093310  0.029463  0.282999  1
  Ti  Ti3  1  0.906690  0.970537  0.717001  1
  Ti  Ti4  1  0.717001  0.906690  0.970537  1
  Ti  Ti5  1  0.029463  0.282999  0.093310  1
  Be  Be6  1  0.000000  0.000000  0.000000  1
  Br  Br7  1  0.923922  0.299429  0.783010  1
  Br  Br8  1  0.700571  0.216990  0.076078  1
  Br  Br9  1  0.429401  0.137062  0.357414  1
  Br  Br10  1  0.862938  0.642586  0.570599  1
  Br  Br11  1  0.216990  0.076078  0.700571  1
  Br  Br12  1  0.642586  0.570599  0.862938  1
  Br  Br13  1  0.357414  0.429401  0.137062  1
  Br  Br14  1  0.783010  0.923922  0.299429  1
  Br  Br15  1  0.137062  0.357414  0.429401  1
  Br  Br16  1  0.570599  0.862938  0.642586  1
  Br  Br17  1  0.299429  0.783010  0.923922  1
  Br  Br18  1  0.076078  0.700571  0.216990  1
