# generated using pymatgen
data_Li6LaSmUN6
_symmetry_space_group_name_H-M   'P 1'
_cell_length_a   6.26190300
_cell_length_b   6.26190369
_cell_length_c   5.47835500
_cell_angle_alpha   90.00000000
_cell_angle_beta   90.00000000
_cell_angle_gamma   120.00001222
_symmetry_Int_Tables_number   1
_chemical_formula_structural   Li6LaSmUN6
_chemical_formula_sum   'Li6 La1 Sm1 U1 N6'
_cell_volume   186.03449036
_cell_formula_units_Z   1
loop_
 _symmetry_equiv_pos_site_id
 _symmetry_equiv_pos_as_xyz
  1  'x, y, z'
loop_
 _atom_site_type_symbol
 _atom_site_label
 _atom_site_symmetry_multiplicity
 _atom_site_fract_x
 _atom_site_fract_y
 _atom_site_fract_z
 _atom_site_occupancy
  Li  Li0  1  0.930933  0.588063  0.591337  1
  Li  Li1  1  0.411937  0.342870  0.591337  1
  Li  Li2  1  0.657130  0.069067  0.591337  1
  Li  Li3  1  0.028446  0.310761  0.400348  1
  Li  Li4  1  0.689239  0.717684  0.400348  1
  Li  Li5  1  0.282316  0.971554  0.400348  1
  La  La6  1  0.333333  0.666667  0.985511  1
  Sm  Sm7  1  0.000000  0.000000  0.971680  1
  U  U8  1  0.666667  0.333333  0.026101  1
  N  N9  1  0.967918  0.644667  0.232397  1
  N  N10  1  0.355333  0.323250  0.232397  1
  N  N11  1  0.676750  0.032082  0.232397  1
  N  N12  1  0.952609  0.326091  0.781487  1
  N  N13  1  0.673909  0.626517  0.781487  1
  N  N14  1  0.373483  0.047391  0.781487  1
