# generated using pymatgen
data_Ba3Tc4(NiP3)2
_symmetry_space_group_name_H-M   'P 1'
_cell_length_a   8.87794547
_cell_length_b   8.87794443
_cell_length_c   8.87794502
_cell_angle_alpha   153.92256315
_cell_angle_beta   89.86050050
_cell_angle_gamma   95.98303977
_symmetry_Int_Tables_number   1
_chemical_formula_structural   Ba3Tc4(NiP3)2
_chemical_formula_sum   'Ba3 Tc4 Ni2 P6'
_cell_volume   299.19197804
_cell_formula_units_Z   1
loop_
 _symmetry_equiv_pos_site_id
 _symmetry_equiv_pos_as_xyz
  1  'x, y, z'
loop_
 _atom_site_type_symbol
 _atom_site_label
 _atom_site_symmetry_multiplicity
 _atom_site_fract_x
 _atom_site_fract_y
 _atom_site_fract_z
 _atom_site_occupancy
  Ba  Ba0  1  0.338367  0.338367  0.000000  1
  Ba  Ba1  1  0.666313  0.666313  0.000000  1
  Ba  Ba2  1  0.995292  0.995292  0.000000  1
  Tc  Tc3  1  0.574678  0.828458  0.746219  1
  Tc  Tc4  1  0.250392  0.504826  0.745566  1
  Tc  Tc5  1  0.759259  0.504826  0.254434  1
  Tc  Tc6  1  0.082239  0.828458  0.253781  1
  Ni  Ni7  1  0.406095  0.166700  0.239396  1
  Ni  Ni8  1  0.927304  0.166700  0.760604  1
  P  P9  1  0.312302  0.666895  0.645407  1
  P  P10  1  0.672239  0.329777  0.342461  1
  P  P11  1  0.987316  0.329777  0.657539  1
  P  P12  1  0.345193  0.003358  0.341834  1
  P  P13  1  0.021488  0.666895  0.354593  1
  P  P14  1  0.661524  0.003358  0.658166  1
