# generated using pymatgen
data_Hf18Re3P2W5
_symmetry_space_group_name_H-M   'P 1'
_cell_length_a   8.64308900
_cell_length_b   8.64308819
_cell_length_c   8.59850600
_cell_angle_alpha   90.00000000
_cell_angle_beta   90.00000000
_cell_angle_gamma   119.99999925
_symmetry_Int_Tables_number   1
_chemical_formula_structural   Hf18Re3P2W5
_chemical_formula_sum   'Hf18 Re3 P2 W5'
_cell_volume   556.27758846
_cell_formula_units_Z   1
loop_
 _symmetry_equiv_pos_site_id
 _symmetry_equiv_pos_as_xyz
  1  'x, y, z'
loop_
 _atom_site_type_symbol
 _atom_site_label
 _atom_site_symmetry_multiplicity
 _atom_site_fract_x
 _atom_site_fract_y
 _atom_site_fract_z
 _atom_site_occupancy
  Hf  Hf0  1  0.196491  0.803509  0.453023  1
  Hf  Hf1  1  0.196491  0.392981  0.453023  1
  Hf  Hf2  1  0.607019  0.803509  0.453023  1
  Hf  Hf3  1  0.803355  0.196645  0.551836  1
  Hf  Hf4  1  0.803355  0.606711  0.551836  1
  Hf  Hf5  1  0.393289  0.196645  0.551836  1
  Hf  Hf6  1  0.803355  0.196645  0.948164  1
  Hf  Hf7  1  0.803355  0.606711  0.948164  1
  Hf  Hf8  1  0.393289  0.196645  0.948164  1
  Hf  Hf9  1  0.196491  0.803509  0.046977  1
  Hf  Hf10  1  0.196491  0.392981  0.046977  1
  Hf  Hf11  1  0.607019  0.803509  0.046977  1
  Hf  Hf12  1  0.538302  0.461698  0.250000  1
  Hf  Hf13  1  0.538302  0.076603  0.250000  1
  Hf  Hf14  1  0.923397  0.461698  0.250000  1
  Hf  Hf15  1  0.459788  0.540212  0.750000  1
  Hf  Hf16  1  0.459788  0.919577  0.750000  1
  Hf  Hf17  1  0.080423  0.540212  0.750000  1
  Re  Re18  1  0.110724  0.889276  0.750000  1
  Re  Re19  1  0.110724  0.221450  0.750000  1
  Re  Re20  1  0.778550  0.889276  0.750000  1
  P  P21  1  0.333333  0.666667  0.250000  1
  P  P22  1  0.666667  0.333333  0.750000  1
  W  W23  1  0.889598  0.110402  0.250000  1
  W  W24  1  0.889598  0.779195  0.250000  1
  W  W25  1  0.220805  0.110402  0.250000  1
  W  W26  1  0.000000  0.000000  0.501301  1
  W  W27  1  0.000000  0.000000  0.998699  1
