# generated using pymatgen
data_Ho2TmCdSi2Ag3
_symmetry_space_group_name_H-M   'P 1'
_cell_length_a   7.19076001
_cell_length_b   7.19143714
_cell_length_c   4.20036600
_cell_angle_alpha   90.00000000
_cell_angle_beta   90.00000000
_cell_angle_gamma   120.00311945
_symmetry_Int_Tables_number   1
_chemical_formula_structural   Ho2TmCdSi2Ag3
_chemical_formula_sum   'Ho2 Tm1 Cd1 Si2 Ag3'
_cell_volume   188.10251261
_cell_formula_units_Z   1
loop_
 _symmetry_equiv_pos_site_id
 _symmetry_equiv_pos_as_xyz
  1  'x, y, z'
loop_
 _atom_site_type_symbol
 _atom_site_label
 _atom_site_symmetry_multiplicity
 _atom_site_fract_x
 _atom_site_fract_y
 _atom_site_fract_z
 _atom_site_occupancy
  Ho  Ho0  1  0.426918  0.427064  0.500000  1
  Ho  Ho1  1  0.573082  0.000147  0.500000  1
  Tm  Tm2  1  0.000000  0.572678  0.500000  1
  Cd  Cd3  1  0.000000  0.999206  0.500000  1
  Si  Si4  1  0.667473  0.333937  0.000000  1
  Si  Si5  1  0.332527  0.666465  0.000000  1
  Ag  Ag6  1  0.736154  0.735836  0.000000  1
  Ag  Ag7  1  0.263846  0.999682  0.000000  1
  Ag  Ag8  1  0.000000  0.264985  0.000000  1
