# generated using pymatgen
data_TlSbBr18
_symmetry_space_group_name_H-M   'P 1'
_cell_length_a   9.54470237
_cell_length_b   9.50853693
_cell_length_c   9.52796673
_cell_angle_alpha   88.55199603
_cell_angle_beta   88.63612407
_cell_angle_gamma   88.71503384
_symmetry_Int_Tables_number   1
_chemical_formula_structural   TlSbBr18
_chemical_formula_sum   'Tl1 Sb1 Br18'
_cell_volume   863.99452311
_cell_formula_units_Z   1
loop_
 _symmetry_equiv_pos_site_id
 _symmetry_equiv_pos_as_xyz
  1  'x, y, z'
loop_
 _atom_site_type_symbol
 _atom_site_label
 _atom_site_symmetry_multiplicity
 _atom_site_fract_x
 _atom_site_fract_y
 _atom_site_fract_z
 _atom_site_occupancy
  Tl  Tl0  1  0.000000  0.000000  0.000000  1
  Sb  Sb1  1  0.500000  0.500000  0.500000  1
  Br  Br2  1  0.794923  0.458281  0.521969  1
  Br  Br3  1  0.523746  0.796078  0.457862  1
  Br  Br4  1  0.459631  0.523585  0.795363  1
  Br  Br5  1  0.205077  0.541719  0.478031  1
  Br  Br6  1  0.476254  0.203922  0.542138  1
  Br  Br7  1  0.540369  0.476415  0.204637  1
  Br  Br8  1  0.898438  0.375457  0.757831  1
  Br  Br9  1  0.759550  0.899840  0.375184  1
  Br  Br10  1  0.375428  0.759321  0.898877  1
  Br  Br11  1  0.101562  0.624543  0.242169  1
  Br  Br12  1  0.240450  0.100160  0.624816  1
  Br  Br13  1  0.624572  0.240679  0.101123  1
  Br  Br14  1  0.021999  0.968875  0.703076  1
  Br  Br15  1  0.703318  0.022197  0.969947  1
  Br  Br16  1  0.970283  0.702129  0.023743  1
  Br  Br17  1  0.978001  0.031125  0.296924  1
  Br  Br18  1  0.296682  0.977803  0.030053  1
  Br  Br19  1  0.029717  0.297871  0.976257  1
