# generated using pymatgen
data_Hf2(PdPt)3
_symmetry_space_group_name_H-M   'P 1'
_cell_length_a   5.68302300
_cell_length_b   5.68302300
_cell_length_c   9.32146500
_cell_angle_alpha   90.00000000
_cell_angle_beta   90.00000000
_cell_angle_gamma   120.00000582
_symmetry_Int_Tables_number   1
_chemical_formula_structural   Hf2(PdPt)3
_chemical_formula_sum   'Hf4 Pd6 Pt6'
_cell_volume   260.71955542
_cell_formula_units_Z   2
loop_
 _symmetry_equiv_pos_site_id
 _symmetry_equiv_pos_as_xyz
  1  'x, y, z'
loop_
 _atom_site_type_symbol
 _atom_site_label
 _atom_site_symmetry_multiplicity
 _atom_site_fract_x
 _atom_site_fract_y
 _atom_site_fract_z
 _atom_site_occupancy
  Hf  Hf0  1  0.666667  0.333333  0.750000  1
  Hf  Hf1  1  0.333333  0.666667  0.250000  1
  Hf  Hf2  1  0.000000  0.000000  0.500000  1
  Hf  Hf3  1  0.000000  0.000000  0.000000  1
  Pd  Pd4  1  0.168798  0.337596  0.750000  1
  Pd  Pd5  1  0.831202  0.168798  0.250000  1
  Pd  Pd6  1  0.337596  0.168798  0.250000  1
  Pd  Pd7  1  0.662404  0.831202  0.750000  1
  Pd  Pd8  1  0.831202  0.662404  0.250000  1
  Pd  Pd9  1  0.168798  0.831202  0.750000  1
  Pt  Pt10  1  0.500000  0.000000  0.000000  1
  Pt  Pt11  1  0.500000  0.500000  0.500000  1
  Pt  Pt12  1  0.000000  0.500000  0.500000  1
  Pt  Pt13  1  0.000000  0.500000  0.000000  1
  Pt  Pt14  1  0.500000  0.500000  0.000000  1
  Pt  Pt15  1  0.500000  0.000000  0.500000  1
