# generated using pymatgen
data_Zr6Zn23Cd
_symmetry_space_group_name_H-M   'P 1'
_cell_length_a   8.86311672
_cell_length_b   8.86204539
_cell_length_c   8.86343124
_cell_angle_alpha   119.99640912
_cell_angle_beta   90.00996870
_cell_angle_gamma   119.99658282
_symmetry_Int_Tables_number   1
_chemical_formula_structural   Zr6Zn23Cd
_chemical_formula_sum   'Zr6 Zn23 Cd1'
_cell_volume   492.28379153
_cell_formula_units_Z   1
loop_
 _symmetry_equiv_pos_site_id
 _symmetry_equiv_pos_as_xyz
  1  'x, y, z'
loop_
 _atom_site_type_symbol
 _atom_site_label
 _atom_site_symmetry_multiplicity
 _atom_site_fract_x
 _atom_site_fract_y
 _atom_site_fract_z
 _atom_site_occupancy
  Zr  Zr0  1  0.274874  0.000002  0.274876  1
  Zr  Zr1  1  0.725108  0.000002  0.274891  1
  Zr  Zr2  1  0.274841  0.549683  0.274840  1
  Zr  Zr3  1  0.274892  0.999998  0.725109  1
  Zr  Zr4  1  0.725126  0.999998  0.725124  1
  Zr  Zr5  1  0.725159  0.450317  0.725160  1
  Zn  Zn6  1  0.499999  0.000000  0.000000  1
  Zn  Zn7  1  0.000000  0.499999  0.000000  1
  Zn  Zn8  1  0.499999  0.499999  0.000000  1
  Zn  Zn9  1  0.348091  0.696207  0.044347  1
  Zn  Zn10  1  0.398711  0.265817  0.132917  1
  Zn  Zn11  1  0.867104  0.265822  0.132911  1
  Zn  Zn12  1  0.867091  0.734176  0.132894  1
  Zn  Zn13  1  0.651879  0.303783  0.348144  1
  Zn  Zn14  1  0.044349  0.696207  0.348093  1
  Zn  Zn15  1  0.651858  0.696209  0.348121  1
  Zn  Zn16  1  0.132911  0.265811  0.398701  1
  Zn  Zn17  1  0.000000  0.000000  0.499999  1
  Zn  Zn18  1  0.000000  0.499999  0.499999  1
  Zn  Zn19  1  0.499999  0.499999  0.499999  1
  Zn  Zn20  1  0.500000  0.000000  0.500000  1
  Zn  Zn21  1  0.867089  0.734189  0.601299  1
  Zn  Zn22  1  0.348121  0.696217  0.651856  1
  Zn  Zn23  1  0.348142  0.303791  0.651879  1
  Zn  Zn24  1  0.955651  0.303793  0.651907  1
  Zn  Zn25  1  0.132909  0.265824  0.867106  1
  Zn  Zn26  1  0.132896  0.734178  0.867089  1
  Zn  Zn27  1  0.601289  0.734183  0.867083  1
  Zn  Zn28  1  0.651909  0.303793  0.955653  1
  Cd  Cd29  1  0.000000  0.000000  0.000000  1
