# generated using pymatgen
data_La2ErTa2Bi3O14
_symmetry_space_group_name_H-M   'P 1'
_cell_length_a   6.67261014
_cell_length_b   6.73916279
_cell_length_c   7.68497300
_cell_angle_alpha   90.00000000
_cell_angle_beta   90.00000000
_cell_angle_gamma   110.79681124
_symmetry_Int_Tables_number   1
_chemical_formula_structural   La2ErTa2Bi3O14
_chemical_formula_sum   'La2 Er1 Ta2 Bi3 O14'
_cell_volume   323.06049762
_cell_formula_units_Z   1
loop_
 _symmetry_equiv_pos_site_id
 _symmetry_equiv_pos_as_xyz
  1  'x, y, z'
loop_
 _atom_site_type_symbol
 _atom_site_label
 _atom_site_symmetry_multiplicity
 _atom_site_fract_x
 _atom_site_fract_y
 _atom_site_fract_z
 _atom_site_occupancy
  La  La0  1  0.002919  0.985304  0.003115  1
  La  La1  1  0.002919  0.985304  0.496885  1
  Er  Er2  1  0.047413  0.502638  0.250000  1
  Ta  Ta3  1  0.499727  0.503257  0.001757  1
  Ta  Ta4  1  0.499727  0.503257  0.498243  1
  Bi  Bi5  1  0.491539  0.966390  0.750000  1
  Bi  Bi6  1  0.526699  0.032530  0.250000  1
  Bi  Bi7  1  0.968562  0.474266  0.750000  1
  O  O8  1  0.865871  0.103096  0.750000  1
  O  O9  1  0.169172  0.857642  0.250000  1
  O  O10  1  0.118680  0.832816  0.750000  1
  O  O11  1  0.911564  0.149823  0.250000  1
  O  O12  1  0.423887  0.194724  0.961582  1
  O  O13  1  0.575680  0.828179  0.465874  1
  O  O14  1  0.175604  0.454434  0.527980  1
  O  O15  1  0.798689  0.553940  0.053461  1
  O  O16  1  0.403106  0.465520  0.250000  1
  O  O17  1  0.544385  0.575605  0.750000  1
  O  O18  1  0.175604  0.454434  0.972020  1
  O  O19  1  0.798689  0.553940  0.446539  1
  O  O20  1  0.423887  0.194724  0.538418  1
  O  O21  1  0.575680  0.828179  0.034126  1
