# generated using pymatgen
data_Sr3Zn2Pd7
_symmetry_space_group_name_H-M   'P 1'
_cell_length_a   9.18554054
_cell_length_b   9.18554181
_cell_length_c   9.18554076
_cell_angle_alpha   35.97268205
_cell_angle_beta   35.97267386
_cell_angle_gamma   35.97267551
_symmetry_Int_Tables_number   1
_chemical_formula_structural   Sr3Zn2Pd7
_chemical_formula_sum   'Sr3 Zn2 Pd7'
_cell_volume   239.16928682
_cell_formula_units_Z   1
loop_
 _symmetry_equiv_pos_site_id
 _symmetry_equiv_pos_as_xyz
  1  'x, y, z'
loop_
 _atom_site_type_symbol
 _atom_site_label
 _atom_site_symmetry_multiplicity
 _atom_site_fract_x
 _atom_site_fract_y
 _atom_site_fract_z
 _atom_site_occupancy
  Sr  Sr0  1  0.359724  0.359724  0.359724  1
  Sr  Sr1  1  0.500000  0.500000  0.500000  1
  Sr  Sr2  1  0.640276  0.640276  0.640276  1
  Zn  Zn3  1  0.166785  0.166785  0.166785  1
  Zn  Zn4  1  0.833215  0.833215  0.833215  1
  Pd  Pd5  1  0.000000  0.000000  0.000000  1
  Pd  Pd6  1  0.578431  0.077987  0.077987  1
  Pd  Pd7  1  0.077987  0.578431  0.077987  1
  Pd  Pd8  1  0.922013  0.922013  0.421569  1
  Pd  Pd9  1  0.077987  0.077987  0.578431  1
  Pd  Pd10  1  0.922013  0.421569  0.922013  1
  Pd  Pd11  1  0.421569  0.922013  0.922013  1
