# generated using pymatgen
data_Zr8Ga3Si5
_symmetry_space_group_name_H-M   'P 1'
_cell_length_a   14.35512924
_cell_length_b   3.80557100
_cell_length_c   5.40368552
_cell_angle_alpha   90.00000000
_cell_angle_beta   90.13042759
_cell_angle_gamma   90.00000000
_symmetry_Int_Tables_number   1
_chemical_formula_structural   Zr8Ga3Si5
_chemical_formula_sum   'Zr8 Ga3 Si5'
_cell_volume   295.19967635
_cell_formula_units_Z   1
loop_
 _symmetry_equiv_pos_site_id
 _symmetry_equiv_pos_as_xyz
  1  'x, y, z'
loop_
 _atom_site_type_symbol
 _atom_site_label
 _atom_site_symmetry_multiplicity
 _atom_site_fract_x
 _atom_site_fract_y
 _atom_site_fract_z
 _atom_site_occupancy
  Zr  Zr0  1  0.211404  0.250001  0.000706  1
  Zr  Zr1  1  0.041452  0.749999  0.246367  1
  Zr  Zr2  1  0.536284  0.749999  0.256525  1
  Zr  Zr3  1  0.714265  0.250001  0.504993  1
  Zr  Zr4  1  0.281975  0.749999  0.503106  1
  Zr  Zr5  1  0.462023  0.250001  0.749212  1
  Zr  Zr6  1  0.965390  0.250001  0.749906  1
  Zr  Zr7  1  0.787706  0.749999  0.989088  1
  Ga  Ga8  1  0.646140  0.250001  0.021245  1
  Ga  Ga9  1  0.897523  0.250001  0.231201  1
  Ga  Ga10  1  0.394648  0.250001  0.267793  1
  Si  Si11  1  0.145213  0.250001  0.487119  1
  Si  Si12  1  0.856258  0.749999  0.509421  1
  Si  Si13  1  0.603200  0.749999  0.737190  1
  Si  Si14  1  0.103817  0.749999  0.761167  1
  Si  Si15  1  0.352698  0.749999  0.984947  1
