# generated using pymatgen
data_Ce4HoEr3(ReC2)4
_symmetry_space_group_name_H-M   'P 1'
_cell_length_a   5.18744400
_cell_length_b   6.52237607
_cell_length_c   9.84783911
_cell_angle_alpha   90.01726044
_cell_angle_beta   90.00000000
_cell_angle_gamma   90.00000000
_symmetry_Int_Tables_number   1
_chemical_formula_structural   Ce4HoEr3(ReC2)4
_chemical_formula_sum   'Ce4 Ho1 Er3 Re4 C8'
_cell_volume   333.19630960
_cell_formula_units_Z   1
loop_
 _symmetry_equiv_pos_site_id
 _symmetry_equiv_pos_as_xyz
  1  'x, y, z'
loop_
 _atom_site_type_symbol
 _atom_site_label
 _atom_site_symmetry_multiplicity
 _atom_site_fract_x
 _atom_site_fract_y
 _atom_site_fract_z
 _atom_site_occupancy
  Ce  Ce0  1  0.250000  0.469157  0.782526  1
  Ce  Ce1  1  0.750000  0.030872  0.282701  1
  Ce  Ce2  1  0.250000  0.969007  0.717298  1
  Ce  Ce3  1  0.750000  0.530931  0.217444  1
  Ho  Ho4  1  0.750000  0.178879  0.947495  1
  Er  Er5  1  0.250000  0.821682  0.052900  1
  Er  Er6  1  0.750000  0.678325  0.552838  1
  Er  Er7  1  0.250000  0.321764  0.447116  1
  Re  Re8  1  0.250000  0.279186  0.134077  1
  Re  Re9  1  0.750000  0.220797  0.633768  1
  Re  Re10  1  0.250000  0.779127  0.366082  1
  Re  Re11  1  0.750000  0.720866  0.866064  1
  C  C12  1  0.250000  0.173297  0.947180  1
  C  C13  1  0.750000  0.826071  0.053031  1
  C  C14  1  0.250000  0.673378  0.552915  1
  C  C15  1  0.750000  0.326675  0.447015  1
  C  C16  1  0.250000  0.046298  0.259624  1
  C  C17  1  0.750000  0.453893  0.759262  1
  C  C18  1  0.250000  0.546346  0.240447  1
  C  C19  1  0.750000  0.953448  0.740216  1
