# generated using pymatgen
data_Zr10Ga5SnS
_symmetry_space_group_name_H-M   'P 1'
_cell_length_a   8.29316213
_cell_length_b   8.27128648
_cell_length_c   5.80547401
_cell_angle_alpha   89.82142286
_cell_angle_beta   90.08905727
_cell_angle_gamma   119.91278544
_symmetry_Int_Tables_number   1
_chemical_formula_structural   Zr10Ga5SnS
_chemical_formula_sum   'Zr10 Ga5 Sn1 S1'
_cell_volume   345.17586980
_cell_formula_units_Z   1
loop_
 _symmetry_equiv_pos_site_id
 _symmetry_equiv_pos_as_xyz
  1  'x, y, z'
loop_
 _atom_site_type_symbol
 _atom_site_label
 _atom_site_symmetry_multiplicity
 _atom_site_fract_x
 _atom_site_fract_y
 _atom_site_fract_z
 _atom_site_occupancy
  Zr  Zr0  1  0.000000  0.756540  0.234473  1
  Zr  Zr1  1  0.257518  0.248994  0.242226  1
  Zr  Zr2  1  0.742482  0.991476  0.242226  1
  Zr  Zr3  1  0.000000  0.250498  0.757412  1
  Zr  Zr4  1  0.748205  0.747068  0.759639  1
  Zr  Zr5  1  0.251795  0.998863  0.759639  1
  Zr  Zr6  1  0.344862  0.673199  0.502428  1
  Zr  Zr7  1  0.655138  0.328336  0.502428  1
  Zr  Zr8  1  0.658102  0.331254  0.997325  1
  Zr  Zr9  1  0.341898  0.673152  0.997325  1
  Ga  Ga10  1  0.608648  0.605918  0.247728  1
  Ga  Ga11  1  0.391352  0.997270  0.247728  1
  Ga  Ga12  1  0.000000  0.606863  0.750589  1
  Ga  Ga13  1  0.389281  0.392140  0.752809  1
  Ga  Ga14  1  0.610719  0.002859  0.752809  1
  Sn  Sn15  1  0.000000  0.394890  0.252054  1
  S  S16  1  0.000000  0.000680  0.501163  1
