# generated using pymatgen
data_Sc4CrMoOs6
_symmetry_space_group_name_H-M   'P 1'
_cell_length_a   5.23371470
_cell_length_b   5.22178841
_cell_length_c   8.63623500
_cell_angle_alpha   90.00000000
_cell_angle_beta   90.00000000
_cell_angle_gamma   121.75931420
_symmetry_Int_Tables_number   1
_chemical_formula_structural   Sc4CrMoOs6
_chemical_formula_sum   'Sc4 Cr1 Mo1 Os6'
_cell_volume   200.68223170
_cell_formula_units_Z   1
loop_
 _symmetry_equiv_pos_site_id
 _symmetry_equiv_pos_as_xyz
  1  'x, y, z'
loop_
 _atom_site_type_symbol
 _atom_site_label
 _atom_site_symmetry_multiplicity
 _atom_site_fract_x
 _atom_site_fract_y
 _atom_site_fract_z
 _atom_site_occupancy
  Sc  Sc0  1  0.338322  0.664800  0.436793  1
  Sc  Sc1  1  0.665732  0.336089  0.567727  1
  Sc  Sc2  1  0.665732  0.336089  0.932273  1
  Sc  Sc3  1  0.338322  0.664800  0.063207  1
  Cr  Cr4  1  0.168507  0.340444  0.750000  1
  Mo  Mo5  1  0.338995  0.166418  0.250000  1
  Os  Os6  1  0.168028  0.819625  0.750000  1
  Os  Os7  1  0.829143  0.655868  0.250000  1
  Os  Os8  1  0.642143  0.815314  0.750000  1
  Os  Os9  1  0.008859  0.014244  0.993096  1
  Os  Os10  1  0.827358  0.172067  0.250000  1
  Os  Os11  1  0.008859  0.014244  0.506904  1
