# generated using pymatgen
data_Dy3Lu(Si5Os3)2
_symmetry_space_group_name_H-M   'P 1'
_cell_length_a   8.11707506
_cell_length_b   8.12953115
_cell_length_c   5.78092213
_cell_angle_alpha   70.58406710
_cell_angle_beta   70.53853109
_cell_angle_gamma   94.02946554
_symmetry_Int_Tables_number   1
_chemical_formula_structural   Dy3Lu(Si5Os3)2
_chemical_formula_sum   'Dy3 Lu1 Si10 Os6'
_cell_volume   332.11858182
_cell_formula_units_Z   1
loop_
 _symmetry_equiv_pos_site_id
 _symmetry_equiv_pos_as_xyz
  1  'x, y, z'
loop_
 _atom_site_type_symbol
 _atom_site_label
 _atom_site_symmetry_multiplicity
 _atom_site_fract_x
 _atom_site_fract_y
 _atom_site_fract_z
 _atom_site_occupancy
  Dy  Dy0  1  0.399924  0.130415  0.746307  1
  Dy  Dy1  1  0.130643  0.398600  0.247017  1
  Dy  Dy2  1  0.600983  0.868369  0.254356  1
  Lu  Lu3  1  0.868204  0.602483  0.752901  1
  Si  Si4  1  0.068026  0.260440  0.834768  1
  Si  Si5  1  0.737920  0.931325  0.667477  1
  Si  Si6  1  0.932367  0.739151  0.166164  1
  Si  Si7  1  0.262951  0.068526  0.333510  1
  Si  Si8  1  0.205501  0.793021  0.748753  1
  Si  Si9  1  0.792516  0.204936  0.254821  1
  Si  Si10  1  0.513665  0.488249  0.747304  1
  Si  Si11  1  0.487156  0.512279  0.250647  1
  Si  Si12  1  0.775023  0.226020  0.747847  1
  Si  Si13  1  0.224296  0.774950  0.251428  1
  Os  Os14  1  0.253491  0.543194  0.631746  1
  Os  Os15  1  0.454889  0.743363  0.869747  1
  Os  Os16  1  0.745480  0.457904  0.366008  1
  Os  Os17  1  0.546182  0.257196  0.128801  1
  Os  Os18  1  0.002596  0.997310  0.750079  1
  Os  Os19  1  0.998186  0.002267  0.250317  1
