# generated using pymatgen
data_Li3Dy3CuSn4
_symmetry_space_group_name_H-M   'P 1'
_cell_length_a   8.63768487
_cell_length_b   8.49930288
_cell_length_c   8.49930288
_cell_angle_alpha   149.01742287
_cell_angle_beta   130.93026865
_cell_angle_gamma   59.01927362
_symmetry_Int_Tables_number   1
_chemical_formula_structural   Li3Dy3CuSn4
_chemical_formula_sum   'Li3 Dy3 Cu1 Sn4'
_cell_volume   240.90112860
_cell_formula_units_Z   1
loop_
 _symmetry_equiv_pos_site_id
 _symmetry_equiv_pos_as_xyz
  1  'x, y, z'
loop_
 _atom_site_type_symbol
 _atom_site_label
 _atom_site_symmetry_multiplicity
 _atom_site_fract_x
 _atom_site_fract_y
 _atom_site_fract_z
 _atom_site_occupancy
  Li  Li0  1  0.015733  0.327063  0.688671  1
  Li  Li1  1  0.986838  0.670545  0.316292  1
  Li  Li2  1  0.636742  0.326685  0.310058  1
  Dy  Dy3  1  0.997605  0.000331  0.997274  1
  Dy  Dy4  1  0.380554  0.870745  0.509809  1
  Dy  Dy5  1  0.617033  0.129002  0.488031  1
  Cu  Cu6  1  0.370072  0.676084  0.693988  1
  Sn  Sn7  1  0.219576  0.213704  0.005871  1
  Sn  Sn8  1  0.698481  0.499246  0.199234  1
  Sn  Sn9  1  0.298032  0.502545  0.795487  1
  Sn  Sn10  1  0.779335  0.784050  0.995285  1
