# generated using pymatgen
data_KHf6(Zr3Te8)2
_symmetry_space_group_name_H-M   'P 1'
_cell_length_a   7.88545786
_cell_length_b   11.12712955
_cell_length_c   11.77916267
_cell_angle_alpha   118.07123501
_cell_angle_beta   109.51971343
_cell_angle_gamma   90.02519124
_symmetry_Int_Tables_number   1
_chemical_formula_structural   KHf6(Zr3Te8)2
_chemical_formula_sum   'K1 Hf6 Zr6 Te16'
_cell_volume   843.94989321
_cell_formula_units_Z   1
loop_
 _symmetry_equiv_pos_site_id
 _symmetry_equiv_pos_as_xyz
  1  'x, y, z'
loop_
 _atom_site_type_symbol
 _atom_site_label
 _atom_site_symmetry_multiplicity
 _atom_site_fract_x
 _atom_site_fract_y
 _atom_site_fract_z
 _atom_site_occupancy
  K  K0  1  0.499941  0.999973  0.999992  1
  Hf  Hf1  1  0.122435  0.125178  0.492163  1
  Hf  Hf2  1  0.619817  0.124365  0.492434  1
  Hf  Hf3  1  0.311389  0.368137  0.875292  1
  Hf  Hf4  1  0.812493  0.367368  0.874341  1
  Hf  Hf5  1  0.189758  0.507547  0.631543  1
  Hf  Hf6  1  0.692939  0.507660  0.632668  1
  Zr  Zr7  1  0.380216  0.875289  0.507909  1
  Zr  Zr8  1  0.877675  0.874513  0.508074  1
  Zr  Zr9  1  0.187725  0.633216  0.125938  1
  Zr  Zr10  1  0.688682  0.632461  0.125076  1
  Zr  Zr11  1  0.306887  0.492050  0.366806  1
  Zr  Zr12  1  0.809877  0.492117  0.367748  1
  Te  Te13  1  0.731235  0.058503  0.711958  1
  Te  Te14  1  0.229169  0.058515  0.710834  1
  Te  Te15  1  0.846368  0.653199  0.941608  1
  Te  Te16  1  0.344901  0.652989  0.941733  1
  Te  Te17  1  0.547593  0.288693  0.347197  1
  Te  Te18  1  0.048541  0.287592  0.346037  1
  Te  Te19  1  0.771922  0.947812  0.291184  1
  Te  Te20  1  0.269972  0.947877  0.290076  1
  Te  Te21  1  0.651900  0.342805  0.051951  1
  Te  Te22  1  0.150551  0.342509  0.052072  1
  Te  Te23  1  0.953600  0.710419  0.658285  1
  Te  Te24  1  0.454479  0.709225  0.657043  1
  Te  Te25  1  0.958067  0.332685  0.665929  1
  Te  Te26  1  0.458226  0.334018  0.666762  1
  Te  Te27  1  0.541713  0.665961  0.333271  1
  Te  Te28  1  0.041930  0.667324  0.334075  1
