# generated using pymatgen
data_Tb12ZnFe4Pb
_symmetry_space_group_name_H-M   'P 1'
_cell_length_a   8.37263617
_cell_length_b   8.37263702
_cell_length_c   8.37263600
_cell_angle_alpha   111.24824417
_cell_angle_beta   110.10082643
_cell_angle_gamma   107.09262401
_symmetry_Int_Tables_number   1
_chemical_formula_structural   Tb12ZnFe4Pb
_chemical_formula_sum   'Tb12 Zn1 Fe4 Pb1'
_cell_volume   451.19103959
_cell_formula_units_Z   1
loop_
 _symmetry_equiv_pos_site_id
 _symmetry_equiv_pos_as_xyz
  1  'x, y, z'
loop_
 _atom_site_type_symbol
 _atom_site_label
 _atom_site_symmetry_multiplicity
 _atom_site_fract_x
 _atom_site_fract_y
 _atom_site_fract_z
 _atom_site_occupancy
  Tb  Tb0  1  0.812810  0.711664  0.524473  1
  Tb  Tb1  1  0.187190  0.288336  0.475527  1
  Tb  Tb2  1  0.187190  0.711664  0.898855  1
  Tb  Tb3  1  0.812810  0.288336  0.101145  1
  Tb  Tb4  1  0.686733  0.384597  0.697863  1
  Tb  Tb5  1  0.313267  0.615403  0.302137  1
  Tb  Tb6  1  0.686733  0.988870  0.302137  1
  Tb  Tb7  1  0.313267  0.011130  0.697863  1
  Tb  Tb8  1  0.573875  0.781630  0.792246  1
  Tb  Tb9  1  0.426125  0.218370  0.207754  1
  Tb  Tb10  1  0.989384  0.781630  0.207754  1
  Tb  Tb11  1  0.010616  0.218370  0.792246  1
  Zn  Zn12  1  0.000000  0.000000  0.000000  1
  Fe  Fe13  1  0.613276  0.000000  0.613276  1
  Fe  Fe14  1  0.386724  0.000000  0.386724  1
  Fe  Fe15  1  0.107940  0.607940  0.500000  1
  Fe  Fe16  1  0.892060  0.392060  0.500000  1
  Pb  Pb17  1  0.500000  0.500000  0.000000  1
