# generated using pymatgen
data_PrNd3Tm4(ReB6)4
_symmetry_space_group_name_H-M   'P 1'
_cell_length_a   3.71235700
_cell_length_b   9.21946701
_cell_length_c   11.68352201
_cell_angle_alpha   89.99486857
_cell_angle_beta   90.00000000
_cell_angle_gamma   90.00000000
_symmetry_Int_Tables_number   1
_chemical_formula_structural   PrNd3Tm4(ReB6)4
_chemical_formula_sum   'Pr1 Nd3 Tm4 Re4 B24'
_cell_volume   399.87967234
_cell_formula_units_Z   1
loop_
 _symmetry_equiv_pos_site_id
 _symmetry_equiv_pos_as_xyz
  1  'x, y, z'
loop_
 _atom_site_type_symbol
 _atom_site_label
 _atom_site_symmetry_multiplicity
 _atom_site_fract_x
 _atom_site_fract_y
 _atom_site_fract_z
 _atom_site_occupancy
  Pr  Pr0  1  0.000000  0.322501  0.414490  1
  Nd  Nd1  1  0.000000  0.677406  0.585610  1
  Nd  Nd2  1  0.000000  0.822653  0.085480  1
  Nd  Nd3  1  0.000000  0.177326  0.914476  1
  Tm  Tm4  1  0.000000  0.943047  0.369454  1
  Tm  Tm5  1  0.000000  0.056776  0.630614  1
  Tm  Tm6  1  0.000000  0.443199  0.130328  1
  Tm  Tm7  1  0.000000  0.556869  0.869624  1
  Re  Re8  1  0.000000  0.640182  0.318659  1
  Re  Re9  1  0.000000  0.360128  0.681530  1
  Re  Re10  1  0.000000  0.139700  0.180977  1
  Re  Re11  1  0.000000  0.860105  0.818751  1
  B  B12  1  0.500000  0.555875  0.430094  1
  B  B13  1  0.500000  0.444764  0.570260  1
  B  B14  1  0.500000  0.055317  0.069753  1
  B  B15  1  0.500000  0.944617  0.930171  1
  B  B16  1  0.500000  0.750906  0.415685  1
  B  B17  1  0.500000  0.249187  0.584839  1
  B  B18  1  0.500000  0.250778  0.084208  1
  B  B19  1  0.500000  0.749213  0.915661  1
  B  B20  1  0.500000  0.792197  0.265864  1
  B  B21  1  0.500000  0.207824  0.734237  1
  B  B22  1  0.500000  0.291935  0.233707  1
  B  B23  1  0.500000  0.707869  0.765929  1
  B  B24  1  0.500000  0.629483  0.185721  1
  B  B25  1  0.500000  0.370660  0.814260  1
  B  B26  1  0.500000  0.129032  0.313816  1
  B  B27  1  0.500000  0.870612  0.685860  1
  B  B28  1  0.500000  0.983492  0.213483  1
  B  B29  1  0.500000  0.016368  0.786461  1
  B  B30  1  0.500000  0.484047  0.286185  1
  B  B31  1  0.500000  0.516474  0.713688  1
  B  B32  1  0.500000  0.595619  0.026247  1
  B  B33  1  0.500000  0.404415  0.973720  1
  B  B34  1  0.500000  0.094972  0.473897  1
  B  B35  1  0.500000  0.904452  0.526263  1
