# generated using pymatgen
data_TbDyTm2(FeOs)4
_symmetry_space_group_name_H-M   'P 1'
_cell_length_a   5.27807283
_cell_length_b   5.26007558
_cell_length_c   9.01870545
_cell_angle_alpha   73.04501165
_cell_angle_beta   90.84515692
_cell_angle_gamma   119.88725654
_symmetry_Int_Tables_number   1
_chemical_formula_structural   TbDyTm2(FeOs)4
_chemical_formula_sum   'Tb1 Dy1 Tm2 Fe4 Os4'
_cell_volume   205.06195987
_cell_formula_units_Z   1
loop_
 _symmetry_equiv_pos_site_id
 _symmetry_equiv_pos_as_xyz
  1  'x, y, z'
loop_
 _atom_site_type_symbol
 _atom_site_label
 _atom_site_symmetry_multiplicity
 _atom_site_fract_x
 _atom_site_fract_y
 _atom_site_fract_z
 _atom_site_occupancy
  Tb  Tb0  1  0.877506  0.751771  0.373963  1
  Dy  Dy1  1  0.497284  0.998024  0.501235  1
  Tm  Tm2  1  0.377515  0.751453  0.874609  1
  Tm  Tm3  1  0.997574  0.998700  0.000174  1
  Fe  Fe4  1  0.187566  0.374981  0.437603  1
  Fe  Fe5  1  0.687486  0.375000  0.937489  1
  Fe  Fe6  1  0.938128  0.376408  0.185312  1
  Fe  Fe7  1  0.436782  0.373569  0.689645  1
  Os  Os8  1  0.437369  0.376897  0.184687  1
  Os  Os9  1  0.937709  0.373119  0.690296  1
  Os  Os10  1  0.437369  0.875786  0.184687  1
  Os  Os11  1  0.937709  0.874292  0.690296  1
