# generated using pymatgen
data_Nd20Si11Ge
_symmetry_space_group_name_H-M   'P 1'
_cell_length_a   7.77134400
_cell_length_b   7.77134400
_cell_length_c   14.22490900
_cell_angle_alpha   90.00000000
_cell_angle_beta   90.00000000
_cell_angle_gamma   90.00000000
_symmetry_Int_Tables_number   1
_chemical_formula_structural   Nd20Si11Ge
_chemical_formula_sum   'Nd20 Si11 Ge1'
_cell_volume   859.09613230
_cell_formula_units_Z   1
loop_
 _symmetry_equiv_pos_site_id
 _symmetry_equiv_pos_as_xyz
  1  'x, y, z'
loop_
 _atom_site_type_symbol
 _atom_site_label
 _atom_site_symmetry_multiplicity
 _atom_site_fract_x
 _atom_site_fract_y
 _atom_site_fract_z
 _atom_site_occupancy
  Nd  Nd0  1  0.316567  0.672314  0.107196  1
  Nd  Nd1  1  0.172314  0.183433  0.107196  1
  Nd  Nd2  1  0.500000  0.000000  0.728209  1
  Nd  Nd3  1  0.328593  0.684828  0.393620  1
  Nd  Nd4  1  0.669490  0.685848  0.892822  1
  Nd  Nd5  1  0.184828  0.171407  0.393620  1
  Nd  Nd6  1  0.671407  0.315172  0.393620  1
  Nd  Nd7  1  0.171156  0.814965  0.606370  1
  Nd  Nd8  1  0.330510  0.314152  0.892822  1
  Nd  Nd9  1  0.185848  0.830510  0.892822  1
  Nd  Nd10  1  0.500000  0.000000  0.231464  1
  Nd  Nd11  1  0.828844  0.185035  0.606370  1
  Nd  Nd12  1  0.314965  0.328844  0.606370  1
  Nd  Nd13  1  0.815172  0.828593  0.393620  1
  Nd  Nd14  1  0.814152  0.169490  0.892822  1
  Nd  Nd15  1  0.827686  0.816567  0.107196  1
  Nd  Nd16  1  0.000000  0.500000  0.270320  1
  Nd  Nd17  1  0.000000  0.500000  0.769014  1
  Nd  Nd18  1  0.683433  0.327686  0.107196  1
  Nd  Nd19  1  0.685035  0.671156  0.606370  1
  Si  Si20  1  0.114241  0.114616  0.749583  1
  Si  Si21  1  0.385384  0.614241  0.749583  1
  Si  Si22  1  0.614591  0.614248  0.250365  1
  Si  Si23  1  0.500000  0.000000  0.006464  1
  Si  Si24  1  0.114248  0.885409  0.250365  1
  Si  Si25  1  0.614616  0.385759  0.749583  1
  Si  Si26  1  0.885759  0.885384  0.749583  1
  Si  Si27  1  0.385409  0.385752  0.250365  1
  Si  Si28  1  0.885752  0.114591  0.250365  1
  Si  Si29  1  0.500000  0.000000  0.504772  1
  Si  Si30  1  0.000000  0.500000  0.494603  1
  Ge  Ge31  1  0.000000  0.500000  0.995336  1
