# generated using pymatgen
data_Ce(FeCl4)3
_symmetry_space_group_name_H-M   'P 1'
_cell_length_a   10.21090000
_cell_length_b   10.21090018
_cell_length_c   18.29511300
_cell_angle_alpha   90.00000000
_cell_angle_beta   90.00000000
_cell_angle_gamma   119.99999943
_symmetry_Int_Tables_number   1
_chemical_formula_structural   Ce(FeCl4)3
_chemical_formula_sum   'Ce3 Fe9 Cl36'
_cell_volume   1651.93815383
_cell_formula_units_Z   3
loop_
 _symmetry_equiv_pos_site_id
 _symmetry_equiv_pos_as_xyz
  1  'x, y, z'
loop_
 _atom_site_type_symbol
 _atom_site_label
 _atom_site_symmetry_multiplicity
 _atom_site_fract_x
 _atom_site_fract_y
 _atom_site_fract_z
 _atom_site_occupancy
  Ce  Ce0  1  0.736846  0.000000  0.333333  1
  Ce  Ce1  1  0.000000  0.736846  0.666667  1
  Ce  Ce2  1  0.263154  0.263154  0.000000  1
  Fe  Fe3  1  0.297399  0.634493  0.719100  1
  Fe  Fe4  1  0.365507  0.662907  0.052434  1
  Fe  Fe5  1  0.634493  0.297399  0.280900  1
  Fe  Fe6  1  0.337093  0.702601  0.385767  1
  Fe  Fe7  1  0.662907  0.365507  0.947566  1
  Fe  Fe8  1  0.702601  0.337093  0.614233  1
  Fe  Fe9  1  0.095257  0.000000  0.833333  1
  Fe  Fe10  1  0.000000  0.095257  0.166667  1
  Fe  Fe11  1  0.904743  0.904743  0.500000  1
  Cl  Cl12  1  0.072525  0.196247  0.869060  1
  Cl  Cl13  1  0.803753  0.876277  0.202393  1
  Cl  Cl14  1  0.196247  0.072525  0.130940  1
  Cl  Cl15  1  0.123723  0.927475  0.535726  1
  Cl  Cl16  1  0.876277  0.803753  0.797607  1
  Cl  Cl17  1  0.927475  0.123723  0.464274  1
  Cl  Cl18  1  0.073897  0.588723  0.772282  1
  Cl  Cl19  1  0.411277  0.485173  0.105616  1
  Cl  Cl20  1  0.588723  0.073897  0.227718  1
  Cl  Cl21  1  0.514827  0.926103  0.438949  1
  Cl  Cl22  1  0.485173  0.411277  0.894384  1
  Cl  Cl23  1  0.926103  0.514827  0.561051  1
  Cl  Cl24  1  0.513431  0.286450  0.545073  1
  Cl  Cl25  1  0.713550  0.226980  0.878407  1
  Cl  Cl26  1  0.286450  0.513431  0.454927  1
  Cl  Cl27  1  0.773020  0.486569  0.211740  1
  Cl  Cl28  1  0.226980  0.713550  0.121593  1
  Cl  Cl29  1  0.486569  0.773020  0.788260  1
  Cl  Cl30  1  0.227473  0.513218  0.957922  1
  Cl  Cl31  1  0.486782  0.714255  0.291256  1
  Cl  Cl32  1  0.513218  0.227473  0.042078  1
  Cl  Cl33  1  0.285745  0.772527  0.624589  1
  Cl  Cl34  1  0.714255  0.486782  0.708744  1
  Cl  Cl35  1  0.772527  0.285745  0.375411  1
  Cl  Cl36  1  0.226815  0.019573  0.731337  1
  Cl  Cl37  1  0.980427  0.207242  0.064670  1
  Cl  Cl38  1  0.019573  0.226815  0.268663  1
  Cl  Cl39  1  0.792758  0.773185  0.398004  1
  Cl  Cl40  1  0.207242  0.980427  0.935330  1
  Cl  Cl41  1  0.773185  0.792758  0.601996  1
  Cl  Cl42  1  0.281050  0.427058  0.682191  1
  Cl  Cl43  1  0.572942  0.853993  0.015524  1
  Cl  Cl44  1  0.427058  0.281050  0.317809  1
  Cl  Cl45  1  0.146007  0.718950  0.348857  1
  Cl  Cl46  1  0.853993  0.572942  0.984476  1
  Cl  Cl47  1  0.718950  0.146007  0.651143  1
