# generated using pymatgen
data_Hf2Ni4P3
_symmetry_space_group_name_H-M   'P 1'
_cell_length_a   12.17792800
_cell_length_b   12.17792712
_cell_length_c   3.66010300
_cell_angle_alpha   90.00000000
_cell_angle_beta   90.00000000
_cell_angle_gamma   120.00000238
_symmetry_Int_Tables_number   1
_chemical_formula_structural   Hf2Ni4P3
_chemical_formula_sum   'Hf8 Ni16 P12'
_cell_volume   470.07883868
_cell_formula_units_Z   4
loop_
 _symmetry_equiv_pos_site_id
 _symmetry_equiv_pos_as_xyz
  1  'x, y, z'
loop_
 _atom_site_type_symbol
 _atom_site_label
 _atom_site_symmetry_multiplicity
 _atom_site_fract_x
 _atom_site_fract_y
 _atom_site_fract_z
 _atom_site_occupancy
  Hf  Hf0  1  0.823448  0.823448  0.500000  1
  Hf  Hf1  1  0.445488  0.445488  0.000000  1
  Hf  Hf2  1  0.000000  0.176552  0.500000  1
  Hf  Hf3  1  0.554512  0.000000  0.000000  1
  Hf  Hf4  1  0.333333  0.666667  0.000000  1
  Hf  Hf5  1  0.666667  0.333333  0.000000  1
  Hf  Hf6  1  0.000000  0.554512  0.000000  1
  Hf  Hf7  1  0.176552  0.000000  0.500000  1
  Ni  Ni8  1  0.629708  0.819593  0.000000  1
  Ni  Ni9  1  0.370292  0.189885  0.000000  1
  Ni  Ni10  1  0.000000  0.725663  0.500000  1
  Ni  Ni11  1  0.274337  0.274337  0.500000  1
  Ni  Ni12  1  0.873600  0.354177  0.500000  1
  Ni  Ni13  1  0.725663  0.000000  0.500000  1
  Ni  Ni14  1  0.819593  0.629708  0.000000  1
  Ni  Ni15  1  0.180407  0.810115  0.000000  1
  Ni  Ni16  1  0.354177  0.873600  0.500000  1
  Ni  Ni17  1  0.126400  0.480577  0.500000  1
  Ni  Ni18  1  0.645823  0.519423  0.500000  1
  Ni  Ni19  1  0.000000  0.000000  0.000000  1
  Ni  Ni20  1  0.519423  0.645823  0.500000  1
  Ni  Ni21  1  0.480577  0.126400  0.500000  1
  Ni  Ni22  1  0.189885  0.370292  0.000000  1
  Ni  Ni23  1  0.810115  0.180407  0.000000  1
  P  P24  1  0.000000  0.348419  0.000000  1
  P  P25  1  0.827426  0.514268  0.500000  1
  P  P26  1  0.686841  0.172574  0.500000  1
  P  P27  1  0.175728  0.175728  0.000000  1
  P  P28  1  0.651581  0.651581  0.000000  1
  P  P29  1  0.824272  0.000000  0.000000  1
  P  P30  1  0.514268  0.827426  0.500000  1
  P  P31  1  0.172574  0.686841  0.500000  1
  P  P32  1  0.348419  0.000000  0.000000  1
  P  P33  1  0.485732  0.313159  0.500000  1
  P  P34  1  0.000000  0.824272  0.000000  1
  P  P35  1  0.313159  0.485732  0.500000  1
