# generated using pymatgen
data_Nd2ZrAlPt2
_symmetry_space_group_name_H-M   'P 1'
_cell_length_a   4.54378500
_cell_length_b   7.44217400
_cell_length_c   8.07411000
_cell_angle_alpha   90.00000000
_cell_angle_beta   90.00000000
_cell_angle_gamma   90.00000000
_symmetry_Int_Tables_number   1
_chemical_formula_structural   Nd2ZrAlPt2
_chemical_formula_sum   'Nd4 Zr2 Al2 Pt4'
_cell_volume   273.03118568
_cell_formula_units_Z   2
loop_
 _symmetry_equiv_pos_site_id
 _symmetry_equiv_pos_as_xyz
  1  'x, y, z'
loop_
 _atom_site_type_symbol
 _atom_site_label
 _atom_site_symmetry_multiplicity
 _atom_site_fract_x
 _atom_site_fract_y
 _atom_site_fract_z
 _atom_site_occupancy
  Nd  Nd0  1  0.750000  0.451897  0.176218  1
  Nd  Nd1  1  0.250000  0.048103  0.676218  1
  Nd  Nd2  1  0.750000  0.987045  0.326273  1
  Nd  Nd3  1  0.250000  0.512955  0.826273  1
  Zr  Zr4  1  0.750000  0.870574  0.935116  1
  Zr  Zr5  1  0.250000  0.629426  0.435116  1
  Al  Al6  1  0.750000  0.360997  0.567026  1
  Al  Al7  1  0.250000  0.139003  0.067026  1
  Pt  Pt8  1  0.750000  0.719152  0.614284  1
  Pt  Pt9  1  0.750000  0.227619  0.881082  1
  Pt  Pt10  1  0.250000  0.272381  0.381082  1
  Pt  Pt11  1  0.250000  0.780848  0.114284  1
