# generated using pymatgen
data_DyLu3(ScPt)4
_symmetry_space_group_name_H-M   'P 1'
_cell_length_a   4.60494800
_cell_length_b   6.91541830
_cell_length_c   8.33831571
_cell_angle_alpha   89.82426156
_cell_angle_beta   90.00000000
_cell_angle_gamma   90.00000000
_symmetry_Int_Tables_number   1
_chemical_formula_structural   DyLu3(ScPt)4
_chemical_formula_sum   'Dy1 Lu3 Sc4 Pt4'
_cell_volume   265.53359606
_cell_formula_units_Z   1
loop_
 _symmetry_equiv_pos_site_id
 _symmetry_equiv_pos_as_xyz
  1  'x, y, z'
loop_
 _atom_site_type_symbol
 _atom_site_label
 _atom_site_symmetry_multiplicity
 _atom_site_fract_x
 _atom_site_fract_y
 _atom_site_fract_z
 _atom_site_occupancy
  Dy  Dy0  1  0.250000  0.517711  0.175503  1
  Lu  Lu1  1  0.750000  0.482068  0.824110  1
  Lu  Lu2  1  0.750000  0.980793  0.675114  1
  Lu  Lu3  1  0.250000  0.018030  0.326886  1
  Sc  Sc4  1  0.250000  0.641564  0.573956  1
  Sc  Sc5  1  0.750000  0.355315  0.428871  1
  Sc  Sc6  1  0.750000  0.858689  0.073059  1
  Sc  Sc7  1  0.250000  0.143215  0.925933  1
  Pt  Pt8  1  0.250000  0.754091  0.897047  1
  Pt  Pt9  1  0.750000  0.247043  0.097891  1
  Pt  Pt10  1  0.750000  0.749338  0.401349  1
  Pt  Pt11  1  0.250000  0.252146  0.600281  1
