# generated using pymatgen
data_Dy16Tm4Ir11Os
_symmetry_space_group_name_H-M   'P 1'
_cell_length_a   10.86336900
_cell_length_b   10.86336900
_cell_length_c   6.38487000
_cell_angle_alpha   90.00000000
_cell_angle_beta   90.00000000
_cell_angle_gamma   90.00000000
_symmetry_Int_Tables_number   1
_chemical_formula_structural   Dy16Tm4Ir11Os
_chemical_formula_sum   'Dy16 Tm4 Ir11 Os1'
_cell_volume   753.49629714
_cell_formula_units_Z   1
loop_
 _symmetry_equiv_pos_site_id
 _symmetry_equiv_pos_as_xyz
  1  'x, y, z'
loop_
 _atom_site_type_symbol
 _atom_site_label
 _atom_site_symmetry_multiplicity
 _atom_site_fract_x
 _atom_site_fract_y
 _atom_site_fract_z
 _atom_site_occupancy
  Dy  Dy0  1  0.292134  0.087298  0.376675  1
  Dy  Dy1  1  0.292594  0.912750  0.880330  1
  Dy  Dy2  1  0.707406  0.087250  0.880330  1
  Dy  Dy3  1  0.707866  0.912702  0.376675  1
  Dy  Dy4  1  0.587250  0.792594  0.880330  1
  Dy  Dy5  1  0.587298  0.207866  0.376675  1
  Dy  Dy6  1  0.412702  0.792134  0.376675  1
  Dy  Dy7  1  0.412750  0.207406  0.880330  1
  Dy  Dy8  1  0.209363  0.411702  0.621390  1
  Dy  Dy9  1  0.209281  0.588084  0.121109  1
  Dy  Dy10  1  0.790719  0.411916  0.121109  1
  Dy  Dy11  1  0.790637  0.588298  0.621390  1
  Dy  Dy12  1  0.911916  0.709281  0.121109  1
  Dy  Dy13  1  0.911702  0.290637  0.621390  1
  Dy  Dy14  1  0.088298  0.709363  0.621390  1
  Dy  Dy15  1  0.088084  0.290719  0.121109  1
  Tm  Tm16  1  0.000000  0.000000  0.499501  1
  Tm  Tm17  1  0.000000  0.000000  0.999424  1
  Tm  Tm18  1  0.500000  0.500000  0.999424  1
  Tm  Tm19  1  0.500000  0.500000  0.499501  1
  Ir  Ir20  1  0.848370  0.153009  0.250247  1
  Ir  Ir21  1  0.848363  0.847273  0.749866  1
  Ir  Ir22  1  0.151637  0.152727  0.749866  1
  Ir  Ir23  1  0.151630  0.846991  0.250247  1
  Ir  Ir24  1  0.652727  0.348363  0.749866  1
  Ir  Ir25  1  0.653009  0.651630  0.250247  1
  Ir  Ir26  1  0.346991  0.348370  0.250247  1
  Ir  Ir27  1  0.347273  0.651637  0.749866  1
  Ir  Ir28  1  0.500000  0.000000  0.624075  1
  Ir  Ir29  1  0.000000  0.500000  0.876807  1
  Ir  Ir30  1  0.000000  0.500000  0.377114  1
  Os  Os31  1  0.500000  0.000000  0.125680  1
