# generated using pymatgen
data_LiDyB6Ir
_symmetry_space_group_name_H-M   'P 1'
_cell_length_a   3.52521000
_cell_length_b   8.82451000
_cell_length_c   11.22784700
_cell_angle_alpha   90.00000000
_cell_angle_beta   90.00000000
_cell_angle_gamma   90.00000000
_symmetry_Int_Tables_number   1
_chemical_formula_structural   LiDyB6Ir
_chemical_formula_sum   'Li4 Dy4 B24 Ir4'
_cell_volume   349.27868151
_cell_formula_units_Z   4
loop_
 _symmetry_equiv_pos_site_id
 _symmetry_equiv_pos_as_xyz
  1  'x, y, z'
loop_
 _atom_site_type_symbol
 _atom_site_label
 _atom_site_symmetry_multiplicity
 _atom_site_fract_x
 _atom_site_fract_y
 _atom_site_fract_z
 _atom_site_occupancy
  Li  Li0  1  0.500000  0.445818  0.123201  1
  Li  Li1  1  0.500000  0.554182  0.876799  1
  Li  Li2  1  0.500000  0.054182  0.623201  1
  Li  Li3  1  0.500000  0.945818  0.376799  1
  Dy  Dy4  1  0.500000  0.316348  0.414468  1
  Dy  Dy5  1  0.500000  0.683652  0.585532  1
  Dy  Dy6  1  0.500000  0.183652  0.914468  1
  Dy  Dy7  1  0.500000  0.816348  0.085532  1
  B  B8  1  0.000000  0.090549  0.475193  1
  B  B9  1  0.000000  0.909451  0.524807  1
  B  B10  1  0.000000  0.409451  0.975193  1
  B  B11  1  0.000000  0.590549  0.024807  1
  B  B12  1  0.000000  0.123751  0.318808  1
  B  B13  1  0.000000  0.876249  0.681192  1
  B  B14  1  0.000000  0.376249  0.818808  1
  B  B15  1  0.000000  0.623751  0.181192  1
  B  B16  1  0.000000  0.055617  0.067981  1
  B  B17  1  0.000000  0.944383  0.932019  1
  B  B18  1  0.000000  0.444383  0.567981  1
  B  B19  1  0.000000  0.555617  0.432019  1
  B  B20  1  0.000000  0.478994  0.285166  1
  B  B21  1  0.000000  0.521006  0.714834  1
  B  B22  1  0.000000  0.021006  0.785166  1
  B  B23  1  0.000000  0.978994  0.214834  1
  B  B24  1  0.000000  0.258385  0.082341  1
  B  B25  1  0.000000  0.741615  0.917659  1
  B  B26  1  0.000000  0.241615  0.582341  1
  B  B27  1  0.000000  0.758385  0.417659  1
  B  B28  1  0.000000  0.293024  0.235828  1
  B  B29  1  0.000000  0.706976  0.764172  1
  B  B30  1  0.000000  0.206976  0.735828  1
  B  B31  1  0.000000  0.793024  0.264172  1
  Ir  Ir32  1  0.500000  0.140135  0.182157  1
  Ir  Ir33  1  0.500000  0.859865  0.817843  1
  Ir  Ir34  1  0.500000  0.359865  0.682157  1
  Ir  Ir35  1  0.500000  0.640135  0.317843  1
