# generated using pymatgen
data_EuCo3P2
_symmetry_space_group_name_H-M   'P 1'
_cell_length_a   3.75825300
_cell_length_b   10.68056800
_cell_length_c   12.33815600
_cell_angle_alpha   90.00000000
_cell_angle_beta   90.00000000
_cell_angle_gamma   90.00000000
_symmetry_Int_Tables_number   1
_chemical_formula_structural   EuCo3P2
_chemical_formula_sum   'Eu6 Co18 P12'
_cell_volume   495.25699615
_cell_formula_units_Z   6
loop_
 _symmetry_equiv_pos_site_id
 _symmetry_equiv_pos_as_xyz
  1  'x, y, z'
loop_
 _atom_site_type_symbol
 _atom_site_label
 _atom_site_symmetry_multiplicity
 _atom_site_fract_x
 _atom_site_fract_y
 _atom_site_fract_z
 _atom_site_occupancy
  Eu  Eu0  1  0.000000  0.500000  0.524877  1
  Eu  Eu1  1  0.500000  0.000000  0.475123  1
  Eu  Eu2  1  0.500000  0.820282  0.205956  1
  Eu  Eu3  1  0.500000  0.179718  0.205956  1
  Eu  Eu4  1  0.000000  0.679718  0.794044  1
  Eu  Eu5  1  0.000000  0.320282  0.794044  1
  Co  Co6  1  0.500000  0.500000  0.155955  1
  Co  Co7  1  0.000000  0.000000  0.844045  1
  Co  Co8  1  0.500000  0.500000  0.702419  1
  Co  Co9  1  0.000000  0.000000  0.297581  1
  Co  Co10  1  0.000000  0.500000  0.990351  1
  Co  Co11  1  0.500000  0.000000  0.009649  1
  Co  Co12  1  0.500000  0.332986  0.996188  1
  Co  Co13  1  0.500000  0.667014  0.996188  1
  Co  Co14  1  0.000000  0.167014  0.003812  1
  Co  Co15  1  0.000000  0.832986  0.003812  1
  Co  Co16  1  0.500000  0.297917  0.430733  1
  Co  Co17  1  0.500000  0.702083  0.430733  1
  Co  Co18  1  0.000000  0.202083  0.569267  1
  Co  Co19  1  0.000000  0.797917  0.569267  1
  Co  Co20  1  0.500000  0.881675  0.710448  1
  Co  Co21  1  0.500000  0.118325  0.710448  1
  Co  Co22  1  0.000000  0.618325  0.289552  1
  Co  Co23  1  0.000000  0.381675  0.289552  1
  P  P24  1  0.500000  0.500000  0.887240  1
  P  P25  1  0.000000  0.000000  0.112760  1
  P  P26  1  0.500000  0.500000  0.338792  1
  P  P27  1  0.000000  0.000000  0.661208  1
  P  P28  1  0.500000  0.303858  0.615002  1
  P  P29  1  0.500000  0.696142  0.615002  1
  P  P30  1  0.000000  0.196142  0.384998  1
  P  P31  1  0.000000  0.803858  0.384998  1
  P  P32  1  0.500000  0.846582  0.894499  1
  P  P33  1  0.500000  0.153418  0.894499  1
  P  P34  1  0.000000  0.653418  0.105501  1
  P  P35  1  0.000000  0.346582  0.105501  1
