# generated using pymatgen
data_Y2PaMn7(CoP3)2
_symmetry_space_group_name_H-M   'P 1'
_cell_length_a   3.67769500
_cell_length_b   10.82737800
_cell_length_c   12.41956500
_cell_angle_alpha   90.00000000
_cell_angle_beta   90.00000000
_cell_angle_gamma   90.00000000
_symmetry_Int_Tables_number   1
_chemical_formula_structural   Y2PaMn7(CoP3)2
_chemical_formula_sum   'Y4 Pa2 Mn14 Co4 P12'
_cell_volume   494.54451905
_cell_formula_units_Z   2
loop_
 _symmetry_equiv_pos_site_id
 _symmetry_equiv_pos_as_xyz
  1  'x, y, z'
loop_
 _atom_site_type_symbol
 _atom_site_label
 _atom_site_symmetry_multiplicity
 _atom_site_fract_x
 _atom_site_fract_y
 _atom_site_fract_z
 _atom_site_occupancy
  Y  Y0  1  0.500000  0.819624  0.204603  1
  Y  Y1  1  0.500000  0.180376  0.204603  1
  Y  Y2  1  0.000000  0.680376  0.795397  1
  Y  Y3  1  0.000000  0.319624  0.795397  1
  Pa  Pa4  1  0.000000  0.500000  0.535079  1
  Pa  Pa5  1  0.500000  0.000000  0.464921  1
  Mn  Mn6  1  0.500000  0.500000  0.158655  1
  Mn  Mn7  1  0.000000  0.000000  0.841345  1
  Mn  Mn8  1  0.500000  0.330099  0.996105  1
  Mn  Mn9  1  0.500000  0.669901  0.996105  1
  Mn  Mn10  1  0.000000  0.169901  0.003895  1
  Mn  Mn11  1  0.000000  0.830099  0.003895  1
  Mn  Mn12  1  0.500000  0.302727  0.431642  1
  Mn  Mn13  1  0.500000  0.697273  0.431642  1
  Mn  Mn14  1  0.000000  0.197273  0.568358  1
  Mn  Mn15  1  0.000000  0.802727  0.568358  1
  Mn  Mn16  1  0.500000  0.885088  0.705487  1
  Mn  Mn17  1  0.500000  0.114912  0.705487  1
  Mn  Mn18  1  0.000000  0.614912  0.294513  1
  Mn  Mn19  1  0.000000  0.385088  0.294513  1
  Co  Co20  1  0.500000  0.500000  0.697892  1
  Co  Co21  1  0.000000  0.000000  0.302108  1
  Co  Co22  1  0.000000  0.500000  0.989300  1
  Co  Co23  1  0.500000  0.000000  0.010700  1
  P  P24  1  0.500000  0.500000  0.883154  1
  P  P25  1  0.000000  0.000000  0.116846  1
  P  P26  1  0.500000  0.500000  0.353527  1
  P  P27  1  0.000000  0.000000  0.646473  1
  P  P28  1  0.500000  0.309997  0.618798  1
  P  P29  1  0.500000  0.690003  0.618798  1
  P  P30  1  0.000000  0.190003  0.381202  1
  P  P31  1  0.000000  0.809997  0.381202  1
  P  P32  1  0.500000  0.848594  0.889433  1
  P  P33  1  0.500000  0.151406  0.889433  1
  P  P34  1  0.000000  0.651406  0.110567  1
  P  P35  1  0.000000  0.348594  0.110567  1
