# generated using pymatgen
data_Lu8Zr8Si16MoW3
_symmetry_space_group_name_H-M   'P 1'
_cell_length_a   6.87715500
_cell_length_b   7.09679215
_cell_length_c   13.64069800
_cell_angle_alpha   90.00000000
_cell_angle_beta   90.00000000
_cell_angle_gamma   89.99015263
_symmetry_Int_Tables_number   1
_chemical_formula_structural   Lu8Zr8Si16MoW3
_chemical_formula_sum   'Lu8 Zr8 Si16 Mo1 W3'
_cell_volume   665.74434525
_cell_formula_units_Z   1
loop_
 _symmetry_equiv_pos_site_id
 _symmetry_equiv_pos_as_xyz
  1  'x, y, z'
loop_
 _atom_site_type_symbol
 _atom_site_label
 _atom_site_symmetry_multiplicity
 _atom_site_fract_x
 _atom_site_fract_y
 _atom_site_fract_z
 _atom_site_occupancy
  Lu  Lu0  1  0.511023  0.322376  0.097755  1
  Lu  Lu1  1  0.011083  0.178178  0.402298  1
  Lu  Lu2  1  0.489113  0.677635  0.597762  1
  Lu  Lu3  1  0.988994  0.822465  0.902078  1
  Lu  Lu4  1  0.489113  0.677635  0.902238  1
  Lu  Lu5  1  0.988994  0.822465  0.597922  1
  Lu  Lu6  1  0.511023  0.322376  0.402245  1
  Lu  Lu7  1  0.011083  0.178178  0.097702  1
  Zr  Zr8  1  0.824970  0.326341  0.626137  1
  Zr  Zr9  1  0.325075  0.173294  0.874057  1
  Zr  Zr10  1  0.174495  0.673024  0.126018  1
  Zr  Zr11  1  0.675296  0.826513  0.374001  1
  Zr  Zr12  1  0.174495  0.673024  0.373982  1
  Zr  Zr13  1  0.675296  0.826513  0.125999  1
  Zr  Zr14  1  0.824970  0.326341  0.873863  1
  Zr  Zr15  1  0.325075  0.173294  0.625943  1
  Si  Si16  1  0.658431  0.030259  0.543157  1
  Si  Si17  1  0.158231  0.469876  0.956469  1
  Si  Si18  1  0.341518  0.969435  0.043428  1
  Si  Si19  1  0.841089  0.530847  0.457738  1
  Si  Si20  1  0.341518  0.969435  0.456572  1
  Si  Si21  1  0.841089  0.530847  0.042262  1
  Si  Si22  1  0.658431  0.030259  0.956843  1
  Si  Si23  1  0.158231  0.469876  0.543531  1
  Si  Si24  1  0.523083  0.391102  0.750000  1
  Si  Si25  1  0.023431  0.108873  0.750000  1
  Si  Si26  1  0.476656  0.609326  0.250000  1
  Si  Si27  1  0.977314  0.892222  0.250000  1
  Si  Si28  1  0.786216  0.639379  0.750000  1
  Si  Si29  1  0.286320  0.860448  0.750000  1
  Si  Si30  1  0.214768  0.360292  0.250000  1
  Si  Si31  1  0.713623  0.138735  0.250000  1
  Mo  Mo32  1  0.847164  0.505835  0.250000  1
  W  W33  1  0.652590  0.005764  0.750000  1
  W  W34  1  0.152411  0.494066  0.750000  1
  W  W35  1  0.347792  0.993471  0.250000  1
