# generated using pymatgen
data_Er3Mg(Co4P3)2
_symmetry_space_group_name_H-M   'P 1'
_cell_length_a   3.72404100
_cell_length_b   10.58194900
_cell_length_c   12.26138600
_cell_angle_alpha   90.00000000
_cell_angle_beta   90.00000000
_cell_angle_gamma   90.00000000
_symmetry_Int_Tables_number   1
_chemical_formula_structural   Er3Mg(Co4P3)2
_chemical_formula_sum   'Er6 Mg2 Co16 P12'
_cell_volume   483.19194128
_cell_formula_units_Z   2
loop_
 _symmetry_equiv_pos_site_id
 _symmetry_equiv_pos_as_xyz
  1  'x, y, z'
loop_
 _atom_site_type_symbol
 _atom_site_label
 _atom_site_symmetry_multiplicity
 _atom_site_fract_x
 _atom_site_fract_y
 _atom_site_fract_z
 _atom_site_occupancy
  Er  Er0  1  0.750000  0.250000  0.473998  1
  Er  Er1  1  0.250000  0.750000  0.526002  1
  Er  Er2  1  0.250000  0.927556  0.793679  1
  Er  Er3  1  0.250000  0.572444  0.793679  1
  Er  Er4  1  0.750000  0.072444  0.206321  1
  Er  Er5  1  0.750000  0.427556  0.206321  1
  Mg  Mg6  1  0.250000  0.250000  0.842625  1
  Mg  Mg7  1  0.750000  0.750000  0.157375  1
  Co  Co8  1  0.250000  0.250000  0.295033  1
  Co  Co9  1  0.750000  0.750000  0.704967  1
  Co  Co10  1  0.750000  0.250000  0.011407  1
  Co  Co11  1  0.250000  0.750000  0.988593  1
  Co  Co12  1  0.250000  0.417438  0.003277  1
  Co  Co13  1  0.250000  0.082562  0.003277  1
  Co  Co14  1  0.750000  0.582562  0.996723  1
  Co  Co15  1  0.750000  0.917438  0.996723  1
  Co  Co16  1  0.250000  0.453509  0.567911  1
  Co  Co17  1  0.250000  0.046491  0.567911  1
  Co  Co18  1  0.750000  0.546491  0.432089  1
  Co  Co19  1  0.750000  0.953509  0.432089  1
  Co  Co20  1  0.250000  0.872722  0.294426  1
  Co  Co21  1  0.250000  0.627278  0.294426  1
  Co  Co22  1  0.750000  0.127278  0.705574  1
  Co  Co23  1  0.750000  0.372722  0.705574  1
  P  P24  1  0.250000  0.250000  0.115338  1
  P  P25  1  0.750000  0.750000  0.884662  1
  P  P26  1  0.250000  0.250000  0.643363  1
  P  P27  1  0.750000  0.750000  0.356637  1
  P  P28  1  0.250000  0.439467  0.384136  1
  P  P29  1  0.250000  0.060533  0.384136  1
  P  P30  1  0.750000  0.560533  0.615864  1
  P  P31  1  0.750000  0.939467  0.615864  1
  P  P32  1  0.250000  0.911584  0.107617  1
  P  P33  1  0.250000  0.588416  0.107617  1
  P  P34  1  0.750000  0.088416  0.892383  1
  P  P35  1  0.750000  0.411584  0.892383  1
