# generated using pymatgen
data_Ho8HgTe3
_symmetry_space_group_name_H-M   'P 1'
_cell_length_a   4.05797400
_cell_length_b   11.61613166
_cell_length_c   22.10981900
_cell_angle_alpha   89.87956472
_cell_angle_beta   90.00000000
_cell_angle_gamma   90.00000000
_symmetry_Int_Tables_number   1
_chemical_formula_structural   Ho8HgTe3
_chemical_formula_sum   'Ho24 Hg3 Te9'
_cell_volume   1042.20946707
_cell_formula_units_Z   3
loop_
 _symmetry_equiv_pos_site_id
 _symmetry_equiv_pos_as_xyz
  1  'x, y, z'
loop_
 _atom_site_type_symbol
 _atom_site_label
 _atom_site_symmetry_multiplicity
 _atom_site_fract_x
 _atom_site_fract_y
 _atom_site_fract_z
 _atom_site_occupancy
  Ho  Ho0  1  0.250000  0.149155  0.391139  1
  Ho  Ho1  1  0.750000  0.851134  0.609331  1
  Ho  Ho2  1  0.750000  0.652938  0.109546  1
  Ho  Ho3  1  0.250000  0.346997  0.890936  1
  Ho  Ho4  1  0.250000  0.455684  0.342522  1
  Ho  Ho5  1  0.750000  0.542450  0.657966  1
  Ho  Ho6  1  0.750000  0.954472  0.158590  1
  Ho  Ho7  1  0.250000  0.045504  0.841296  1
  Ho  Ho8  1  0.250000  0.736464  0.231836  1
  Ho  Ho9  1  0.750000  0.264828  0.768007  1
  Ho  Ho10  1  0.750000  0.235578  0.268717  1
  Ho  Ho11  1  0.250000  0.762586  0.732495  1
  Ho  Ho12  1  0.250000  0.118290  0.031821  1
  Ho  Ho13  1  0.750000  0.881793  0.967585  1
  Ho  Ho14  1  0.750000  0.615626  0.465485  1
  Ho  Ho15  1  0.250000  0.385099  0.532756  1
  Ho  Ho16  1  0.250000  0.413288  0.149008  1
  Ho  Ho17  1  0.750000  0.586008  0.851205  1
  Ho  Ho18  1  0.750000  0.913810  0.351957  1
  Ho  Ho19  1  0.250000  0.086756  0.649450  1
  Ho  Ho20  1  0.250000  0.611878  0.982529  1
  Ho  Ho21  1  0.750000  0.387244  0.017632  1
  Ho  Ho22  1  0.750000  0.112965  0.517500  1
  Ho  Ho23  1  0.250000  0.887772  0.482659  1
  Hg  Hg24  1  0.250000  0.848196  0.072547  1
  Hg  Hg25  1  0.750000  0.151024  0.927003  1
  Hg  Hg26  1  0.750000  0.348441  0.428863  1
  Te  Te27  1  0.250000  0.653284  0.569461  1
  Te  Te28  1  0.250000  0.714368  0.371913  1
  Te  Te29  1  0.750000  0.287810  0.627369  1
  Te  Te30  1  0.750000  0.213248  0.128473  1
  Te  Te31  1  0.250000  0.786022  0.871769  1
  Te  Te32  1  0.250000  0.022467  0.260856  1
  Te  Te33  1  0.750000  0.976435  0.739876  1
  Te  Te34  1  0.750000  0.523203  0.239819  1
  Te  Te35  1  0.250000  0.477182  0.760086  1
