# generated using pymatgen
data_Dy3Y12Th(CdPt)4
_symmetry_space_group_name_H-M   'P 1'
_cell_length_a   9.72888399
_cell_length_b   9.72888508
_cell_length_c   9.72888502
_cell_angle_alpha   60.15225768
_cell_angle_beta   60.15225916
_cell_angle_gamma   60.15225831
_symmetry_Int_Tables_number   1
_chemical_formula_structural   Dy3Y12Th(CdPt)4
_chemical_formula_sum   'Dy3 Y12 Th1 Cd4 Pt4'
_cell_volume   653.38531201
_cell_formula_units_Z   1
loop_
 _symmetry_equiv_pos_site_id
 _symmetry_equiv_pos_as_xyz
  1  'x, y, z'
loop_
 _atom_site_type_symbol
 _atom_site_label
 _atom_site_symmetry_multiplicity
 _atom_site_fract_x
 _atom_site_fract_y
 _atom_site_fract_z
 _atom_site_occupancy
  Dy  Dy0  1  0.353766  0.353766  0.939465  1
  Dy  Dy1  1  0.353766  0.939465  0.353766  1
  Dy  Dy2  1  0.939465  0.353766  0.353766  1
  Y  Y3  1  0.812309  0.189469  0.189469  1
  Y  Y4  1  0.190635  0.810647  0.810647  1
  Y  Y5  1  0.189469  0.812309  0.189469  1
  Y  Y6  1  0.810647  0.190635  0.810647  1
  Y  Y7  1  0.189469  0.189469  0.812309  1
  Y  Y8  1  0.810647  0.810647  0.190635  1
  Y  Y9  1  0.936799  0.565701  0.565701  1
  Y  Y10  1  0.563361  0.937136  0.937136  1
  Y  Y11  1  0.565701  0.936799  0.565701  1
  Y  Y12  1  0.937136  0.563361  0.937136  1
  Y  Y13  1  0.565701  0.565701  0.936799  1
  Y  Y14  1  0.937136  0.937136  0.563361  1
  Th  Th15  1  0.348952  0.348952  0.348952  1
  Cd  Cd16  1  0.581608  0.581608  0.581608  1
  Cd  Cd17  1  0.582483  0.582483  0.252694  1
  Cd  Cd18  1  0.582483  0.252694  0.582483  1
  Cd  Cd19  1  0.252694  0.582483  0.582483  1
  Pt  Pt20  1  0.144568  0.144568  0.144568  1
  Pt  Pt21  1  0.141122  0.141122  0.568963  1
  Pt  Pt22  1  0.141122  0.568963  0.141122  1
  Pt  Pt23  1  0.568963  0.141122  0.141122  1
