# generated using pymatgen
data_DyY3Re2(B8Rh)2
_symmetry_space_group_name_H-M   'P 1'
_cell_length_a   3.59888700
_cell_length_b   5.97551186
_cell_length_c   11.57626918
_cell_angle_alpha   90.29698169
_cell_angle_beta   90.00000000
_cell_angle_gamma   90.00000000
_symmetry_Int_Tables_number   1
_chemical_formula_structural   DyY3Re2(B8Rh)2
_chemical_formula_sum   'Dy1 Y3 Re2 B16 Rh2'
_cell_volume   248.94654670
_cell_formula_units_Z   1
loop_
 _symmetry_equiv_pos_site_id
 _symmetry_equiv_pos_as_xyz
  1  'x, y, z'
loop_
 _atom_site_type_symbol
 _atom_site_label
 _atom_site_symmetry_multiplicity
 _atom_site_fract_x
 _atom_site_fract_y
 _atom_site_fract_z
 _atom_site_occupancy
  Dy  Dy0  1  0.500000  0.871898  0.349248  1
  Y  Y1  1  0.500000  0.371770  0.147651  1
  Y  Y2  1  0.500000  0.628333  0.852370  1
  Y  Y3  1  0.500000  0.128155  0.650636  1
  Re  Re4  1  0.500000  0.366933  0.411797  1
  Re  Re5  1  0.500000  0.632723  0.588043  1
  B  B6  1  0.000000  0.112929  0.047486  1
  B  B7  1  0.000000  0.887101  0.952671  1
  B  B8  1  0.000000  0.386948  0.546648  1
  B  B9  1  0.000000  0.613160  0.453133  1
  B  B10  1  0.000000  0.136133  0.468953  1
  B  B11  1  0.000000  0.863718  0.530684  1
  B  B12  1  0.000000  0.363075  0.969371  1
  B  B13  1  0.000000  0.637004  0.030783  1
  B  B14  1  0.000000  0.022791  0.193217  1
  B  B15  1  0.000000  0.977019  0.806946  1
  B  B16  1  0.000000  0.475818  0.692181  1
  B  B17  1  0.000000  0.524430  0.307800  1
  B  B18  1  0.000000  0.211488  0.314301  1
  B  B19  1  0.000000  0.788221  0.685694  1
  B  B20  1  0.000000  0.288795  0.813965  1
  B  B21  1  0.000000  0.711442  0.186218  1
  Rh  Rh22  1  0.500000  0.140146  0.905438  1
  Rh  Rh23  1  0.500000  0.859971  0.094766  1
