# generated using pymatgen
data_DyPuTcB6
_symmetry_space_group_name_H-M   'P 1'
_cell_length_a   3.67265500
_cell_length_b   9.25020300
_cell_length_c   11.37417000
_cell_angle_alpha   90.00000000
_cell_angle_beta   90.00000000
_cell_angle_gamma   90.00000000
_symmetry_Int_Tables_number   1
_chemical_formula_structural   DyPuTcB6
_chemical_formula_sum   'Dy4 Pu4 Tc4 B24'
_cell_volume   386.41245147
_cell_formula_units_Z   4
loop_
 _symmetry_equiv_pos_site_id
 _symmetry_equiv_pos_as_xyz
  1  'x, y, z'
loop_
 _atom_site_type_symbol
 _atom_site_label
 _atom_site_symmetry_multiplicity
 _atom_site_fract_x
 _atom_site_fract_y
 _atom_site_fract_z
 _atom_site_occupancy
  Dy  Dy0  1  0.000000  0.336629  0.408602  1
  Dy  Dy1  1  0.000000  0.663371  0.591398  1
  Dy  Dy2  1  0.000000  0.836629  0.091398  1
  Dy  Dy3  1  0.000000  0.163371  0.908602  1
  Pu  Pu4  1  0.000000  0.954373  0.389421  1
  Pu  Pu5  1  0.000000  0.045627  0.610579  1
  Pu  Pu6  1  0.000000  0.454373  0.110579  1
  Pu  Pu7  1  0.000000  0.545627  0.889421  1
  Tc  Tc8  1  0.000000  0.645890  0.318876  1
  Tc  Tc9  1  0.000000  0.354110  0.681124  1
  Tc  Tc10  1  0.000000  0.145890  0.181124  1
  Tc  Tc11  1  0.000000  0.854110  0.818876  1
  B  B12  1  0.500000  0.553733  0.431611  1
  B  B13  1  0.500000  0.446267  0.568389  1
  B  B14  1  0.500000  0.053733  0.068389  1
  B  B15  1  0.500000  0.946267  0.931611  1
  B  B16  1  0.500000  0.745944  0.421805  1
  B  B17  1  0.500000  0.254056  0.578195  1
  B  B18  1  0.500000  0.245944  0.078195  1
  B  B19  1  0.500000  0.754056  0.921805  1
  B  B20  1  0.500000  0.802479  0.271820  1
  B  B21  1  0.500000  0.197521  0.728180  1
  B  B22  1  0.500000  0.302479  0.228180  1
  B  B23  1  0.500000  0.697521  0.771820  1
  B  B24  1  0.500000  0.641851  0.187744  1
  B  B25  1  0.500000  0.358149  0.812256  1
  B  B26  1  0.500000  0.141851  0.312256  1
  B  B27  1  0.500000  0.858149  0.687744  1
  B  B28  1  0.500000  0.988496  0.217871  1
  B  B29  1  0.500000  0.011504  0.782129  1
  B  B30  1  0.500000  0.488496  0.282129  1
  B  B31  1  0.500000  0.511504  0.717871  1
  B  B32  1  0.500000  0.635555  0.037356  1
  B  B33  1  0.500000  0.364445  0.962644  1
  B  B34  1  0.500000  0.135555  0.462644  1
  B  B35  1  0.500000  0.864445  0.537356  1
