# generated using pymatgen
data_DyY4IrPt2
_symmetry_space_group_name_H-M   'P 1'
_cell_length_a   11.13167600
_cell_length_b   11.13167600
_cell_length_c   6.32318100
_cell_angle_alpha   90.00000000
_cell_angle_beta   90.00000000
_cell_angle_gamma   90.00000000
_symmetry_Int_Tables_number   1
_chemical_formula_structural   DyY4IrPt2
_chemical_formula_sum   'Dy4 Y16 Ir4 Pt8'
_cell_volume   783.53198190
_cell_formula_units_Z   4
loop_
 _symmetry_equiv_pos_site_id
 _symmetry_equiv_pos_as_xyz
  1  'x, y, z'
loop_
 _atom_site_type_symbol
 _atom_site_label
 _atom_site_symmetry_multiplicity
 _atom_site_fract_x
 _atom_site_fract_y
 _atom_site_fract_z
 _atom_site_occupancy
  Dy  Dy0  1  0.000000  0.000000  0.500000  1
  Dy  Dy1  1  0.000000  0.000000  0.000000  1
  Dy  Dy2  1  0.500000  0.500000  0.000000  1
  Dy  Dy3  1  0.500000  0.500000  0.500000  1
  Y  Y4  1  0.294669  0.087774  0.374241  1
  Y  Y5  1  0.294669  0.912226  0.874241  1
  Y  Y6  1  0.705331  0.087774  0.874241  1
  Y  Y7  1  0.705331  0.912226  0.374241  1
  Y  Y8  1  0.587774  0.794669  0.874241  1
  Y  Y9  1  0.587774  0.205331  0.374241  1
  Y  Y10  1  0.412226  0.794669  0.374241  1
  Y  Y11  1  0.412226  0.205331  0.874241  1
  Y  Y12  1  0.205331  0.412226  0.625759  1
  Y  Y13  1  0.205331  0.587774  0.125759  1
  Y  Y14  1  0.794669  0.412226  0.125759  1
  Y  Y15  1  0.794669  0.587774  0.625759  1
  Y  Y16  1  0.912226  0.705331  0.125759  1
  Y  Y17  1  0.912226  0.294669  0.625759  1
  Y  Y18  1  0.087774  0.705331  0.625759  1
  Y  Y19  1  0.087774  0.294669  0.125759  1
  Ir  Ir20  1  0.500000  0.000000  0.121510  1
  Ir  Ir21  1  0.500000  0.000000  0.621510  1
  Ir  Ir22  1  0.000000  0.500000  0.878490  1
  Ir  Ir23  1  0.000000  0.500000  0.378490  1
  Pt  Pt24  1  0.847086  0.152914  0.250000  1
  Pt  Pt25  1  0.847086  0.847086  0.750000  1
  Pt  Pt26  1  0.152914  0.152914  0.750000  1
  Pt  Pt27  1  0.152914  0.847086  0.250000  1
  Pt  Pt28  1  0.652914  0.347086  0.750000  1
  Pt  Pt29  1  0.652914  0.652914  0.250000  1
  Pt  Pt30  1  0.347086  0.347086  0.250000  1
  Pt  Pt31  1  0.347086  0.652914  0.750000  1
