# generated using pymatgen
data_Hf8Ni2MoIr
_symmetry_space_group_name_H-M   'P 1'
_cell_length_a   8.65985279
_cell_length_b   8.65704390
_cell_length_c   8.62598600
_cell_angle_alpha   60.11475080
_cell_angle_beta   60.12527775
_cell_angle_gamma   60.08102657
_symmetry_Int_Tables_number   1
_chemical_formula_structural   Hf8Ni2MoIr
_chemical_formula_sum   'Hf16 Ni4 Mo2 Ir2'
_cell_volume   458.37984400
_cell_formula_units_Z   2
loop_
 _symmetry_equiv_pos_site_id
 _symmetry_equiv_pos_as_xyz
  1  'x, y, z'
loop_
 _atom_site_type_symbol
 _atom_site_label
 _atom_site_symmetry_multiplicity
 _atom_site_fract_x
 _atom_site_fract_y
 _atom_site_fract_z
 _atom_site_occupancy
  Hf  Hf0  1  0.682547  0.107172  0.105143  1
  Hf  Hf1  1  0.107173  0.682588  0.105124  1
  Hf  Hf2  1  0.103900  0.103880  0.687747  1
  Hf  Hf3  1  0.103899  0.103876  0.104473  1
  Hf  Hf4  1  0.315809  0.315773  0.684202  1
  Hf  Hf5  1  0.684421  0.684452  0.315563  1
  Hf  Hf6  1  0.316002  0.688067  0.315585  1
  Hf  Hf7  1  0.688127  0.315977  0.680325  1
  Hf  Hf8  1  0.688135  0.315976  0.315565  1
  Hf  Hf9  1  0.316003  0.688060  0.680348  1
  Hf  Hf10  1  0.952208  0.952080  0.547855  1
  Hf  Hf11  1  0.548822  0.548836  0.951169  1
  Hf  Hf12  1  0.949407  0.549248  0.950994  1
  Hf  Hf13  1  0.549221  0.949383  0.550334  1
  Hf  Hf14  1  0.549220  0.949389  0.951055  1
  Hf  Hf15  1  0.949398  0.549251  0.550350  1
  Ni  Ni16  1  0.322355  0.890187  0.893737  1
  Ni  Ni17  1  0.890111  0.322297  0.893804  1
  Ni  Ni18  1  0.891873  0.891946  0.321060  1
  Ni  Ni19  1  0.891870  0.891943  0.895125  1
  Mo  Mo20  1  0.999474  0.333236  0.333644  1
  Mo  Mo21  1  0.333216  0.999509  0.333636  1
  Ir  Ir22  1  0.333404  0.333437  0.996471  1
  Ir  Ir23  1  0.333404  0.333435  0.336687  1
