# generated using pymatgen
data_TbNp4O10
_symmetry_space_group_name_H-M   'P 1'
_cell_length_a   6.59343806
_cell_length_b   6.59343836
_cell_length_c   6.59343795
_cell_angle_alpha   99.58934737
_cell_angle_beta   99.58934580
_cell_angle_gamma   131.82279608
_symmetry_Int_Tables_number   1
_chemical_formula_structural   TbNp4O10
_chemical_formula_sum   'Tb1 Np4 O10'
_cell_volume   195.00488273
_cell_formula_units_Z   1
loop_
 _symmetry_equiv_pos_site_id
 _symmetry_equiv_pos_as_xyz
  1  'x, y, z'
loop_
 _atom_site_type_symbol
 _atom_site_label
 _atom_site_symmetry_multiplicity
 _atom_site_fract_x
 _atom_site_fract_y
 _atom_site_fract_z
 _atom_site_occupancy
  Tb  Tb0  1  0.500000  0.500000  0.000000  1
  Np  Np1  1  0.898722  0.700610  0.599331  1
  Np  Np2  1  0.101278  0.299390  0.400669  1
  Np  Np3  1  0.700610  0.101278  0.801888  1
  Np  Np4  1  0.299390  0.898722  0.198112  1
  O  O5  1  0.040947  0.145633  0.694816  1
  O  O6  1  0.549182  0.653867  0.694816  1
  O  O7  1  0.250000  0.750000  0.500000  1
  O  O8  1  0.450818  0.346133  0.305184  1
  O  O9  1  0.750000  0.250000  0.500000  1
  O  O10  1  0.346133  0.040947  0.895314  1
  O  O11  1  0.854367  0.549182  0.895314  1
  O  O12  1  0.959053  0.854367  0.305184  1
  O  O13  1  0.145633  0.450818  0.104686  1
  O  O14  1  0.653867  0.959053  0.104686  1
