# generated using pymatgen
data_Ac7Pr13Sn16
_symmetry_space_group_name_H-M   'P 1'
_cell_length_a   8.55186799
_cell_length_b   8.64940290
_cell_length_c   16.43684960
_cell_angle_alpha   90.14845208
_cell_angle_beta   89.51721043
_cell_angle_gamma   90.41128693
_symmetry_Int_Tables_number   1
_chemical_formula_structural   Ac7Pr13Sn16
_chemical_formula_sum   'Ac7 Pr13 Sn16'
_cell_volume   1215.73158292
_cell_formula_units_Z   1
loop_
 _symmetry_equiv_pos_site_id
 _symmetry_equiv_pos_as_xyz
  1  'x, y, z'
loop_
 _atom_site_type_symbol
 _atom_site_label
 _atom_site_symmetry_multiplicity
 _atom_site_fract_x
 _atom_site_fract_y
 _atom_site_fract_z
 _atom_site_occupancy
  Ac  Ac0  1  0.982125  0.821890  0.902915  1
  Ac  Ac1  1  0.485164  0.680471  0.596956  1
  Ac  Ac2  1  0.517006  0.317758  0.098006  1
  Ac  Ac3  1  0.014599  0.179110  0.402055  1
  Ac  Ac4  1  0.985033  0.819680  0.597062  1
  Ac  Ac5  1  0.483382  0.681197  0.903326  1
  Ac  Ac6  1  0.515266  0.319292  0.400721  1
  Pr  Pr7  1  0.021201  0.179267  0.101131  1
  Pr  Pr8  1  0.863055  0.661150  0.376607  1
  Pr  Pr9  1  0.365076  0.840255  0.118640  1
  Pr  Pr10  1  0.637491  0.160813  0.620461  1
  Pr  Pr11  1  0.133170  0.339845  0.879714  1
  Pr  Pr12  1  0.137361  0.338644  0.621598  1
  Pr  Pr13  1  0.634068  0.158779  0.881630  1
  Pr  Pr14  1  0.361792  0.839037  0.378434  1
  Pr  Pr15  1  0.865693  0.661169  0.120785  1
  Pr  Pr16  1  0.299897  0.001868  0.751324  1
  Pr  Pr17  1  0.799345  0.499106  0.750486  1
  Pr  Pr18  1  0.200351  0.499743  0.248834  1
  Pr  Pr19  1  0.699584  0.998760  0.248772  1
  Sn  Sn20  1  0.801790  0.459431  0.542533  1
  Sn  Sn21  1  0.290959  0.045725  0.959361  1
  Sn  Sn22  1  0.698819  0.955262  0.456874  1
  Sn  Sn23  1  0.199185  0.534987  0.044967  1
  Sn  Sn24  1  0.197820  0.540255  0.455981  1
  Sn  Sn25  1  0.710825  0.964803  0.045992  1
  Sn  Sn26  1  0.300794  0.043245  0.542623  1
  Sn  Sn27  1  0.799217  0.459638  0.957197  1
  Sn  Sn28  1  0.178752  0.639402  0.750090  1
  Sn  Sn29  1  0.679305  0.862564  0.750319  1
  Sn  Sn30  1  0.316739  0.137065  0.248601  1
  Sn  Sn31  1  0.826126  0.357996  0.247453  1
  Sn  Sn32  1  0.932971  0.123595  0.750306  1
  Sn  Sn33  1  0.435289  0.374972  0.751174  1
  Sn  Sn34  1  0.564486  0.625472  0.248883  1
  Sn  Sn35  1  0.066265  0.877751  0.248189  1
