# generated using pymatgen
data_Dy6Lu4(TlBi)3
_symmetry_space_group_name_H-M   'P 1'
_cell_length_a   6.48754400
_cell_length_b   9.00319794
_cell_length_c   9.00292800
_cell_angle_alpha   119.99996347
_cell_angle_beta   89.99818951
_cell_angle_gamma   90.00260442
_symmetry_Int_Tables_number   1
_chemical_formula_structural   Dy6Lu4(TlBi)3
_chemical_formula_sum   'Dy6 Lu4 Tl3 Bi3'
_cell_volume   455.39859166
_cell_formula_units_Z   1
loop_
 _symmetry_equiv_pos_site_id
 _symmetry_equiv_pos_as_xyz
  1  'x, y, z'
loop_
 _atom_site_type_symbol
 _atom_site_label
 _atom_site_symmetry_multiplicity
 _atom_site_fract_x
 _atom_site_fract_y
 _atom_site_fract_z
 _atom_site_occupancy
  Dy  Dy0  1  0.749881  0.236285  0.000116  1
  Dy  Dy1  1  0.749955  0.763791  0.763827  1
  Dy  Dy2  1  0.749967  0.000084  0.236233  1
  Dy  Dy3  1  0.249949  0.761856  0.000034  1
  Dy  Dy4  1  0.249939  0.238044  0.238105  1
  Dy  Dy5  1  0.249920  0.999969  0.761824  1
  Lu  Lu6  1  0.493022  0.333394  0.666729  1
  Lu  Lu7  1  0.493033  0.666528  0.333235  1
  Lu  Lu8  1  0.007048  0.666599  0.333353  1
  Lu  Lu9  1  0.007056  0.333346  0.666610  1
  Tl  Tl10  1  0.249939  0.394472  0.000007  1
  Tl  Tl11  1  0.250124  0.605521  0.605458  1
  Tl  Tl12  1  0.250134  0.000055  0.394468  1
  Bi  Bi13  1  0.750057  0.601559  0.999964  1
  Bi  Bi14  1  0.749986  0.398498  0.398456  1
  Bi  Bi15  1  0.749991  0.000003  0.601579  1
