# generated using pymatgen
data_Nd6DyYAu4
_symmetry_space_group_name_H-M   'P 1'
_cell_length_a   5.04490600
_cell_length_b   7.34847070
_cell_length_c   9.22803100
_cell_angle_alpha   90.36694334
_cell_angle_beta   90.00000000
_cell_angle_gamma   90.00000000
_symmetry_Int_Tables_number   1
_chemical_formula_structural   Nd6DyYAu4
_chemical_formula_sum   'Nd6 Dy1 Y1 Au4'
_cell_volume   342.09772321
_cell_formula_units_Z   1
loop_
 _symmetry_equiv_pos_site_id
 _symmetry_equiv_pos_as_xyz
  1  'x, y, z'
loop_
 _atom_site_type_symbol
 _atom_site_label
 _atom_site_symmetry_multiplicity
 _atom_site_fract_x
 _atom_site_fract_y
 _atom_site_fract_z
 _atom_site_occupancy
  Nd  Nd0  1  0.250000  0.348556  0.588394  1
  Nd  Nd1  1  0.750000  0.651234  0.410821  1
  Nd  Nd2  1  0.250000  0.491687  0.174868  1
  Nd  Nd3  1  0.250000  0.992393  0.324505  1
  Nd  Nd4  1  0.750000  0.509967  0.823041  1
  Nd  Nd5  1  0.750000  0.007506  0.677234  1
  Dy  Dy6  1  0.250000  0.850447  0.920849  1
  Y  Y7  1  0.750000  0.150408  0.079636  1
  Au  Au8  1  0.250000  0.244582  0.909800  1
  Au  Au9  1  0.250000  0.756924  0.606667  1
  Au  Au10  1  0.750000  0.753628  0.088296  1
  Au  Au11  1  0.750000  0.242669  0.395887  1
