# generated using pymatgen
data_DyHo4P12Ir6Ru13
_symmetry_space_group_name_H-M   'P 1'
_cell_length_a   12.57755500
_cell_length_b   12.53914616
_cell_length_c   3.96978800
_cell_angle_alpha   90.00000000
_cell_angle_beta   90.00000000
_cell_angle_gamma   119.84502019
_symmetry_Int_Tables_number   1
_chemical_formula_structural   DyHo4P12Ir6Ru13
_chemical_formula_sum   'Dy1 Ho4 P12 Ir6 Ru13'
_cell_volume   543.04803759
_cell_formula_units_Z   1
loop_
 _symmetry_equiv_pos_site_id
 _symmetry_equiv_pos_as_xyz
  1  'x, y, z'
loop_
 _atom_site_type_symbol
 _atom_site_label
 _atom_site_symmetry_multiplicity
 _atom_site_fract_x
 _atom_site_fract_y
 _atom_site_fract_z
 _atom_site_occupancy
  Dy  Dy0  1  0.332985  0.666445  0.000000  1
  Ho  Ho1  1  0.666626  0.332988  0.000000  1
  Ho  Ho2  1  0.813458  0.001509  0.500000  1
  Ho  Ho3  1  0.185788  0.186675  0.500000  1
  Ho  Ho4  1  0.000061  0.813362  0.500000  1
  P  P5  1  0.630345  0.003345  0.000000  1
  P  P6  1  0.371848  0.371457  0.000000  1
  P  P7  1  0.999979  0.628385  0.000000  1
  P  P8  1  0.688726  0.517287  0.500000  1
  P  P9  1  0.828231  0.307547  0.500000  1
  P  P10  1  0.312252  0.830468  0.500000  1
  P  P11  1  0.518301  0.687618  0.500000  1
  P  P12  1  0.181608  0.000731  0.000000  1
  P  P13  1  0.817267  0.818175  0.000000  1
  P  P14  1  0.997201  0.183010  0.000000  1
  P  P15  1  0.481858  0.169136  0.500000  1
  P  P16  1  0.170196  0.482222  0.500000  1
  Ir  Ir17  1  0.625047  0.808684  0.000000  1
  Ir  Ir18  1  0.184339  0.374777  0.000000  1
  Ir  Ir19  1  0.374692  0.182934  0.000000  1
  Ir  Ir20  1  0.190743  0.817707  0.000000  1
  Ir  Ir21  1  0.808108  0.624902  0.000000  1
  Ir  Ir22  1  0.999301  0.000499  0.000000  1
  Ru  Ru23  1  0.872075  0.508602  0.500000  1
  Ru  Ru24  1  0.490773  0.361476  0.500000  1
  Ru  Ru25  1  0.636185  0.124630  0.500000  1
  Ru  Ru26  1  0.128593  0.639236  0.500000  1
  Ru  Ru27  1  0.362079  0.489451  0.500000  1
  Ru  Ru28  1  0.509440  0.870392  0.500000  1
  Ru  Ru29  1  0.716061  0.715858  0.500000  1
  Ru  Ru30  1  0.001998  0.285249  0.500000  1
  Ru  Ru31  1  0.446064  0.997747  0.000000  1
  Ru  Ru32  1  0.552492  0.552070  0.000000  1
  Ru  Ru33  1  0.003451  0.449308  0.000000  1
  Ru  Ru34  1  0.817881  0.195834  0.000000  1
  Ru  Ru35  1  0.283952  0.000286  0.500000  1
