# generated using pymatgen
data_Np2Si5Pt3
_symmetry_space_group_name_H-M   'P 1'
_cell_length_a   8.19571538
_cell_length_b   8.19571478
_cell_length_c   8.19571489
_cell_angle_alpha   136.45856534
_cell_angle_beta   104.71792308
_cell_angle_gamma   91.20691525
_symmetry_Int_Tables_number   1
_chemical_formula_structural   Np2Si5Pt3
_chemical_formula_sum   'Np4 Si10 Pt6'
_cell_volume   348.95436238
_cell_formula_units_Z   2
loop_
 _symmetry_equiv_pos_site_id
 _symmetry_equiv_pos_as_xyz
  1  'x, y, z'
loop_
 _atom_site_type_symbol
 _atom_site_label
 _atom_site_symmetry_multiplicity
 _atom_site_fract_x
 _atom_site_fract_y
 _atom_site_fract_z
 _atom_site_occupancy
  Np  Np0  1  0.100201  0.869811  0.230391  1
  Np  Np1  1  0.899799  0.130189  0.769609  1
  Np  Np2  1  0.639420  0.369811  0.269609  1
  Np  Np3  1  0.360580  0.630189  0.730391  1
  Si  Si4  1  0.000000  0.750000  0.750000  1
  Si  Si5  1  0.000000  0.250000  0.250000  1
  Si  Si6  1  0.273008  0.023008  0.750000  1
  Si  Si7  1  0.726992  0.476992  0.750000  1
  Si  Si8  1  0.726992  0.976992  0.250000  1
  Si  Si9  1  0.273008  0.523008  0.250000  1
  Si  Si10  1  0.763582  0.611705  0.151877  1
  Si  Si11  1  0.236418  0.388295  0.848123  1
  Si  Si12  1  0.459828  0.111705  0.348123  1
  Si  Si13  1  0.540172  0.888295  0.651877  1
  Pt  Pt14  1  0.500000  0.750000  0.250000  1
  Pt  Pt15  1  0.500000  0.250000  0.750000  1
  Pt  Pt16  1  0.027153  0.637859  0.389294  1
  Pt  Pt17  1  0.972847  0.362141  0.610706  1
  Pt  Pt18  1  0.248566  0.137859  0.110706  1
  Pt  Pt19  1  0.751434  0.862141  0.889294  1
