# generated using pymatgen
data_LuBi7(TeO6)4
_symmetry_space_group_name_H-M   'P 1'
_cell_length_a   5.44319661
_cell_length_b   9.44365418
_cell_length_c   10.24843447
_cell_angle_alpha   90.08593278
_cell_angle_beta   89.57803055
_cell_angle_gamma   89.82067549
_symmetry_Int_Tables_number   1
_chemical_formula_structural   LuBi7(TeO6)4
_chemical_formula_sum   'Lu1 Bi7 Te4 O24'
_cell_volume   526.78962871
_cell_formula_units_Z   1
loop_
 _symmetry_equiv_pos_site_id
 _symmetry_equiv_pos_as_xyz
  1  'x, y, z'
loop_
 _atom_site_type_symbol
 _atom_site_label
 _atom_site_symmetry_multiplicity
 _atom_site_fract_x
 _atom_site_fract_y
 _atom_site_fract_z
 _atom_site_occupancy
  Lu  Lu0  1  0.985210  0.898199  0.459229  1
  Bi  Bi1  1  0.019833  0.397479  0.044002  1
  Bi  Bi2  1  0.029135  0.289001  0.638829  1
  Bi  Bi3  1  0.462368  0.716819  0.141248  1
  Bi  Bi4  1  0.470490  0.608407  0.541123  1
  Bi  Bi5  1  0.520543  0.099954  0.957308  1
  Bi  Bi6  1  0.534478  0.209401  0.359715  1
  Bi  Bi7  1  0.965037  0.783503  0.856598  1
  Te  Te8  1  0.036183  0.001654  0.149629  1
  Te  Te9  1  0.465430  0.993148  0.638766  1
  Te  Te10  1  0.537912  0.496678  0.855273  1
  Te  Te11  1  0.958417  0.509192  0.357301  1
  O  O12  1  0.071442  0.665992  0.464340  1
  O  O13  1  0.162115  0.551321  0.205168  1
  O  O14  1  0.173229  0.860459  0.265155  1
  O  O15  1  0.189504  0.858939  0.660779  1
  O  O16  1  0.224607  0.396295  0.435517  1
  O  O17  1  0.242154  0.915551  0.009361  1
  O  O18  1  0.263317  0.068464  0.495085  1
  O  O19  1  0.272302  0.613837  0.930813  1
  O  O20  1  0.311709  0.133859  0.180706  1
  O  O21  1  0.314172  0.133739  0.752289  1
  O  O22  1  0.334425  0.449964  0.706996  1
  O  O23  1  0.423689  0.350165  0.973597  1
  O  O24  1  0.618388  0.848215  0.530957  1
  O  O25  1  0.659431  0.946252  0.792822  1
  O  O26  1  0.684129  0.639040  0.742520  1
  O  O27  1  0.678831  0.636011  0.321745  1
  O  O28  1  0.731314  0.111827  0.565134  1
  O  O29  1  0.742661  0.585520  0.993151  1
  O  O30  1  0.758788  0.426758  0.500321  1
  O  O31  1  0.773126  0.886740  0.070322  1
  O  O32  1  0.809437  0.362340  0.819980  1
  O  O33  1  0.823167  0.361310  0.246819  1
  O  O34  1  0.835194  0.044412  0.302955  1
  O  O35  1  0.917832  0.149557  0.034451  1
