# generated using pymatgen
data_Cs4Al3InSb16
_symmetry_space_group_name_H-M   'P 1'
_cell_length_a   4.35008900
_cell_length_b   11.03760693
_cell_length_c   19.06296121
_cell_angle_alpha   90.22326739
_cell_angle_beta   90.00000000
_cell_angle_gamma   90.00000000
_symmetry_Int_Tables_number   1
_chemical_formula_structural   Cs4Al3InSb16
_chemical_formula_sum   'Cs4 Al3 In1 Sb16'
_cell_volume   915.29298408
_cell_formula_units_Z   1
loop_
 _symmetry_equiv_pos_site_id
 _symmetry_equiv_pos_as_xyz
  1  'x, y, z'
loop_
 _atom_site_type_symbol
 _atom_site_label
 _atom_site_symmetry_multiplicity
 _atom_site_fract_x
 _atom_site_fract_y
 _atom_site_fract_z
 _atom_site_occupancy
  Cs  Cs0  1  0.750000  0.181076  0.429885  1
  Cs  Cs1  1  0.250000  0.817846  0.568820  1
  Cs  Cs2  1  0.750000  0.680946  0.069028  1
  Cs  Cs3  1  0.250000  0.319651  0.934695  1
  Al  Al4  1  0.250000  0.679134  0.363925  1
  Al  Al5  1  0.750000  0.825820  0.869607  1
  Al  Al6  1  0.250000  0.175706  0.133710  1
  In  In7  1  0.750000  0.322852  0.632133  1
  Sb  Sb8  1  0.750000  0.821285  0.388226  1
  Sb  Sb9  1  0.250000  0.160999  0.606684  1
  Sb  Sb10  1  0.750000  0.318903  0.111838  1
  Sb  Sb11  1  0.250000  0.683503  0.893683  1
  Sb  Sb12  1  0.750000  0.413090  0.773816  1
  Sb  Sb13  1  0.250000  0.592739  0.230570  1
  Sb  Sb14  1  0.750000  0.901061  0.734299  1
  Sb  Sb15  1  0.250000  0.091811  0.267020  1
  Sb  Sb16  1  0.750000  0.533567  0.541958  1
  Sb  Sb17  1  0.250000  0.476240  0.446198  1
  Sb  Sb18  1  0.750000  0.028853  0.952698  1
  Sb  Sb19  1  0.250000  0.974142  0.049145  1
  Sb  Sb20  1  0.750000  0.918642  0.248099  1
  Sb  Sb21  1  0.250000  0.076117  0.748815  1
  Sb  Sb22  1  0.750000  0.420415  0.251474  1
  Sb  Sb23  1  0.250000  0.585601  0.753673  1
