# generated using pymatgen
data_Er2Tm4CoNi
_symmetry_space_group_name_H-M   'P 1'
_cell_length_a   6.19749010
_cell_length_b   6.79553752
_cell_length_c   9.30798200
_cell_angle_alpha   90.00000000
_cell_angle_beta   90.00000000
_cell_angle_gamma   89.89584667
_symmetry_Int_Tables_number   1
_chemical_formula_structural   Er2Tm4CoNi
_chemical_formula_sum   'Er4 Tm8 Co2 Ni2'
_cell_volume   392.00758794
_cell_formula_units_Z   2
loop_
 _symmetry_equiv_pos_site_id
 _symmetry_equiv_pos_as_xyz
  1  'x, y, z'
loop_
 _atom_site_type_symbol
 _atom_site_label
 _atom_site_symmetry_multiplicity
 _atom_site_fract_x
 _atom_site_fract_y
 _atom_site_fract_z
 _atom_site_occupancy
  Er  Er0  1  0.634285  0.040439  0.250000  1
  Er  Er1  1  0.365715  0.959561  0.750000  1
  Er  Er2  1  0.140406  0.464088  0.750000  1
  Er  Er3  1  0.859594  0.535912  0.250000  1
  Tm  Tm4  1  0.179227  0.181642  0.066998  1
  Tm  Tm5  1  0.820773  0.818358  0.933002  1
  Tm  Tm6  1  0.676123  0.322172  0.934554  1
  Tm  Tm7  1  0.820773  0.818358  0.566998  1
  Tm  Tm8  1  0.323877  0.677828  0.065446  1
  Tm  Tm9  1  0.179227  0.181642  0.433002  1
  Tm  Tm10  1  0.323877  0.677828  0.434554  1
  Tm  Tm11  1  0.676123  0.322172  0.565446  1
  Co  Co12  1  0.452565  0.391236  0.250000  1
  Co  Co13  1  0.547435  0.608764  0.750000  1
  Ni  Ni14  1  0.951448  0.108371  0.750000  1
  Ni  Ni15  1  0.048552  0.891629  0.250000  1
