# generated using pymatgen
data_LaPrCoSi3
_symmetry_space_group_name_H-M   'P 1'
_cell_length_a   8.15581103
_cell_length_b   8.12715349
_cell_length_c   4.29867000
_cell_angle_alpha   90.00000000
_cell_angle_beta   90.00000000
_cell_angle_gamma   119.88384224
_symmetry_Int_Tables_number   1
_chemical_formula_structural   LaPrCoSi3
_chemical_formula_sum   'La2 Pr2 Co2 Si6'
_cell_volume   247.04581404
_cell_formula_units_Z   2
loop_
 _symmetry_equiv_pos_site_id
 _symmetry_equiv_pos_as_xyz
  1  'x, y, z'
loop_
 _atom_site_type_symbol
 _atom_site_label
 _atom_site_symmetry_multiplicity
 _atom_site_fract_x
 _atom_site_fract_y
 _atom_site_fract_z
 _atom_site_occupancy
  La  La0  1  0.500000  0.500000  0.500000  1
  La  La1  1  0.500000  0.000000  0.500000  1
  Pr  Pr2  1  0.000000  0.000000  0.500000  1
  Pr  Pr3  1  0.000000  0.500000  0.500000  1
  Co  Co4  1  0.334444  0.667223  0.000000  1
  Co  Co5  1  0.665556  0.332777  0.000000  1
  Si  Si6  1  0.169987  0.341604  0.000000  1
  Si  Si7  1  0.660032  0.830016  0.000000  1
  Si  Si8  1  0.339968  0.169984  0.000000  1
  Si  Si9  1  0.169987  0.828383  0.000000  1
  Si  Si10  1  0.830013  0.658396  0.000000  1
  Si  Si11  1  0.830013  0.171617  0.000000  1
