# generated using pymatgen
data_Sr15(GeAs6)2
_symmetry_space_group_name_H-M   'P 1'
_cell_length_a   9.53603409
_cell_length_b   9.53603421
_cell_length_c   9.53603385
_cell_angle_alpha   88.66172445
_cell_angle_beta   88.66172473
_cell_angle_gamma   88.66171848
_symmetry_Int_Tables_number   1
_chemical_formula_structural   Sr15(GeAs6)2
_chemical_formula_sum   'Sr15 Ge2 As12'
_cell_volume   866.46952045
_cell_formula_units_Z   1
loop_
 _symmetry_equiv_pos_site_id
 _symmetry_equiv_pos_as_xyz
  1  'x, y, z'
loop_
 _atom_site_type_symbol
 _atom_site_label
 _atom_site_symmetry_multiplicity
 _atom_site_fract_x
 _atom_site_fract_y
 _atom_site_fract_z
 _atom_site_occupancy
  Sr  Sr0  1  0.408040  0.286903  0.774656  1
  Sr  Sr1  1  0.774656  0.408040  0.286903  1
  Sr  Sr2  1  0.286903  0.774656  0.408040  1
  Sr  Sr3  1  0.018393  0.528832  0.660785  1
  Sr  Sr4  1  0.660785  0.018393  0.528832  1
  Sr  Sr5  1  0.528832  0.660785  0.018393  1
  Sr  Sr6  1  0.168028  0.533678  0.029882  1
  Sr  Sr7  1  0.029882  0.168028  0.533678  1
  Sr  Sr8  1  0.533678  0.029882  0.168028  1
  Sr  Sr9  1  0.776046  0.293505  0.920389  1
  Sr  Sr10  1  0.920389  0.776046  0.293505  1
  Sr  Sr11  1  0.293505  0.920389  0.776046  1
  Sr  Sr12  1  0.166027  0.166027  0.166027  1
  Sr  Sr13  1  0.397404  0.397404  0.397404  1
  Sr  Sr14  1  0.946552  0.946552  0.946552  1
  Ge  Ge15  1  0.758004  0.758004  0.758004  1
  Ge  Ge16  1  0.603226  0.603226  0.603226  1
  As  As17  1  0.702624  0.356947  0.604151  1
  As  As18  1  0.604151  0.702624  0.356947  1
  As  As19  1  0.356947  0.604151  0.702624  1
  As  As20  1  0.618921  0.966433  0.853798  1
  As  As21  1  0.853798  0.618921  0.966433  1
  As  As22  1  0.966433  0.853798  0.618921  1
  As  As23  1  0.473520  0.343250  0.086416  1
  As  As24  1  0.086416  0.473520  0.343250  1
  As  As25  1  0.343250  0.086416  0.473520  1
  As  As26  1  0.093304  0.238066  0.846952  1
  As  As27  1  0.846952  0.093304  0.238066  1
  As  As28  1  0.238066  0.846952  0.093304  1
