# generated using pymatgen
data_Lu3Pa(AlRu)4
_symmetry_space_group_name_H-M   'P 1'
_cell_length_a   3.98165000
_cell_length_b   6.94382788
_cell_length_c   7.99843400
_cell_angle_alpha   89.90332743
_cell_angle_beta   90.00000000
_cell_angle_gamma   90.00000000
_symmetry_Int_Tables_number   1
_chemical_formula_structural   Lu3Pa(AlRu)4
_chemical_formula_sum   'Lu3 Pa1 Al4 Ru4'
_cell_volume   221.13952698
_cell_formula_units_Z   1
loop_
 _symmetry_equiv_pos_site_id
 _symmetry_equiv_pos_as_xyz
  1  'x, y, z'
loop_
 _atom_site_type_symbol
 _atom_site_label
 _atom_site_symmetry_multiplicity
 _atom_site_fract_x
 _atom_site_fract_y
 _atom_site_fract_z
 _atom_site_occupancy
  Lu  Lu0  1  0.250000  0.961788  0.316178  1
  Lu  Lu1  1  0.750000  0.536616  0.823138  1
  Lu  Lu2  1  0.250000  0.459721  0.177272  1
  Pa  Pa3  1  0.750000  0.034933  0.678508  1
  Al  Al4  1  0.750000  0.635765  0.437870  1
  Al  Al5  1  0.750000  0.131487  0.062509  1
  Al  Al6  1  0.250000  0.379421  0.558201  1
  Al  Al7  1  0.250000  0.856449  0.947419  1
  Ru  Ru8  1  0.750000  0.757651  0.126958  1
  Ru  Ru9  1  0.750000  0.260136  0.382765  1
  Ru  Ru10  1  0.250000  0.226687  0.860032  1
  Ru  Ru11  1  0.250000  0.759344  0.629151  1
