# generated using pymatgen
data_Dy4Mg4Pt3Rh
_symmetry_space_group_name_H-M   'P 1'
_cell_length_a   4.16793800
_cell_length_b   7.08965347
_cell_length_c   8.63579811
_cell_angle_alpha   89.81996207
_cell_angle_beta   90.00000000
_cell_angle_gamma   90.00000000
_symmetry_Int_Tables_number   1
_chemical_formula_structural   Dy4Mg4Pt3Rh
_chemical_formula_sum   'Dy4 Mg4 Pt3 Rh1'
_cell_volume   255.17997759
_cell_formula_units_Z   1
loop_
 _symmetry_equiv_pos_site_id
 _symmetry_equiv_pos_as_xyz
  1  'x, y, z'
loop_
 _atom_site_type_symbol
 _atom_site_label
 _atom_site_symmetry_multiplicity
 _atom_site_fract_x
 _atom_site_fract_y
 _atom_site_fract_z
 _atom_site_occupancy
  Dy  Dy0  1  0.250000  0.542217  0.172287  1
  Dy  Dy1  1  0.750000  0.465615  0.826255  1
  Dy  Dy2  1  0.250000  0.039520  0.324364  1
  Dy  Dy3  1  0.750000  0.957886  0.677715  1
  Mg  Mg4  1  0.250000  0.133914  0.939216  1
  Mg  Mg5  1  0.750000  0.864315  0.058011  1
  Mg  Mg6  1  0.250000  0.635661  0.561444  1
  Mg  Mg7  1  0.750000  0.364950  0.439163  1
  Pt  Pt8  1  0.750000  0.752726  0.374440  1
  Pt  Pt9  1  0.250000  0.248115  0.624660  1
  Pt  Pt10  1  0.750000  0.251878  0.126645  1
  Rh  Rh11  1  0.250000  0.743205  0.875800  1
