# generated using pymatgen
data_Tb2Er2Al4OsPd3
_symmetry_space_group_name_H-M   'P 1'
_cell_length_a   4.33816900
_cell_length_b   6.88776818
_cell_length_c   7.91341987
_cell_angle_alpha   90.05908900
_cell_angle_beta   90.00000000
_cell_angle_gamma   90.00000000
_symmetry_Int_Tables_number   1
_chemical_formula_structural   Tb2Er2Al4OsPd3
_chemical_formula_sum   'Tb2 Er2 Al4 Os1 Pd3'
_cell_volume   236.45525288
_cell_formula_units_Z   1
loop_
 _symmetry_equiv_pos_site_id
 _symmetry_equiv_pos_as_xyz
  1  'x, y, z'
loop_
 _atom_site_type_symbol
 _atom_site_label
 _atom_site_symmetry_multiplicity
 _atom_site_fract_x
 _atom_site_fract_y
 _atom_site_fract_z
 _atom_site_occupancy
  Tb  Tb0  1  0.250000  0.035312  0.323440  1
  Tb  Tb1  1  0.250000  0.531350  0.179378  1
  Er  Er2  1  0.750000  0.980266  0.678836  1
  Er  Er3  1  0.750000  0.462054  0.814398  1
  Al  Al4  1  0.250000  0.143190  0.934995  1
  Al  Al5  1  0.250000  0.635904  0.562720  1
  Al  Al6  1  0.750000  0.858562  0.058170  1
  Al  Al7  1  0.750000  0.355701  0.444704  1
  Os  Os8  1  0.250000  0.266632  0.624095  1
  Pd  Pd9  1  0.250000  0.771254  0.879096  1
  Pd  Pd10  1  0.750000  0.729931  0.378215  1
  Pd  Pd11  1  0.750000  0.229845  0.121955  1
