# generated using pymatgen
data_TbHo19CoBi8Rh3
_symmetry_space_group_name_H-M   'P 1'
_cell_length_a   8.00162718
_cell_length_b   8.96505100
_cell_length_c   12.41661858
_cell_angle_alpha   90.00000000
_cell_angle_beta   89.79408069
_cell_angle_gamma   90.00000000
_symmetry_Int_Tables_number   1
_chemical_formula_structural   TbHo19CoBi8Rh3
_chemical_formula_sum   'Tb1 Ho19 Co1 Bi8 Rh3'
_cell_volume   890.70032835
_cell_formula_units_Z   1
loop_
 _symmetry_equiv_pos_site_id
 _symmetry_equiv_pos_as_xyz
  1  'x, y, z'
loop_
 _atom_site_type_symbol
 _atom_site_label
 _atom_site_symmetry_multiplicity
 _atom_site_fract_x
 _atom_site_fract_y
 _atom_site_fract_z
 _atom_site_occupancy
  Tb  Tb0  1  0.345235  0.750000  0.700185  1
  Ho  Ho1  1  0.657936  0.250000  0.293870  1
  Ho  Ho2  1  0.842364  0.250000  0.793879  1
  Ho  Ho3  1  0.157563  0.750000  0.205765  1
  Ho  Ho4  1  0.879287  0.750000  0.806145  1
  Ho  Ho5  1  0.121021  0.250000  0.193430  1
  Ho  Ho6  1  0.378971  0.250000  0.693481  1
  Ho  Ho7  1  0.614743  0.750000  0.311826  1
  Ho  Ho8  1  0.676884  0.545204  0.563963  1
  Ho  Ho9  1  0.324140  0.465276  0.436373  1
  Ho  Ho10  1  0.177717  0.457151  0.934268  1
  Ho  Ho11  1  0.324140  0.034724  0.436373  1
  Ho  Ho12  1  0.821603  0.541977  0.065677  1
  Ho  Ho13  1  0.676884  0.954796  0.563963  1
  Ho  Ho14  1  0.821603  0.958023  0.065677  1
  Ho  Ho15  1  0.177717  0.042849  0.934268  1
  Ho  Ho16  1  0.051231  0.750000  0.498724  1
  Ho  Ho17  1  0.949853  0.250000  0.501328  1
  Ho  Ho18  1  0.547708  0.250000  0.000777  1
  Ho  Ho19  1  0.450834  0.750000  0.998385  1
  Co  Co20  1  0.432731  0.750000  0.491335  1
  Bi  Bi21  1  0.571423  0.509260  0.826487  1
  Bi  Bi22  1  0.429193  0.490981  0.173714  1
  Bi  Bi23  1  0.071200  0.490086  0.672584  1
  Bi  Bi24  1  0.429193  0.009019  0.173714  1
  Bi  Bi25  1  0.928679  0.510021  0.327478  1
  Bi  Bi26  1  0.571423  0.990740  0.826487  1
  Bi  Bi27  1  0.928679  0.989979  0.327478  1
  Bi  Bi28  1  0.071200  0.009914  0.672584  1
  Rh  Rh29  1  0.070538  0.750000  0.990393  1
  Rh  Rh30  1  0.928182  0.250000  0.010190  1
  Rh  Rh31  1  0.570128  0.250000  0.509200  1
