# generated using pymatgen
data_TmTcI18
_symmetry_space_group_name_H-M   'P 1'
_cell_length_a   10.23805110
_cell_length_b   10.23018696
_cell_length_c   10.26105612
_cell_angle_alpha   94.67116229
_cell_angle_beta   94.80818851
_cell_angle_gamma   94.68862635
_symmetry_Int_Tables_number   1
_chemical_formula_structural   TmTcI18
_chemical_formula_sum   'Tm1 Tc1 I18'
_cell_volume   1063.12239692
_cell_formula_units_Z   1
loop_
 _symmetry_equiv_pos_site_id
 _symmetry_equiv_pos_as_xyz
  1  'x, y, z'
loop_
 _atom_site_type_symbol
 _atom_site_label
 _atom_site_symmetry_multiplicity
 _atom_site_fract_x
 _atom_site_fract_y
 _atom_site_fract_z
 _atom_site_occupancy
  Tm  Tm0  1  0.500000  0.500000  0.500000  1
  Tc  Tc1  1  0.000000  0.000000  0.000000  1
  I  I2  1  0.792390  0.481101  0.531488  1
  I  I3  1  0.531497  0.792423  0.479190  1
  I  I4  1  0.481389  0.531875  0.791735  1
  I  I5  1  0.207610  0.518899  0.468512  1
  I  I6  1  0.468503  0.207577  0.520810  1
  I  I7  1  0.518611  0.468125  0.208265  1
  I  I8  1  0.901054  0.363594  0.771041  1
  I  I9  1  0.771566  0.901903  0.362841  1
  I  I10  1  0.363715  0.771235  0.900860  1
  I  I11  1  0.098946  0.636406  0.228959  1
  I  I12  1  0.228434  0.098097  0.637159  1
  I  I13  1  0.636285  0.228765  0.099140  1
  I  I14  1  0.997880  0.964477  0.734258  1
  I  I15  1  0.733648  0.998700  0.964216  1
  I  I16  1  0.965146  0.733452  0.998201  1
  I  I17  1  0.002120  0.035523  0.265742  1
  I  I18  1  0.266352  0.001300  0.035784  1
  I  I19  1  0.034854  0.266548  0.001799  1
