# generated using pymatgen
data_Y2PaIn3Pd2Pt
_symmetry_space_group_name_H-M   'P 1'
_cell_length_a   7.67995022
_cell_length_b   7.62960707
_cell_length_c   3.93018500
_cell_angle_alpha   90.00000000
_cell_angle_beta   90.00000000
_cell_angle_gamma   120.13147721
_symmetry_Int_Tables_number   1
_chemical_formula_structural   Y2PaIn3Pd2Pt
_chemical_formula_sum   'Y2 Pa1 In3 Pd2 Pt1'
_cell_volume   199.17154906
_cell_formula_units_Z   1
loop_
 _symmetry_equiv_pos_site_id
 _symmetry_equiv_pos_as_xyz
  1  'x, y, z'
loop_
 _atom_site_type_symbol
 _atom_site_label
 _atom_site_symmetry_multiplicity
 _atom_site_fract_x
 _atom_site_fract_y
 _atom_site_fract_z
 _atom_site_occupancy
  Y  Y0  1  0.001812  0.409218  0.500000  1
  Y  Y1  1  0.588095  0.594042  0.500000  1
  Pa  Pa2  1  0.411260  0.995238  0.500000  1
  In  In3  1  0.757891  0.003778  0.000000  1
  In  In4  1  0.257535  0.266292  0.000000  1
  In  In5  1  0.984061  0.730052  0.000000  1
  Pd  Pd6  1  0.015319  0.999316  0.500000  1
  Pd  Pd7  1  0.648172  0.312519  0.000000  1
  Pt  Pt8  1  0.335856  0.689544  0.000000  1
