# generated using pymatgen
data_Pr9Y10TmSn16
_symmetry_space_group_name_H-M   'P 1'
_cell_length_a   8.16519694
_cell_length_b   8.34368529
_cell_length_c   15.73656239
_cell_angle_alpha   90.07620574
_cell_angle_beta   90.07199176
_cell_angle_gamma   90.13918247
_symmetry_Int_Tables_number   1
_chemical_formula_structural   Pr9Y10TmSn16
_chemical_formula_sum   'Pr9 Y10 Tm1 Sn16'
_cell_volume   1072.09294120
_cell_formula_units_Z   1
loop_
 _symmetry_equiv_pos_site_id
 _symmetry_equiv_pos_as_xyz
  1  'x, y, z'
loop_
 _atom_site_type_symbol
 _atom_site_label
 _atom_site_symmetry_multiplicity
 _atom_site_fract_x
 _atom_site_fract_y
 _atom_site_fract_z
 _atom_site_occupancy
  Pr  Pr0  1  0.862374  0.665500  0.879907  1
  Pr  Pr1  1  0.515320  0.320413  0.902948  1
  Pr  Pr2  1  0.014141  0.178864  0.594990  1
  Pr  Pr3  1  0.485404  0.679014  0.403016  1
  Pr  Pr4  1  0.985273  0.822012  0.099072  1
  Pr  Pr5  1  0.485440  0.678295  0.098090  1
  Pr  Pr6  1  0.985938  0.821976  0.402608  1
  Pr  Pr7  1  0.513306  0.320625  0.595605  1
  Pr  Pr8  1  0.014305  0.179033  0.903233  1
  Y  Y9  1  0.359314  0.835794  0.876520  1
  Y  Y10  1  0.859674  0.663840  0.622029  1
  Y  Y11  1  0.639889  0.163081  0.376930  1
  Y  Y12  1  0.139748  0.336817  0.123069  1
  Y  Y13  1  0.638145  0.163120  0.125665  1
  Y  Y14  1  0.140558  0.335847  0.376880  1
  Y  Y15  1  0.360589  0.836642  0.620994  1
  Y  Y16  1  0.195116  0.501909  0.749456  1
  Y  Y17  1  0.693742  0.998273  0.748806  1
  Y  Y18  1  0.805464  0.497676  0.251047  1
  Tm  Tm19  1  0.304787  0.002690  0.250088  1
  Sn  Sn20  1  0.303202  0.039838  0.042668  1
  Sn  Sn21  1  0.803842  0.459427  0.457710  1
  Sn  Sn22  1  0.697419  0.959326  0.541311  1
  Sn  Sn23  1  0.205992  0.537779  0.958709  1
  Sn  Sn24  1  0.691113  0.965167  0.959386  1
  Sn  Sn25  1  0.195594  0.540371  0.541492  1
  Sn  Sn26  1  0.303334  0.040118  0.456326  1
  Sn  Sn27  1  0.801444  0.456193  0.046007  1
  Sn  Sn28  1  0.558399  0.623292  0.747537  1
  Sn  Sn29  1  0.061734  0.879755  0.748189  1
  Sn  Sn30  1  0.439396  0.375965  0.251009  1
  Sn  Sn31  1  0.941860  0.123004  0.250339  1
  Sn  Sn32  1  0.322820  0.141776  0.748982  1
  Sn  Sn33  1  0.822657  0.355949  0.748083  1
  Sn  Sn34  1  0.675759  0.857422  0.250814  1
  Sn  Sn35  1  0.176906  0.643196  0.250483  1
