# generated using pymatgen
data_Nb3ReSi(GeMo)2
_symmetry_space_group_name_H-M   'P 1'
_cell_length_a   7.00921921
_cell_length_b   7.00921877
_cell_length_c   3.36189300
_cell_angle_alpha   90.00000000
_cell_angle_beta   90.00000000
_cell_angle_gamma   120.12396121
_symmetry_Int_Tables_number   1
_chemical_formula_structural   Nb3ReSi(GeMo)2
_chemical_formula_sum   'Nb3 Re1 Si1 Ge2 Mo2'
_cell_volume   142.85976644
_cell_formula_units_Z   1
loop_
 _symmetry_equiv_pos_site_id
 _symmetry_equiv_pos_as_xyz
  1  'x, y, z'
loop_
 _atom_site_type_symbol
 _atom_site_label
 _atom_site_symmetry_multiplicity
 _atom_site_fract_x
 _atom_site_fract_y
 _atom_site_fract_z
 _atom_site_occupancy
  Nb  Nb0  1  0.397477  0.993464  0.500000  1
  Nb  Nb1  1  0.993464  0.397477  0.500000  1
  Nb  Nb2  1  0.609228  0.609228  0.500000  1
  Re  Re3  1  0.255468  0.255468  0.000000  1
  Si  Si4  1  0.004728  0.004728  0.500000  1
  Ge  Ge5  1  0.331742  0.661620  0.000000  1
  Ge  Ge6  1  0.661620  0.331742  0.000000  1
  Mo  Mo7  1  0.745971  0.000300  0.000000  1
  Mo  Mo8  1  0.000300  0.745971  0.000000  1
