# generated using pymatgen
data_Ac3MgIn2Ir3
_symmetry_space_group_name_H-M   'P 1'
_cell_length_a   7.69103800
_cell_length_b   7.57001538
_cell_length_c   4.28532200
_cell_angle_alpha   90.00000000
_cell_angle_beta   90.00000000
_cell_angle_gamma   119.48082739
_symmetry_Int_Tables_number   1
_chemical_formula_structural   Ac3MgIn2Ir3
_chemical_formula_sum   'Ac3 Mg1 In2 Ir3'
_cell_volume   217.19216002
_cell_formula_units_Z   1
loop_
 _symmetry_equiv_pos_site_id
 _symmetry_equiv_pos_as_xyz
  1  'x, y, z'
loop_
 _atom_site_type_symbol
 _atom_site_label
 _atom_site_symmetry_multiplicity
 _atom_site_fract_x
 _atom_site_fract_y
 _atom_site_fract_z
 _atom_site_occupancy
  Ac  Ac0  1  0.417200  0.416790  0.000000  1
  Ac  Ac1  1  0.582800  0.999589  0.000000  1
  Ac  Ac2  1  0.000000  0.586114  0.000000  1
  Mg  Mg3  1  0.000000  0.236122  0.500000  1
  In  In4  1  0.759466  0.764401  0.500000  1
  In  In5  1  0.240534  0.004934  0.500000  1
  Ir  Ir6  1  0.000000  0.997145  0.000000  1
  Ir  Ir7  1  0.328251  0.661578  0.500000  1
  Ir  Ir8  1  0.671749  0.333326  0.500000  1
