# generated using pymatgen
data_La4Pr3Th(MgIr)2
_symmetry_space_group_name_H-M   'P 1'
_cell_length_a   10.15743441
_cell_length_b   10.15743425
_cell_length_c   10.16249700
_cell_angle_alpha   59.98351401
_cell_angle_beta   59.98351455
_cell_angle_gamma   60.08476265
_symmetry_Int_Tables_number   1
_chemical_formula_structural   La4Pr3Th(MgIr)2
_chemical_formula_sum   'La8 Pr6 Th2 Mg4 Ir4'
_cell_volume   741.69014929
_cell_formula_units_Z   2
loop_
 _symmetry_equiv_pos_site_id
 _symmetry_equiv_pos_as_xyz
  1  'x, y, z'
loop_
 _atom_site_type_symbol
 _atom_site_label
 _atom_site_symmetry_multiplicity
 _atom_site_fract_x
 _atom_site_fract_y
 _atom_site_fract_z
 _atom_site_occupancy
  La  La0  1  0.346336  0.960299  0.346683  1
  La  La1  1  0.960299  0.346336  0.346683  1
  La  La2  1  0.810073  0.189632  0.189873  1
  La  La3  1  0.189632  0.810073  0.810422  1
  La  La4  1  0.189632  0.810073  0.189873  1
  La  La5  1  0.810073  0.189632  0.810422  1
  La  La6  1  0.189565  0.189565  0.810435  1
  La  La7  1  0.809481  0.809481  0.190519  1
  Pr  Pr8  1  0.940026  0.561925  0.563737  1
  Pr  Pr9  1  0.561925  0.940026  0.934312  1
  Pr  Pr10  1  0.561925  0.940026  0.563737  1
  Pr  Pr11  1  0.940026  0.561925  0.934312  1
  Pr  Pr12  1  0.562528  0.562528  0.937472  1
  Pr  Pr13  1  0.936606  0.936606  0.563394  1
  Th  Th14  1  0.343547  0.343547  0.344178  1
  Th  Th15  1  0.343547  0.343547  0.968729  1
  Mg  Mg16  1  0.577560  0.577560  0.581361  1
  Mg  Mg17  1  0.577560  0.577560  0.263518  1
  Mg  Mg18  1  0.576682  0.262691  0.580314  1
  Mg  Mg19  1  0.262691  0.576682  0.580314  1
  Ir  Ir20  1  0.146091  0.146091  0.136215  1
  Ir  Ir21  1  0.146091  0.146091  0.571605  1
  Ir  Ir22  1  0.151008  0.567095  0.140948  1
  Ir  Ir23  1  0.567095  0.151008  0.140948  1
