# generated using pymatgen
data_ThNb5SeS9
_symmetry_space_group_name_H-M   'P 1'
_cell_length_a   5.87640072
_cell_length_b   7.94822491
_cell_length_c   8.68384189
_cell_angle_alpha   114.96193782
_cell_angle_beta   96.63987248
_cell_angle_gamma   104.10762549
_symmetry_Int_Tables_number   1
_chemical_formula_structural   ThNb5SeS9
_chemical_formula_sum   'Th1 Nb5 Se1 S9'
_cell_volume   345.43176448
_cell_formula_units_Z   1
loop_
 _symmetry_equiv_pos_site_id
 _symmetry_equiv_pos_as_xyz
  1  'x, y, z'
loop_
 _atom_site_type_symbol
 _atom_site_label
 _atom_site_symmetry_multiplicity
 _atom_site_fract_x
 _atom_site_fract_y
 _atom_site_fract_z
 _atom_site_occupancy
  Th  Th0  1  0.667175  0.510182  0.992834  1
  Nb  Nb1  1  0.000651  0.994829  0.997141  1
  Nb  Nb2  1  0.603048  0.205418  0.202593  1
  Nb  Nb3  1  0.196701  0.403317  0.400470  1
  Nb  Nb4  1  0.797994  0.599976  0.602094  1
  Nb  Nb5  1  0.401955  0.796223  0.798062  1
  Se  Se6  1  0.234439  0.053712  0.299361  1
  S  S7  1  0.049635  0.660346  0.889508  1
  S  S8  1  0.837076  0.267032  0.487975  1
  S  S9  1  0.636733  0.874788  0.097907  1
  S  S10  1  0.425012  0.451542  0.679625  1
  S  S11  1  0.897883  0.545306  0.314074  1
  S  S12  1  0.697751  0.133159  0.906683  1
  S  S13  1  0.497653  0.736118  0.512836  1
  S  S14  1  0.291498  0.334338  0.109084  1
  S  S15  1  0.097597  0.931313  0.711356  1
