# generated using pymatgen
data_Er2Sc3(In2Au)2
_symmetry_space_group_name_H-M   'P 1'
_cell_length_a   3.55656100
_cell_length_b   7.94757600
_cell_length_c   17.91284400
_cell_angle_alpha   90.00000000
_cell_angle_beta   90.00000000
_cell_angle_gamma   90.00000000
_symmetry_Int_Tables_number   1
_chemical_formula_structural   Er2Sc3(In2Au)2
_chemical_formula_sum   'Er4 Sc6 In8 Au4'
_cell_volume   506.32514435
_cell_formula_units_Z   2
loop_
 _symmetry_equiv_pos_site_id
 _symmetry_equiv_pos_as_xyz
  1  'x, y, z'
loop_
 _atom_site_type_symbol
 _atom_site_label
 _atom_site_symmetry_multiplicity
 _atom_site_fract_x
 _atom_site_fract_y
 _atom_site_fract_z
 _atom_site_occupancy
  Er  Er0  1  0.000000  0.237862  0.214537  1
  Er  Er1  1  0.000000  0.762138  0.785463  1
  Er  Er2  1  0.000000  0.262138  0.714537  1
  Er  Er3  1  0.000000  0.737862  0.285463  1
  Sc  Sc4  1  0.000000  0.121181  0.421944  1
  Sc  Sc5  1  0.000000  0.878819  0.578056  1
  Sc  Sc6  1  0.000000  0.378819  0.921944  1
  Sc  Sc7  1  0.000000  0.621181  0.078056  1
  Sc  Sc8  1  0.000000  0.000000  0.000000  1
  Sc  Sc9  1  0.000000  0.500000  0.500000  1
  In  In10  1  0.500000  0.414958  0.356402  1
  In  In11  1  0.500000  0.585042  0.643598  1
  In  In12  1  0.500000  0.085042  0.856402  1
  In  In13  1  0.500000  0.914958  0.143598  1
  In  In14  1  0.500000  0.293587  0.060055  1
  In  In15  1  0.500000  0.706413  0.939945  1
  In  In16  1  0.500000  0.206413  0.560055  1
  In  In17  1  0.500000  0.793587  0.439945  1
  Au  Au18  1  0.500000  0.033147  0.307346  1
  Au  Au19  1  0.500000  0.966853  0.692654  1
  Au  Au20  1  0.500000  0.466853  0.807346  1
  Au  Au21  1  0.500000  0.533147  0.192654  1
