# generated using pymatgen
data_Cs5Na(Al2Sb3)2
_symmetry_space_group_name_H-M   'P 1'
_cell_length_a   6.99842600
_cell_length_b   8.42591887
_cell_length_c   11.68326383
_cell_angle_alpha   69.50044828
_cell_angle_beta   90.00000000
_cell_angle_gamma   90.00000000
_symmetry_Int_Tables_number   1
_chemical_formula_structural   Cs5Na(Al2Sb3)2
_chemical_formula_sum   'Cs5 Na1 Al4 Sb6'
_cell_volume   645.31346643
_cell_formula_units_Z   1
loop_
 _symmetry_equiv_pos_site_id
 _symmetry_equiv_pos_as_xyz
  1  'x, y, z'
loop_
 _atom_site_type_symbol
 _atom_site_label
 _atom_site_symmetry_multiplicity
 _atom_site_fract_x
 _atom_site_fract_y
 _atom_site_fract_z
 _atom_site_occupancy
  Cs  Cs0  1  0.750000  0.154055  0.856144  1
  Cs  Cs1  1  0.750000  0.494646  0.155302  1
  Cs  Cs2  1  0.250000  0.502199  0.855892  1
  Cs  Cs3  1  0.750000  0.612638  0.509946  1
  Cs  Cs4  1  0.250000  0.854834  0.132074  1
  Na  Na5  1  0.250000  0.351391  0.491275  1
  Al  Al6  1  0.000947  0.064734  0.351593  1
  Al  Al7  1  0.499893  0.928537  0.648579  1
  Al  Al8  1  0.499053  0.064734  0.351593  1
  Al  Al9  1  0.000107  0.928537  0.648579  1
  Sb  Sb10  1  0.250000  0.804028  0.502443  1
  Sb  Sb11  1  0.750000  0.171286  0.497744  1
  Sb  Sb12  1  0.250000  0.312795  0.235519  1
  Sb  Sb13  1  0.750000  0.706125  0.798198  1
  Sb  Sb14  1  0.250000  0.080107  0.753111  1
  Sb  Sb15  1  0.750000  0.969355  0.212008  1
