# generated using pymatgen
data_Pr8SiAsBr12
_symmetry_space_group_name_H-M   'P 1'
_cell_length_a   4.26946600
_cell_length_b   13.76034516
_cell_length_c   14.62201747
_cell_angle_alpha   90.03436395
_cell_angle_beta   90.00000000
_cell_angle_gamma   90.00000000
_symmetry_Int_Tables_number   1
_chemical_formula_structural   Pr8SiAsBr12
_chemical_formula_sum   'Pr8 Si1 As1 Br12'
_cell_volume   859.03351405
_cell_formula_units_Z   1
loop_
 _symmetry_equiv_pos_site_id
 _symmetry_equiv_pos_as_xyz
  1  'x, y, z'
loop_
 _atom_site_type_symbol
 _atom_site_label
 _atom_site_symmetry_multiplicity
 _atom_site_fract_x
 _atom_site_fract_y
 _atom_site_fract_z
 _atom_site_occupancy
  Pr  Pr0  1  0.500000  0.119299  0.339991  1
  Pr  Pr1  1  0.500000  0.880701  0.660009  1
  Pr  Pr2  1  0.500000  0.619356  0.159864  1
  Pr  Pr3  1  0.500000  0.380644  0.840136  1
  Pr  Pr4  1  0.000000  0.117872  0.578307  1
  Pr  Pr5  1  0.000000  0.882128  0.421693  1
  Pr  Pr6  1  0.000000  0.620131  0.920357  1
  Pr  Pr7  1  0.000000  0.379869  0.079643  1
  Si  Si8  1  0.500000  0.500000  0.000000  1
  As  As9  1  0.500000  0.000000  0.500000  1
  Br  Br10  1  0.500000  0.243124  0.162900  1
  Br  Br11  1  0.500000  0.756876  0.837100  1
  Br  Br12  1  0.500000  0.744501  0.338708  1
  Br  Br13  1  0.500000  0.255499  0.661292  1
  Br  Br14  1  0.000000  0.254687  0.411259  1
  Br  Br15  1  0.000000  0.745313  0.588741  1
  Br  Br16  1  0.000000  0.754382  0.088778  1
  Br  Br17  1  0.000000  0.245618  0.911222  1
  Br  Br18  1  0.000000  0.001879  0.243960  1
  Br  Br19  1  0.000000  0.998121  0.756040  1
  Br  Br20  1  0.000000  0.502052  0.255754  1
  Br  Br21  1  0.000000  0.497948  0.744246  1
