# generated using pymatgen
data_Lu16MgHg3Rh4
_symmetry_space_group_name_H-M   'P 1'
_cell_length_a   9.44909384
_cell_length_b   9.38791366
_cell_length_c   9.38791400
_cell_angle_alpha   60.00000585
_cell_angle_beta   60.21395749
_cell_angle_gamma   60.21396140
_symmetry_Int_Tables_number   1
_chemical_formula_structural   Lu16MgHg3Rh4
_chemical_formula_sum   'Lu16 Mg1 Hg3 Rh4'
_cell_volume   590.75898459
_cell_formula_units_Z   1
loop_
 _symmetry_equiv_pos_site_id
 _symmetry_equiv_pos_as_xyz
  1  'x, y, z'
loop_
 _atom_site_type_symbol
 _atom_site_label
 _atom_site_symmetry_multiplicity
 _atom_site_fract_x
 _atom_site_fract_y
 _atom_site_fract_z
 _atom_site_occupancy
  Lu  Lu0  1  0.351690  0.348667  0.348667  1
  Lu  Lu1  1  0.351690  0.348667  0.950978  1
  Lu  Lu2  1  0.351690  0.950978  0.348667  1
  Lu  Lu3  1  0.934591  0.355137  0.355137  1
  Lu  Lu4  1  0.812698  0.187720  0.187720  1
  Lu  Lu5  1  0.185236  0.814702  0.814702  1
  Lu  Lu6  1  0.185236  0.814702  0.185360  1
  Lu  Lu7  1  0.812698  0.187720  0.811862  1
  Lu  Lu8  1  0.185236  0.185360  0.814702  1
  Lu  Lu9  1  0.812698  0.811862  0.187720  1
  Lu  Lu10  1  0.935275  0.563046  0.563046  1
  Lu  Lu11  1  0.563070  0.936254  0.936254  1
  Lu  Lu12  1  0.563070  0.936254  0.564422  1
  Lu  Lu13  1  0.935275  0.563046  0.938634  1
  Lu  Lu14  1  0.563070  0.564422  0.936254  1
  Lu  Lu15  1  0.935275  0.938634  0.563046  1
  Mg  Mg16  1  0.283724  0.572092  0.572092  1
  Hg  Hg17  1  0.582334  0.586799  0.586799  1
  Hg  Hg18  1  0.582334  0.586799  0.244066  1
  Hg  Hg19  1  0.582334  0.244066  0.586799  1
  Rh  Rh20  1  0.139724  0.146239  0.146239  1
  Rh  Rh21  1  0.139724  0.146239  0.567798  1
  Rh  Rh22  1  0.139724  0.567798  0.146239  1
  Rh  Rh23  1  0.571601  0.142799  0.142799  1
