# generated using pymatgen
data_Er9TmSi5Sn
_symmetry_space_group_name_H-M   'P 1'
_cell_length_a   8.42610401
_cell_length_b   8.45289056
_cell_length_c   6.31487000
_cell_angle_alpha   90.00298317
_cell_angle_beta   89.99947174
_cell_angle_gamma   119.89121282
_symmetry_Int_Tables_number   1
_chemical_formula_structural   Er9TmSi5Sn
_chemical_formula_sum   'Er9 Tm1 Si5 Sn1'
_cell_volume   389.94391082
_cell_formula_units_Z   1
loop_
 _symmetry_equiv_pos_site_id
 _symmetry_equiv_pos_as_xyz
  1  'x, y, z'
loop_
 _atom_site_type_symbol
 _atom_site_label
 _atom_site_symmetry_multiplicity
 _atom_site_fract_x
 _atom_site_fract_y
 _atom_site_fract_z
 _atom_site_occupancy
  Er  Er0  1  0.989730  0.749317  0.749986  1
  Er  Er1  1  0.998315  0.242069  0.250027  1
  Er  Er2  1  0.756215  0.757964  0.250023  1
  Er  Er3  1  0.765919  0.999982  0.749984  1
  Er  Er4  1  0.240370  0.250719  0.749969  1
  Er  Er5  1  0.240967  0.999963  0.250023  1
  Er  Er6  1  0.673833  0.342536  0.003005  1
  Er  Er7  1  0.673839  0.342541  0.497004  1
  Er  Er8  1  0.331301  0.657470  0.002971  1
  Tm  Tm9  1  0.331294  0.657463  0.497033  1
  Si  Si10  1  0.393292  0.391966  0.250097  1
  Si  Si11  1  0.001520  0.608123  0.250079  1
  Si  Si12  1  0.998695  0.394257  0.749913  1
  Si  Si13  1  0.604333  0.605828  0.749909  1
  Si  Si14  1  0.605015  0.999916  0.250066  1
  Sn  Sn15  1  0.395364  0.999884  0.749911  1
