# generated using pymatgen
data_Cs2V2HgO7
_symmetry_space_group_name_H-M   'P 1'
_cell_length_a   9.27605600
_cell_length_b   9.27605600
_cell_length_c   6.19098100
_cell_angle_alpha   90.00000000
_cell_angle_beta   90.00000000
_cell_angle_gamma   90.00000000
_symmetry_Int_Tables_number   1
_chemical_formula_structural   Cs2V2HgO7
_chemical_formula_sum   'Cs4 V4 Hg2 O14'
_cell_volume   532.70429068
_cell_formula_units_Z   2
loop_
 _symmetry_equiv_pos_site_id
 _symmetry_equiv_pos_as_xyz
  1  'x, y, z'
loop_
 _atom_site_type_symbol
 _atom_site_label
 _atom_site_symmetry_multiplicity
 _atom_site_fract_x
 _atom_site_fract_y
 _atom_site_fract_z
 _atom_site_occupancy
  Cs  Cs0  1  0.335775  0.164225  0.490776  1
  Cs  Cs1  1  0.664225  0.835775  0.490776  1
  Cs  Cs2  1  0.835775  0.335775  0.509224  1
  Cs  Cs3  1  0.164225  0.664225  0.509224  1
  V  V4  1  0.134336  0.365664  0.046462  1
  V  V5  1  0.865664  0.634336  0.046462  1
  V  V6  1  0.634336  0.134336  0.953538  1
  V  V7  1  0.365664  0.865664  0.953538  1
  Hg  Hg8  1  0.000000  0.000000  0.000000  1
  Hg  Hg9  1  0.500000  0.500000  0.000000  1
  O  O10  1  0.000000  0.500000  0.128658  1
  O  O11  1  0.083463  0.201842  0.163412  1
  O  O12  1  0.298158  0.416536  0.163412  1
  O  O13  1  0.701841  0.583463  0.163412  1
  O  O14  1  0.916536  0.798158  0.163412  1
  O  O15  1  0.643629  0.143629  0.223540  1
  O  O16  1  0.356370  0.856370  0.223540  1
  O  O17  1  0.143629  0.356370  0.776461  1
  O  O18  1  0.856370  0.643629  0.776461  1
  O  O19  1  0.798158  0.083463  0.836588  1
  O  O20  1  0.583463  0.298158  0.836588  1
  O  O21  1  0.416536  0.701841  0.836588  1
  O  O22  1  0.201842  0.916536  0.836588  1
  O  O23  1  0.500000  0.000000  0.871342  1
