# generated using pymatgen
data_Hf6Mn2Al8Si8Ir5
_symmetry_space_group_name_H-M   'P 1'
_cell_length_a   8.52189768
_cell_length_b   8.52189680
_cell_length_c   8.51825700
_cell_angle_alpha   60.01412386
_cell_angle_beta   60.01412725
_cell_angle_gamma   59.97174597
_symmetry_Int_Tables_number   1
_chemical_formula_structural   Hf6Mn2Al8Si8Ir5
_chemical_formula_sum   'Hf6 Mn2 Al8 Si8 Ir5'
_cell_volume   437.42959150
_cell_formula_units_Z   1
loop_
 _symmetry_equiv_pos_site_id
 _symmetry_equiv_pos_as_xyz
  1  'x, y, z'
loop_
 _atom_site_type_symbol
 _atom_site_label
 _atom_site_symmetry_multiplicity
 _atom_site_fract_x
 _atom_site_fract_y
 _atom_site_fract_z
 _atom_site_occupancy
  Hf  Hf0  1  0.690635  0.309365  0.309365  1
  Hf  Hf1  1  0.309365  0.690635  0.690635  1
  Hf  Hf2  1  0.309365  0.690635  0.309365  1
  Hf  Hf3  1  0.690635  0.309365  0.690635  1
  Hf  Hf4  1  0.307516  0.307516  0.692484  1
  Hf  Hf5  1  0.692484  0.692484  0.307516  1
  Mn  Mn6  1  0.000000  0.000000  0.500000  1
  Mn  Mn7  1  0.500000  0.500000  0.000000  1
  Al  Al8  1  0.118170  0.118170  0.129175  1
  Al  Al9  1  0.881830  0.881830  0.870825  1
  Al  Al10  1  0.118170  0.118170  0.634486  1
  Al  Al11  1  0.129175  0.634486  0.118170  1
  Al  Al12  1  0.881830  0.881830  0.365514  1
  Al  Al13  1  0.870825  0.365514  0.881830  1
  Al  Al14  1  0.634486  0.129175  0.118170  1
  Al  Al15  1  0.365514  0.870825  0.881830  1
  Si  Si16  1  0.348472  0.348472  0.333763  1
  Si  Si17  1  0.651528  0.651528  0.666237  1
  Si  Si18  1  0.348472  0.348472  0.969292  1
  Si  Si19  1  0.333763  0.969292  0.348472  1
  Si  Si20  1  0.651528  0.651528  0.030708  1
  Si  Si21  1  0.666237  0.030708  0.651528  1
  Si  Si22  1  0.969292  0.333763  0.348472  1
  Si  Si23  1  0.030708  0.666237  0.651528  1
  Ir  Ir24  1  0.500000  0.000000  0.000000  1
  Ir  Ir25  1  0.000000  0.500000  0.500000  1
  Ir  Ir26  1  0.000000  0.500000  0.000000  1
  Ir  Ir27  1  0.500000  0.000000  0.500000  1
  Ir  Ir28  1  0.000000  0.000000  0.000000  1
