# generated using pymatgen
data_Dy2Ho3Bi2Ir
_symmetry_space_group_name_H-M   'P 1'
_cell_length_a   7.99713900
_cell_length_b   9.00671300
_cell_length_c   12.48578500
_cell_angle_alpha   90.00000000
_cell_angle_beta   90.00000000
_cell_angle_gamma   90.00000000
_symmetry_Int_Tables_number   1
_chemical_formula_structural   Dy2Ho3Bi2Ir
_chemical_formula_sum   'Dy8 Ho12 Bi8 Ir4'
_cell_volume   899.32532032
_cell_formula_units_Z   4
loop_
 _symmetry_equiv_pos_site_id
 _symmetry_equiv_pos_as_xyz
  1  'x, y, z'
loop_
 _atom_site_type_symbol
 _atom_site_label
 _atom_site_symmetry_multiplicity
 _atom_site_fract_x
 _atom_site_fract_y
 _atom_site_fract_z
 _atom_site_occupancy
  Dy  Dy0  1  0.342229  0.750000  0.705600  1
  Dy  Dy1  1  0.657771  0.250000  0.294400  1
  Dy  Dy2  1  0.842229  0.250000  0.794400  1
  Dy  Dy3  1  0.157771  0.750000  0.205600  1
  Dy  Dy4  1  0.879443  0.750000  0.806287  1
  Dy  Dy5  1  0.120557  0.250000  0.193713  1
  Dy  Dy6  1  0.379443  0.250000  0.693713  1
  Dy  Dy7  1  0.620557  0.750000  0.306287  1
  Ho  Ho8  1  0.676977  0.541687  0.564869  1
  Ho  Ho9  1  0.323023  0.458313  0.435131  1
  Ho  Ho10  1  0.176977  0.458313  0.935131  1
  Ho  Ho11  1  0.323023  0.041687  0.435131  1
  Ho  Ho12  1  0.823023  0.541687  0.064869  1
  Ho  Ho13  1  0.676977  0.958313  0.564869  1
  Ho  Ho14  1  0.823023  0.958313  0.064869  1
  Ho  Ho15  1  0.176977  0.041687  0.935131  1
  Ho  Ho16  1  0.053471  0.750000  0.498708  1
  Ho  Ho17  1  0.946529  0.250000  0.501292  1
  Ho  Ho18  1  0.553471  0.250000  0.001292  1
  Ho  Ho19  1  0.446529  0.750000  0.998708  1
  Bi  Bi20  1  0.570338  0.509596  0.827722  1
  Bi  Bi21  1  0.429662  0.490404  0.172278  1
  Bi  Bi22  1  0.070338  0.490404  0.672278  1
  Bi  Bi23  1  0.429662  0.009596  0.172278  1
  Bi  Bi24  1  0.929662  0.509596  0.327722  1
  Bi  Bi25  1  0.570338  0.990404  0.827722  1
  Bi  Bi26  1  0.929662  0.990404  0.327722  1
  Bi  Bi27  1  0.070338  0.009596  0.672278  1
  Ir  Ir28  1  0.069718  0.750000  0.990890  1
  Ir  Ir29  1  0.930282  0.250000  0.009110  1
  Ir  Ir30  1  0.569718  0.250000  0.509110  1
  Ir  Ir31  1  0.430282  0.750000  0.490890  1
