# generated using pymatgen
data_Tm3P6Ir8W
_symmetry_space_group_name_H-M   'P 1'
_cell_length_a   3.96982300
_cell_length_b   11.10383900
_cell_length_c   12.79296400
_cell_angle_alpha   90.00000000
_cell_angle_beta   90.00000000
_cell_angle_gamma   90.00000000
_symmetry_Int_Tables_number   1
_chemical_formula_structural   Tm3P6Ir8W
_chemical_formula_sum   'Tm6 P12 Ir16 W2'
_cell_volume   563.91737695
_cell_formula_units_Z   2
loop_
 _symmetry_equiv_pos_site_id
 _symmetry_equiv_pos_as_xyz
  1  'x, y, z'
loop_
 _atom_site_type_symbol
 _atom_site_label
 _atom_site_symmetry_multiplicity
 _atom_site_fract_x
 _atom_site_fract_y
 _atom_site_fract_z
 _atom_site_occupancy
  Tm  Tm0  1  0.000000  0.500000  0.524049  1
  Tm  Tm1  1  0.500000  0.000000  0.475951  1
  Tm  Tm2  1  0.500000  0.818421  0.203533  1
  Tm  Tm3  1  0.500000  0.181579  0.203533  1
  Tm  Tm4  1  0.000000  0.681579  0.796467  1
  Tm  Tm5  1  0.000000  0.318421  0.796467  1
  P  P6  1  0.500000  0.500000  0.872584  1
  P  P7  1  0.000000  0.000000  0.127416  1
  P  P8  1  0.500000  0.500000  0.349149  1
  P  P9  1  0.000000  0.000000  0.650851  1
  P  P10  1  0.500000  0.314795  0.617908  1
  P  P11  1  0.500000  0.685205  0.617908  1
  P  P12  1  0.000000  0.185205  0.382092  1
  P  P13  1  0.000000  0.814795  0.382092  1
  P  P14  1  0.500000  0.845019  0.885589  1
  P  P15  1  0.500000  0.154981  0.885589  1
  P  P16  1  0.000000  0.654981  0.114411  1
  P  P17  1  0.000000  0.345019  0.114411  1
  Ir  Ir18  1  0.500000  0.500000  0.696257  1
  Ir  Ir19  1  0.000000  0.000000  0.303743  1
  Ir  Ir20  1  0.000000  0.500000  0.995496  1
  Ir  Ir21  1  0.500000  0.000000  0.004504  1
  Ir  Ir22  1  0.500000  0.331559  0.978868  1
  Ir  Ir23  1  0.500000  0.668441  0.978868  1
  Ir  Ir24  1  0.000000  0.168441  0.021132  1
  Ir  Ir25  1  0.000000  0.831559  0.021132  1
  Ir  Ir26  1  0.500000  0.298872  0.432377  1
  Ir  Ir27  1  0.500000  0.701128  0.432377  1
  Ir  Ir28  1  0.000000  0.201128  0.567623  1
  Ir  Ir29  1  0.000000  0.798872  0.567623  1
  Ir  Ir30  1  0.500000  0.871457  0.710730  1
  Ir  Ir31  1  0.500000  0.128543  0.710730  1
  Ir  Ir32  1  0.000000  0.628543  0.289270  1
  Ir  Ir33  1  0.000000  0.371457  0.289270  1
  W  W34  1  0.500000  0.500000  0.160179  1
  W  W35  1  0.000000  0.000000  0.839821  1
