# generated using pymatgen
data_Sm12Nb3Re12Ru5N48
_symmetry_space_group_name_H-M   'P 1'
_cell_length_a   11.20008538
_cell_length_b   11.15250211
_cell_length_c   11.17814668
_cell_angle_alpha   109.32971879
_cell_angle_beta   109.62514241
_cell_angle_gamma   109.58550073
_symmetry_Int_Tables_number   1
_chemical_formula_structural   Sm12Nb3Re12Ru5N48
_chemical_formula_sum   'Sm12 Nb3 Re12 Ru5 N48'
_cell_volume   1073.14415848
_cell_formula_units_Z   1
loop_
 _symmetry_equiv_pos_site_id
 _symmetry_equiv_pos_as_xyz
  1  'x, y, z'
loop_
 _atom_site_type_symbol
 _atom_site_label
 _atom_site_symmetry_multiplicity
 _atom_site_fract_x
 _atom_site_fract_y
 _atom_site_fract_z
 _atom_site_occupancy
  Sm  Sm0  1  0.377184  0.752297  0.122325  1
  Sm  Sm1  1  0.250450  0.372665  0.127101  1
  Sm  Sm2  1  0.374859  0.126557  0.247008  1
  Sm  Sm3  1  0.875479  0.626524  0.252680  1
  Sm  Sm4  1  0.751065  0.126375  0.370704  1
  Sm  Sm5  1  0.123878  0.249228  0.374963  1
  Sm  Sm6  1  0.876122  0.750772  0.625037  1
  Sm  Sm7  1  0.248935  0.873625  0.629296  1
  Sm  Sm8  1  0.124521  0.373476  0.747320  1
  Sm  Sm9  1  0.625141  0.873443  0.752992  1
  Sm  Sm10  1  0.622816  0.247703  0.877675  1
  Sm  Sm11  1  0.749550  0.627335  0.872899  1
  Nb  Nb12  1  0.000000  0.500001  0.000000  1
  Nb  Nb13  1  0.500000  0.500000  0.000000  1
  Nb  Nb14  1  0.500000  0.000000  0.500000  1
  Re  Re15  1  0.875002  0.249913  0.127183  1
  Re  Re16  1  0.752518  0.876700  0.126489  1
  Re  Re17  1  0.626014  0.373985  0.250836  1
  Re  Re18  1  0.122965  0.875434  0.248128  1
  Re  Re19  1  0.252458  0.625648  0.377834  1
  Re  Re20  1  0.626081  0.750115  0.376215  1
  Re  Re21  1  0.373919  0.249885  0.623785  1
  Re  Re22  1  0.747542  0.374352  0.622166  1
  Re  Re23  1  0.877034  0.124566  0.751872  1
  Re  Re24  1  0.373986  0.626015  0.749164  1
  Re  Re25  1  0.247482  0.123299  0.873511  1
  Re  Re26  1  0.124998  0.750087  0.872816  1
  Ru  Ru27  1  0.000000  0.000000  0.000000  1
  Ru  Ru28  1  0.500001  0.000000  0.000000  1
  Ru  Ru29  1  0.000000  0.000000  0.500001  1
  Ru  Ru30  1  0.000000  0.500000  0.500000  1
  Ru  Ru31  1  0.500001  0.500001  0.500001  1
  N  N32  1  0.196978  0.112919  0.011187  1
  N  N33  1  0.313872  0.897840  0.009597  1
  N  N34  1  0.881466  0.399982  0.083734  1
  N  N35  1  0.703245  0.683623  0.083504  1
  N  N36  1  0.618829  0.416451  0.100802  1
  N  N37  1  0.980242  0.683898  0.099818  1
  N  N38  1  0.014595  0.200065  0.117611  1
  N  N39  1  0.603337  0.916981  0.116053  1
  N  N40  1  0.202650  0.584219  0.185381  1
  N  N41  1  0.483584  0.600464  0.185816  1
  N  N42  1  0.582477  0.184334  0.198551  1
  N  N43  1  0.111814  0.010411  0.195755  1
  N  N44  1  0.485811  0.382930  0.300180  1
  N  N45  1  0.314848  0.915914  0.297623  1
  N  N46  1  0.898507  0.014848  0.315587  1
  N  N47  1  0.917256  0.300164  0.315562  1
  N  N48  1  0.304414  0.490448  0.389009  1
  N  N49  1  0.585647  0.900258  0.383449  1
  N  N50  1  0.815032  0.511688  0.398397  1
  N  N51  1  0.083736  0.887453  0.397116  1
  N  N52  1  0.103183  0.612454  0.416026  1
  N  N53  1  0.813614  0.798963  0.415660  1
  N  N54  1  0.599196  0.183270  0.478170  1
  N  N55  1  0.382613  0.299008  0.484589  1
  N  N56  1  0.617386  0.700992  0.515411  1
  N  N57  1  0.400805  0.816731  0.521831  1
  N  N58  1  0.186386  0.201037  0.584339  1
  N  N59  1  0.896817  0.387546  0.583973  1
  N  N60  1  0.916263  0.112546  0.602884  1
  N  N61  1  0.184969  0.488313  0.601604  1
  N  N62  1  0.414352  0.099742  0.616551  1
  N  N63  1  0.695586  0.509552  0.610990  1
  N  N64  1  0.082744  0.699836  0.684437  1
  N  N65  1  0.101492  0.985151  0.684412  1
  N  N66  1  0.685151  0.084086  0.702377  1
  N  N67  1  0.514189  0.617069  0.699820  1
  N  N68  1  0.417522  0.815666  0.801449  1
  N  N69  1  0.888187  0.989590  0.804247  1
  N  N70  1  0.516417  0.399537  0.814185  1
  N  N71  1  0.797350  0.415780  0.814619  1
  N  N72  1  0.396663  0.083018  0.883946  1
  N  N73  1  0.985406  0.799937  0.882390  1
  N  N74  1  0.019757  0.316101  0.900181  1
  N  N75  1  0.381171  0.583548  0.899198  1
  N  N76  1  0.296755  0.316376  0.916496  1
  N  N77  1  0.118533  0.600018  0.916265  1
  N  N78  1  0.686127  0.102159  0.990402  1
  N  N79  1  0.803024  0.887082  0.988814  1
