# generated using pymatgen
data_MnCo(BrO3)6
_symmetry_space_group_name_H-M   'P 1'
_cell_length_a   9.15242900
_cell_length_b   9.15242923
_cell_length_c   5.71740600
_cell_angle_alpha   90.00000000
_cell_angle_beta   90.00000000
_cell_angle_gamma   120.00000277
_symmetry_Int_Tables_number   1
_chemical_formula_structural   MnCo(BrO3)6
_chemical_formula_sum   'Mn1 Co1 Br6 O18'
_cell_volume   414.76528599
_cell_formula_units_Z   1
loop_
 _symmetry_equiv_pos_site_id
 _symmetry_equiv_pos_as_xyz
  1  'x, y, z'
loop_
 _atom_site_type_symbol
 _atom_site_label
 _atom_site_symmetry_multiplicity
 _atom_site_fract_x
 _atom_site_fract_y
 _atom_site_fract_z
 _atom_site_occupancy
  Mn  Mn0  1  0.333333  0.666667  0.631327  1
  Co  Co1  1  0.666667  0.333333  0.133240  1
  Br  Br2  1  0.348120  0.330048  0.469433  1
  Br  Br3  1  0.981926  0.651880  0.469433  1
  Br  Br4  1  0.024797  0.343958  0.953810  1
  Br  Br5  1  0.319160  0.975203  0.953810  1
  Br  Br6  1  0.656042  0.680840  0.953810  1
  Br  Br7  1  0.669952  0.018074  0.469433  1
  O  O8  1  0.821682  0.288521  0.900618  1
  O  O9  1  0.520313  0.798937  0.419705  1
  O  O10  1  0.278625  0.479687  0.419705  1
  O  O11  1  0.711479  0.533161  0.900618  1
  O  O12  1  0.466839  0.178318  0.900618  1
  O  O13  1  0.201063  0.721375  0.419705  1
  O  O14  1  0.421307  0.869929  0.823981  1
  O  O15  1  0.542572  0.427900  0.342091  1
  O  O16  1  0.819072  0.040241  0.290204  1
  O  O17  1  0.777529  0.838942  0.783299  1
  O  O18  1  0.061414  0.222471  0.783299  1
  O  O19  1  0.959759  0.778831  0.290204  1
  O  O20  1  0.221169  0.180928  0.290204  1
  O  O21  1  0.885328  0.457428  0.342091  1
  O  O22  1  0.572100  0.114672  0.342091  1
  O  O23  1  0.448622  0.578693  0.823981  1
  O  O24  1  0.130071  0.551378  0.823981  1
  O  O25  1  0.161058  0.938586  0.783299  1
