# generated using pymatgen
data_Li2Y5Tm13(Cd3Ru)2
_symmetry_space_group_name_H-M   'P 1'
_cell_length_a   9.36575311
_cell_length_b   9.36575384
_cell_length_c   9.62126200
_cell_angle_alpha   90.00000000
_cell_angle_beta   90.00000000
_cell_angle_gamma   119.98229764
_symmetry_Int_Tables_number   1
_chemical_formula_structural   Li2Y5Tm13(Cd3Ru)2
_chemical_formula_sum   'Li2 Y5 Tm13 Cd6 Ru2'
_cell_volume   731.01377297
_cell_formula_units_Z   1
loop_
 _symmetry_equiv_pos_site_id
 _symmetry_equiv_pos_as_xyz
  1  'x, y, z'
loop_
 _atom_site_type_symbol
 _atom_site_label
 _atom_site_symmetry_multiplicity
 _atom_site_fract_x
 _atom_site_fract_y
 _atom_site_fract_z
 _atom_site_occupancy
  Li  Li0  1  0.000015  0.999985  0.499949  1
  Li  Li1  1  0.000015  0.999985  0.000051  1
  Y  Y2  1  0.542047  0.084580  0.250000  1
  Y  Y3  1  0.915420  0.457953  0.250000  1
  Y  Y4  1  0.457888  0.542112  0.750000  1
  Y  Y5  1  0.457886  0.915828  0.750000  1
  Y  Y6  1  0.084172  0.542114  0.750000  1
  Tm  Tm7  1  0.208213  0.791787  0.441632  1
  Tm  Tm8  1  0.208620  0.416444  0.441445  1
  Tm  Tm9  1  0.583556  0.791380  0.441445  1
  Tm  Tm10  1  0.791792  0.208208  0.558370  1
  Tm  Tm11  1  0.791453  0.583428  0.558025  1
  Tm  Tm12  1  0.416572  0.208547  0.558025  1
  Tm  Tm13  1  0.791792  0.208208  0.941630  1
  Tm  Tm14  1  0.791453  0.583428  0.941975  1
  Tm  Tm15  1  0.416572  0.208547  0.941975  1
  Tm  Tm16  1  0.208213  0.791787  0.058368  1
  Tm  Tm17  1  0.208620  0.416444  0.058555  1
  Tm  Tm18  1  0.583556  0.791380  0.058555  1
  Tm  Tm19  1  0.541902  0.458098  0.250000  1
  Cd  Cd20  1  0.891830  0.108170  0.250000  1
  Cd  Cd21  1  0.891370  0.783224  0.250000  1
  Cd  Cd22  1  0.216776  0.108630  0.250000  1
  Cd  Cd23  1  0.108241  0.891759  0.750000  1
  Cd  Cd24  1  0.108236  0.216429  0.750000  1
  Cd  Cd25  1  0.783571  0.891764  0.750000  1
  Ru  Ru26  1  0.333507  0.666493  0.250000  1
  Ru  Ru27  1  0.666714  0.333286  0.750000  1
