# generated using pymatgen
data_Er2Ga9TcRu4
_symmetry_space_group_name_H-M   'P 1'
_cell_length_a   8.02039556
_cell_length_b   8.02039575
_cell_length_c   8.02039761
_cell_angle_alpha   134.53061385
_cell_angle_beta   134.53061814
_cell_angle_gamma   66.26040084
_symmetry_Int_Tables_number   1
_chemical_formula_structural   Er2Ga9TcRu4
_chemical_formula_sum   'Er2 Ga9 Tc1 Ru4'
_cell_volume   258.11647554
_cell_formula_units_Z   1
loop_
 _symmetry_equiv_pos_site_id
 _symmetry_equiv_pos_as_xyz
  1  'x, y, z'
loop_
 _atom_site_type_symbol
 _atom_site_label
 _atom_site_symmetry_multiplicity
 _atom_site_fract_x
 _atom_site_fract_y
 _atom_site_fract_z
 _atom_site_occupancy
  Er  Er0  1  0.000208  0.500208  0.500000  1
  Er  Er1  1  0.500208  0.000208  0.500000  1
  Ga  Ga2  1  0.436806  0.857671  0.000000  1
  Ga  Ga3  1  0.142147  0.142147  0.580362  1
  Ga  Ga4  1  0.857671  0.436806  0.000000  1
  Ga  Ga5  1  0.857671  0.857671  0.420864  1
  Ga  Ga6  1  0.561783  0.142147  0.000000  1
  Ga  Ga7  1  0.142147  0.561783  0.000000  1
  Ga  Ga8  1  0.561783  0.561783  0.419638  1
  Ga  Ga9  1  0.000195  0.000195  0.000000  1
  Ga  Ga10  1  0.436806  0.436806  0.579136  1
  Tc  Tc11  1  0.182497  0.182497  0.000000  1
  Ru  Ru12  1  0.818511  0.818511  0.000000  1
  Ru  Ru13  1  0.250581  0.750581  0.500000  1
  Ru  Ru14  1  0.750581  0.250581  0.500000  1
  Ru  Ru15  1  0.500407  0.500407  0.000000  1
