# generated using pymatgen
data_Y6Si4B2(Ir3Rh)3
_symmetry_space_group_name_H-M   'P 1'
_cell_length_a   5.54098588
_cell_length_b   5.53746925
_cell_length_c   14.73730037
_cell_angle_alpha   89.97534666
_cell_angle_beta   90.00634130
_cell_angle_gamma   119.95653937
_symmetry_Int_Tables_number   1
_chemical_formula_structural   Y6Si4B2(Ir3Rh)3
_chemical_formula_sum   'Y6 Si4 B2 Ir9 Rh3'
_cell_volume   391.77518342
_cell_formula_units_Z   1
loop_
 _symmetry_equiv_pos_site_id
 _symmetry_equiv_pos_as_xyz
  1  'x, y, z'
loop_
 _atom_site_type_symbol
 _atom_site_label
 _atom_site_symmetry_multiplicity
 _atom_site_fract_x
 _atom_site_fract_y
 _atom_site_fract_z
 _atom_site_occupancy
  Y  Y0  1  0.665983  0.331520  0.969479  1
  Y  Y1  1  0.666611  0.332815  0.530413  1
  Y  Y2  1  0.333899  0.665826  0.044552  1
  Y  Y3  1  0.666793  0.332769  0.750084  1
  Y  Y4  1  0.334110  0.666133  0.454826  1
  Y  Y5  1  0.334220  0.665938  0.250058  1
  Si  Si6  1  0.998154  0.003937  0.489236  1
  Si  Si7  1  0.000163  0.999685  0.750086  1
  Si  Si8  1  0.333455  0.667511  0.750091  1
  Si  Si9  1  0.999603  0.006543  0.010980  1
  B  B10  1  0.664104  0.331856  0.250159  1
  B  B11  1  0.000800  0.002379  0.250384  1
  Ir  Ir12  1  0.167122  0.333056  0.873878  1
  Ir  Ir13  1  0.167312  0.333378  0.626111  1
  Ir  Ir14  1  0.666792  0.832045  0.874134  1
  Ir  Ir15  1  0.332869  0.165671  0.352497  1
  Ir  Ir16  1  0.834185  0.666488  0.351433  1
  Ir  Ir17  1  0.833936  0.166828  0.352298  1
  Ir  Ir18  1  0.833047  0.165819  0.148027  1
  Ir  Ir19  1  0.332730  0.164803  0.147816  1
  Ir  Ir20  1  0.666837  0.832338  0.626012  1
  Rh  Rh21  1  0.166501  0.832889  0.626711  1
  Rh  Rh22  1  0.834493  0.667171  0.147357  1
  Rh  Rh23  1  0.166279  0.832603  0.873379  1
