# generated using pymatgen
data_Ta3TcB3Ru2
_symmetry_space_group_name_H-M   'P 1'
_cell_length_a   3.14641800
_cell_length_b   9.06931700
_cell_length_c   15.62186900
_cell_angle_alpha   90.00000000
_cell_angle_beta   90.00000000
_cell_angle_gamma   90.00000000
_symmetry_Int_Tables_number   1
_chemical_formula_structural   Ta3TcB3Ru2
_chemical_formula_sum   'Ta12 Tc4 B12 Ru8'
_cell_volume   445.78350197
_cell_formula_units_Z   4
loop_
 _symmetry_equiv_pos_site_id
 _symmetry_equiv_pos_as_xyz
  1  'x, y, z'
loop_
 _atom_site_type_symbol
 _atom_site_label
 _atom_site_symmetry_multiplicity
 _atom_site_fract_x
 _atom_site_fract_y
 _atom_site_fract_z
 _atom_site_occupancy
  Ta  Ta0  1  0.000000  0.800753  0.494623  1
  Ta  Ta1  1  0.000000  0.199247  0.505377  1
  Ta  Ta2  1  0.000000  0.300753  0.005377  1
  Ta  Ta3  1  0.000000  0.699247  0.994623  1
  Ta  Ta4  1  0.000000  0.513574  0.594665  1
  Ta  Ta5  1  0.000000  0.486426  0.405335  1
  Ta  Ta6  1  0.000000  0.013574  0.905335  1
  Ta  Ta7  1  0.000000  0.986426  0.094665  1
  Ta  Ta8  1  0.000000  0.684380  0.205665  1
  Ta  Ta9  1  0.000000  0.315620  0.794335  1
  Ta  Ta10  1  0.000000  0.184380  0.294335  1
  Ta  Ta11  1  0.000000  0.815620  0.705665  1
  Tc  Tc12  1  0.500000  0.719261  0.357327  1
  Tc  Tc13  1  0.500000  0.280739  0.642673  1
  Tc  Tc14  1  0.500000  0.219261  0.142673  1
  Tc  Tc15  1  0.500000  0.780739  0.857327  1
  B  B16  1  0.500000  0.605640  0.496728  1
  B  B17  1  0.500000  0.394360  0.503272  1
  B  B18  1  0.500000  0.105640  0.003272  1
  B  B19  1  0.500000  0.894360  0.996728  1
  B  B20  1  0.000000  0.612141  0.832832  1
  B  B21  1  0.000000  0.387859  0.167168  1
  B  B22  1  0.000000  0.112141  0.667168  1
  B  B23  1  0.000000  0.887859  0.332832  1
  B  B24  1  0.500000  0.713496  0.599998  1
  B  B25  1  0.500000  0.286504  0.400002  1
  B  B26  1  0.500000  0.213496  0.900002  1
  B  B27  1  0.500000  0.786504  0.099998  1
  Ru  Ru28  1  0.500000  0.518618  0.095410  1
  Ru  Ru29  1  0.500000  0.481382  0.904590  1
  Ru  Ru30  1  0.500000  0.018618  0.404590  1
  Ru  Ru31  1  0.500000  0.981382  0.595410  1
  Ru  Ru32  1  0.500000  0.565926  0.733437  1
  Ru  Ru33  1  0.500000  0.434074  0.266563  1
  Ru  Ru34  1  0.500000  0.065926  0.766563  1
  Ru  Ru35  1  0.500000  0.934074  0.233437  1
