# generated using pymatgen
data_NaLa5PrIrI12
_symmetry_space_group_name_H-M   'P 1'
_cell_length_a   10.13240057
_cell_length_b   10.26671697
_cell_length_c   10.12277237
_cell_angle_alpha   107.33135481
_cell_angle_beta   107.09169917
_cell_angle_gamma   106.93162766
_symmetry_Int_Tables_number   1
_chemical_formula_structural   NaLa5PrIrI12
_chemical_formula_sum   'Na1 La5 Pr1 Ir1 I12'
_cell_volume   874.12674906
_cell_formula_units_Z   1
loop_
 _symmetry_equiv_pos_site_id
 _symmetry_equiv_pos_as_xyz
  1  'x, y, z'
loop_
 _atom_site_type_symbol
 _atom_site_label
 _atom_site_symmetry_multiplicity
 _atom_site_fract_x
 _atom_site_fract_y
 _atom_site_fract_z
 _atom_site_occupancy
  Na  Na0  1  0.500126  0.500025  0.500209  1
  La  La1  1  0.108415  0.320776  0.032144  1
  La  La2  1  0.305308  0.030608  0.103197  1
  La  La3  1  0.030556  0.102672  0.306297  1
  La  La4  1  0.968939  0.895759  0.693180  1
  La  La5  1  0.694657  0.969311  0.896810  1
  Pr  Pr6  1  0.892359  0.683138  0.967933  1
  Ir  Ir7  1  0.000013  0.000048  0.999777  1
  I  I8  1  0.224403  0.683389  0.075123  1
  I  I9  1  0.458948  0.377284  0.151285  1
  I  I10  1  0.681701  0.075854  0.227404  1
  I  I11  1  0.924538  0.773985  0.316221  1
  I  I12  1  0.150805  0.457039  0.379634  1
  I  I13  1  0.380050  0.151963  0.459856  1
  I  I14  1  0.619889  0.847817  0.540008  1
  I  I15  1  0.849347  0.542819  0.623213  1
  I  I16  1  0.074833  0.224027  0.681030  1
  I  I17  1  0.318174  0.923905  0.772649  1
  I  I18  1  0.543903  0.622431  0.849884  1
  I  I19  1  0.773041  0.317153  0.924150  1
