# generated using pymatgen
data_Tm8Sc12Si15Bi
_symmetry_space_group_name_H-M   'P 1'
_cell_length_a   7.12347402
_cell_length_b   7.36986830
_cell_length_c   13.98602105
_cell_angle_alpha   90.05142058
_cell_angle_beta   88.69223694
_cell_angle_gamma   90.13971678
_symmetry_Int_Tables_number   1
_chemical_formula_structural   Tm8Sc12Si15Bi
_chemical_formula_sum   'Tm8 Sc12 Si15 Bi1'
_cell_volume   734.05933748
_cell_formula_units_Z   1
loop_
 _symmetry_equiv_pos_site_id
 _symmetry_equiv_pos_as_xyz
  1  'x, y, z'
loop_
 _atom_site_type_symbol
 _atom_site_label
 _atom_site_symmetry_multiplicity
 _atom_site_fract_x
 _atom_site_fract_y
 _atom_site_fract_z
 _atom_site_occupancy
  Tm  Tm0  1  0.012901  0.177519  0.096435  1
  Tm  Tm1  1  0.987424  0.823820  0.904453  1
  Tm  Tm2  1  0.488229  0.676506  0.904248  1
  Tm  Tm3  1  0.991330  0.831483  0.598141  1
  Tm  Tm4  1  0.512175  0.323464  0.097209  1
  Tm  Tm5  1  0.000260  0.170032  0.399081  1
  Tm  Tm6  1  0.512570  0.316542  0.397570  1
  Tm  Tm7  1  0.511946  0.687286  0.601057  1
  Sc  Sc8  1  0.163270  0.501788  0.756328  1
  Sc  Sc9  1  0.835838  0.497658  0.251345  1
  Sc  Sc10  1  0.335968  0.002849  0.249945  1
  Sc  Sc11  1  0.665702  0.997877  0.751445  1
  Sc  Sc12  1  0.347434  0.155983  0.632092  1
  Sc  Sc13  1  0.660147  0.826785  0.372361  1
  Sc  Sc14  1  0.155650  0.684013  0.369005  1
  Sc  Sc15  1  0.668112  0.822601  0.123717  1
  Sc  Sc16  1  0.825508  0.325616  0.625759  1
  Sc  Sc17  1  0.330146  0.175832  0.875505  1
  Sc  Sc18  1  0.830712  0.323421  0.875774  1
  Sc  Sc19  1  0.169101  0.676809  0.124802  1
  Si  Si20  1  0.035422  0.117187  0.751359  1
  Si  Si21  1  0.961876  0.887388  0.245876  1
  Si  Si22  1  0.462168  0.614262  0.247502  1
  Si  Si23  1  0.534777  0.386564  0.752893  1
  Si  Si24  1  0.288225  0.865352  0.753112  1
  Si  Si25  1  0.711961  0.128539  0.246324  1
  Si  Si26  1  0.210687  0.371290  0.248876  1
  Si  Si27  1  0.792480  0.630596  0.751823  1
  Si  Si28  1  0.811468  0.540202  0.456945  1
  Si  Si29  1  0.329689  0.964378  0.459997  1
  Si  Si30  1  0.842642  0.533628  0.039878  1
  Si  Si31  1  0.671399  0.037970  0.538330  1
  Si  Si32  1  0.156594  0.465819  0.961458  1
  Si  Si33  1  0.656397  0.034038  0.960273  1
  Si  Si34  1  0.342162  0.966645  0.040078  1
  Bi  Bi35  1  0.187624  0.458258  0.539003  1
