# generated using pymatgen
data_Sm2DyBi(Rh2O7)2
_symmetry_space_group_name_H-M   'P 1'
_cell_length_a   7.31190529
_cell_length_b   7.31525681
_cell_length_c   7.31525622
_cell_angle_alpha   59.80006095
_cell_angle_beta   59.75809203
_cell_angle_gamma   59.75808562
_symmetry_Int_Tables_number   1
_chemical_formula_structural   Sm2DyBi(Rh2O7)2
_chemical_formula_sum   'Sm2 Dy1 Bi1 Rh4 O14'
_cell_volume   275.24615646
_cell_formula_units_Z   1
loop_
 _symmetry_equiv_pos_site_id
 _symmetry_equiv_pos_as_xyz
  1  'x, y, z'
loop_
 _atom_site_type_symbol
 _atom_site_label
 _atom_site_symmetry_multiplicity
 _atom_site_fract_x
 _atom_site_fract_y
 _atom_site_fract_z
 _atom_site_occupancy
  Sm  Sm0  1  0.125000  0.625000  0.125000  1
  Sm  Sm1  1  0.125000  0.125000  0.625000  1
  Dy  Dy2  1  0.625000  0.125000  0.125000  1
  Bi  Bi3  1  0.125000  0.125000  0.125000  1
  Rh  Rh4  1  0.625000  0.625000  0.625000  1
  Rh  Rh5  1  0.625000  0.625000  0.125000  1
  Rh  Rh6  1  0.125000  0.625000  0.625000  1
  Rh  Rh7  1  0.625000  0.125000  0.625000  1
  O  O8  1  0.257090  0.247710  0.247710  1
  O  O9  1  0.291177  0.707674  0.291085  1
  O  O10  1  0.958823  0.958915  0.542326  1
  O  O11  1  0.542652  0.960511  0.536715  1
  O  O12  1  0.707348  0.713285  0.289489  1
  O  O13  1  0.960030  0.540041  0.540041  1
  O  O14  1  0.707348  0.289489  0.713285  1
  O  O15  1  0.291177  0.291085  0.707674  1
  O  O16  1  0.705908  0.290370  0.290370  1
  O  O17  1  0.289970  0.709959  0.709959  1
  O  O18  1  0.958823  0.542326  0.958915  1
  O  O19  1  0.542652  0.536715  0.960511  1
  O  O20  1  0.992910  0.002290  0.002290  1
  O  O21  1  0.544092  0.959630  0.959630  1
