# generated using pymatgen
data_NaCd(CO3)2
_symmetry_space_group_name_H-M   'P 1'
_cell_length_a   6.42180193
_cell_length_b   6.42177375
_cell_length_c   6.42184375
_cell_angle_alpha   46.09953562
_cell_angle_beta   46.10104276
_cell_angle_gamma   46.09903101
_symmetry_Int_Tables_number   1
_chemical_formula_structural   NaCd(CO3)2
_chemical_formula_sum   'Na1 Cd1 C2 O6'
_cell_volume   125.44331658
_cell_formula_units_Z   1
loop_
 _symmetry_equiv_pos_site_id
 _symmetry_equiv_pos_as_xyz
  1  'x, y, z'
loop_
 _atom_site_type_symbol
 _atom_site_label
 _atom_site_symmetry_multiplicity
 _atom_site_fract_x
 _atom_site_fract_y
 _atom_site_fract_z
 _atom_site_occupancy
  Na  Na0  1  0.500092  0.500092  0.500092  1
  Cd  Cd1  1  0.000000  0.000000  0.999998  1
  C  C2  1  0.255355  0.255351  0.255352  1
  C  C3  1  0.744631  0.744634  0.744637  1
  O  O4  1  0.746921  0.487655  0.001166  1
  O  O5  1  0.512095  0.999040  0.253048  1
  O  O6  1  0.001171  0.746913  0.487656  1
  O  O7  1  0.999040  0.253045  0.512098  1
  O  O8  1  0.487659  0.001170  0.746912  1
  O  O9  1  0.253038  0.512101  0.999045  1
