# generated using pymatgen
data_Pu4U4B24RuW3
_symmetry_space_group_name_H-M   'P 1'
_cell_length_a   3.65037200
_cell_length_b   9.34432721
_cell_length_c   11.43288990
_cell_angle_alpha   90.09477213
_cell_angle_beta   90.00000000
_cell_angle_gamma   90.00000000
_symmetry_Int_Tables_number   1
_chemical_formula_structural   Pu4U4B24RuW3
_chemical_formula_sum   'Pu4 U4 B24 Ru1 W3'
_cell_volume   389.97843227
_cell_formula_units_Z   1
loop_
 _symmetry_equiv_pos_site_id
 _symmetry_equiv_pos_as_xyz
  1  'x, y, z'
loop_
 _atom_site_type_symbol
 _atom_site_label
 _atom_site_symmetry_multiplicity
 _atom_site_fract_x
 _atom_site_fract_y
 _atom_site_fract_z
 _atom_site_occupancy
  Pu  Pu0  1  0.000000  0.334130  0.407753  1
  Pu  Pu1  1  0.000000  0.663953  0.594528  1
  Pu  Pu2  1  0.000000  0.838048  0.091358  1
  Pu  Pu3  1  0.000000  0.164215  0.905853  1
  U  U4  1  0.000000  0.956284  0.394406  1
  U  U5  1  0.000000  0.042465  0.604770  1
  U  U6  1  0.000000  0.455706  0.105221  1
  U  U7  1  0.000000  0.544423  0.896004  1
  B  B8  1  0.500000  0.552151  0.431053  1
  B  B9  1  0.500000  0.449167  0.566878  1
  B  B10  1  0.500000  0.051783  0.067416  1
  B  B11  1  0.500000  0.949013  0.932561  1
  B  B12  1  0.500000  0.742474  0.422688  1
  B  B13  1  0.500000  0.255515  0.575527  1
  B  B14  1  0.500000  0.244903  0.075977  1
  B  B15  1  0.500000  0.756106  0.924718  1
  B  B16  1  0.500000  0.802724  0.273671  1
  B  B17  1  0.500000  0.195822  0.725632  1
  B  B18  1  0.500000  0.305001  0.226757  1
  B  B19  1  0.500000  0.695728  0.774290  1
  B  B20  1  0.500000  0.644752  0.189070  1
  B  B21  1  0.500000  0.355829  0.812735  1
  B  B22  1  0.500000  0.143856  0.313034  1
  B  B23  1  0.500000  0.854860  0.687035  1
  B  B24  1  0.500000  0.986475  0.219436  1
  B  B25  1  0.500000  0.012490  0.779683  1
  B  B26  1  0.500000  0.489253  0.281653  1
  B  B27  1  0.500000  0.512898  0.719975  1
  B  B28  1  0.500000  0.641840  0.040763  1
  B  B29  1  0.500000  0.359760  0.961110  1
  B  B30  1  0.500000  0.139820  0.460980  1
  B  B31  1  0.500000  0.857014  0.538214  1
  Ru  Ru32  1  0.000000  0.646664  0.318641  1
  W  W33  1  0.000000  0.354461  0.679989  1
  W  W34  1  0.000000  0.146495  0.181015  1
  W  W35  1  0.000000  0.853920  0.819605  1
