# generated using pymatgen
data_TaCr5(SnRu2)6
_symmetry_space_group_name_H-M   'P 1'
_cell_length_a   4.44033200
_cell_length_b   6.25231500
_cell_length_c   13.28909100
_cell_angle_alpha   90.00000000
_cell_angle_beta   89.99984066
_cell_angle_gamma   90.00000000
_symmetry_Int_Tables_number   1
_chemical_formula_structural   TaCr5(SnRu2)6
_chemical_formula_sum   'Ta1 Cr5 Sn6 Ru12'
_cell_volume   368.93645358
_cell_formula_units_Z   1
loop_
 _symmetry_equiv_pos_site_id
 _symmetry_equiv_pos_as_xyz
  1  'x, y, z'
loop_
 _atom_site_type_symbol
 _atom_site_label
 _atom_site_symmetry_multiplicity
 _atom_site_fract_x
 _atom_site_fract_y
 _atom_site_fract_z
 _atom_site_occupancy
  Ta  Ta0  1  0.500001  0.500001  0.833313  1
  Cr  Cr1  1  0.000008  0.000000  0.002153  1
  Cr  Cr2  1  0.499981  0.500001  0.168590  1
  Cr  Cr3  1  0.999933  0.000000  0.333339  1
  Cr  Cr4  1  0.500005  0.500001  0.498138  1
  Cr  Cr5  1  0.000055  0.000000  0.664413  1
  Sn  Sn6  1  0.000000  0.500001  0.003592  1
  Sn  Sn7  1  0.500000  0.000000  0.168210  1
  Sn  Sn8  1  0.000009  0.500001  0.333369  1
  Sn  Sn9  1  0.500002  0.000000  0.498443  1
  Sn  Sn10  1  0.999999  0.500001  0.663127  1
  Sn  Sn11  1  0.499996  0.000000  0.833321  1
  Ru  Ru12  1  0.499997  0.247983  0.000365  1
  Ru  Ru13  1  0.499997  0.752017  0.000365  1
  Ru  Ru14  1  0.000005  0.248452  0.166846  1
  Ru  Ru15  1  0.000005  0.751549  0.166846  1
  Ru  Ru16  1  0.500005  0.251009  0.333346  1
  Ru  Ru17  1  0.500005  0.748991  0.333346  1
  Ru  Ru18  1  0.000003  0.248415  0.499836  1
  Ru  Ru19  1  0.000003  0.751586  0.499836  1
  Ru  Ru20  1  0.500002  0.248054  0.666278  1
  Ru  Ru21  1  0.500002  0.751946  0.666278  1
  Ru  Ru22  1  0.999995  0.248830  0.833325  1
  Ru  Ru23  1  0.999995  0.751171  0.833325  1
