# generated using pymatgen
data_La2Yb2YRu2
_symmetry_space_group_name_H-M   'P 1'
_cell_length_a   6.60479930
_cell_length_b   7.35460955
_cell_length_c   8.88440761
_cell_angle_alpha   96.33132886
_cell_angle_beta   111.82096090
_cell_angle_gamma   89.99999289
_symmetry_Int_Tables_number   1
_chemical_formula_structural   La2Yb2YRu2
_chemical_formula_sum   'La4 Yb4 Y2 Ru4'
_cell_volume   397.80795984
_cell_formula_units_Z   2
loop_
 _symmetry_equiv_pos_site_id
 _symmetry_equiv_pos_as_xyz
  1  'x, y, z'
loop_
 _atom_site_type_symbol
 _atom_site_label
 _atom_site_symmetry_multiplicity
 _atom_site_fract_x
 _atom_site_fract_y
 _atom_site_fract_z
 _atom_site_occupancy
  La  La0  1  0.985720  0.906865  0.187192  1
  La  La1  1  0.798529  0.593135  0.812808  1
  La  La2  1  0.014280  0.093135  0.812808  1
  La  La3  1  0.201471  0.406865  0.187192  1
  Yb  Yb4  1  0.625247  0.816895  0.421972  1
  Yb  Yb5  1  0.203276  0.683105  0.578028  1
  Yb  Yb6  1  0.374753  0.183105  0.578028  1
  Yb  Yb7  1  0.796724  0.316895  0.421972  1
  Y  Y8  1  0.432081  0.750000  0.000000  1
  Y  Y9  1  0.567919  0.250000  0.000000  1
  Ru  Ru10  1  0.836822  0.591038  0.207944  1
  Ru  Ru11  1  0.628878  0.908962  0.792056  1
  Ru  Ru12  1  0.163178  0.408962  0.792056  1
  Ru  Ru13  1  0.371122  0.091038  0.207944  1
