# generated using pymatgen
data_Er8Ga(Pd11Au)2
_symmetry_space_group_name_H-M   'P 1'
_cell_length_a   8.35359200
_cell_length_b   8.34491815
_cell_length_c   8.34220715
_cell_angle_alpha   89.97791552
_cell_angle_beta   90.00000000
_cell_angle_gamma   90.00000000
_symmetry_Int_Tables_number   1
_chemical_formula_structural   Er8Ga(Pd11Au)2
_chemical_formula_sum   'Er8 Ga1 Pd22 Au2'
_cell_volume   581.53556411
_cell_formula_units_Z   1
loop_
 _symmetry_equiv_pos_site_id
 _symmetry_equiv_pos_as_xyz
  1  'x, y, z'
loop_
 _atom_site_type_symbol
 _atom_site_label
 _atom_site_symmetry_multiplicity
 _atom_site_fract_x
 _atom_site_fract_y
 _atom_site_fract_z
 _atom_site_occupancy
  Er  Er0  1  0.253113  0.248380  0.742909  1
  Er  Er1  1  0.252947  0.747370  0.253078  1
  Er  Er2  1  0.750972  0.252436  0.257104  1
  Er  Er3  1  0.742965  0.751180  0.747199  1
  Er  Er4  1  0.747053  0.747370  0.253078  1
  Er  Er5  1  0.746887  0.248380  0.742909  1
  Er  Er6  1  0.257035  0.751180  0.747199  1
  Er  Er7  1  0.249028  0.252436  0.257104  1
  Ga  Ga8  1  0.000000  0.999765  0.000022  1
  Pd  Pd9  1  0.500000  0.499820  0.746041  1
  Pd  Pd10  1  0.500000  0.252756  0.499692  1
  Pd  Pd11  1  0.254735  0.500231  0.500204  1
  Pd  Pd12  1  0.500000  0.499854  0.254018  1
  Pd  Pd13  1  0.500000  0.747163  0.499688  1
  Pd  Pd14  1  0.745265  0.500231  0.500204  1
  Pd  Pd15  1  0.000000  0.999552  0.709463  1
  Pd  Pd16  1  0.000000  0.289733  0.999828  1
  Pd  Pd17  1  0.289343  0.000158  0.000472  1
  Pd  Pd18  1  0.000000  0.999574  0.290728  1
  Pd  Pd19  1  0.000000  0.710011  0.999840  1
  Pd  Pd20  1  0.710657  0.000158  0.000472  1
  Pd  Pd21  1  0.260287  0.999765  0.499672  1
  Pd  Pd22  1  0.000000  0.258745  0.500250  1
  Pd  Pd23  1  0.500000  0.000248  0.739712  1
  Pd  Pd24  1  0.259755  0.499936  0.999835  1
  Pd  Pd25  1  0.000000  0.500242  0.259746  1
  Pd  Pd26  1  0.500000  0.740375  0.000240  1
  Pd  Pd27  1  0.000000  0.741150  0.500147  1
  Pd  Pd28  1  0.500000  0.000237  0.260385  1
  Pd  Pd29  1  0.739713  0.999765  0.499672  1
  Pd  Pd30  1  0.740245  0.499936  0.999835  1
  Au  Au31  1  0.000000  0.500588  0.738644  1
  Au  Au32  1  0.500000  0.261272  0.000612  1
