# generated using pymatgen
data_Sr4CaTb(OsO6)2
_symmetry_space_group_name_H-M   'P 1'
_cell_length_a   5.83018642
_cell_length_b   5.89773598
_cell_length_c   10.09594162
_cell_angle_alpha   89.94259082
_cell_angle_beta   124.91501769
_cell_angle_gamma   90.00529779
_symmetry_Int_Tables_number   1
_chemical_formula_structural   Sr4CaTb(OsO6)2
_chemical_formula_sum   'Sr4 Ca1 Tb1 Os2 O12'
_cell_volume   284.66177711
_cell_formula_units_Z   1
loop_
 _symmetry_equiv_pos_site_id
 _symmetry_equiv_pos_as_xyz
  1  'x, y, z'
loop_
 _atom_site_type_symbol
 _atom_site_label
 _atom_site_symmetry_multiplicity
 _atom_site_fract_x
 _atom_site_fract_y
 _atom_site_fract_z
 _atom_site_occupancy
  Sr  Sr0  1  0.254763  0.040649  0.745527  1
  Sr  Sr1  1  0.263766  0.464033  0.255496  1
  Sr  Sr2  1  0.745237  0.959351  0.254473  1
  Sr  Sr3  1  0.736234  0.535967  0.744504  1
  Ca  Ca4  1  0.000000  0.500000  0.500000  1
  Tb  Tb5  1  0.000000  0.000000  0.000000  1
  Os  Os6  1  0.500000  0.000000  0.500000  1
  Os  Os7  1  0.500000  0.500000  0.000000  1
  O  O8  1  0.193964  0.477899  0.771875  1
  O  O9  1  0.189819  0.020601  0.266742  1
  O  O10  1  0.806036  0.522101  0.228125  1
  O  O11  1  0.810181  0.979399  0.733258  1
  O  O12  1  0.726868  0.192909  0.460808  1
  O  O13  1  0.729588  0.301922  0.959092  1
  O  O14  1  0.273132  0.807091  0.539192  1
  O  O15  1  0.270412  0.698078  0.040908  1
  O  O16  1  0.646295  0.731923  0.457897  1
  O  O17  1  0.650094  0.771951  0.956542  1
  O  O18  1  0.353705  0.268077  0.542103  1
  O  O19  1  0.349906  0.228049  0.043458  1
