# generated using pymatgen
data_Na3GePPt2
_symmetry_space_group_name_H-M   'P 1'
_cell_length_a   5.79969100
_cell_length_b   7.52761400
_cell_length_c   12.89024300
_cell_angle_alpha   90.00000000
_cell_angle_beta   90.00000000
_cell_angle_gamma   90.00000000
_symmetry_Int_Tables_number   1
_chemical_formula_structural   Na3GePPt2
_chemical_formula_sum   'Na12 Ge4 P4 Pt8'
_cell_volume   562.76010416
_cell_formula_units_Z   4
loop_
 _symmetry_equiv_pos_site_id
 _symmetry_equiv_pos_as_xyz
  1  'x, y, z'
loop_
 _atom_site_type_symbol
 _atom_site_label
 _atom_site_symmetry_multiplicity
 _atom_site_fract_x
 _atom_site_fract_y
 _atom_site_fract_z
 _atom_site_occupancy
  Na  Na0  1  0.660795  0.216055  0.250000  1
  Na  Na1  1  0.339205  0.783945  0.750000  1
  Na  Na2  1  0.339205  0.716055  0.250000  1
  Na  Na3  1  0.660795  0.283945  0.750000  1
  Na  Na4  1  0.125906  0.385637  0.105626  1
  Na  Na5  1  0.874094  0.614363  0.894374  1
  Na  Na6  1  0.874094  0.614363  0.605626  1
  Na  Na7  1  0.874094  0.885637  0.394374  1
  Na  Na8  1  0.125906  0.385637  0.394374  1
  Na  Na9  1  0.125906  0.114363  0.605626  1
  Na  Na10  1  0.125906  0.114363  0.894374  1
  Na  Na11  1  0.874094  0.885637  0.105626  1
  Ge  Ge12  1  0.594714  0.250000  0.000000  1
  Ge  Ge13  1  0.405286  0.750000  0.000000  1
  Ge  Ge14  1  0.405286  0.750000  0.500000  1
  Ge  Ge15  1  0.594714  0.250000  0.500000  1
  P  P16  1  0.167228  0.074909  0.250000  1
  P  P17  1  0.832772  0.925091  0.750000  1
  P  P18  1  0.832772  0.574909  0.250000  1
  P  P19  1  0.167228  0.425091  0.750000  1
  Pt  Pt20  1  0.363948  0.027361  0.098217  1
  Pt  Pt21  1  0.636052  0.972639  0.901783  1
  Pt  Pt22  1  0.636052  0.972639  0.598217  1
  Pt  Pt23  1  0.636052  0.527361  0.401783  1
  Pt  Pt24  1  0.363948  0.027361  0.401783  1
  Pt  Pt25  1  0.363948  0.472639  0.598217  1
  Pt  Pt26  1  0.363948  0.472639  0.901783  1
  Pt  Pt27  1  0.636052  0.527361  0.098217  1
