# generated using pymatgen
data_Ce4Cu3SiRh9
_symmetry_space_group_name_H-M   'P 1'
_cell_length_a   7.14007794
_cell_length_b   7.14007794
_cell_length_c   7.27021200
_cell_angle_alpha   109.84084810
_cell_angle_beta   109.84084811
_cell_angle_gamma   109.09907738
_symmetry_Int_Tables_number   1
_chemical_formula_structural   Ce4Cu3SiRh9
_chemical_formula_sum   'Ce4 Cu3 Si1 Rh9'
_cell_volume   284.00736588
_cell_formula_units_Z   1
loop_
 _symmetry_equiv_pos_site_id
 _symmetry_equiv_pos_as_xyz
  1  'x, y, z'
loop_
 _atom_site_type_symbol
 _atom_site_label
 _atom_site_symmetry_multiplicity
 _atom_site_fract_x
 _atom_site_fract_y
 _atom_site_fract_z
 _atom_site_occupancy
  Ce  Ce0  1  0.000000  0.000000  0.500000  1
  Ce  Ce1  1  0.024128  0.512064  0.012064  1
  Ce  Ce2  1  0.487936  0.975872  0.987936  1
  Ce  Ce3  1  0.487936  0.512064  0.500000  1
  Cu  Cu4  1  0.747662  0.252338  0.500000  1
  Cu  Cu5  1  0.747662  0.495324  0.247662  1
  Cu  Cu6  1  0.504676  0.252338  0.752338  1
  Si  Si7  1  0.000000  0.000000  0.000000  1
  Rh  Rh8  1  0.242563  0.485126  0.742563  1
  Rh  Rh9  1  0.242563  0.757437  0.500000  1
  Rh  Rh10  1  0.514874  0.757437  0.257437  1
  Rh  Rh11  1  0.731315  0.705603  0.000451  1
  Rh  Rh12  1  0.294397  0.025713  0.294848  1
  Rh  Rh13  1  0.974287  0.268685  0.269135  1
  Rh  Rh14  1  0.294397  0.268685  0.999549  1
  Rh  Rh15  1  0.731315  0.025713  0.730865  1
  Rh  Rh16  1  0.974287  0.705603  0.705152  1
