# generated using pymatgen
data_LiTe24
_symmetry_space_group_name_H-M   'P 1'
_cell_length_a   8.66280900
_cell_length_b   8.66280854
_cell_length_c   13.41581800
_cell_angle_alpha   90.00000000
_cell_angle_beta   90.00000000
_cell_angle_gamma   119.99999029
_symmetry_Int_Tables_number   1
_chemical_formula_structural   LiTe24
_chemical_formula_sum   'Li1 Te24'
_cell_volume   871.89720876
_cell_formula_units_Z   1
loop_
 _symmetry_equiv_pos_site_id
 _symmetry_equiv_pos_as_xyz
  1  'x, y, z'
loop_
 _atom_site_type_symbol
 _atom_site_label
 _atom_site_symmetry_multiplicity
 _atom_site_fract_x
 _atom_site_fract_y
 _atom_site_fract_z
 _atom_site_occupancy
  Li  Li0  1  0.000000  0.000000  0.000000  1
  Te  Te1  1  0.501810  0.498190  0.731250  1
  Te  Te2  1  0.498190  0.501810  0.268750  1
  Te  Te3  1  0.501810  0.003619  0.731250  1
  Te  Te4  1  0.498190  0.996381  0.268750  1
  Te  Te5  1  0.996381  0.498190  0.731250  1
  Te  Te6  1  0.003619  0.501810  0.268750  1
  Te  Te7  1  0.000000  0.000000  0.733015  1
  Te  Te8  1  0.000000  0.000000  0.266985  1
  Te  Te9  1  0.834190  0.668380  0.131257  1
  Te  Te10  1  0.833778  0.667556  0.597013  1
  Te  Te11  1  0.834190  0.165810  0.131257  1
  Te  Te12  1  0.833778  0.166222  0.597013  1
  Te  Te13  1  0.333333  0.666667  0.134627  1
  Te  Te14  1  0.333333  0.666667  0.597568  1
  Te  Te15  1  0.331620  0.165810  0.131257  1
  Te  Te16  1  0.332444  0.166222  0.597013  1
  Te  Te17  1  0.668380  0.834190  0.868743  1
  Te  Te18  1  0.667556  0.833778  0.402987  1
  Te  Te19  1  0.666667  0.333333  0.865373  1
  Te  Te20  1  0.666667  0.333333  0.402432  1
  Te  Te21  1  0.165810  0.834190  0.868743  1
  Te  Te22  1  0.166222  0.833778  0.402987  1
  Te  Te23  1  0.165810  0.331620  0.868743  1
  Te  Te24  1  0.166222  0.332444  0.402987  1
