# generated using pymatgen
data_TbEuMn4Ni8P7
_symmetry_space_group_name_H-M   'P 1'
_cell_length_a   9.21363878
_cell_length_b   9.21947926
_cell_length_c   3.70414100
_cell_angle_alpha   90.00000000
_cell_angle_beta   90.00000000
_cell_angle_gamma   119.97577355
_symmetry_Int_Tables_number   1
_chemical_formula_structural   TbEuMn4Ni8P7
_chemical_formula_sum   'Tb1 Eu1 Mn4 Ni8 P7'
_cell_volume   272.55972593
_cell_formula_units_Z   1
loop_
 _symmetry_equiv_pos_site_id
 _symmetry_equiv_pos_as_xyz
  1  'x, y, z'
loop_
 _atom_site_type_symbol
 _atom_site_label
 _atom_site_symmetry_multiplicity
 _atom_site_fract_x
 _atom_site_fract_y
 _atom_site_fract_z
 _atom_site_occupancy
  Tb  Tb0  1  0.666241  0.332179  0.000000  1
  Eu  Eu1  1  0.333767  0.667798  0.500000  1
  Mn  Mn2  1  0.880358  0.155288  0.000000  1
  Mn  Mn3  1  0.097395  0.880046  0.500000  1
  Mn  Mn4  1  0.779905  0.900501  0.500000  1
  Mn  Mn5  1  0.123287  0.222702  0.500000  1
  Ni  Ni6  1  0.054444  0.623284  0.000000  1
  Ni  Ni7  1  0.567919  0.941281  0.000000  1
  Ni  Ni8  1  0.374743  0.430571  0.000000  1
  Ni  Ni9  1  0.275326  0.121522  0.000000  1
  Ni  Ni10  1  0.845280  0.722473  0.000000  1
  Ni  Ni11  1  0.436249  0.054915  0.500000  1
  Ni  Ni12  1  0.616886  0.563896  0.500000  1
  Ni  Ni13  1  0.947260  0.382841  0.500000  1
  P  P14  1  0.295491  0.888859  0.000000  1
  P  P15  1  0.594569  0.705528  0.000000  1
  P  P16  1  0.110336  0.405905  0.000000  1
  P  P17  1  0.404967  0.291607  0.500000  1
  P  P18  1  0.887364  0.596184  0.500000  1
  P  P19  1  0.711140  0.112485  0.500000  1
  P  P20  1  0.997072  0.000134  0.000000  1
