# generated using pymatgen
data_PrHoTm2(WO6)2
_symmetry_space_group_name_H-M   'P 1'
_cell_length_a   5.43344100
_cell_length_b   7.74065118
_cell_length_c   11.47567135
_cell_angle_alpha   75.67002556
_cell_angle_beta   90.00000000
_cell_angle_gamma   90.00000000
_symmetry_Int_Tables_number   1
_chemical_formula_structural   PrHoTm2(WO6)2
_chemical_formula_sum   'Pr2 Ho2 Tm4 W4 O24'
_cell_volume   467.63112110
_cell_formula_units_Z   2
loop_
 _symmetry_equiv_pos_site_id
 _symmetry_equiv_pos_as_xyz
  1  'x, y, z'
loop_
 _atom_site_type_symbol
 _atom_site_label
 _atom_site_symmetry_multiplicity
 _atom_site_fract_x
 _atom_site_fract_y
 _atom_site_fract_z
 _atom_site_occupancy
  Pr  Pr0  1  0.685836  0.500000  0.750000  1
  Pr  Pr1  1  0.314164  0.500000  0.250000  1
  Ho  Ho2  1  0.742826  0.000000  0.750000  1
  Ho  Ho3  1  0.257174  0.000000  0.250000  1
  Tm  Tm4  1  0.185784  0.797803  0.577205  1
  Tm  Tm5  1  0.814216  0.797803  0.077205  1
  Tm  Tm6  1  0.185784  0.202197  0.922795  1
  Tm  Tm7  1  0.814216  0.202197  0.422795  1
  W  W8  1  0.253357  0.728437  0.884617  1
  W  W9  1  0.746643  0.728437  0.384617  1
  W  W10  1  0.253357  0.271563  0.615383  1
  W  W11  1  0.746643  0.271563  0.115383  1
  O  O12  1  0.043041  0.942751  0.897146  1
  O  O13  1  0.535836  0.844436  0.931833  1
  O  O14  1  0.956959  0.942751  0.397146  1
  O  O15  1  0.453739  0.796143  0.725929  1
  O  O16  1  0.464164  0.844436  0.431833  1
  O  O17  1  0.986792  0.721911  0.768268  1
  O  O18  1  0.546261  0.796143  0.225929  1
  O  O19  1  0.858983  0.642662  0.546030  1
  O  O20  1  0.345581  0.492405  0.888070  1
  O  O21  1  0.013208  0.721911  0.268268  1
  O  O22  1  0.345581  0.507595  0.611930  1
  O  O23  1  0.858983  0.357338  0.953970  1
  O  O24  1  0.141017  0.642662  0.046030  1
  O  O25  1  0.654419  0.492405  0.388070  1
  O  O26  1  0.986792  0.278089  0.731732  1
  O  O27  1  0.654419  0.507595  0.111930  1
  O  O28  1  0.141017  0.357338  0.453970  1
  O  O29  1  0.453739  0.203857  0.774071  1
  O  O30  1  0.013208  0.278089  0.231732  1
  O  O31  1  0.535836  0.155564  0.568167  1
  O  O32  1  0.546261  0.203857  0.274071  1
  O  O33  1  0.043041  0.057249  0.602854  1
  O  O34  1  0.464164  0.155564  0.068167  1
  O  O35  1  0.956959  0.057249  0.102854  1
