# generated using pymatgen
data_Li12Sm3Gd(BO3)8
_symmetry_space_group_name_H-M   'P 1'
_cell_length_a   6.49656591
_cell_length_b   8.83054756
_cell_length_c   10.01314989
_cell_angle_alpha   114.83314307
_cell_angle_beta   90.03385153
_cell_angle_gamma   90.03138473
_symmetry_Int_Tables_number   1
_chemical_formula_structural   Li12Sm3Gd(BO3)8
_chemical_formula_sum   'Li12 Sm3 Gd1 B8 O24'
_cell_volume   521.32096776
_cell_formula_units_Z   1
loop_
 _symmetry_equiv_pos_site_id
 _symmetry_equiv_pos_as_xyz
  1  'x, y, z'
loop_
 _atom_site_type_symbol
 _atom_site_label
 _atom_site_symmetry_multiplicity
 _atom_site_fract_x
 _atom_site_fract_y
 _atom_site_fract_z
 _atom_site_occupancy
  Li  Li0  1  0.438147  0.037924  0.334012  1
  Li  Li1  1  0.743529  0.126741  0.521885  1
  Li  Li2  1  0.756283  0.626434  0.021879  1
  Li  Li3  1  0.243751  0.373508  0.978383  1
  Li  Li4  1  0.219146  0.295714  0.458752  1
  Li  Li5  1  0.938036  0.462043  0.166290  1
  Li  Li6  1  0.561854  0.962180  0.666042  1
  Li  Li7  1  0.780884  0.704264  0.540663  1
  Li  Li8  1  0.256516  0.873017  0.478038  1
  Li  Li9  1  0.718664  0.205065  0.041388  1
  Li  Li10  1  0.281204  0.795374  0.959036  1
  Li  Li11  1  0.061946  0.537643  0.833928  1
  Sm  Sm12  1  0.027359  0.982349  0.799825  1
  Sm  Sm13  1  0.527341  0.517512  0.699656  1
  Sm  Sm14  1  0.972621  0.017872  0.200297  1
  Gd  Gd15  1  0.472171  0.483492  0.299863  1
  B  B16  1  0.337127  0.217214  0.676880  1
  B  B17  1  0.328866  0.159766  0.108050  1
  B  B18  1  0.662127  0.782118  0.323104  1
  B  B19  1  0.163635  0.717045  0.177201  1
  B  B20  1  0.828029  0.341104  0.392239  1
  B  B21  1  0.671319  0.841102  0.892689  1
  B  B22  1  0.837143  0.282829  0.823136  1
  B  B23  1  0.171788  0.658716  0.606659  1
  O  O24  1  0.292536  0.069532  0.687374  1
  O  O25  1  0.560808  0.783367  0.447828  1
  O  O26  1  0.216905  0.023161  0.013788  1
  O  O27  1  0.707562  0.929636  0.312602  1
  O  O28  1  0.180512  0.697180  0.757059  1
  O  O29  1  0.792408  0.430412  0.812622  1
  O  O30  1  0.438389  0.215799  0.552029  1
  O  O31  1  0.289624  0.374705  0.786763  1
  O  O32  1  0.061799  0.715104  0.052247  1
  O  O33  1  0.938559  0.284226  0.947998  1
  O  O34  1  0.714855  0.477103  0.485223  1
  O  O35  1  0.783803  0.977407  0.986426  1
  O  O36  1  0.565276  0.737672  0.940005  1
  O  O37  1  0.209138  0.569645  0.188094  1
  O  O38  1  0.210580  0.874842  0.286938  1
  O  O39  1  0.064983  0.762306  0.559912  1
  O  O40  1  0.680152  0.802044  0.742262  1
  O  O41  1  0.434978  0.263996  0.061629  1
  O  O42  1  0.820368  0.301612  0.241887  1
  O  O43  1  0.708652  0.624136  0.213356  1
  O  O44  1  0.789570  0.125199  0.713140  1
  O  O45  1  0.284764  0.523223  0.512484  1
  O  O46  1  0.934315  0.238157  0.440202  1
  O  O47  1  0.319983  0.198506  0.258235  1
