# generated using pymatgen
data_La9Nd7Cd4(CoTc)2
_symmetry_space_group_name_H-M   'P 1'
_cell_length_a   9.94551146
_cell_length_b   9.94551221
_cell_length_c   10.07979100
_cell_angle_alpha   59.55236499
_cell_angle_beta   59.55236247
_cell_angle_gamma   59.51246604
_symmetry_Int_Tables_number   1
_chemical_formula_structural   La9Nd7Cd4(CoTc)2
_chemical_formula_sum   'La9 Nd7 Cd4 Co2 Tc2'
_cell_volume   697.61378803
_cell_formula_units_Z   1
loop_
 _symmetry_equiv_pos_site_id
 _symmetry_equiv_pos_as_xyz
  1  'x, y, z'
loop_
 _atom_site_type_symbol
 _atom_site_label
 _atom_site_symmetry_multiplicity
 _atom_site_fract_x
 _atom_site_fract_y
 _atom_site_fract_z
 _atom_site_occupancy
  La  La0  1  0.347965  0.347965  0.341694  1
  La  La1  1  0.347965  0.347965  0.962376  1
  La  La2  1  0.352359  0.965607  0.341018  1
  La  La3  1  0.965607  0.352359  0.341018  1
  La  La4  1  0.808093  0.187050  0.189703  1
  La  La5  1  0.187050  0.808093  0.815153  1
  La  La6  1  0.187050  0.808093  0.189703  1
  La  La7  1  0.808093  0.187050  0.815153  1
  La  La8  1  0.189518  0.189518  0.810482  1
  Nd  Nd9  1  0.807383  0.807383  0.192617  1
  Nd  Nd10  1  0.933698  0.562311  0.566741  1
  Nd  Nd11  1  0.562311  0.933698  0.937250  1
  Nd  Nd12  1  0.562311  0.933698  0.566741  1
  Nd  Nd13  1  0.933698  0.562311  0.937250  1
  Nd  Nd14  1  0.563394  0.563394  0.936606  1
  Nd  Nd15  1  0.944490  0.944490  0.555510  1
  Cd  Cd16  1  0.580952  0.580952  0.577612  1
  Cd  Cd17  1  0.580952  0.580952  0.260487  1
  Cd  Cd18  1  0.579785  0.261119  0.579547  1
  Cd  Cd19  1  0.261119  0.579785  0.579547  1
  Co  Co20  1  0.148607  0.584326  0.133534  1
  Co  Co21  1  0.584326  0.148607  0.133534  1
  Tc  Tc22  1  0.131637  0.131637  0.136675  1
  Tc  Tc23  1  0.131637  0.131637  0.600049  1
