# generated using pymatgen
data_Hf9TaCoRe3
_symmetry_space_group_name_H-M   'P 1'
_cell_length_a   8.64913900
_cell_length_b   8.64913730
_cell_length_c   8.44258600
_cell_angle_alpha   90.00000000
_cell_angle_beta   90.00000000
_cell_angle_gamma   119.99999502
_symmetry_Int_Tables_number   1
_chemical_formula_structural   Hf9TaCoRe3
_chemical_formula_sum   'Hf18 Ta2 Co2 Re6'
_cell_volume   546.95527462
_cell_formula_units_Z   2
loop_
 _symmetry_equiv_pos_site_id
 _symmetry_equiv_pos_as_xyz
  1  'x, y, z'
loop_
 _atom_site_type_symbol
 _atom_site_label
 _atom_site_symmetry_multiplicity
 _atom_site_fract_x
 _atom_site_fract_y
 _atom_site_fract_z
 _atom_site_occupancy
  Hf  Hf0  1  0.201294  0.798706  0.440671  1
  Hf  Hf1  1  0.201294  0.402589  0.440671  1
  Hf  Hf2  1  0.597411  0.798706  0.440671  1
  Hf  Hf3  1  0.798706  0.201294  0.559329  1
  Hf  Hf4  1  0.798706  0.597411  0.559329  1
  Hf  Hf5  1  0.402589  0.201294  0.559329  1
  Hf  Hf6  1  0.798706  0.201294  0.940671  1
  Hf  Hf7  1  0.798706  0.597411  0.940671  1
  Hf  Hf8  1  0.402589  0.201294  0.940671  1
  Hf  Hf9  1  0.201294  0.798706  0.059329  1
  Hf  Hf10  1  0.201294  0.402589  0.059329  1
  Hf  Hf11  1  0.597411  0.798706  0.059329  1
  Hf  Hf12  1  0.541827  0.458173  0.250000  1
  Hf  Hf13  1  0.541827  0.083653  0.250000  1
  Hf  Hf14  1  0.916347  0.458173  0.250000  1
  Hf  Hf15  1  0.458173  0.541827  0.750000  1
  Hf  Hf16  1  0.458173  0.916347  0.750000  1
  Hf  Hf17  1  0.083653  0.541827  0.750000  1
  Ta  Ta18  1  0.000000  0.000000  0.500000  1
  Ta  Ta19  1  0.000000  0.000000  0.000000  1
  Co  Co20  1  0.333333  0.666667  0.250000  1
  Co  Co21  1  0.666667  0.333333  0.750000  1
  Re  Re22  1  0.885725  0.114275  0.250000  1
  Re  Re23  1  0.885725  0.771452  0.250000  1
  Re  Re24  1  0.228548  0.114275  0.250000  1
  Re  Re25  1  0.114275  0.885725  0.750000  1
  Re  Re26  1  0.114275  0.228548  0.750000  1
  Re  Re27  1  0.771452  0.885725  0.750000  1
