# generated using pymatgen
data_CsTh2(InI4)3
_symmetry_space_group_name_H-M   'P 1'
_cell_length_a   9.20757896
_cell_length_b   8.48348139
_cell_length_c   14.56215800
_cell_angle_alpha   55.15705467
_cell_angle_beta   90.65298441
_cell_angle_gamma   89.94532280
_symmetry_Int_Tables_number   1
_chemical_formula_structural   CsTh2(InI4)3
_chemical_formula_sum   'Cs1 Th2 In3 I12'
_cell_volume   933.45800167
_cell_formula_units_Z   1
loop_
 _symmetry_equiv_pos_site_id
 _symmetry_equiv_pos_as_xyz
  1  'x, y, z'
loop_
 _atom_site_type_symbol
 _atom_site_label
 _atom_site_symmetry_multiplicity
 _atom_site_fract_x
 _atom_site_fract_y
 _atom_site_fract_z
 _atom_site_occupancy
  Cs  Cs0  1  0.590228  0.722969  0.253137  1
  Th  Th1  1  0.004916  0.007165  0.992204  1
  Th  Th2  1  0.495431  0.992850  0.509875  1
  In  In3  1  0.098028  0.284961  0.242108  1
  In  In4  1  0.392958  0.289485  0.735112  1
  In  In5  1  0.897729  0.722689  0.756838  1
  I  I6  1  0.993917  0.896457  0.235067  1
  I  I7  1  0.453709  0.157686  0.258095  1
  I  I8  1  0.032557  0.124568  0.749617  1
  I  I9  1  0.543868  0.880388  0.750357  1
  I  I10  1  0.662440  0.628277  0.569207  1
  I  I11  1  0.172922  0.369637  0.928594  1
  I  I12  1  0.311662  0.337370  0.461834  1
  I  I13  1  0.838908  0.642072  0.052486  1
  I  I14  1  0.717733  0.234024  0.933623  1
  I  I15  1  0.219935  0.748518  0.567868  1
  I  I16  1  0.283081  0.762656  0.051463  1
  I  I17  1  0.789979  0.198229  0.452516  1
