# generated using pymatgen
data_Li2Ho5Th3Os2
_symmetry_space_group_name_H-M   'P 1'
_cell_length_a   9.76162689
_cell_length_b   9.83703147
_cell_length_c   9.83703100
_cell_angle_alpha   59.49350930
_cell_angle_beta   60.25325424
_cell_angle_gamma   60.25324545
_symmetry_Int_Tables_number   1
_chemical_formula_structural   Li2Ho5Th3Os2
_chemical_formula_sum   'Li4 Ho10 Th6 Os4'
_cell_volume   667.85884878
_cell_formula_units_Z   2
loop_
 _symmetry_equiv_pos_site_id
 _symmetry_equiv_pos_as_xyz
  1  'x, y, z'
loop_
 _atom_site_type_symbol
 _atom_site_label
 _atom_site_symmetry_multiplicity
 _atom_site_fract_x
 _atom_site_fract_y
 _atom_site_fract_z
 _atom_site_occupancy
  Li  Li0  1  0.581273  0.579672  0.579695  1
  Li  Li1  1  0.579672  0.581273  0.259360  1
  Li  Li2  1  0.579689  0.259367  0.581273  1
  Li  Li3  1  0.259367  0.579689  0.579672  1
  Ho  Ho4  1  0.187927  0.812072  0.187926  1
  Ho  Ho5  1  0.812072  0.187927  0.812075  1
  Ho  Ho6  1  0.187929  0.187929  0.812071  1
  Ho  Ho7  1  0.812062  0.812062  0.187938  1
  Ho  Ho8  1  0.933625  0.566376  0.566376  1
  Ho  Ho9  1  0.566376  0.933625  0.933623  1
  Ho  Ho10  1  0.561745  0.938263  0.561735  1
  Ho  Ho11  1  0.938263  0.561745  0.938256  1
  Ho  Ho12  1  0.561731  0.561731  0.938269  1
  Ho  Ho13  1  0.938267  0.938267  0.561733  1
  Th  Th14  1  0.341420  0.349178  0.349181  1
  Th  Th15  1  0.349178  0.341420  0.960221  1
  Th  Th16  1  0.349182  0.960214  0.341427  1
  Th  Th17  1  0.960214  0.349182  0.349176  1
  Th  Th18  1  0.816521  0.183487  0.183491  1
  Th  Th19  1  0.183487  0.816521  0.816501  1
  Os  Os20  1  0.131280  0.146956  0.146980  1
  Os  Os21  1  0.146956  0.131280  0.574783  1
  Os  Os22  1  0.146979  0.574784  0.131251  1
  Os  Os23  1  0.574784  0.146979  0.146985  1
