# generated using pymatgen
data_DyLuTh2(NiP)4
_symmetry_space_group_name_H-M   'P 1'
_cell_length_a   3.95716900
_cell_length_b   3.95716935
_cell_length_c   15.37579600
_cell_angle_alpha   90.00000000
_cell_angle_beta   90.00000000
_cell_angle_gamma   120.00000541
_symmetry_Int_Tables_number   1
_chemical_formula_structural   DyLuTh2(NiP)4
_chemical_formula_sum   'Dy1 Lu1 Th2 Ni4 P4'
_cell_volume   208.51507159
_cell_formula_units_Z   1
loop_
 _symmetry_equiv_pos_site_id
 _symmetry_equiv_pos_as_xyz
  1  'x, y, z'
loop_
 _atom_site_type_symbol
 _atom_site_label
 _atom_site_symmetry_multiplicity
 _atom_site_fract_x
 _atom_site_fract_y
 _atom_site_fract_z
 _atom_site_occupancy
  Dy  Dy0  1  0.000000  0.000000  0.750000  1
  Lu  Lu1  1  0.000000  0.000000  0.250000  1
  Th  Th2  1  0.000000  0.000000  0.496999  1
  Th  Th3  1  0.000000  0.000000  0.003001  1
  Ni  Ni4  1  0.333333  0.666667  0.357506  1
  Ni  Ni5  1  0.666667  0.333333  0.630671  1
  Ni  Ni6  1  0.666667  0.333333  0.869329  1
  Ni  Ni7  1  0.333333  0.666667  0.142494  1
  P  P8  1  0.333333  0.666667  0.874882  1
  P  P9  1  0.666667  0.333333  0.127827  1
  P  P10  1  0.666667  0.333333  0.372173  1
  P  P11  1  0.333333  0.666667  0.625118  1
