# generated using pymatgen
data_Sc4Be4VSiIr10
_symmetry_space_group_name_H-M   'P 1'
_cell_length_a   9.46550900
_cell_length_b   9.46550900
_cell_length_c   3.08477900
_cell_angle_alpha   90.00000000
_cell_angle_beta   90.00000000
_cell_angle_gamma   90.00000000
_symmetry_Int_Tables_number   1
_chemical_formula_structural   Sc4Be4VSiIr10
_chemical_formula_sum   'Sc4 Be4 V1 Si1 Ir10'
_cell_volume   276.38342936
_cell_formula_units_Z   1
loop_
 _symmetry_equiv_pos_site_id
 _symmetry_equiv_pos_as_xyz
  1  'x, y, z'
loop_
 _atom_site_type_symbol
 _atom_site_label
 _atom_site_symmetry_multiplicity
 _atom_site_fract_x
 _atom_site_fract_y
 _atom_site_fract_z
 _atom_site_occupancy
  Sc  Sc0  1  0.175708  0.673573  0.000000  1
  Sc  Sc1  1  0.673573  0.824292  0.000000  1
  Sc  Sc2  1  0.326427  0.175708  0.000000  1
  Sc  Sc3  1  0.824292  0.326427  0.000000  1
  Be  Be4  1  0.377573  0.874453  0.000000  1
  Be  Be5  1  0.874453  0.622427  0.000000  1
  Be  Be6  1  0.125547  0.377573  0.000000  1
  Be  Be7  1  0.622427  0.125547  0.000000  1
  V  V8  1  0.000000  0.000000  0.000000  1
  Si  Si9  1  0.500000  0.500000  0.000000  1
  Ir  Ir10  1  0.000000  0.500000  0.500000  1
  Ir  Ir11  1  0.500000  0.000000  0.500000  1
  Ir  Ir12  1  0.294834  0.432349  0.500000  1
  Ir  Ir13  1  0.705167  0.567651  0.500000  1
  Ir  Ir14  1  0.567651  0.294834  0.500000  1
  Ir  Ir15  1  0.432349  0.705167  0.500000  1
  Ir  Ir16  1  0.931582  0.792548  0.500000  1
  Ir  Ir17  1  0.792548  0.068418  0.500000  1
  Ir  Ir18  1  0.207451  0.931582  0.500000  1
  Ir  Ir19  1  0.068418  0.207451  0.500000  1
