# generated using pymatgen
data_ThBe12Co
_symmetry_space_group_name_H-M   'P 1'
_cell_length_a   7.31435446
_cell_length_b   7.31435433
_cell_length_c   7.32258163
_cell_angle_alpha   60.52611690
_cell_angle_beta   60.52611926
_cell_angle_gamma   60.48623404
_symmetry_Int_Tables_number   1
_chemical_formula_structural   ThBe12Co
_chemical_formula_sum   'Th2 Be24 Co2'
_cell_volume   280.22384537
_cell_formula_units_Z   2
loop_
 _symmetry_equiv_pos_site_id
 _symmetry_equiv_pos_as_xyz
  1  'x, y, z'
loop_
 _atom_site_type_symbol
 _atom_site_label
 _atom_site_symmetry_multiplicity
 _atom_site_fract_x
 _atom_site_fract_y
 _atom_site_fract_z
 _atom_site_occupancy
  Th  Th0  1  0.738680  0.750023  0.754721  1
  Th  Th1  1  0.250023  0.238680  0.254721  1
  Be  Be2  1  0.498456  0.500102  0.504470  1
  Be  Be3  1  0.000102  0.998456  0.004470  1
  Be  Be4  1  0.933292  0.289845  0.712131  1
  Be  Be5  1  0.712873  0.934647  0.288821  1
  Be  Be6  1  0.282399  0.068418  0.714665  1
  Be  Be7  1  0.936985  0.064472  0.288201  1
  Be  Be8  1  0.710479  0.289187  0.061488  1
  Be  Be9  1  0.564472  0.436985  0.788201  1
  Be  Be10  1  0.789829  0.564852  0.433364  1
  Be  Be11  1  0.434647  0.212873  0.788821  1
  Be  Be12  1  0.436808  0.560664  0.212380  1
  Be  Be13  1  0.789187  0.210479  0.561488  1
  Be  Be14  1  0.205054  0.437676  0.564111  1
  Be  Be15  1  0.213076  0.787446  0.435844  1
  Be  Be16  1  0.568418  0.782399  0.214665  1
  Be  Be17  1  0.064852  0.289829  0.933364  1
  Be  Be18  1  0.071049  0.714087  0.283305  1
  Be  Be19  1  0.287446  0.713076  0.935844  1
  Be  Be20  1  0.060664  0.936808  0.712380  1
  Be  Be21  1  0.711294  0.061523  0.935272  1
  Be  Be22  1  0.937676  0.705054  0.064111  1
  Be  Be23  1  0.789845  0.433292  0.212131  1
  Be  Be24  1  0.561523  0.211294  0.435272  1
  Be  Be25  1  0.214087  0.571049  0.783305  1
  Co  Co26  1  0.439090  0.797694  0.561227  1
  Co  Co27  1  0.297694  0.939090  0.061227  1
