# generated using pymatgen
data_Ce16ErAl12
_symmetry_space_group_name_H-M   'P 1'
_cell_length_a   9.57073359
_cell_length_b   9.57073432
_cell_length_c   9.57073400
_cell_angle_alpha   109.47122208
_cell_angle_beta   109.47122361
_cell_angle_gamma   109.47121612
_symmetry_Int_Tables_number   1
_chemical_formula_structural   Ce16ErAl12
_chemical_formula_sum   'Ce16 Er1 Al12'
_cell_volume   674.86024266
_cell_formula_units_Z   1
loop_
 _symmetry_equiv_pos_site_id
 _symmetry_equiv_pos_as_xyz
  1  'x, y, z'
loop_
 _atom_site_type_symbol
 _atom_site_label
 _atom_site_symmetry_multiplicity
 _atom_site_fract_x
 _atom_site_fract_y
 _atom_site_fract_z
 _atom_site_occupancy
  Ce  Ce0  1  0.588555  0.309580  0.000000  1
  Ce  Ce1  1  0.000000  0.374538  0.000000  1
  Ce  Ce2  1  0.374538  0.000000  0.000000  1
  Ce  Ce3  1  0.309580  0.588555  0.000000  1
  Ce  Ce4  1  0.411445  0.411445  0.721025  1
  Ce  Ce5  1  0.278975  0.690420  0.690420  1
  Ce  Ce6  1  0.690420  0.278975  0.690420  1
  Ce  Ce7  1  0.625462  0.625462  0.625462  1
  Ce  Ce8  1  0.309580  0.000000  0.588555  1
  Ce  Ce9  1  0.000000  0.309580  0.588555  1
  Ce  Ce10  1  0.721025  0.411445  0.411445  1
  Ce  Ce11  1  0.411445  0.721025  0.411445  1
  Ce  Ce12  1  0.000000  0.000000  0.374538  1
  Ce  Ce13  1  0.588555  0.000000  0.309580  1
  Ce  Ce14  1  0.000000  0.588555  0.309580  1
  Ce  Ce15  1  0.690420  0.690420  0.278975  1
  Er  Er16  1  0.000000  0.000000  0.000000  1
  Al  Al17  1  0.820640  0.644200  0.000000  1
  Al  Al18  1  0.644200  0.820640  0.000000  1
  Al  Al19  1  0.179360  0.179360  0.823560  1
  Al  Al20  1  0.644200  0.000000  0.820640  1
  Al  Al21  1  0.000000  0.644200  0.820640  1
  Al  Al22  1  0.000000  0.820640  0.644200  1
  Al  Al23  1  0.820640  0.000000  0.644200  1
  Al  Al24  1  0.176440  0.355800  0.355800  1
  Al  Al25  1  0.355800  0.176440  0.355800  1
  Al  Al26  1  0.179360  0.823560  0.179360  1
  Al  Al27  1  0.823560  0.179360  0.179360  1
  Al  Al28  1  0.355800  0.355800  0.176440  1
