# generated using pymatgen
data_Rb2Zr3PbS8
_symmetry_space_group_name_H-M   'P 1'
_cell_length_a   6.50816800
_cell_length_b   7.56136300
_cell_length_c   16.05750400
_cell_angle_alpha   90.00000000
_cell_angle_beta   90.00000000
_cell_angle_gamma   90.00000000
_symmetry_Int_Tables_number   1
_chemical_formula_structural   Rb2Zr3PbS8
_chemical_formula_sum   'Rb4 Zr6 Pb2 S16'
_cell_volume   790.19973894
_cell_formula_units_Z   2
loop_
 _symmetry_equiv_pos_site_id
 _symmetry_equiv_pos_as_xyz
  1  'x, y, z'
loop_
 _atom_site_type_symbol
 _atom_site_label
 _atom_site_symmetry_multiplicity
 _atom_site_fract_x
 _atom_site_fract_y
 _atom_site_fract_z
 _atom_site_occupancy
  Rb  Rb0  1  0.324708  0.000000  0.000000  1
  Rb  Rb1  1  0.637339  0.500000  0.500000  1
  Rb  Rb2  1  0.021245  0.000000  0.500000  1
  Rb  Rb3  1  0.971854  0.500000  0.000000  1
  Zr  Zr4  1  0.998202  0.500000  0.253872  1
  Zr  Zr5  1  0.998202  0.500000  0.746128  1
  Zr  Zr6  1  0.500297  0.248242  0.250845  1
  Zr  Zr7  1  0.500297  0.751758  0.749155  1
  Zr  Zr8  1  0.500297  0.751758  0.250845  1
  Zr  Zr9  1  0.500297  0.248242  0.749155  1
  Pb  Pb10  1  0.005005  0.000000  0.246206  1
  Pb  Pb11  1  0.005005  0.000000  0.753794  1
  S  S12  1  0.820782  0.269672  0.344719  1
  S  S13  1  0.820782  0.730328  0.655281  1
  S  S14  1  0.185761  0.722582  0.156053  1
  S  S15  1  0.185761  0.277418  0.843947  1
  S  S16  1  0.185761  0.277418  0.156053  1
  S  S17  1  0.185761  0.722582  0.843947  1
  S  S18  1  0.820782  0.730328  0.344719  1
  S  S19  1  0.820782  0.269672  0.655281  1
  S  S20  1  0.630965  0.000000  0.156300  1
  S  S21  1  0.630965  0.000000  0.843700  1
  S  S22  1  0.328322  0.500000  0.341349  1
  S  S23  1  0.328322  0.500000  0.658651  1
  S  S24  1  0.373842  0.000000  0.345878  1
  S  S25  1  0.373842  0.000000  0.654122  1
  S  S26  1  0.672415  0.500000  0.161925  1
  S  S27  1  0.672415  0.500000  0.838075  1
