# generated using pymatgen
data_Tb6Tm4Si5Pb
_symmetry_space_group_name_H-M   'P 1'
_cell_length_a   8.55102602
_cell_length_b   8.55102553
_cell_length_c   6.36240900
_cell_angle_alpha   90.00000000
_cell_angle_beta   90.00000000
_cell_angle_gamma   120.20673625
_symmetry_Int_Tables_number   1
_chemical_formula_structural   Tb6Tm4Si5Pb
_chemical_formula_sum   'Tb6 Tm4 Si5 Pb1'
_cell_volume   402.05007234
_cell_formula_units_Z   1
loop_
 _symmetry_equiv_pos_site_id
 _symmetry_equiv_pos_as_xyz
  1  'x, y, z'
loop_
 _atom_site_type_symbol
 _atom_site_label
 _atom_site_symmetry_multiplicity
 _atom_site_fract_x
 _atom_site_fract_y
 _atom_site_fract_z
 _atom_site_occupancy
  Tb  Tb0  1  0.766611  0.766611  0.250000  1
  Tb  Tb1  1  0.240627  0.987436  0.250000  1
  Tb  Tb2  1  0.987436  0.240627  0.250000  1
  Tb  Tb3  1  0.240544  0.240544  0.750000  1
  Tb  Tb4  1  0.755385  0.998430  0.750000  1
  Tb  Tb5  1  0.998430  0.755385  0.750000  1
  Tm  Tm6  1  0.675174  0.331236  0.503819  1
  Tm  Tm7  1  0.331236  0.675174  0.503819  1
  Tm  Tm8  1  0.331236  0.675174  0.996181  1
  Tm  Tm9  1  0.675174  0.331236  0.996181  1
  Si  Si10  1  0.602890  0.998301  0.250000  1
  Si  Si11  1  0.998301  0.602890  0.250000  1
  Si  Si12  1  0.605070  0.605070  0.750000  1
  Si  Si13  1  0.394670  0.001664  0.750000  1
  Si  Si14  1  0.001664  0.394670  0.750000  1
  Pb  Pb15  1  0.395551  0.395551  0.250000  1
