# generated using pymatgen
data_NdNi3As2
_symmetry_space_group_name_H-M   'P 1'
_cell_length_a   3.97087300
_cell_length_b   10.95221000
_cell_length_c   12.86082600
_cell_angle_alpha   90.00000000
_cell_angle_beta   90.00000000
_cell_angle_gamma   90.00000000
_symmetry_Int_Tables_number   1
_chemical_formula_structural   NdNi3As2
_chemical_formula_sum   'Nd6 Ni18 As12'
_cell_volume   559.31520044
_cell_formula_units_Z   6
loop_
 _symmetry_equiv_pos_site_id
 _symmetry_equiv_pos_as_xyz
  1  'x, y, z'
loop_
 _atom_site_type_symbol
 _atom_site_label
 _atom_site_symmetry_multiplicity
 _atom_site_fract_x
 _atom_site_fract_y
 _atom_site_fract_z
 _atom_site_occupancy
  Nd  Nd0  1  0.000000  0.500000  0.520266  1
  Nd  Nd1  1  0.500000  0.000000  0.479734  1
  Nd  Nd2  1  0.500000  0.813186  0.206243  1
  Nd  Nd3  1  0.500000  0.186814  0.206243  1
  Nd  Nd4  1  0.000000  0.686814  0.793757  1
  Nd  Nd5  1  0.000000  0.313186  0.793757  1
  Ni  Ni6  1  0.500000  0.500000  0.152882  1
  Ni  Ni7  1  0.000000  0.000000  0.847118  1
  Ni  Ni8  1  0.500000  0.500000  0.698470  1
  Ni  Ni9  1  0.000000  0.000000  0.301530  1
  Ni  Ni10  1  0.000000  0.500000  0.979843  1
  Ni  Ni11  1  0.500000  0.000000  0.020157  1
  Ni  Ni12  1  0.500000  0.333787  0.997171  1
  Ni  Ni13  1  0.500000  0.666213  0.997171  1
  Ni  Ni14  1  0.000000  0.166213  0.002829  1
  Ni  Ni15  1  0.000000  0.833787  0.002829  1
  Ni  Ni16  1  0.500000  0.303730  0.423313  1
  Ni  Ni17  1  0.500000  0.696270  0.423313  1
  Ni  Ni18  1  0.000000  0.196270  0.576687  1
  Ni  Ni19  1  0.000000  0.803730  0.576687  1
  Ni  Ni20  1  0.500000  0.881706  0.709349  1
  Ni  Ni21  1  0.500000  0.118294  0.709349  1
  Ni  Ni22  1  0.000000  0.618294  0.290651  1
  Ni  Ni23  1  0.000000  0.381706  0.290651  1
  As  As24  1  0.500000  0.500000  0.876720  1
  As  As25  1  0.000000  0.000000  0.123280  1
  As  As26  1  0.500000  0.500000  0.338745  1
  As  As27  1  0.000000  0.000000  0.661255  1
  As  As28  1  0.500000  0.311285  0.611109  1
  As  As29  1  0.500000  0.688715  0.611109  1
  As  As30  1  0.000000  0.188715  0.388891  1
  As  As31  1  0.000000  0.811285  0.388891  1
  As  As32  1  0.500000  0.850074  0.894082  1
  As  As33  1  0.500000  0.149926  0.894082  1
  As  As34  1  0.000000  0.649926  0.105918  1
  As  As35  1  0.000000  0.350074  0.105918  1
