# generated using pymatgen
data_NdAl10OsRh
_symmetry_space_group_name_H-M   'P 1'
_cell_length_a   6.86877319
_cell_length_b   6.89162957
_cell_length_c   9.21152900
_cell_angle_alpha   90.00000000
_cell_angle_beta   90.00000000
_cell_angle_gamma   97.07307732
_symmetry_Int_Tables_number   1
_chemical_formula_structural   NdAl10OsRh
_chemical_formula_sum   'Nd2 Al20 Os2 Rh2'
_cell_volume   432.72816642
_cell_formula_units_Z   2
loop_
 _symmetry_equiv_pos_site_id
 _symmetry_equiv_pos_as_xyz
  1  'x, y, z'
loop_
 _atom_site_type_symbol
 _atom_site_label
 _atom_site_symmetry_multiplicity
 _atom_site_fract_x
 _atom_site_fract_y
 _atom_site_fract_z
 _atom_site_occupancy
  Nd  Nd0  1  0.871314  0.124327  0.750000  1
  Nd  Nd1  1  0.128686  0.875673  0.250000  1
  Al  Al2  1  0.620507  0.375881  0.550189  1
  Al  Al3  1  0.379493  0.624119  0.449811  1
  Al  Al4  1  0.379493  0.624119  0.050189  1
  Al  Al5  1  0.620507  0.375881  0.949811  1
  Al  Al6  1  0.225334  0.224415  0.498897  1
  Al  Al7  1  0.774666  0.775585  0.501103  1
  Al  Al8  1  0.774666  0.775585  0.998897  1
  Al  Al9  1  0.225334  0.224415  0.001103  1
  Al  Al10  1  0.841722  0.157710  0.102789  1
  Al  Al11  1  0.158278  0.842290  0.897211  1
  Al  Al12  1  0.158278  0.842290  0.602789  1
  Al  Al13  1  0.841722  0.157710  0.397211  1
  Al  Al14  1  0.857207  0.589766  0.750000  1
  Al  Al15  1  0.142793  0.410234  0.250000  1
  Al  Al16  1  0.409857  0.141453  0.750000  1
  Al  Al17  1  0.590143  0.858547  0.250000  1
  Al  Al18  1  0.225244  0.481960  0.750000  1
  Al  Al19  1  0.774756  0.518040  0.250000  1
  Al  Al20  1  0.516931  0.778786  0.750000  1
  Al  Al21  1  0.483069  0.221214  0.250000  1
  Os  Os22  1  0.500000  0.000000  0.000000  1
  Os  Os23  1  0.500000  0.000000  0.500000  1
  Rh  Rh24  1  0.000000  0.500000  0.500000  1
  Rh  Rh25  1  0.000000  0.500000  0.000000  1
