# generated using pymatgen
data_Ti4MnGa(Co5B2)2
_symmetry_space_group_name_H-M   'P 1'
_cell_length_a   8.41445400
_cell_length_b   8.41445400
_cell_length_c   3.00459100
_cell_angle_alpha   90.00000000
_cell_angle_beta   90.00000000
_cell_angle_gamma   90.00000000
_symmetry_Int_Tables_number   1
_chemical_formula_structural   Ti4MnGa(Co5B2)2
_chemical_formula_sum   'Ti4 Mn1 Ga1 Co10 B4'
_cell_volume   212.73416509
_cell_formula_units_Z   1
loop_
 _symmetry_equiv_pos_site_id
 _symmetry_equiv_pos_as_xyz
  1  'x, y, z'
loop_
 _atom_site_type_symbol
 _atom_site_label
 _atom_site_symmetry_multiplicity
 _atom_site_fract_x
 _atom_site_fract_y
 _atom_site_fract_z
 _atom_site_occupancy
  Ti  Ti0  1  0.825325  0.322680  0.000000  1
  Ti  Ti1  1  0.322680  0.174675  0.000000  1
  Ti  Ti2  1  0.677320  0.825325  0.000000  1
  Ti  Ti3  1  0.174675  0.677320  0.000000  1
  Mn  Mn4  1  0.000000  0.000000  0.000000  1
  Ga  Ga5  1  0.500000  0.500000  0.000000  1
  Co  Co6  1  0.500000  0.000000  0.500000  1
  Co  Co7  1  0.000000  0.500000  0.500000  1
  Co  Co8  1  0.070087  0.219590  0.500000  1
  Co  Co9  1  0.219590  0.929913  0.500000  1
  Co  Co10  1  0.780410  0.070087  0.500000  1
  Co  Co11  1  0.929913  0.780410  0.500000  1
  Co  Co12  1  0.429348  0.720330  0.500000  1
  Co  Co13  1  0.570652  0.279670  0.500000  1
  Co  Co14  1  0.720330  0.570652  0.500000  1
  Co  Co15  1  0.279670  0.429348  0.500000  1
  B  B16  1  0.621500  0.121554  0.000000  1
  B  B17  1  0.121554  0.378500  0.000000  1
  B  B18  1  0.878446  0.621500  0.000000  1
  B  B19  1  0.378500  0.878446  0.000000  1
