# generated using pymatgen
data_Ba4InGa3Pt4
_symmetry_space_group_name_H-M   'P 1'
_cell_length_a   7.03517585
_cell_length_b   7.03517553
_cell_length_c   7.03517595
_cell_angle_alpha   90.41753022
_cell_angle_beta   89.58247173
_cell_angle_gamma   90.41752925
_symmetry_Int_Tables_number   1
_chemical_formula_structural   Ba4InGa3Pt4
_chemical_formula_sum   'Ba4 In1 Ga3 Pt4'
_cell_volume   348.16926454
_cell_formula_units_Z   1
loop_
 _symmetry_equiv_pos_site_id
 _symmetry_equiv_pos_as_xyz
  1  'x, y, z'
loop_
 _atom_site_type_symbol
 _atom_site_label
 _atom_site_symmetry_multiplicity
 _atom_site_fract_x
 _atom_site_fract_y
 _atom_site_fract_z
 _atom_site_occupancy
  Ba  Ba0  1  0.660508  0.342348  0.845925  1
  Ba  Ba1  1  0.345925  0.839492  0.657652  1
  Ba  Ba2  1  0.157652  0.154075  0.160508  1
  Ba  Ba3  1  0.840468  0.659532  0.340468  1
  In  In4  1  0.157504  0.342496  0.657504  1
  Ga  Ga5  1  0.649218  0.147620  0.345183  1
  Ga  Ga6  1  0.352380  0.654817  0.149218  1
  Ga  Ga7  1  0.845183  0.850782  0.852380  1
  Pt  Pt8  1  0.577372  0.922628  0.077372  1
  Pt  Pt9  1  0.075319  0.596373  0.934843  1
  Pt  Pt10  1  0.434843  0.424681  0.403627  1
  Pt  Pt11  1  0.903627  0.065157  0.575319  1
