# generated using pymatgen
data_Ba4TmLuInReO12
_symmetry_space_group_name_H-M   'P 1'
_cell_length_a   7.39876924
_cell_length_b   7.39876773
_cell_length_c   7.39876900
_cell_angle_alpha   110.08749381
_cell_angle_beta   110.10629038
_cell_angle_gamma   108.22699573
_symmetry_Int_Tables_number   1
_chemical_formula_structural   Ba4TmLuInReO12
_chemical_formula_sum   'Ba4 Tm1 Lu1 In1 Re1 O12'
_cell_volume   311.67590262
_cell_formula_units_Z   1
loop_
 _symmetry_equiv_pos_site_id
 _symmetry_equiv_pos_as_xyz
  1  'x, y, z'
loop_
 _atom_site_type_symbol
 _atom_site_label
 _atom_site_symmetry_multiplicity
 _atom_site_fract_x
 _atom_site_fract_y
 _atom_site_fract_z
 _atom_site_occupancy
  Ba  Ba0  1  0.000000  0.500000  0.000000  1
  Ba  Ba1  1  0.500000  0.000000  0.000000  1
  Ba  Ba2  1  0.000000  0.000000  0.500000  1
  Ba  Ba3  1  0.500000  0.500000  0.500000  1
  Tm  Tm4  1  0.000000  0.500000  0.500000  1
  Lu  Lu5  1  0.500000  0.000000  0.500000  1
  In  In6  1  0.500000  0.500000  0.000000  1
  Re  Re7  1  0.000000  0.000000  0.000000  1
  O  O8  1  0.251209  0.751209  0.500000  1
  O  O9  1  0.774209  0.000000  0.774209  1
  O  O10  1  0.000000  0.774526  0.774526  1
  O  O11  1  0.000000  0.225474  0.225474  1
  O  O12  1  0.218611  0.218611  0.000000  1
  O  O13  1  0.225791  0.000000  0.225791  1
  O  O14  1  0.781389  0.781389  0.000000  1
  O  O15  1  0.748791  0.248791  0.500000  1
  O  O16  1  0.500000  0.251152  0.751152  1
  O  O17  1  0.500000  0.748848  0.248848  1
  O  O18  1  0.252702  0.500000  0.752702  1
  O  O19  1  0.747298  0.500000  0.247298  1
