# generated using pymatgen
data_Tb3Yb5(Ge4Mo3)4
_symmetry_space_group_name_H-M   'P 1'
_cell_length_a   6.86739192
_cell_length_b   7.06949726
_cell_length_c   13.22246811
_cell_angle_alpha   89.95465547
_cell_angle_beta   89.95849172
_cell_angle_gamma   89.94596012
_symmetry_Int_Tables_number   1
_chemical_formula_structural   Tb3Yb5(Ge4Mo3)4
_chemical_formula_sum   'Tb3 Yb5 Ge16 Mo12'
_cell_volume   641.93706074
_cell_formula_units_Z   1
loop_
 _symmetry_equiv_pos_site_id
 _symmetry_equiv_pos_as_xyz
  1  'x, y, z'
loop_
 _atom_site_type_symbol
 _atom_site_label
 _atom_site_symmetry_multiplicity
 _atom_site_fract_x
 _atom_site_fract_y
 _atom_site_fract_z
 _atom_site_occupancy
  Tb  Tb0  1  0.005102  0.826965  0.592854  1
  Tb  Tb1  1  0.494480  0.328338  0.408315  1
  Tb  Tb2  1  0.994656  0.172021  0.090576  1
  Yb  Yb3  1  0.493569  0.330461  0.089648  1
  Yb  Yb4  1  0.993108  0.170689  0.408654  1
  Yb  Yb5  1  0.505984  0.671320  0.591484  1
  Yb  Yb6  1  0.006493  0.828380  0.908481  1
  Yb  Yb7  1  0.505999  0.670706  0.910445  1
  Ge  Ge8  1  0.668891  0.044076  0.545671  1
  Ge  Ge9  1  0.170072  0.458052  0.953472  1
  Ge  Ge10  1  0.332567  0.954633  0.045682  1
  Ge  Ge11  1  0.831146  0.544165  0.454042  1
  Ge  Ge12  1  0.329592  0.953832  0.453961  1
  Ge  Ge13  1  0.830053  0.546614  0.045324  1
  Ge  Ge14  1  0.668961  0.042808  0.953076  1
  Ge  Ge15  1  0.170036  0.453650  0.546029  1
  Ge  Ge16  1  0.529537  0.376062  0.750151  1
  Ge  Ge17  1  0.031230  0.124743  0.750500  1
  Ge  Ge18  1  0.469384  0.628221  0.248432  1
  Ge  Ge19  1  0.969820  0.873700  0.250985  1
  Ge  Ge20  1  0.804431  0.641896  0.752344  1
  Ge  Ge21  1  0.311053  0.855535  0.752116  1
  Ge  Ge22  1  0.191812  0.357725  0.250020  1
  Ge  Ge23  1  0.691206  0.143224  0.249040  1
  Mo  Mo24  1  0.834018  0.338018  0.628005  1
  Mo  Mo25  1  0.334086  0.163066  0.871841  1
  Mo  Mo26  1  0.164967  0.662026  0.127647  1
  Mo  Mo27  1  0.666398  0.838626  0.372430  1
  Mo  Mo28  1  0.166215  0.660571  0.372205  1
  Mo  Mo29  1  0.668364  0.840228  0.128218  1
  Mo  Mo30  1  0.835535  0.336824  0.871685  1
  Mo  Mo31  1  0.334173  0.160885  0.627852  1
  Mo  Mo32  1  0.661160  0.013151  0.749544  1
  Mo  Mo33  1  0.160026  0.487678  0.749242  1
  Mo  Mo34  1  0.337849  0.990067  0.250499  1
  Mo  Mo35  1  0.838026  0.511049  0.249530  1
