# generated using pymatgen
data_Zr4Al24CrPt8
_symmetry_space_group_name_H-M   'P 1'
_cell_length_a   7.44238168
_cell_length_b   7.49934218
_cell_length_c   12.96609424
_cell_angle_alpha   84.85863870
_cell_angle_beta   79.18057915
_cell_angle_gamma   59.72686666
_symmetry_Int_Tables_number   1
_chemical_formula_structural   Zr4Al24CrPt8
_chemical_formula_sum   'Zr4 Al24 Cr1 Pt8'
_cell_volume   613.86917780
_cell_formula_units_Z   1
loop_
 _symmetry_equiv_pos_site_id
 _symmetry_equiv_pos_as_xyz
  1  'x, y, z'
loop_
 _atom_site_type_symbol
 _atom_site_label
 _atom_site_symmetry_multiplicity
 _atom_site_fract_x
 _atom_site_fract_y
 _atom_site_fract_z
 _atom_site_occupancy
  Zr  Zr0  1  0.386444  0.171565  0.813932  1
  Zr  Zr1  1  0.613556  0.828435  0.186068  1
  Zr  Zr2  1  0.736698  0.497367  0.813577  1
  Zr  Zr3  1  0.263302  0.502633  0.186423  1
  Al  Al4  1  0.688928  0.828152  0.944543  1
  Al  Al5  1  0.311072  0.171848  0.055457  1
  Al  Al6  1  0.145467  0.832524  0.564209  1
  Al  Al7  1  0.854533  0.167476  0.435791  1
  Al  Al8  1  0.480106  0.166899  0.561605  1
  Al  Al9  1  0.519894  0.833101  0.438395  1
  Al  Al10  1  0.223074  0.163101  0.321440  1
  Al  Al11  1  0.776926  0.836899  0.678560  1
  Al  Al12  1  0.437741  0.505619  0.679023  1
  Al  Al13  1  0.562259  0.494381  0.320977  1
  Al  Al14  1  0.107645  0.162980  0.676060  1
  Al  Al15  1  0.892355  0.837020  0.323940  1
  Al  Al16  1  0.348146  0.498485  0.944157  1
  Al  Al17  1  0.651854  0.501515  0.055843  1
  Al  Al18  1  0.015113  0.178187  0.953503  1
  Al  Al19  1  0.984887  0.821813  0.046497  1
  Al  Al20  1  0.187276  0.499498  0.439683  1
  Al  Al21  1  0.812724  0.500502  0.560317  1
  Al  Al22  1  0.729797  0.161765  0.182821  1
  Al  Al23  1  0.270203  0.838235  0.817179  1
  Al  Al24  1  0.059334  0.623300  0.820940  1
  Al  Al25  1  0.940666  0.376700  0.179060  1
  Al  Al26  1  0.850198  0.049057  0.816589  1
  Al  Al27  1  0.149802  0.950943  0.183412  1
  Cr  Cr28  1  0.000000  0.500000  0.000000  1
  Pt  Pt29  1  0.119803  0.491763  0.640229  1
  Pt  Pt30  1  0.880197  0.508237  0.359771  1
  Pt  Pt31  1  0.655190  0.172521  0.999740  1
  Pt  Pt32  1  0.344810  0.827479  0.000260  1
  Pt  Pt33  1  0.536281  0.166247  0.361976  1
  Pt  Pt34  1  0.463719  0.833753  0.638024  1
  Pt  Pt35  1  0.778456  0.176981  0.636858  1
  Pt  Pt36  1  0.221544  0.823019  0.363142  1
