# generated using pymatgen
data_Li3Eu4AlPt4
_symmetry_space_group_name_H-M   'P 1'
_cell_length_a   4.24795600
_cell_length_b   7.34083255
_cell_length_c   8.51686647
_cell_angle_alpha   89.71755578
_cell_angle_beta   90.00000000
_cell_angle_gamma   90.00000000
_symmetry_Int_Tables_number   1
_chemical_formula_structural   Li3Eu4AlPt4
_chemical_formula_sum   'Li3 Eu4 Al1 Pt4'
_cell_volume   265.58276525
_cell_formula_units_Z   1
loop_
 _symmetry_equiv_pos_site_id
 _symmetry_equiv_pos_as_xyz
  1  'x, y, z'
loop_
 _atom_site_type_symbol
 _atom_site_label
 _atom_site_symmetry_multiplicity
 _atom_site_fract_x
 _atom_site_fract_y
 _atom_site_fract_z
 _atom_site_occupancy
  Li  Li0  1  0.250000  0.132682  0.946782  1
  Li  Li1  1  0.250000  0.632483  0.558700  1
  Li  Li2  1  0.750000  0.873382  0.053852  1
  Eu  Eu3  1  0.250000  0.028502  0.317827  1
  Eu  Eu4  1  0.250000  0.537485  0.180482  1
  Eu  Eu5  1  0.750000  0.963439  0.680368  1
  Eu  Eu6  1  0.750000  0.465190  0.816643  1
  Al  Al7  1  0.750000  0.367577  0.438701  1
  Pt  Pt8  1  0.250000  0.272984  0.598033  1
  Pt  Pt9  1  0.250000  0.763029  0.877164  1
  Pt  Pt10  1  0.750000  0.717535  0.387051  1
  Pt  Pt11  1  0.750000  0.245711  0.144396  1
