# generated using pymatgen
data_K8Tb3EuF20
_symmetry_space_group_name_H-M   'P 1'
_cell_length_a   6.73643857
_cell_length_b   7.40480700
_cell_length_c   11.03175450
_cell_angle_alpha   90.00000000
_cell_angle_beta   89.92229978
_cell_angle_gamma   90.00000000
_symmetry_Int_Tables_number   1
_chemical_formula_structural   K8Tb3EuF20
_chemical_formula_sum   'K8 Tb3 Eu1 F20'
_cell_volume   550.28577515
_cell_formula_units_Z   1
loop_
 _symmetry_equiv_pos_site_id
 _symmetry_equiv_pos_as_xyz
  1  'x, y, z'
loop_
 _atom_site_type_symbol
 _atom_site_label
 _atom_site_symmetry_multiplicity
 _atom_site_fract_x
 _atom_site_fract_y
 _atom_site_fract_z
 _atom_site_occupancy
  K  K0  1  0.529928  0.496656  0.828831  1
  K  K1  1  0.470397  0.501217  0.170990  1
  K  K2  1  0.027487  0.501179  0.672153  1
  K  K3  1  0.470397  0.998783  0.170990  1
  K  K4  1  0.970535  0.496283  0.328237  1
  K  K5  1  0.529928  0.003344  0.828831  1
  K  K6  1  0.970535  0.003717  0.328237  1
  K  K7  1  0.027487  0.998821  0.672153  1
  Tb  Tb8  1  0.435528  0.250000  0.498312  1
  Tb  Tb9  1  0.063612  0.250000  0.997733  1
  Tb  Tb10  1  0.936400  0.750000  0.002256  1
  Eu  Eu11  1  0.561818  0.750000  0.501352  1
  F  F12  1  0.837749  0.750000  0.808898  1
  F  F13  1  0.162030  0.250000  0.190895  1
  F  F14  1  0.335364  0.250000  0.691963  1
  F  F15  1  0.666574  0.750000  0.306282  1
  F  F16  1  0.368657  0.750000  0.668351  1
  F  F17  1  0.632183  0.250000  0.335555  1
  F  F18  1  0.867881  0.250000  0.835622  1
  F  F19  1  0.131895  0.750000  0.164584  1
  F  F20  1  0.899539  0.750000  0.512091  1
  F  F21  1  0.105974  0.250000  0.487721  1
  F  F22  1  0.392560  0.250000  0.986419  1
  F  F23  1  0.607664  0.750000  0.014018  1
  F  F24  1  0.644389  0.037832  0.579240  1
  F  F25  1  0.354708  0.971557  0.419587  1
  F  F26  1  0.143820  0.966610  0.922868  1
  F  F27  1  0.354708  0.528443  0.419587  1
  F  F28  1  0.856022  0.033594  0.077067  1
  F  F29  1  0.644389  0.462168  0.579240  1
  F  F30  1  0.856022  0.466406  0.077067  1
  F  F31  1  0.143820  0.533390  0.922868  1
