# generated using pymatgen
data_Y8Re3OsC8
_symmetry_space_group_name_H-M   'P 1'
_cell_length_a   5.13737700
_cell_length_b   6.58703780
_cell_length_c   9.85439655
_cell_angle_alpha   89.93782272
_cell_angle_beta   90.00000000
_cell_angle_gamma   90.00000000
_symmetry_Int_Tables_number   1
_chemical_formula_structural   Y8Re3OsC8
_chemical_formula_sum   'Y8 Re3 Os1 C8'
_cell_volume   333.47353365
_cell_formula_units_Z   1
loop_
 _symmetry_equiv_pos_site_id
 _symmetry_equiv_pos_as_xyz
  1  'x, y, z'
loop_
 _atom_site_type_symbol
 _atom_site_label
 _atom_site_symmetry_multiplicity
 _atom_site_fract_x
 _atom_site_fract_y
 _atom_site_fract_z
 _atom_site_occupancy
  Y  Y0  1  0.750000  0.530102  0.787382  1
  Y  Y1  1  0.250000  0.968357  0.285769  1
  Y  Y2  1  0.750000  0.679443  0.444429  1
  Y  Y3  1  0.250000  0.822615  0.944296  1
  Y  Y4  1  0.750000  0.180081  0.056091  1
  Y  Y5  1  0.250000  0.320973  0.556121  1
  Y  Y6  1  0.250000  0.468820  0.214381  1
  Y  Y7  1  0.750000  0.032585  0.714283  1
  Re  Re8  1  0.250000  0.777179  0.635659  1
  Re  Re9  1  0.750000  0.223087  0.365740  1
  Re  Re10  1  0.750000  0.723625  0.134739  1
  Os  Os11  1  0.250000  0.276509  0.864104  1
  C  C12  1  0.250000  0.676823  0.450891  1
  C  C13  1  0.250000  0.543469  0.758427  1
  C  C14  1  0.750000  0.455555  0.240472  1
  C  C15  1  0.750000  0.822500  0.949961  1
  C  C16  1  0.250000  0.043500  0.740159  1
  C  C17  1  0.250000  0.176384  0.047381  1
  C  C18  1  0.750000  0.322812  0.550185  1
  C  C19  1  0.750000  0.955583  0.259529  1
