# generated using pymatgen
data_Er16Al4Co3Ni
_symmetry_space_group_name_H-M   'P 1'
_cell_length_a   9.35363308
_cell_length_b   9.35463591
_cell_length_c   9.35463600
_cell_angle_alpha   59.99999259
_cell_angle_beta   59.99644596
_cell_angle_gamma   59.99644514
_symmetry_Int_Tables_number   1
_chemical_formula_structural   Er16Al4Co3Ni
_chemical_formula_sum   'Er16 Al4 Co3 Ni1'
_cell_volume   578.75633082
_cell_formula_units_Z   1
loop_
 _symmetry_equiv_pos_site_id
 _symmetry_equiv_pos_as_xyz
  1  'x, y, z'
loop_
 _atom_site_type_symbol
 _atom_site_label
 _atom_site_symmetry_multiplicity
 _atom_site_fract_x
 _atom_site_fract_y
 _atom_site_fract_z
 _atom_site_occupancy
  Er  Er0  1  0.347386  0.350894  0.350894  1
  Er  Er1  1  0.347386  0.350894  0.950826  1
  Er  Er2  1  0.347386  0.950826  0.350894  1
  Er  Er3  1  0.953171  0.348943  0.348943  1
  Er  Er4  1  0.812043  0.191443  0.191443  1
  Er  Er5  1  0.190776  0.808687  0.808687  1
  Er  Er6  1  0.190776  0.808687  0.191850  1
  Er  Er7  1  0.812043  0.191443  0.805071  1
  Er  Er8  1  0.190776  0.191850  0.808687  1
  Er  Er9  1  0.812043  0.805071  0.191443  1
  Er  Er10  1  0.936888  0.562639  0.562639  1
  Er  Er11  1  0.561413  0.937382  0.937382  1
  Er  Er12  1  0.561413  0.937382  0.563823  1
  Er  Er13  1  0.936888  0.562639  0.937833  1
  Er  Er14  1  0.561413  0.563823  0.937382  1
  Er  Er15  1  0.936888  0.937833  0.562639  1
  Al  Al16  1  0.577541  0.577473  0.577473  1
  Al  Al17  1  0.577541  0.577473  0.267512  1
  Al  Al18  1  0.577541  0.267512  0.577473  1
  Al  Al19  1  0.266667  0.577778  0.577778  1
  Co  Co20  1  0.141922  0.141097  0.141097  1
  Co  Co21  1  0.141922  0.141097  0.575884  1
  Co  Co22  1  0.141922  0.575884  0.141097  1
  Ni  Ni23  1  0.576255  0.141249  0.141249  1
