# generated using pymatgen
data_Y7Er9Cd4(CoPd)2
_symmetry_space_group_name_H-M   'P 1'
_cell_length_a   9.56749231
_cell_length_b   9.56749170
_cell_length_c   9.55937500
_cell_angle_alpha   60.02805617
_cell_angle_beta   60.02805828
_cell_angle_gamma   60.18271227
_symmetry_Int_Tables_number   1
_chemical_formula_structural   Y7Er9Cd4(CoPd)2
_chemical_formula_sum   'Y7 Er9 Cd4 Co2 Pd2'
_cell_volume   619.85681741
_cell_formula_units_Z   1
loop_
 _symmetry_equiv_pos_site_id
 _symmetry_equiv_pos_as_xyz
  1  'x, y, z'
loop_
 _atom_site_type_symbol
 _atom_site_label
 _atom_site_symmetry_multiplicity
 _atom_site_fract_x
 _atom_site_fract_y
 _atom_site_fract_z
 _atom_site_occupancy
  Y  Y0  1  0.810320  0.810320  0.189680  1
  Y  Y1  1  0.936682  0.560297  0.565465  1
  Y  Y2  1  0.560297  0.936682  0.937558  1
  Y  Y3  1  0.560297  0.936682  0.565465  1
  Y  Y4  1  0.936682  0.560297  0.937558  1
  Y  Y5  1  0.561522  0.561522  0.938478  1
  Y  Y6  1  0.936479  0.936479  0.563521  1
  Er  Er7  1  0.345416  0.345416  0.360869  1
  Er  Er8  1  0.345416  0.345416  0.948297  1
  Er  Er9  1  0.338021  0.959945  0.351017  1
  Er  Er10  1  0.959945  0.338021  0.351017  1
  Er  Er11  1  0.820988  0.187975  0.189234  1
  Er  Er12  1  0.187975  0.820988  0.801802  1
  Er  Er13  1  0.187975  0.820988  0.189234  1
  Er  Er14  1  0.820988  0.187975  0.801802  1
  Er  Er15  1  0.187262  0.187262  0.812738  1
  Cd  Cd16  1  0.580429  0.580429  0.579969  1
  Cd  Cd17  1  0.580429  0.580429  0.259175  1
  Cd  Cd18  1  0.582781  0.256302  0.580458  1
  Cd  Cd19  1  0.256302  0.582781  0.580458  1
  Co  Co20  1  0.142902  0.142902  0.140769  1
  Co  Co21  1  0.142902  0.142902  0.573426  1
  Pd  Pd22  1  0.147757  0.570233  0.141005  1
  Pd  Pd23  1  0.570233  0.147757  0.141005  1
