# generated using pymatgen
data_Th2Ga9Os2Rh
_symmetry_space_group_name_H-M   'P 1'
_cell_length_a   7.69870955
_cell_length_b   7.69871057
_cell_length_c   9.61888400
_cell_angle_alpha   90.00000000
_cell_angle_beta   90.00000000
_cell_angle_gamma   119.91443258
_symmetry_Int_Tables_number   1
_chemical_formula_structural   Th2Ga9Os2Rh
_chemical_formula_sum   'Th4 Ga18 Os4 Rh2'
_cell_volume   494.15712922
_cell_formula_units_Z   2
loop_
 _symmetry_equiv_pos_site_id
 _symmetry_equiv_pos_as_xyz
  1  'x, y, z'
loop_
 _atom_site_type_symbol
 _atom_site_label
 _atom_site_symmetry_multiplicity
 _atom_site_fract_x
 _atom_site_fract_y
 _atom_site_fract_z
 _atom_site_occupancy
  Th  Th0  1  0.996871  0.664786  0.250000  1
  Th  Th1  1  0.003129  0.335214  0.750000  1
  Th  Th2  1  0.664786  0.996871  0.250000  1
  Th  Th3  1  0.335214  0.003129  0.750000  1
  Ga  Ga4  1  0.128516  0.128516  0.250000  1
  Ga  Ga5  1  0.871484  0.871484  0.750000  1
  Ga  Ga6  1  0.005076  0.334051  0.077248  1
  Ga  Ga7  1  0.994924  0.665949  0.922752  1
  Ga  Ga8  1  0.994924  0.665949  0.577248  1
  Ga  Ga9  1  0.334051  0.005076  0.422752  1
  Ga  Ga10  1  0.005076  0.334051  0.422752  1
  Ga  Ga11  1  0.665949  0.994924  0.577248  1
  Ga  Ga12  1  0.665949  0.994924  0.922752  1
  Ga  Ga13  1  0.334051  0.005076  0.077248  1
  Ga  Ga14  1  0.339105  0.339105  0.559304  1
  Ga  Ga15  1  0.660895  0.660895  0.440696  1
  Ga  Ga16  1  0.660895  0.660895  0.059304  1
  Ga  Ga17  1  0.339105  0.339105  0.940696  1
  Ga  Ga18  1  0.336789  0.542997  0.250000  1
  Ga  Ga19  1  0.663211  0.457003  0.750000  1
  Ga  Ga20  1  0.542997  0.336789  0.250000  1
  Ga  Ga21  1  0.457003  0.663211  0.750000  1
  Os  Os22  1  0.673301  0.326699  0.000000  1
  Os  Os23  1  0.326699  0.673301  0.000000  1
  Os  Os24  1  0.326699  0.673301  0.500000  1
  Os  Os25  1  0.673301  0.326699  0.500000  1
  Rh  Rh26  1  0.000000  0.000000  0.000000  1
  Rh  Rh27  1  0.000000  0.000000  0.500000  1
