# generated using pymatgen
data_DyY3Al18CuRh5
_symmetry_space_group_name_H-M   'P 1'
_cell_length_a   7.55889187
_cell_length_b   7.55899598
_cell_length_c   9.44404767
_cell_angle_alpha   90.06007557
_cell_angle_beta   90.06425292
_cell_angle_gamma   119.57588347
_symmetry_Int_Tables_number   1
_chemical_formula_structural   DyY3Al18CuRh5
_chemical_formula_sum   'Dy1 Y3 Al18 Cu1 Rh5'
_cell_volume   469.29967738
_cell_formula_units_Z   1
loop_
 _symmetry_equiv_pos_site_id
 _symmetry_equiv_pos_as_xyz
  1  'x, y, z'
loop_
 _atom_site_type_symbol
 _atom_site_label
 _atom_site_symmetry_multiplicity
 _atom_site_fract_x
 _atom_site_fract_y
 _atom_site_fract_z
 _atom_site_occupancy
  Dy  Dy0  1  0.327580  0.005270  0.250470  1
  Y  Y1  1  0.994665  0.672484  0.749502  1
  Y  Y2  1  0.005329  0.327521  0.250513  1
  Y  Y3  1  0.672459  0.994664  0.749498  1
  Al  Al4  1  0.129344  0.129341  0.751448  1
  Al  Al5  1  0.870806  0.870673  0.248584  1
  Al  Al6  1  0.000789  0.338460  0.577322  1
  Al  Al7  1  0.999315  0.661670  0.422557  1
  Al  Al8  1  0.000361  0.665285  0.074429  1
  Al  Al9  1  0.334780  0.999741  0.925763  1
  Al  Al10  1  0.999722  0.334785  0.925675  1
  Al  Al11  1  0.665112  0.000267  0.074449  1
  Al  Al12  1  0.661444  0.999213  0.422560  1
  Al  Al13  1  0.338433  0.000804  0.577225  1
  Al  Al14  1  0.332977  0.332901  0.050475  1
  Al  Al15  1  0.667019  0.667030  0.949637  1
  Al  Al16  1  0.663940  0.663949  0.552334  1
  Al  Al17  1  0.336017  0.335931  0.447547  1
  Al  Al18  1  0.339253  0.549741  0.750533  1
  Al  Al19  1  0.660581  0.450130  0.249473  1
  Al  Al20  1  0.549744  0.339247  0.750537  1
  Al  Al21  1  0.450282  0.660881  0.249469  1
  Cu  Cu22  1  0.000071  0.000008  0.499949  1
  Rh  Rh23  1  0.671901  0.328017  0.499984  1
  Rh  Rh24  1  0.328045  0.671973  0.499972  1
  Rh  Rh25  1  0.328078  0.671938  0.000020  1
  Rh  Rh26  1  0.671876  0.328065  0.000024  1
  Rh  Rh27  1  0.000076  0.000013  0.000050  1
