# generated using pymatgen
data_TbSc3InPt11
_symmetry_space_group_name_H-M   'P 1'
_cell_length_a   4.08685900
_cell_length_b   5.73967110
_cell_length_c   11.44199100
_cell_angle_alpha   88.26606935
_cell_angle_beta   90.00000000
_cell_angle_gamma   90.00000000
_symmetry_Int_Tables_number   1
_chemical_formula_structural   TbSc3InPt11
_chemical_formula_sum   'Tb1 Sc3 In1 Pt11'
_cell_volume   268.27447971
_cell_formula_units_Z   1
loop_
 _symmetry_equiv_pos_site_id
 _symmetry_equiv_pos_as_xyz
  1  'x, y, z'
loop_
 _atom_site_type_symbol
 _atom_site_label
 _atom_site_symmetry_multiplicity
 _atom_site_fract_x
 _atom_site_fract_y
 _atom_site_fract_z
 _atom_site_occupancy
  Tb  Tb0  1  0.500000  0.757186  0.375692  1
  Sc  Sc1  1  0.500000  0.715803  0.862521  1
  Sc  Sc2  1  0.500000  0.282728  0.137012  1
  Sc  Sc3  1  0.500000  0.243786  0.624662  1
  In  In4  1  0.000000  0.000481  0.998188  1
  Pt  Pt5  1  0.000000  0.021870  0.244521  1
  Pt  Pt6  1  0.000000  0.983247  0.752271  1
  Pt  Pt7  1  0.000000  0.498773  0.998338  1
  Pt  Pt8  1  0.000000  0.494785  0.505141  1
  Pt  Pt9  1  0.000000  0.512020  0.245496  1
  Pt  Pt10  1  0.000000  0.483371  0.751650  1
  Pt  Pt11  1  0.500000  0.256380  0.377139  1
  Pt  Pt12  1  0.500000  0.233368  0.877885  1
  Pt  Pt13  1  0.500000  0.766224  0.116003  1
  Pt  Pt14  1  0.500000  0.744718  0.628446  1
  Pt  Pt15  1  0.000000  0.005261  0.505036  1
