# generated using pymatgen
data_Zr3SnRh2N
_symmetry_space_group_name_H-M   'P 1'
_cell_length_a   8.74689588
_cell_length_b   8.74689534
_cell_length_c   8.74689600
_cell_angle_alpha   59.99999749
_cell_angle_beta   59.99999954
_cell_angle_gamma   59.99999983
_symmetry_Int_Tables_number   1
_chemical_formula_structural   Zr3SnRh2N
_chemical_formula_sum   'Zr12 Sn4 Rh8 N4'
_cell_volume   473.20229405
_cell_formula_units_Z   4
loop_
 _symmetry_equiv_pos_site_id
 _symmetry_equiv_pos_as_xyz
  1  'x, y, z'
loop_
 _atom_site_type_symbol
 _atom_site_label
 _atom_site_symmetry_multiplicity
 _atom_site_fract_x
 _atom_site_fract_y
 _atom_site_fract_z
 _atom_site_occupancy
  Zr  Zr0  1  0.814028  0.814028  0.185972  1
  Zr  Zr1  1  0.185972  0.185972  0.814028  1
  Zr  Zr2  1  0.814028  0.185972  0.814028  1
  Zr  Zr3  1  0.185972  0.814028  0.185972  1
  Zr  Zr4  1  0.185972  0.814028  0.814028  1
  Zr  Zr5  1  0.814028  0.185972  0.185972  1
  Zr  Zr6  1  0.435972  0.435972  0.064028  1
  Zr  Zr7  1  0.064028  0.064028  0.435972  1
  Zr  Zr8  1  0.435972  0.064028  0.435972  1
  Zr  Zr9  1  0.064028  0.435972  0.064028  1
  Zr  Zr10  1  0.064028  0.435972  0.435972  1
  Zr  Zr11  1  0.435972  0.064028  0.064028  1
  Sn  Sn12  1  0.125000  0.625000  0.625000  1
  Sn  Sn13  1  0.625000  0.125000  0.625000  1
  Sn  Sn14  1  0.625000  0.625000  0.125000  1
  Sn  Sn15  1  0.625000  0.625000  0.625000  1
  Rh  Rh16  1  0.773164  0.408945  0.408945  1
  Rh  Rh17  1  0.408945  0.773164  0.408945  1
  Rh  Rh18  1  0.408945  0.408945  0.773164  1
  Rh  Rh19  1  0.408945  0.408945  0.408945  1
  Rh  Rh20  1  0.476836  0.841055  0.841055  1
  Rh  Rh21  1  0.841055  0.476836  0.841055  1
  Rh  Rh22  1  0.841055  0.841055  0.476836  1
  Rh  Rh23  1  0.841055  0.841055  0.841055  1
  N  N24  1  0.625000  0.125000  0.125000  1
  N  N25  1  0.125000  0.625000  0.125000  1
  N  N26  1  0.125000  0.125000  0.625000  1
  N  N27  1  0.125000  0.125000  0.125000  1
