# generated using pymatgen
data_SrPr3(Ga5Pt3)2
_symmetry_space_group_name_H-M   'P 1'
_cell_length_a   8.71173409
_cell_length_b   8.71039556
_cell_length_c   8.71039446
_cell_angle_alpha   139.45685062
_cell_angle_beta   107.01545303
_cell_angle_gamma   86.98581939
_symmetry_Int_Tables_number   1
_chemical_formula_structural   SrPr3(Ga5Pt3)2
_chemical_formula_sum   'Sr1 Pr3 Ga10 Pt6'
_cell_volume   395.21003590
_cell_formula_units_Z   1
loop_
 _symmetry_equiv_pos_site_id
 _symmetry_equiv_pos_as_xyz
  1  'x, y, z'
loop_
 _atom_site_type_symbol
 _atom_site_label
 _atom_site_symmetry_multiplicity
 _atom_site_fract_x
 _atom_site_fract_y
 _atom_site_fract_z
 _atom_site_occupancy
  Sr  Sr0  1  0.862388  0.631474  0.230914  1
  Pr  Pr1  1  0.137250  0.365773  0.771476  1
  Pr  Pr2  1  0.404741  0.133424  0.271317  1
  Pr  Pr3  1  0.596477  0.868415  0.728062  1
  Ga  Ga4  1  0.499133  0.750156  0.245986  1
  Ga  Ga5  1  0.499133  0.253147  0.748978  1
  Ga  Ga6  1  0.220927  0.969941  0.752114  1
  Ga  Ga7  1  0.779830  0.528152  0.747247  1
  Ga  Ga8  1  0.779830  0.032584  0.251680  1
  Ga  Ga9  1  0.220927  0.468815  0.250988  1
  Ga  Ga10  1  0.056058  0.898050  0.158008  1
  Ga  Ga11  1  0.946507  0.102418  0.844089  1
  Ga  Ga12  1  0.738767  0.395476  0.343291  1
  Ga  Ga13  1  0.257730  0.601317  0.656412  1
  Pt  Pt14  1  0.999956  0.749187  0.751036  1
  Pt  Pt15  1  0.999956  0.248922  0.250769  1
  Pt  Pt16  1  0.254791  0.859422  0.395369  1
  Pt  Pt17  1  0.745678  0.139513  0.606165  1
  Pt  Pt18  1  0.465686  0.360460  0.105226  1
  Pt  Pt19  1  0.534229  0.643354  0.890875  1
