# generated using pymatgen
data_NaZr3N4
_symmetry_space_group_name_H-M   'P 1'
_cell_length_a   5.65720928
_cell_length_b   5.65720906
_cell_length_c   3.27530200
_cell_angle_alpha   90.00000000
_cell_angle_beta   90.00000000
_cell_angle_gamma   108.55591226
_symmetry_Int_Tables_number   1
_chemical_formula_structural   NaZr3N4
_chemical_formula_sum   'Na1 Zr3 N4'
_cell_volume   99.37345141
_cell_formula_units_Z   1
loop_
 _symmetry_equiv_pos_site_id
 _symmetry_equiv_pos_as_xyz
  1  'x, y, z'
loop_
 _atom_site_type_symbol
 _atom_site_label
 _atom_site_symmetry_multiplicity
 _atom_site_fract_x
 _atom_site_fract_y
 _atom_site_fract_z
 _atom_site_occupancy
  Na  Na0  1  0.500000  0.500000  0.500000  1
  Zr  Zr1  1  0.000000  0.000000  0.500000  1
  Zr  Zr2  1  0.500000  0.000000  0.000000  1
  Zr  Zr3  1  0.000000  0.500000  0.000000  1
  N  N4  1  0.771662  0.771662  0.000000  1
  N  N5  1  0.243979  0.756021  0.500000  1
  N  N6  1  0.228338  0.228338  0.000000  1
  N  N7  1  0.756021  0.243979  0.500000  1
