# generated using pymatgen
data_Pr9Nd(USe10)2
_symmetry_space_group_name_H-M   'P 1'
_cell_length_a   7.96390300
_cell_length_b   8.49248800
_cell_length_c   12.64510100
_cell_angle_alpha   90.00000000
_cell_angle_beta   90.00260555
_cell_angle_gamma   90.00000000
_symmetry_Int_Tables_number   1
_chemical_formula_structural   Pr9Nd(USe10)2
_chemical_formula_sum   'Pr9 Nd1 U2 Se20'
_cell_volume   855.23054963
_cell_formula_units_Z   1
loop_
 _symmetry_equiv_pos_site_id
 _symmetry_equiv_pos_as_xyz
  1  'x, y, z'
loop_
 _atom_site_type_symbol
 _atom_site_label
 _atom_site_symmetry_multiplicity
 _atom_site_fract_x
 _atom_site_fract_y
 _atom_site_fract_z
 _atom_site_occupancy
  Pr  Pr0  1  0.525471  0.500269  0.321998  1
  Pr  Pr1  1  0.974376  0.999790  0.822367  1
  Pr  Pr2  1  0.480606  0.997462  0.678336  1
  Pr  Pr3  1  0.018987  0.502475  0.177956  1
  Pr  Pr4  1  0.480606  0.502538  0.678336  1
  Pr  Pr5  1  0.018987  0.997525  0.177956  1
  Pr  Pr6  1  0.525471  0.999731  0.321998  1
  Pr  Pr7  1  0.974376  0.500210  0.822367  1
  Pr  Pr8  1  0.079370  0.750000  0.491355  1
  Nd  Nd9  1  0.421159  0.750000  0.991669  1
  U  U10  1  0.941683  0.250000  0.505404  1
  U  U11  1  0.558248  0.250000  0.005538  1
  Se  Se12  1  0.836466  0.970666  0.597625  1
  Se  Se13  1  0.662846  0.529776  0.096926  1
  Se  Se14  1  0.164677  0.446434  0.402210  1
  Se  Se15  1  0.335583  0.052352  0.902790  1
  Se  Se16  1  0.164677  0.053566  0.402210  1
  Se  Se17  1  0.335583  0.447648  0.902790  1
  Se  Se18  1  0.836466  0.529334  0.597625  1
  Se  Se19  1  0.662846  0.970224  0.096926  1
  Se  Se20  1  0.823325  0.750000  0.310830  1
  Se  Se21  1  0.675936  0.750000  0.811853  1
  Se  Se22  1  0.170364  0.250000  0.680954  1
  Se  Se23  1  0.329654  0.250000  0.180780  1
  Se  Se24  1  0.464417  0.750000  0.499488  1
  Se  Se25  1  0.037735  0.750000  0.999379  1
  Se  Se26  1  0.551003  0.250000  0.500255  1
  Se  Se27  1  0.948807  0.250000  0.000201  1
  Se  Se28  1  0.200356  0.750000  0.720423  1
  Se  Se29  1  0.300153  0.750000  0.219264  1
  Se  Se30  1  0.807275  0.250000  0.290904  1
  Se  Se31  1  0.692493  0.250000  0.791287  1
