# generated using pymatgen
data_ErTm3ReB12Os
_symmetry_space_group_name_H-M   'P 1'
_cell_length_a   3.63306900
_cell_length_b   9.09253357
_cell_length_c   11.46696603
_cell_angle_alpha   90.13155668
_cell_angle_beta   90.00000000
_cell_angle_gamma   90.00000000
_symmetry_Int_Tables_number   1
_chemical_formula_structural   ErTm3ReB12Os
_chemical_formula_sum   'Er2 Tm6 Re2 B24 Os2'
_cell_volume   378.79648520
_cell_formula_units_Z   2
loop_
 _symmetry_equiv_pos_site_id
 _symmetry_equiv_pos_as_xyz
  1  'x, y, z'
loop_
 _atom_site_type_symbol
 _atom_site_label
 _atom_site_symmetry_multiplicity
 _atom_site_fract_x
 _atom_site_fract_y
 _atom_site_fract_z
 _atom_site_occupancy
  Er  Er0  1  0.000000  0.320282  0.412371  1
  Er  Er1  1  0.000000  0.679718  0.587629  1
  Tm  Tm2  1  0.000000  0.824357  0.084576  1
  Tm  Tm3  1  0.000000  0.175643  0.915424  1
  Tm  Tm4  1  0.000000  0.943384  0.370846  1
  Tm  Tm5  1  0.000000  0.056616  0.629154  1
  Tm  Tm6  1  0.000000  0.442754  0.128525  1
  Tm  Tm7  1  0.000000  0.557246  0.871475  1
  Re  Re8  1  0.000000  0.138237  0.179589  1
  Re  Re9  1  0.000000  0.861763  0.820411  1
  B  B10  1  0.500000  0.553556  0.433430  1
  B  B11  1  0.500000  0.446444  0.566570  1
  B  B12  1  0.500000  0.052868  0.066533  1
  B  B13  1  0.500000  0.947132  0.933467  1
  B  B14  1  0.500000  0.749275  0.419086  1
  B  B15  1  0.500000  0.250725  0.580914  1
  B  B16  1  0.500000  0.249297  0.080559  1
  B  B17  1  0.500000  0.750703  0.919441  1
  B  B18  1  0.500000  0.791315  0.265501  1
  B  B19  1  0.500000  0.208685  0.734499  1
  B  B20  1  0.500000  0.292335  0.234834  1
  B  B21  1  0.500000  0.707665  0.765166  1
  B  B22  1  0.500000  0.630731  0.185458  1
  B  B23  1  0.500000  0.369269  0.814542  1
  B  B24  1  0.500000  0.131018  0.315343  1
  B  B25  1  0.500000  0.868982  0.684657  1
  B  B26  1  0.500000  0.981633  0.212617  1
  B  B27  1  0.500000  0.018367  0.787383  1
  B  B28  1  0.500000  0.482288  0.287822  1
  B  B29  1  0.500000  0.517712  0.712178  1
  B  B30  1  0.500000  0.602860  0.028754  1
  B  B31  1  0.500000  0.397140  0.971246  1
  B  B32  1  0.500000  0.102802  0.471747  1
  B  B33  1  0.500000  0.897198  0.528253  1
  Os  Os34  1  0.000000  0.637583  0.321677  1
  Os  Os35  1  0.000000  0.362417  0.678323  1
