# generated using pymatgen
data_Nd8Hf11Si16Ag
_symmetry_space_group_name_H-M   'P 1'
_cell_length_a   7.39529004
_cell_length_b   7.39529041
_cell_length_c   13.48475260
_cell_angle_alpha   89.76775081
_cell_angle_beta   90.23224780
_cell_angle_gamma   89.73328765
_symmetry_Int_Tables_number   1
_chemical_formula_structural   Nd8Hf11Si16Ag
_chemical_formula_sum   'Nd8 Hf11 Si16 Ag1'
_cell_volume   737.46523687
_cell_formula_units_Z   1
loop_
 _symmetry_equiv_pos_site_id
 _symmetry_equiv_pos_as_xyz
  1  'x, y, z'
loop_
 _atom_site_type_symbol
 _atom_site_label
 _atom_site_symmetry_multiplicity
 _atom_site_fract_x
 _atom_site_fract_y
 _atom_site_fract_z
 _atom_site_occupancy
  Nd  Nd0  1  0.997139  0.344066  0.211255  1
  Nd  Nd1  1  0.005692  0.656548  0.716233  1
  Nd  Nd2  1  0.156598  0.494105  0.465135  1
  Nd  Nd3  1  0.499005  0.847897  0.032895  1
  Nd  Nd4  1  0.847897  0.499005  0.967105  1
  Nd  Nd5  1  0.494105  0.156598  0.534865  1
  Nd  Nd6  1  0.344066  0.997139  0.788745  1
  Nd  Nd7  1  0.656548  0.005692  0.283767  1
  Hf  Hf8  1  0.824637  0.824637  0.500000  1
  Hf  Hf9  1  0.322827  0.676366  0.249615  1
  Hf  Hf10  1  0.676366  0.322827  0.750385  1
  Hf  Hf11  1  0.147572  0.993918  0.374217  1
  Hf  Hf12  1  0.855221  0.004188  0.878020  1
  Hf  Hf13  1  0.505827  0.649449  0.625937  1
  Hf  Hf14  1  0.353543  0.489683  0.878329  1
  Hf  Hf15  1  0.489683  0.353543  0.121671  1
  Hf  Hf16  1  0.649449  0.505827  0.374063  1
  Hf  Hf17  1  0.993918  0.147572  0.625783  1
  Hf  Hf18  1  0.004188  0.855221  0.121980  1
  Si  Si19  1  0.363469  0.297217  0.314358  1
  Si  Si20  1  0.635630  0.703341  0.817682  1
  Si  Si21  1  0.206030  0.864693  0.566489  1
  Si  Si22  1  0.130040  0.777828  0.930642  1
  Si  Si23  1  0.777828  0.130040  0.069358  1
  Si  Si24  1  0.864693  0.206030  0.433511  1
  Si  Si25  1  0.297217  0.363469  0.685642  1
  Si  Si26  1  0.703341  0.635630  0.182318  1
  Si  Si27  1  0.291959  0.050624  0.190167  1
  Si  Si28  1  0.708327  0.950572  0.686649  1
  Si  Si29  1  0.450075  0.791658  0.435799  1
  Si  Si30  1  0.213011  0.566752  0.064779  1
  Si  Si31  1  0.566752  0.213011  0.935221  1
  Si  Si32  1  0.791658  0.450075  0.564201  1
  Si  Si33  1  0.050624  0.291959  0.809833  1
  Si  Si34  1  0.950572  0.708327  0.313351  1
  Ag  Ag35  1  0.174493  0.174493  0.000000  1
