# generated using pymatgen
data_Ac5CdRuO12
_symmetry_space_group_name_H-M   'P 1'
_cell_length_a   7.35855646
_cell_length_b   7.35855728
_cell_length_c   7.84121100
_cell_angle_alpha   74.42833195
_cell_angle_beta   74.42833826
_cell_angle_gamma   52.24032553
_symmetry_Int_Tables_number   1
_chemical_formula_structural   Ac5CdRuO12
_chemical_formula_sum   'Ac5 Cd1 Ru1 O12'
_cell_volume   320.32032837
_cell_formula_units_Z   1
loop_
 _symmetry_equiv_pos_site_id
 _symmetry_equiv_pos_as_xyz
  1  'x, y, z'
loop_
 _atom_site_type_symbol
 _atom_site_label
 _atom_site_symmetry_multiplicity
 _atom_site_fract_x
 _atom_site_fract_y
 _atom_site_fract_z
 _atom_site_occupancy
  Ac  Ac0  1  0.311464  0.305304  0.355108  1
  Ac  Ac1  1  0.694696  0.688536  0.644892  1
  Ac  Ac2  1  0.690889  0.694772  0.164921  1
  Ac  Ac3  1  0.305228  0.309111  0.835079  1
  Ac  Ac4  1  0.009256  0.990744  0.500000  1
  Cd  Cd5  1  0.759131  0.240869  0.000000  1
  Ru  Ru6  1  0.242552  0.757448  0.000000  1
  O  O7  1  0.094351  0.596695  0.573944  1
  O  O8  1  0.042524  0.955332  0.175546  1
  O  O9  1  0.403305  0.905649  0.426056  1
  O  O10  1  0.460129  0.542583  0.174216  1
  O  O11  1  0.104796  0.588009  0.078500  1
  O  O12  1  0.906328  0.399398  0.421609  1
  O  O13  1  0.044668  0.957476  0.824454  1
  O  O14  1  0.600602  0.093671  0.578391  1
  O  O15  1  0.457417  0.539871  0.825784  1
  O  O16  1  0.561837  0.101164  0.080215  1
  O  O17  1  0.411991  0.895204  0.921500  1
  O  O18  1  0.898836  0.438163  0.919785  1
