# generated using pymatgen
data_Ho5TaCrO12
_symmetry_space_group_name_H-M   'P 1'
_cell_length_a   6.80220950
_cell_length_b   6.80220760
_cell_length_c   7.30916000
_cell_angle_alpha   74.33277674
_cell_angle_beta   74.33278124
_cell_angle_gamma   51.28958703
_symmetry_Int_Tables_number   1
_chemical_formula_structural   Ho5TaCrO12
_chemical_formula_sum   'Ho5 Ta1 Cr1 O12'
_cell_volume   251.78059204
_cell_formula_units_Z   1
loop_
 _symmetry_equiv_pos_site_id
 _symmetry_equiv_pos_as_xyz
  1  'x, y, z'
loop_
 _atom_site_type_symbol
 _atom_site_label
 _atom_site_symmetry_multiplicity
 _atom_site_fract_x
 _atom_site_fract_y
 _atom_site_fract_z
 _atom_site_occupancy
  Ho  Ho0  1  0.308638  0.295830  0.360592  1
  Ho  Ho1  1  0.704170  0.691362  0.639408  1
  Ho  Ho2  1  0.312736  0.303428  0.828859  1
  Ho  Ho3  1  0.696572  0.687264  0.171141  1
  Ho  Ho4  1  0.997896  0.002104  0.500000  1
  Ta  Ta5  1  0.225397  0.774603  0.000000  1
  Cr  Cr6  1  0.741466  0.258534  0.000000  1
  O  O7  1  0.901215  0.419161  0.917251  1
  O  O8  1  0.435435  0.898915  0.916502  1
  O  O9  1  0.101085  0.564565  0.083498  1
  O  O10  1  0.580839  0.098785  0.082749  1
  O  O11  1  0.100859  0.592512  0.575602  1
  O  O12  1  0.599978  0.093316  0.573358  1
  O  O13  1  0.906684  0.400022  0.426642  1
  O  O14  1  0.407488  0.899141  0.424398  1
  O  O15  1  0.992219  0.007327  0.812758  1
  O  O16  1  0.992673  0.007781  0.187242  1
  O  O17  1  0.496919  0.502270  0.815337  1
  O  O18  1  0.497730  0.503081  0.184663  1
