# generated using pymatgen
data_LiLa2Si3
_symmetry_space_group_name_H-M   'P 1'
_cell_length_a   8.46127331
_cell_length_b   8.41266594
_cell_length_c   6.02338484
_cell_angle_alpha   69.51867708
_cell_angle_beta   68.65486954
_cell_angle_gamma   41.82644806
_symmetry_Int_Tables_number   1
_chemical_formula_structural   LiLa2Si3
_chemical_formula_sum   'Li2 La4 Si6'
_cell_volume   264.16911966
_cell_formula_units_Z   2
loop_
 _symmetry_equiv_pos_site_id
 _symmetry_equiv_pos_as_xyz
  1  'x, y, z'
loop_
 _atom_site_type_symbol
 _atom_site_label
 _atom_site_symmetry_multiplicity
 _atom_site_fract_x
 _atom_site_fract_y
 _atom_site_fract_z
 _atom_site_occupancy
  Li  Li0  1  0.666356  0.666356  0.333644  1
  Li  Li1  1  0.333644  0.333644  0.666356  1
  La  La2  1  0.750000  0.750000  0.750000  1
  La  La3  1  0.755618  0.244382  0.755618  1
  La  La4  1  0.250000  0.250000  0.250000  1
  La  La5  1  0.244382  0.755618  0.244382  1
  Si  Si6  1  0.834954  0.329944  0.165046  1
  Si  Si7  1  0.670056  0.165046  0.329944  1
  Si  Si8  1  0.165046  0.670056  0.834954  1
  Si  Si9  1  0.329944  0.834954  0.670056  1
  Si  Si10  1  0.164802  0.164802  0.835198  1
  Si  Si11  1  0.835198  0.835198  0.164802  1
