# generated using pymatgen
data_DyIn2Cl5
_symmetry_space_group_name_H-M   'P 1'
_cell_length_a   8.20004100
_cell_length_b   8.60226400
_cell_length_c   13.05415900
_cell_angle_alpha   90.00000000
_cell_angle_beta   90.00000000
_cell_angle_gamma   90.00000000
_symmetry_Int_Tables_number   1
_chemical_formula_structural   DyIn2Cl5
_chemical_formula_sum   'Dy4 In8 Cl20'
_cell_volume   920.82624464
_cell_formula_units_Z   4
loop_
 _symmetry_equiv_pos_site_id
 _symmetry_equiv_pos_as_xyz
  1  'x, y, z'
loop_
 _atom_site_type_symbol
 _atom_site_label
 _atom_site_symmetry_multiplicity
 _atom_site_fract_x
 _atom_site_fract_y
 _atom_site_fract_z
 _atom_site_occupancy
  Dy  Dy0  1  0.927787  0.750000  0.503593  1
  Dy  Dy1  1  0.072213  0.250000  0.496407  1
  Dy  Dy2  1  0.427787  0.250000  0.996407  1
  Dy  Dy3  1  0.572213  0.750000  0.003593  1
  In  In4  1  0.950054  0.004734  0.827517  1
  In  In5  1  0.049946  0.995266  0.172483  1
  In  In6  1  0.450054  0.995266  0.672483  1
  In  In7  1  0.049946  0.504734  0.172483  1
  In  In8  1  0.549946  0.004734  0.327517  1
  In  In9  1  0.950054  0.495266  0.827517  1
  In  In10  1  0.549946  0.495266  0.327517  1
  In  In11  1  0.450054  0.504734  0.672483  1
  Cl  Cl12  1  0.110156  0.750000  0.674895  1
  Cl  Cl13  1  0.889844  0.250000  0.325105  1
  Cl  Cl14  1  0.610156  0.250000  0.825105  1
  Cl  Cl15  1  0.389844  0.750000  0.174895  1
  Cl  Cl16  1  0.841168  0.043109  0.571761  1
  Cl  Cl17  1  0.158832  0.956891  0.428239  1
  Cl  Cl18  1  0.341168  0.956891  0.928239  1
  Cl  Cl19  1  0.158832  0.543109  0.428239  1
  Cl  Cl20  1  0.658832  0.043109  0.071761  1
  Cl  Cl21  1  0.841168  0.456891  0.571761  1
  Cl  Cl22  1  0.658832  0.456891  0.071761  1
  Cl  Cl23  1  0.341168  0.543109  0.928239  1
  Cl  Cl24  1  0.594100  0.750000  0.509714  1
  Cl  Cl25  1  0.405900  0.250000  0.490286  1
  Cl  Cl26  1  0.094100  0.250000  0.990286  1
  Cl  Cl27  1  0.905900  0.750000  0.009714  1
  Cl  Cl28  1  0.656621  0.750000  0.803700  1
  Cl  Cl29  1  0.343379  0.250000  0.196300  1
  Cl  Cl30  1  0.156621  0.250000  0.696300  1
  Cl  Cl31  1  0.843379  0.750000  0.303700  1
