# generated using pymatgen
data_Ga4PtAu3
_symmetry_space_group_name_H-M   'P 1'
_cell_length_a   3.54466500
_cell_length_b   6.17153187
_cell_length_c   6.51111317
_cell_angle_alpha   90.45982261
_cell_angle_beta   90.00000000
_cell_angle_gamma   90.00000000
_symmetry_Int_Tables_number   1
_chemical_formula_structural   Ga4PtAu3
_chemical_formula_sum   'Ga4 Pt1 Au3'
_cell_volume   142.43260940
_cell_formula_units_Z   1
loop_
 _symmetry_equiv_pos_site_id
 _symmetry_equiv_pos_as_xyz
  1  'x, y, z'
loop_
 _atom_site_type_symbol
 _atom_site_label
 _atom_site_symmetry_multiplicity
 _atom_site_fract_x
 _atom_site_fract_y
 _atom_site_fract_z
 _atom_site_occupancy
  Ga  Ga0  1  0.750000  0.304221  0.921619  1
  Ga  Ga1  1  0.750000  0.829238  0.580302  1
  Ga  Ga2  1  0.250000  0.175112  0.439904  1
  Ga  Ga3  1  0.250000  0.685349  0.062215  1
  Pt  Pt4  1  0.250000  0.005776  0.811694  1
  Au  Au5  1  0.750000  0.496106  0.306324  1
  Au  Au6  1  0.750000  0.993416  0.192154  1
  Au  Au7  1  0.250000  0.510781  0.685788  1
