# generated using pymatgen
data_AcThZn5In
_symmetry_space_group_name_H-M   'P 1'
_cell_length_a   8.71899200
_cell_length_b   8.71899221
_cell_length_c   9.19345000
_cell_angle_alpha   90.00000000
_cell_angle_beta   90.00000000
_cell_angle_gamma   149.49773509
_symmetry_Int_Tables_number   1
_chemical_formula_structural   AcThZn5In
_chemical_formula_sum   'Ac2 Th2 Zn10 In2'
_cell_volume   354.73913720
_cell_formula_units_Z   2
loop_
 _symmetry_equiv_pos_site_id
 _symmetry_equiv_pos_as_xyz
  1  'x, y, z'
loop_
 _atom_site_type_symbol
 _atom_site_label
 _atom_site_symmetry_multiplicity
 _atom_site_fract_x
 _atom_site_fract_y
 _atom_site_fract_z
 _atom_site_occupancy
  Ac  Ac0  1  0.000000  0.000000  0.500000  1
  Ac  Ac1  1  0.000000  0.000000  0.000000  1
  Th  Th2  1  0.207840  0.792160  0.250000  1
  Th  Th3  1  0.792160  0.207840  0.750000  1
  Zn  Zn4  1  0.811720  0.188280  0.388771  1
  Zn  Zn5  1  0.188280  0.811720  0.611229  1
  Zn  Zn6  1  0.811720  0.188280  0.111229  1
  Zn  Zn7  1  0.188280  0.811720  0.888771  1
  Zn  Zn8  1  0.660802  0.339198  0.485078  1
  Zn  Zn9  1  0.339198  0.660802  0.514922  1
  Zn  Zn10  1  0.660802  0.339198  0.014922  1
  Zn  Zn11  1  0.339198  0.660802  0.985078  1
  Zn  Zn12  1  0.397211  0.602789  0.250000  1
  Zn  Zn13  1  0.602789  0.397211  0.750000  1
  In  In14  1  0.561918  0.438082  0.250000  1
  In  In15  1  0.438082  0.561918  0.750000  1
