# generated using pymatgen
data_Hf8Ti7Si16Mo5
_symmetry_space_group_name_H-M   'P 1'
_cell_length_a   6.54868680
_cell_length_b   6.72184888
_cell_length_c   12.91430919
_cell_angle_alpha   90.00912419
_cell_angle_beta   89.98301009
_cell_angle_gamma   89.89482406
_symmetry_Int_Tables_number   1
_chemical_formula_structural   Hf8Ti7Si16Mo5
_chemical_formula_sum   'Hf8 Ti7 Si16 Mo5'
_cell_volume   568.47764140
_cell_formula_units_Z   1
loop_
 _symmetry_equiv_pos_site_id
 _symmetry_equiv_pos_as_xyz
  1  'x, y, z'
loop_
 _atom_site_type_symbol
 _atom_site_label
 _atom_site_symmetry_multiplicity
 _atom_site_fract_x
 _atom_site_fract_y
 _atom_site_fract_z
 _atom_site_occupancy
  Hf  Hf0  1  0.996717  0.173378  0.091761  1
  Hf  Hf1  1  0.004701  0.827718  0.907011  1
  Hf  Hf2  1  0.505019  0.672181  0.907589  1
  Hf  Hf3  1  0.004386  0.828555  0.591773  1
  Hf  Hf4  1  0.495122  0.328786  0.091755  1
  Hf  Hf5  1  0.994312  0.171558  0.408147  1
  Hf  Hf6  1  0.494711  0.328417  0.408104  1
  Hf  Hf7  1  0.504452  0.671833  0.592544  1
  Ti  Ti8  1  0.335682  0.168379  0.625084  1
  Ti  Ti9  1  0.667332  0.831371  0.374629  1
  Ti  Ti10  1  0.164370  0.668580  0.374744  1
  Ti  Ti11  1  0.664604  0.832115  0.125147  1
  Ti  Ti12  1  0.834528  0.331686  0.624672  1
  Ti  Ti13  1  0.334409  0.166725  0.876550  1
  Ti  Ti14  1  0.834255  0.333381  0.876022  1
  Si  Si15  1  0.035048  0.116392  0.750314  1
  Si  Si16  1  0.967380  0.883747  0.248732  1
  Si  Si17  1  0.463462  0.617329  0.250561  1
  Si  Si18  1  0.534559  0.384041  0.750397  1
  Si  Si19  1  0.297140  0.859938  0.749640  1
  Si  Si20  1  0.702634  0.140518  0.249762  1
  Si  Si21  1  0.201326  0.360009  0.251109  1
  Si  Si22  1  0.797360  0.640156  0.749448  1
  Si  Si23  1  0.170987  0.460321  0.538765  1
  Si  Si24  1  0.828449  0.539108  0.461239  1
  Si  Si25  1  0.329613  0.960749  0.460586  1
  Si  Si26  1  0.830389  0.539529  0.039538  1
  Si  Si27  1  0.670406  0.039180  0.538625  1
  Si  Si28  1  0.170199  0.458649  0.960099  1
  Si  Si29  1  0.671254  0.038932  0.961324  1
  Si  Si30  1  0.329085  0.958806  0.039784  1
  Mo  Mo31  1  0.160970  0.495546  0.750998  1
  Mo  Mo32  1  0.835991  0.505260  0.250305  1
  Mo  Mo33  1  0.340161  0.997755  0.249875  1
  Mo  Mo34  1  0.661057  0.005461  0.750790  1
  Mo  Mo35  1  0.167926  0.663908  0.122579  1
