# generated using pymatgen
data_Dy2Y3Si12Ir19
_symmetry_space_group_name_H-M   'P 1'
_cell_length_a   12.83057600
_cell_length_b   12.83054842
_cell_length_c   3.98650400
_cell_angle_alpha   90.00000000
_cell_angle_beta   90.00000000
_cell_angle_gamma   119.99992746
_symmetry_Int_Tables_number   1
_chemical_formula_structural   Dy2Y3Si12Ir19
_chemical_formula_sum   'Dy2 Y3 Si12 Ir19'
_cell_volume   568.34824968
_cell_formula_units_Z   1
loop_
 _symmetry_equiv_pos_site_id
 _symmetry_equiv_pos_as_xyz
  1  'x, y, z'
loop_
 _atom_site_type_symbol
 _atom_site_label
 _atom_site_symmetry_multiplicity
 _atom_site_fract_x
 _atom_site_fract_y
 _atom_site_fract_z
 _atom_site_occupancy
  Dy  Dy0  1  0.184701  0.184701  0.000000  1
  Dy  Dy1  1  0.815299  0.000000  0.000000  1
  Y  Y2  1  0.333335  0.666667  0.500000  1
  Y  Y3  1  0.666665  0.333331  0.500000  1
  Y  Y4  1  0.000000  0.815286  0.000000  1
  Si  Si5  1  0.000000  0.632432  0.500000  1
  Si  Si6  1  0.367546  0.367546  0.500000  1
  Si  Si7  1  0.632454  0.000000  0.500000  1
  Si  Si8  1  0.518794  0.687506  0.000000  1
  Si  Si9  1  0.312491  0.831284  0.000000  1
  Si  Si10  1  0.168715  0.481211  0.000000  1
  Si  Si11  1  0.481206  0.168712  0.000000  1
  Si  Si12  1  0.687509  0.518793  0.000000  1
  Si  Si13  1  0.831285  0.312496  0.000000  1
  Si  Si14  1  0.000000  0.181666  0.500000  1
  Si  Si15  1  0.818314  0.818330  0.500000  1
  Si  Si16  1  0.181686  0.000016  0.500000  1
  Ir  Ir17  1  0.512561  0.873592  0.000000  1
  Ir  Ir18  1  0.126417  0.638964  0.000000  1
  Ir  Ir19  1  0.361031  0.487442  0.000000  1
  Ir  Ir20  1  0.487439  0.361030  0.000000  1
  Ir  Ir21  1  0.873583  0.512547  0.000000  1
  Ir  Ir22  1  0.638969  0.126411  0.000000  1
  Ir  Ir23  1  0.000000  0.447669  0.500000  1
  Ir  Ir24  1  0.552329  0.552330  0.500000  1
  Ir  Ir25  1  0.447671  0.000001  0.500000  1
  Ir  Ir26  1  0.000000  0.283224  0.000000  1
  Ir  Ir27  1  0.716754  0.716771  0.000000  1
  Ir  Ir28  1  0.283246  0.000016  0.000000  1
  Ir  Ir29  1  0.623097  0.805459  0.500000  1
  Ir  Ir30  1  0.194579  0.817636  0.500000  1
  Ir  Ir31  1  0.182359  0.376902  0.500000  1
  Ir  Ir32  1  0.376903  0.182363  0.500000  1
  Ir  Ir33  1  0.805421  0.623058  0.500000  1
  Ir  Ir34  1  0.817641  0.194544  0.500000  1
  Ir  Ir35  1  0.000000  0.000067  0.500000  1
