# generated using pymatgen
data_Y4AlCo
_symmetry_space_group_name_H-M   'P 1'
_cell_length_a   9.46162559
_cell_length_b   9.46162462
_cell_length_c   9.46162400
_cell_angle_alpha   59.99999518
_cell_angle_beta   59.99999856
_cell_angle_gamma   60.00000172
_symmetry_Int_Tables_number   1
_chemical_formula_structural   Y4AlCo
_chemical_formula_sum   'Y16 Al4 Co4'
_cell_volume   598.93838173
_cell_formula_units_Z   4
loop_
 _symmetry_equiv_pos_site_id
 _symmetry_equiv_pos_as_xyz
  1  'x, y, z'
loop_
 _atom_site_type_symbol
 _atom_site_label
 _atom_site_symmetry_multiplicity
 _atom_site_fract_x
 _atom_site_fract_y
 _atom_site_fract_z
 _atom_site_occupancy
  Y  Y0  1  0.349450  0.349450  0.349450  1
  Y  Y1  1  0.349450  0.349450  0.951650  1
  Y  Y2  1  0.349450  0.951650  0.349450  1
  Y  Y3  1  0.951650  0.349450  0.349450  1
  Y  Y4  1  0.807328  0.192672  0.192672  1
  Y  Y5  1  0.192672  0.807328  0.807328  1
  Y  Y6  1  0.192672  0.807328  0.192672  1
  Y  Y7  1  0.807328  0.192672  0.807328  1
  Y  Y8  1  0.192672  0.192672  0.807328  1
  Y  Y9  1  0.807328  0.807328  0.192672  1
  Y  Y10  1  0.938239  0.561761  0.561761  1
  Y  Y11  1  0.561761  0.938239  0.938239  1
  Y  Y12  1  0.561761  0.938239  0.561761  1
  Y  Y13  1  0.938239  0.561761  0.938239  1
  Y  Y14  1  0.561761  0.561761  0.938239  1
  Y  Y15  1  0.938239  0.938239  0.561761  1
  Al  Al16  1  0.577397  0.577397  0.577397  1
  Al  Al17  1  0.577397  0.577397  0.267810  1
  Al  Al18  1  0.577397  0.267810  0.577397  1
  Al  Al19  1  0.267810  0.577397  0.577397  1
  Co  Co20  1  0.140519  0.140519  0.140519  1
  Co  Co21  1  0.140519  0.140519  0.578442  1
  Co  Co22  1  0.140519  0.578442  0.140519  1
  Co  Co23  1  0.578442  0.140519  0.140519  1
