# generated using pymatgen
data_CeNd2S3
_symmetry_space_group_name_H-M   'P 1'
_cell_length_a   7.01341982
_cell_length_b   7.01341946
_cell_length_c   7.01341976
_cell_angle_alpha   146.18040330
_cell_angle_beta   131.54281812
_cell_angle_gamma   60.39789810
_symmetry_Int_Tables_number   1
_chemical_formula_structural   CeNd2S3
_chemical_formula_sum   'Ce1 Nd2 S3'
_cell_volume   142.35832282
_cell_formula_units_Z   1
loop_
 _symmetry_equiv_pos_site_id
 _symmetry_equiv_pos_as_xyz
  1  'x, y, z'
loop_
 _atom_site_type_symbol
 _atom_site_label
 _atom_site_symmetry_multiplicity
 _atom_site_fract_x
 _atom_site_fract_y
 _atom_site_fract_z
 _atom_site_occupancy
  Ce  Ce0  1  0.000000  0.000000  0.000000  1
  Nd  Nd1  1  0.670043  0.670043  0.000000  1
  Nd  Nd2  1  0.329957  0.329957  0.000000  1
  S  S3  1  0.836833  0.336833  0.500000  1
  S  S4  1  0.500000  0.000000  0.500000  1
  S  S5  1  0.163167  0.663167  0.500000  1
