# generated using pymatgen
data_Hf16CuIr7O4
_symmetry_space_group_name_H-M   'P 1'
_cell_length_a   8.75363249
_cell_length_b   8.73145087
_cell_length_c   8.73145000
_cell_angle_alpha   59.99999573
_cell_angle_beta   60.08378410
_cell_angle_gamma   60.08377588
_symmetry_Int_Tables_number   1
_chemical_formula_structural   Hf16CuIr7O4
_chemical_formula_sum   'Hf16 Cu1 Ir7 O4'
_cell_volume   472.49246419
_cell_formula_units_Z   1
loop_
 _symmetry_equiv_pos_site_id
 _symmetry_equiv_pos_as_xyz
  1  'x, y, z'
loop_
 _atom_site_type_symbol
 _atom_site_label
 _atom_site_symmetry_multiplicity
 _atom_site_fract_x
 _atom_site_fract_y
 _atom_site_fract_z
 _atom_site_occupancy
  Hf  Hf0  1  0.816722  0.183885  0.815508  1
  Hf  Hf1  1  0.185577  0.814821  0.184781  1
  Hf  Hf2  1  0.436229  0.064094  0.435584  1
  Hf  Hf3  1  0.436229  0.064094  0.064094  1
  Hf  Hf4  1  0.064970  0.436403  0.436403  1
  Hf  Hf5  1  0.064970  0.436403  0.062224  1
  Hf  Hf6  1  0.185577  0.184781  0.814821  1
  Hf  Hf7  1  0.436229  0.435584  0.064094  1
  Hf  Hf8  1  0.127988  0.624004  0.624004  1
  Hf  Hf9  1  0.624166  0.625140  0.125554  1
  Hf  Hf10  1  0.624166  0.625140  0.625140  1
  Hf  Hf11  1  0.624166  0.125554  0.625140  1
  Hf  Hf12  1  0.185577  0.814821  0.814821  1
  Hf  Hf13  1  0.816722  0.183885  0.183885  1
  Hf  Hf14  1  0.064970  0.062224  0.436403  1
  Hf  Hf15  1  0.816722  0.815508  0.183885  1
  Cu  Cu16  1  0.775729  0.408090  0.408090  1
  Ir  Ir17  1  0.402707  0.788610  0.404341  1
  Ir  Ir18  1  0.845397  0.844481  0.465640  1
  Ir  Ir19  1  0.845397  0.844481  0.844481  1
  Ir  Ir20  1  0.470390  0.843203  0.843203  1
  Ir  Ir21  1  0.402707  0.404341  0.404341  1
  Ir  Ir22  1  0.402707  0.404341  0.788610  1
  Ir  Ir23  1  0.845397  0.465640  0.844481  1
  O  O24  1  0.125511  0.125387  0.623714  1
  O  O25  1  0.622056  0.125981  0.125981  1
  O  O26  1  0.125511  0.125387  0.125387  1
  O  O27  1  0.125511  0.623714  0.125387  1
