# generated using pymatgen
data_CeTh(SnAu2)2
_symmetry_space_group_name_H-M   'P 1'
_cell_length_a   4.99629700
_cell_length_b   7.41947500
_cell_length_c   15.36188500
_cell_angle_alpha   90.00000000
_cell_angle_beta   89.99903672
_cell_angle_gamma   90.00000000
_symmetry_Int_Tables_number   1
_chemical_formula_structural   CeTh(SnAu2)2
_chemical_formula_sum   'Ce3 Th3 Sn6 Au12'
_cell_volume   569.46355127
_cell_formula_units_Z   3
loop_
 _symmetry_equiv_pos_site_id
 _symmetry_equiv_pos_as_xyz
  1  'x, y, z'
loop_
 _atom_site_type_symbol
 _atom_site_label
 _atom_site_symmetry_multiplicity
 _atom_site_fract_x
 _atom_site_fract_y
 _atom_site_fract_z
 _atom_site_occupancy
  Ce  Ce0  1  0.500019  0.500012  0.500746  1
  Ce  Ce1  1  0.999985  0.000081  0.667078  1
  Ce  Ce2  1  0.500011  0.500031  0.833053  1
  Th  Th3  1  0.000012  0.000012  0.999039  1
  Th  Th4  1  0.500000  0.499916  0.166273  1
  Th  Th5  1  0.000031  0.999990  0.334077  1
  Sn  Sn6  1  0.000011  0.500103  0.996726  1
  Sn  Sn7  1  0.500014  0.999755  0.166329  1
  Sn  Sn8  1  0.000026  0.499959  0.336606  1
  Sn  Sn9  1  0.500002  0.999984  0.504048  1
  Sn  Sn10  1  0.999989  0.499985  0.666895  1
  Sn  Sn11  1  0.499968  0.000037  0.829454  1
  Au  Au12  1  0.500048  0.252748  0.999963  1
  Au  Au13  1  0.499961  0.747193  0.999944  1
  Au  Au14  1  0.999941  0.248061  0.166493  1
  Au  Au15  1  0.000044  0.751954  0.166494  1
  Au  Au16  1  0.499895  0.252724  0.332852  1
  Au  Au17  1  0.500180  0.747239  0.332861  1
  Au  Au18  1  0.999430  0.247771  0.499982  1
  Au  Au19  1  0.000648  0.752153  0.499981  1
  Au  Au20  1  0.499865  0.252374  0.667071  1
  Au  Au21  1  0.500025  0.747845  0.666998  1
  Au  Au22  1  0.999999  0.248119  0.833536  1
  Au  Au23  1  0.999900  0.751960  0.833498  1
