# generated using pymatgen
data_Ta9Nb3Al5Si3(IrC)4
_symmetry_space_group_name_H-M   'P 1'
_cell_length_a   8.27605632
_cell_length_b   8.27605659
_cell_length_c   8.27214200
_cell_angle_alpha   60.00728469
_cell_angle_beta   60.00728363
_cell_angle_gamma   60.02533319
_symmetry_Int_Tables_number   1
_chemical_formula_structural   Ta9Nb3Al5Si3(IrC)4
_chemical_formula_sum   'Ta9 Nb3 Al5 Si3 Ir4 C4'
_cell_volume   400.75668609
_cell_formula_units_Z   1
loop_
 _symmetry_equiv_pos_site_id
 _symmetry_equiv_pos_as_xyz
  1  'x, y, z'
loop_
 _atom_site_type_symbol
 _atom_site_label
 _atom_site_symmetry_multiplicity
 _atom_site_fract_x
 _atom_site_fract_y
 _atom_site_fract_z
 _atom_site_occupancy
  Ta  Ta0  1  0.314501  0.687938  0.315106  1
  Ta  Ta1  1  0.684757  0.684762  0.315645  1
  Ta  Ta2  1  0.315826  0.315618  0.684498  1
  Ta  Ta3  1  0.565265  0.564956  0.934797  1
  Ta  Ta4  1  0.935672  0.564453  0.564347  1
  Ta  Ta5  1  0.566964  0.935530  0.935739  1
  Ta  Ta6  1  0.934670  0.934118  0.568284  1
  Ta  Ta7  1  0.687989  0.314496  0.682722  1
  Ta  Ta8  1  0.934850  0.567903  0.934615  1
  Nb  Nb9  1  0.565145  0.934406  0.565141  1
  Nb  Nb10  1  0.314922  0.687935  0.682150  1
  Nb  Nb11  1  0.687671  0.314956  0.315595  1
  Al  Al12  1  0.334404  0.337498  0.996351  1
  Al  Al13  1  0.917552  0.250128  0.918656  1
  Al  Al14  1  0.915488  0.918722  0.252174  1
  Al  Al15  1  0.250403  0.917554  0.915858  1
  Al  Al16  1  0.336532  0.333256  0.331459  1
  Si  Si17  1  0.917060  0.914372  0.914588  1
  Si  Si18  1  0.992699  0.338535  0.333101  1
  Si  Si19  1  0.338700  0.992763  0.336034  1
  Ir  Ir20  1  0.128738  0.124098  0.133758  1
  Ir  Ir21  1  0.625890  0.117045  0.120929  1
  Ir  Ir22  1  0.116034  0.625373  0.127501  1
  Ir  Ir23  1  0.117952  0.126156  0.619059  1
  C  C24  1  0.626985  0.622416  0.625525  1
  C  C25  1  0.123479  0.624599  0.624993  1
  C  C26  1  0.625295  0.123760  0.627437  1
  C  C27  1  0.624557  0.626657  0.123939  1
