# generated using pymatgen
data_Ho20Cd5InCo2
_symmetry_space_group_name_H-M   'P 1'
_cell_length_a   9.55227366
_cell_length_b   9.55227417
_cell_length_c   9.75638400
_cell_angle_alpha   90.00000000
_cell_angle_beta   90.00000000
_cell_angle_gamma   120.05858443
_symmetry_Int_Tables_number   1
_chemical_formula_structural   Ho20Cd5InCo2
_chemical_formula_sum   'Ho20 Cd5 In1 Co2'
_cell_volume   770.50661212
_cell_formula_units_Z   1
loop_
 _symmetry_equiv_pos_site_id
 _symmetry_equiv_pos_as_xyz
  1  'x, y, z'
loop_
 _atom_site_type_symbol
 _atom_site_label
 _atom_site_symmetry_multiplicity
 _atom_site_fract_x
 _atom_site_fract_y
 _atom_site_fract_z
 _atom_site_occupancy
  Ho  Ho0  1  0.002133  0.997867  0.502279  1
  Ho  Ho1  1  0.002133  0.997867  0.997721  1
  Ho  Ho2  1  0.541225  0.458775  0.250000  1
  Ho  Ho3  1  0.539023  0.085817  0.250000  1
  Ho  Ho4  1  0.914183  0.460977  0.250000  1
  Ho  Ho5  1  0.456446  0.543554  0.750000  1
  Ho  Ho6  1  0.458023  0.915272  0.750000  1
  Ho  Ho7  1  0.084728  0.541977  0.750000  1
  Ho  Ho8  1  0.212207  0.787793  0.437450  1
  Ho  Ho9  1  0.210578  0.422944  0.436302  1
  Ho  Ho10  1  0.577056  0.789422  0.436302  1
  Ho  Ho11  1  0.788629  0.211371  0.562931  1
  Ho  Ho12  1  0.787246  0.575881  0.564398  1
  Ho  Ho13  1  0.424119  0.212754  0.564398  1
  Ho  Ho14  1  0.788629  0.211371  0.937069  1
  Ho  Ho15  1  0.787246  0.575881  0.935602  1
  Ho  Ho16  1  0.424119  0.212754  0.935602  1
  Ho  Ho17  1  0.212207  0.787793  0.062550  1
  Ho  Ho18  1  0.210578  0.422944  0.063698  1
  Ho  Ho19  1  0.577056  0.789422  0.063698  1
  Cd  Cd20  1  0.886619  0.772127  0.250000  1
  Cd  Cd21  1  0.227873  0.113381  0.250000  1
  Cd  Cd22  1  0.115839  0.884161  0.750000  1
  Cd  Cd23  1  0.114315  0.229083  0.750000  1
  Cd  Cd24  1  0.770917  0.885685  0.750000  1
  In  In25  1  0.885518  0.114482  0.250000  1
  Co  Co26  1  0.333824  0.666176  0.250000  1
  Co  Co27  1  0.667535  0.332465  0.750000  1
