# generated using pymatgen
data_TaNb2Co2MoN
_symmetry_space_group_name_H-M   'P 1'
_cell_length_a   8.17165149
_cell_length_b   8.17165129
_cell_length_c   8.17489400
_cell_angle_alpha   59.98687229
_cell_angle_beta   59.98687308
_cell_angle_gamma   60.02626473
_symmetry_Int_Tables_number   1
_chemical_formula_structural   TaNb2Co2MoN
_chemical_formula_sum   'Ta4 Nb8 Co8 Mo4 N4'
_cell_volume   385.99945392
_cell_formula_units_Z   4
loop_
 _symmetry_equiv_pos_site_id
 _symmetry_equiv_pos_as_xyz
  1  'x, y, z'
loop_
 _atom_site_type_symbol
 _atom_site_label
 _atom_site_symmetry_multiplicity
 _atom_site_fract_x
 _atom_site_fract_y
 _atom_site_fract_z
 _atom_site_occupancy
  Ta  Ta0  1  0.440661  0.059339  0.440661  1
  Ta  Ta1  1  0.059339  0.440661  0.059339  1
  Ta  Ta2  1  0.059339  0.440661  0.440661  1
  Ta  Ta3  1  0.440661  0.059339  0.059339  1
  Nb  Nb4  1  0.808982  0.808982  0.191018  1
  Nb  Nb5  1  0.191018  0.191018  0.808982  1
  Nb  Nb6  1  0.810798  0.189202  0.810798  1
  Nb  Nb7  1  0.189202  0.810798  0.189202  1
  Nb  Nb8  1  0.189202  0.810798  0.810798  1
  Nb  Nb9  1  0.810798  0.189202  0.189202  1
  Nb  Nb10  1  0.438976  0.438976  0.061024  1
  Nb  Nb11  1  0.061024  0.061024  0.438976  1
  Co  Co12  1  0.732581  0.423687  0.421866  1
  Co  Co13  1  0.423687  0.732581  0.421866  1
  Co  Co14  1  0.421866  0.421866  0.732581  1
  Co  Co15  1  0.421866  0.421866  0.423687  1
  Co  Co16  1  0.518807  0.828305  0.826444  1
  Co  Co17  1  0.828305  0.518807  0.826444  1
  Co  Co18  1  0.826444  0.826444  0.518807  1
  Co  Co19  1  0.826444  0.826444  0.828305  1
  Mo  Mo20  1  0.124713  0.625956  0.624665  1
  Mo  Mo21  1  0.625956  0.124713  0.624665  1
  Mo  Mo22  1  0.624665  0.624665  0.124713  1
  Mo  Mo23  1  0.624665  0.624665  0.625956  1
  N  N24  1  0.621888  0.123823  0.127145  1
  N  N25  1  0.123823  0.621888  0.127145  1
  N  N26  1  0.127145  0.127145  0.621888  1
  N  N27  1  0.127145  0.127145  0.123823  1
