# generated using pymatgen
data_Ho3Tm(Sn5Rh3)2
_symmetry_space_group_name_H-M   'P 1'
_cell_length_a   13.44688710
_cell_length_b   13.44686445
_cell_length_c   7.24994021
_cell_angle_alpha   90.00886833
_cell_angle_beta   89.99119047
_cell_angle_gamma   161.08717418
_symmetry_Int_Tables_number   1
_chemical_formula_structural   Ho3Tm(Sn5Rh3)2
_chemical_formula_sum   'Ho3 Tm1 Sn10 Rh6'
_cell_volume   424.90843687
_cell_formula_units_Z   1
loop_
 _symmetry_equiv_pos_site_id
 _symmetry_equiv_pos_as_xyz
  1  'x, y, z'
loop_
 _atom_site_type_symbol
 _atom_site_label
 _atom_site_symmetry_multiplicity
 _atom_site_fract_x
 _atom_site_fract_y
 _atom_site_fract_z
 _atom_site_occupancy
  Ho  Ho0  1  0.171780  0.828220  0.255243  1
  Ho  Ho1  1  0.523636  0.476364  0.739253  1
  Ho  Ho2  1  0.828144  0.171851  0.754828  1
  Tm  Tm3  1  0.476037  0.523970  0.239503  1
  Sn  Sn4  1  0.704579  0.295424  0.548287  1
  Sn  Sn5  1  0.596365  0.403634  0.114262  1
  Sn  Sn6  1  0.046993  0.953009  0.399320  1
  Sn  Sn7  1  0.952808  0.047200  0.899657  1
  Sn  Sn8  1  0.709129  0.290874  0.978353  1
  Sn  Sn9  1  0.290892  0.709105  0.478022  1
  Sn  Sn10  1  0.295689  0.704304  0.048074  1
  Sn  Sn11  1  0.881048  0.118958  0.230452  1
  Sn  Sn12  1  0.119024  0.880957  0.730512  1
  Sn  Sn13  1  0.403443  0.596552  0.614088  1
  Rh  Rh14  1  0.394696  0.605326  0.984673  1
  Rh  Rh15  1  0.777425  0.222572  0.264067  1
  Rh  Rh16  1  0.222749  0.777246  0.764334  1
  Rh  Rh17  1  0.050136  0.949869  0.019267  1
  Rh  Rh18  1  0.605788  0.394209  0.483878  1
  Rh  Rh19  1  0.949640  0.050354  0.517727  1
