# generated using pymatgen
data_Tb5Tm3Hg4
_symmetry_space_group_name_H-M   'P 1'
_cell_length_a   5.04606200
_cell_length_b   7.14520601
_cell_length_c   9.22341846
_cell_angle_alpha   89.93377549
_cell_angle_beta   90.00000000
_cell_angle_gamma   90.00000000
_symmetry_Int_Tables_number   1
_chemical_formula_structural   Tb5Tm3Hg4
_chemical_formula_sum   'Tb5 Tm3 Hg4'
_cell_volume   332.55153705
_cell_formula_units_Z   1
loop_
 _symmetry_equiv_pos_site_id
 _symmetry_equiv_pos_as_xyz
  1  'x, y, z'
loop_
 _atom_site_type_symbol
 _atom_site_label
 _atom_site_symmetry_multiplicity
 _atom_site_fract_x
 _atom_site_fract_y
 _atom_site_fract_z
 _atom_site_occupancy
  Tb  Tb0  1  0.750000  0.664972  0.424694  1
  Tb  Tb1  1  0.250000  0.482774  0.189811  1
  Tb  Tb2  1  0.250000  0.984924  0.308737  1
  Tb  Tb3  1  0.750000  0.516744  0.809452  1
  Tb  Tb4  1  0.750000  0.017480  0.691658  1
  Tm  Tm5  1  0.250000  0.837532  0.926312  1
  Tm  Tm6  1  0.250000  0.333841  0.575476  1
  Tm  Tm7  1  0.750000  0.164462  0.074289  1
  Hg  Hg8  1  0.250000  0.258384  0.896730  1
  Hg  Hg9  1  0.250000  0.757793  0.605844  1
  Hg  Hg10  1  0.750000  0.743054  0.100270  1
  Hg  Hg11  1  0.750000  0.238040  0.396727  1
