# generated using pymatgen
data_Gd6PuO12
_symmetry_space_group_name_H-M   'P 1'
_cell_length_a   6.64490018
_cell_length_b   6.64490080
_cell_length_c   6.64490028
_cell_angle_alpha   98.83228173
_cell_angle_beta   98.83228423
_cell_angle_gamma   98.83228797
_symmetry_Int_Tables_number   1
_chemical_formula_structural   Gd6PuO12
_chemical_formula_sum   'Gd6 Pu1 O12'
_cell_volume   281.73381396
_cell_formula_units_Z   1
loop_
 _symmetry_equiv_pos_site_id
 _symmetry_equiv_pos_as_xyz
  1  'x, y, z'
loop_
 _atom_site_type_symbol
 _atom_site_label
 _atom_site_symmetry_multiplicity
 _atom_site_fract_x
 _atom_site_fract_y
 _atom_site_fract_z
 _atom_site_occupancy
  Gd  Gd0  1  0.855271  0.389310  0.683532  1
  Gd  Gd1  1  0.610690  0.316468  0.144729  1
  Gd  Gd2  1  0.316468  0.144729  0.610690  1
  Gd  Gd3  1  0.683532  0.855271  0.389310  1
  Gd  Gd4  1  0.389310  0.683532  0.855271  1
  Gd  Gd5  1  0.144729  0.610690  0.316468  1
  Pu  Pu6  1  0.000000  0.000000  0.000000  1
  O  O7  1  0.927226  0.043060  0.694569  1
  O  O8  1  0.956940  0.305431  0.072774  1
  O  O9  1  0.590602  0.177511  0.432626  1
  O  O10  1  0.822489  0.567374  0.409398  1
  O  O11  1  0.305431  0.072774  0.956940  1
  O  O12  1  0.567374  0.409398  0.822489  1
  O  O13  1  0.432626  0.590602  0.177511  1
  O  O14  1  0.694569  0.927226  0.043060  1
  O  O15  1  0.177511  0.432626  0.590602  1
  O  O16  1  0.409398  0.822489  0.567374  1
  O  O17  1  0.043060  0.694569  0.927226  1
  O  O18  1  0.072774  0.956940  0.305431  1
