# generated using pymatgen
data_Na2TbDy(InBr3)4
_symmetry_space_group_name_H-M   'P 1'
_cell_length_a   8.21954303
_cell_length_b   7.66015508
_cell_length_c   13.21844500
_cell_angle_alpha   56.55078917
_cell_angle_beta   89.99084017
_cell_angle_gamma   89.99431954
_symmetry_Int_Tables_number   1
_chemical_formula_structural   Na2TbDy(InBr3)4
_chemical_formula_sum   'Na2 Tb1 Dy1 In4 Br12'
_cell_volume   694.42724581
_cell_formula_units_Z   1
loop_
 _symmetry_equiv_pos_site_id
 _symmetry_equiv_pos_as_xyz
  1  'x, y, z'
loop_
 _atom_site_type_symbol
 _atom_site_label
 _atom_site_symmetry_multiplicity
 _atom_site_fract_x
 _atom_site_fract_y
 _atom_site_fract_z
 _atom_site_occupancy
  Na  Na0  1  0.500000  0.500000  0.000000  1
  Na  Na1  1  0.000000  0.500000  0.500000  1
  Tb  Tb2  1  0.000000  0.000000  0.000000  1
  Dy  Dy3  1  0.500000  0.000000  0.500000  1
  In  In4  1  0.072913  0.714863  0.759653  1
  In  In5  1  0.927087  0.285137  0.240347  1
  In  In6  1  0.572865  0.285249  0.740267  1
  In  In7  1  0.427135  0.714751  0.259733  1
  Br  Br8  1  0.783858  0.757109  0.562063  1
  Br  Br9  1  0.216142  0.242891  0.437937  1
  Br  Br10  1  0.285230  0.244054  0.937651  1
  Br  Br11  1  0.714770  0.755946  0.062349  1
  Br  Br12  1  0.458893  0.872799  0.743397  1
  Br  Br13  1  0.541107  0.127201  0.256603  1
  Br  Br14  1  0.958726  0.127868  0.755361  1
  Br  Br15  1  0.041274  0.872132  0.244639  1
  Br  Br16  1  0.314624  0.655909  0.544411  1
  Br  Br17  1  0.685376  0.344091  0.455589  1
  Br  Br18  1  0.813715  0.345690  0.955414  1
  Br  Br19  1  0.186285  0.654310  0.044586  1
