# generated using pymatgen
data_Lu6ZnTe2
_symmetry_space_group_name_H-M   'P 1'
_cell_length_a   4.01581600
_cell_length_b   11.31052500
_cell_length_c   21.12127200
_cell_angle_alpha   90.00000000
_cell_angle_beta   90.00000000
_cell_angle_gamma   90.00000000
_symmetry_Int_Tables_number   1
_chemical_formula_structural   Lu6ZnTe2
_chemical_formula_sum   'Lu24 Zn4 Te8'
_cell_volume   959.34902650
_cell_formula_units_Z   4
loop_
 _symmetry_equiv_pos_site_id
 _symmetry_equiv_pos_as_xyz
  1  'x, y, z'
loop_
 _atom_site_type_symbol
 _atom_site_label
 _atom_site_symmetry_multiplicity
 _atom_site_fract_x
 _atom_site_fract_y
 _atom_site_fract_z
 _atom_site_occupancy
  Lu  Lu0  1  0.750000  0.684602  0.891754  1
  Lu  Lu1  1  0.250000  0.378702  0.473283  1
  Lu  Lu2  1  0.750000  0.878702  0.026717  1
  Lu  Lu3  1  0.750000  0.970308  0.842286  1
  Lu  Lu4  1  0.250000  0.184602  0.608246  1
  Lu  Lu5  1  0.250000  0.740921  0.268688  1
  Lu  Lu6  1  0.750000  0.111814  0.492297  1
  Lu  Lu7  1  0.750000  0.561560  0.139794  1
  Lu  Lu8  1  0.250000  0.315398  0.108246  1
  Lu  Lu9  1  0.250000  0.029692  0.157714  1
  Lu  Lu10  1  0.250000  0.470308  0.657714  1
  Lu  Lu11  1  0.250000  0.759079  0.768688  1
  Lu  Lu12  1  0.750000  0.529692  0.342286  1
  Lu  Lu13  1  0.750000  0.938440  0.639794  1
  Lu  Lu14  1  0.250000  0.611814  0.007703  1
  Lu  Lu15  1  0.750000  0.259079  0.731312  1
  Lu  Lu16  1  0.750000  0.240921  0.231312  1
  Lu  Lu17  1  0.750000  0.621298  0.526717  1
  Lu  Lu18  1  0.750000  0.815398  0.391754  1
  Lu  Lu19  1  0.250000  0.121298  0.973283  1
  Lu  Lu20  1  0.250000  0.888186  0.507703  1
  Lu  Lu21  1  0.750000  0.388186  0.992297  1
  Lu  Lu22  1  0.250000  0.438440  0.860206  1
  Lu  Lu23  1  0.250000  0.061560  0.360206  1
  Zn  Zn24  1  0.750000  0.133785  0.075798  1
  Zn  Zn25  1  0.250000  0.633785  0.424202  1
  Zn  Zn26  1  0.250000  0.866215  0.924202  1
  Zn  Zn27  1  0.750000  0.366215  0.575798  1
  Te  Te28  1  0.250000  0.769455  0.126337  1
  Te  Te29  1  0.250000  0.730545  0.626337  1
  Te  Te30  1  0.250000  0.042738  0.737297  1
  Te  Te31  1  0.750000  0.269455  0.373663  1
  Te  Te32  1  0.750000  0.542738  0.762703  1
  Te  Te33  1  0.250000  0.457262  0.237297  1
  Te  Te34  1  0.750000  0.957262  0.262703  1
  Te  Te35  1  0.750000  0.230545  0.873663  1
