# generated using pymatgen
data_Tb3Y7Cd3Os
_symmetry_space_group_name_H-M   'P 1'
_cell_length_a   9.64607500
_cell_length_b   9.64607475
_cell_length_c   9.90835900
_cell_angle_alpha   90.00000000
_cell_angle_beta   90.00000000
_cell_angle_gamma   119.99999742
_symmetry_Int_Tables_number   1
_chemical_formula_structural   Tb3Y7Cd3Os
_chemical_formula_sum   'Tb6 Y14 Cd6 Os2'
_cell_volume   798.42409384
_cell_formula_units_Z   2
loop_
 _symmetry_equiv_pos_site_id
 _symmetry_equiv_pos_as_xyz
  1  'x, y, z'
loop_
 _atom_site_type_symbol
 _atom_site_label
 _atom_site_symmetry_multiplicity
 _atom_site_fract_x
 _atom_site_fract_y
 _atom_site_fract_z
 _atom_site_occupancy
  Tb  Tb0  1  0.209734  0.790266  0.440046  1
  Tb  Tb1  1  0.209734  0.419471  0.440046  1
  Tb  Tb2  1  0.580529  0.790266  0.440046  1
  Tb  Tb3  1  0.790266  0.209734  0.559954  1
  Tb  Tb4  1  0.790266  0.580529  0.559954  1
  Tb  Tb5  1  0.419471  0.209734  0.559954  1
  Y  Y6  1  0.000000  0.000000  0.500000  1
  Y  Y7  1  0.000000  0.000000  0.000000  1
  Y  Y8  1  0.790203  0.209797  0.940272  1
  Y  Y9  1  0.790203  0.580405  0.940272  1
  Y  Y10  1  0.419595  0.209797  0.940272  1
  Y  Y11  1  0.209797  0.790203  0.059728  1
  Y  Y12  1  0.209797  0.419595  0.059728  1
  Y  Y13  1  0.580405  0.790203  0.059728  1
  Y  Y14  1  0.540725  0.459275  0.250056  1
  Y  Y15  1  0.540725  0.081450  0.250056  1
  Y  Y16  1  0.918550  0.459275  0.250056  1
  Y  Y17  1  0.459275  0.540725  0.749944  1
  Y  Y18  1  0.459275  0.918550  0.749944  1
  Y  Y19  1  0.081450  0.540725  0.749944  1
  Cd  Cd20  1  0.885366  0.114634  0.249440  1
  Cd  Cd21  1  0.885366  0.770732  0.249440  1
  Cd  Cd22  1  0.229268  0.114634  0.249440  1
  Cd  Cd23  1  0.114634  0.885366  0.750560  1
  Cd  Cd24  1  0.114634  0.229268  0.750560  1
  Cd  Cd25  1  0.770732  0.885366  0.750560  1
  Os  Os26  1  0.333333  0.666667  0.251201  1
  Os  Os27  1  0.666667  0.333333  0.748799  1
