# generated using pymatgen
data_HoNi(Sn2Ru)3
_symmetry_space_group_name_H-M   'P 1'
_cell_length_a   6.89610865
_cell_length_b   7.00752714
_cell_length_c   6.84290736
_cell_angle_alpha   120.44517614
_cell_angle_beta   119.89992106
_cell_angle_gamma   90.60435031
_symmetry_Int_Tables_number   1
_chemical_formula_structural   HoNi(Sn2Ru)3
_chemical_formula_sum   'Ho1 Ni1 Sn6 Ru3'
_cell_volume   231.31445608
_cell_formula_units_Z   1
loop_
 _symmetry_equiv_pos_site_id
 _symmetry_equiv_pos_as_xyz
  1  'x, y, z'
loop_
 _atom_site_type_symbol
 _atom_site_label
 _atom_site_symmetry_multiplicity
 _atom_site_fract_x
 _atom_site_fract_y
 _atom_site_fract_z
 _atom_site_occupancy
  Ho  Ho0  1  0.983366  0.019257  0.000000  1
  Ni  Ni1  1  0.247259  0.596339  0.000000  1
  Sn  Sn2  1  0.887821  0.534190  0.000000  1
  Sn  Sn3  1  0.535443  0.876866  0.000000  1
  Sn  Sn4  1  0.124281  0.120093  0.658640  1
  Sn  Sn5  1  0.006685  0.510554  0.513385  1
  Sn  Sn6  1  0.465642  0.461454  0.341360  1
  Sn  Sn7  1  0.493300  0.997169  0.486615  1
  Ru  Ru8  1  0.402979  0.403453  0.660515  1
  Ru  Ru9  1  0.610760  0.237686  0.000000  1
  Ru  Ru10  1  0.742465  0.742938  0.339485  1
