# generated using pymatgen
data_Zr3ScTaNb3P4
_symmetry_space_group_name_H-M   'P 1'
_cell_length_a   3.57026900
_cell_length_b   6.93460370
_cell_length_c   8.34231700
_cell_angle_alpha   90.28599788
_cell_angle_beta   90.00000000
_cell_angle_gamma   90.00000000
_symmetry_Int_Tables_number   1
_chemical_formula_structural   Zr3ScTaNb3P4
_chemical_formula_sum   'Zr3 Sc1 Ta1 Nb3 P4'
_cell_volume   206.53985335
_cell_formula_units_Z   1
loop_
 _symmetry_equiv_pos_site_id
 _symmetry_equiv_pos_as_xyz
  1  'x, y, z'
loop_
 _atom_site_type_symbol
 _atom_site_label
 _atom_site_symmetry_multiplicity
 _atom_site_fract_x
 _atom_site_fract_y
 _atom_site_fract_z
 _atom_site_occupancy
  Zr  Zr0  1  0.750000  0.965269  0.330630  1
  Zr  Zr1  1  0.250000  0.034257  0.667294  1
  Zr  Zr2  1  0.750000  0.464906  0.167806  1
  Sc  Sc3  1  0.250000  0.534225  0.833846  1
  Ta  Ta4  1  0.250000  0.138054  0.059594  1
  Nb  Nb5  1  0.750000  0.862151  0.940490  1
  Nb  Nb6  1  0.250000  0.639897  0.439841  1
  Nb  Nb7  1  0.750000  0.361711  0.559305  1
  P  P8  1  0.750000  0.736437  0.644119  1
  P  P9  1  0.250000  0.761732  0.140936  1
  P  P10  1  0.750000  0.240141  0.857866  1
  P  P11  1  0.250000  0.261220  0.358275  1
