# generated using pymatgen
data_Eu3Fe(Co4P3)2
_symmetry_space_group_name_H-M   'P 1'
_cell_length_a   3.74093400
_cell_length_b   10.62604600
_cell_length_c   12.31715900
_cell_angle_alpha   90.00000000
_cell_angle_beta   90.00000000
_cell_angle_gamma   90.00000000
_symmetry_Int_Tables_number   1
_chemical_formula_structural   Eu3Fe(Co4P3)2
_chemical_formula_sum   'Eu6 Fe2 Co16 P12'
_cell_volume   489.62353542
_cell_formula_units_Z   2
loop_
 _symmetry_equiv_pos_site_id
 _symmetry_equiv_pos_as_xyz
  1  'x, y, z'
loop_
 _atom_site_type_symbol
 _atom_site_label
 _atom_site_symmetry_multiplicity
 _atom_site_fract_x
 _atom_site_fract_y
 _atom_site_fract_z
 _atom_site_occupancy
  Eu  Eu0  1  0.000000  0.500000  0.523880  1
  Eu  Eu1  1  0.500000  0.000000  0.476120  1
  Eu  Eu2  1  0.500000  0.820458  0.206017  1
  Eu  Eu3  1  0.500000  0.179542  0.206017  1
  Eu  Eu4  1  0.000000  0.679542  0.793983  1
  Eu  Eu5  1  0.000000  0.320458  0.793983  1
  Fe  Fe6  1  0.500000  0.500000  0.155212  1
  Fe  Fe7  1  0.000000  0.000000  0.844788  1
  Co  Co8  1  0.500000  0.500000  0.702714  1
  Co  Co9  1  0.000000  0.000000  0.297286  1
  Co  Co10  1  0.000000  0.500000  0.989765  1
  Co  Co11  1  0.500000  0.000000  0.010235  1
  Co  Co12  1  0.500000  0.332401  0.995966  1
  Co  Co13  1  0.500000  0.667599  0.995966  1
  Co  Co14  1  0.000000  0.167599  0.004034  1
  Co  Co15  1  0.000000  0.832401  0.004034  1
  Co  Co16  1  0.500000  0.297446  0.430699  1
  Co  Co17  1  0.500000  0.702554  0.430699  1
  Co  Co18  1  0.000000  0.202554  0.569301  1
  Co  Co19  1  0.000000  0.797446  0.569301  1
  Co  Co20  1  0.500000  0.880946  0.709614  1
  Co  Co21  1  0.500000  0.119054  0.709614  1
  Co  Co22  1  0.000000  0.619054  0.290386  1
  Co  Co23  1  0.000000  0.380946  0.290386  1
  P  P24  1  0.500000  0.500000  0.887558  1
  P  P25  1  0.000000  0.000000  0.112442  1
  P  P26  1  0.500000  0.500000  0.338370  1
  P  P27  1  0.000000  0.000000  0.661630  1
  P  P28  1  0.500000  0.304740  0.614855  1
  P  P29  1  0.500000  0.695260  0.614855  1
  P  P30  1  0.000000  0.195260  0.385145  1
  P  P31  1  0.000000  0.804740  0.385145  1
  P  P32  1  0.500000  0.847144  0.893547  1
  P  P33  1  0.500000  0.152856  0.893547  1
  P  P34  1  0.000000  0.652856  0.106453  1
  P  P35  1  0.000000  0.347144  0.106453  1
