# generated using pymatgen
data_Cd2Bi2Ir3RhO14
_symmetry_space_group_name_H-M   'P 1'
_cell_length_a   7.28648769
_cell_length_b   7.28648739
_cell_length_c   7.17600600
_cell_angle_alpha   60.49825477
_cell_angle_beta   60.49825167
_cell_angle_gamma   60.90131619
_symmetry_Int_Tables_number   1
_chemical_formula_structural   Cd2Bi2Ir3RhO14
_chemical_formula_sum   'Cd2 Bi2 Ir3 Rh1 O14'
_cell_volume   273.24354322
_cell_formula_units_Z   1
loop_
 _symmetry_equiv_pos_site_id
 _symmetry_equiv_pos_as_xyz
  1  'x, y, z'
loop_
 _atom_site_type_symbol
 _atom_site_label
 _atom_site_symmetry_multiplicity
 _atom_site_fract_x
 _atom_site_fract_y
 _atom_site_fract_z
 _atom_site_occupancy
  Cd  Cd0  1  0.125000  0.125000  0.125000  1
  Cd  Cd1  1  0.125000  0.125000  0.625000  1
  Bi  Bi2  1  0.125000  0.625000  0.125000  1
  Bi  Bi3  1  0.625000  0.125000  0.125000  1
  Ir  Ir4  1  0.625000  0.625000  0.625000  1
  Ir  Ir5  1  0.125000  0.625000  0.625000  1
  Ir  Ir6  1  0.625000  0.125000  0.625000  1
  Rh  Rh7  1  0.625000  0.625000  0.125000  1
  O  O8  1  0.245996  0.245996  0.254584  1
  O  O9  1  0.292237  0.702539  0.294516  1
  O  O10  1  0.944725  0.944725  0.558891  1
  O  O11  1  0.547505  0.953075  0.542979  1
  O  O12  1  0.708357  0.708357  0.293985  1
  O  O13  1  0.953075  0.547505  0.542979  1
  O  O14  1  0.702495  0.296925  0.707021  1
  O  O15  1  0.305275  0.305275  0.691109  1
  O  O16  1  0.702539  0.292237  0.294516  1
  O  O17  1  0.296925  0.702495  0.707021  1
  O  O18  1  0.957763  0.547461  0.955484  1
  O  O19  1  0.541643  0.541643  0.956015  1
  O  O20  1  0.004004  0.004004  0.995416  1
  O  O21  1  0.547461  0.957763  0.955484  1
