# generated using pymatgen
data_CaEu(Ga4Co)2
_symmetry_space_group_name_H-M   'P 1'
_cell_length_a   3.97821800
_cell_length_b   7.12999000
_cell_length_c   7.69949100
_cell_angle_alpha   90.00000000
_cell_angle_beta   90.00000000
_cell_angle_gamma   90.00000000
_symmetry_Int_Tables_number   1
_chemical_formula_structural   CaEu(Ga4Co)2
_chemical_formula_sum   'Ca1 Eu1 Ga8 Co2'
_cell_volume   218.39340249
_cell_formula_units_Z   1
loop_
 _symmetry_equiv_pos_site_id
 _symmetry_equiv_pos_as_xyz
  1  'x, y, z'
loop_
 _atom_site_type_symbol
 _atom_site_label
 _atom_site_symmetry_multiplicity
 _atom_site_fract_x
 _atom_site_fract_y
 _atom_site_fract_z
 _atom_site_occupancy
  Ca  Ca0  1  0.000000  0.112310  0.750000  1
  Eu  Eu1  1  0.000000  0.883370  0.250000  1
  Ga  Ga2  1  0.000000  0.499368  0.998285  1
  Ga  Ga3  1  0.000000  0.499368  0.501715  1
  Ga  Ga4  1  0.500000  0.549050  0.250000  1
  Ga  Ga5  1  0.500000  0.805650  0.570240  1
  Ga  Ga6  1  0.500000  0.805650  0.929760  1
  Ga  Ga7  1  0.500000  0.196407  0.068617  1
  Ga  Ga8  1  0.500000  0.196407  0.431383  1
  Ga  Ga9  1  0.500000  0.447353  0.750000  1
  Co  Co10  1  0.000000  0.685195  0.750000  1
  Co  Co11  1  0.000000  0.319870  0.250000  1
