# generated using pymatgen
data_Y13Th3(ScIr3)4
_symmetry_space_group_name_H-M   'P 1'
_cell_length_a   10.95756777
_cell_length_b   10.86353809
_cell_length_c   6.28791759
_cell_angle_alpha   90.03949299
_cell_angle_beta   89.78406198
_cell_angle_gamma   89.94161284
_symmetry_Int_Tables_number   1
_chemical_formula_structural   Y13Th3(ScIr3)4
_chemical_formula_sum   'Y13 Th3 Sc4 Ir12'
_cell_volume   748.49496533
_cell_formula_units_Z   1
loop_
 _symmetry_equiv_pos_site_id
 _symmetry_equiv_pos_as_xyz
  1  'x, y, z'
loop_
 _atom_site_type_symbol
 _atom_site_label
 _atom_site_symmetry_multiplicity
 _atom_site_fract_x
 _atom_site_fract_y
 _atom_site_fract_z
 _atom_site_occupancy
  Y  Y0  1  0.710944  0.910686  0.377018  1
  Y  Y1  1  0.588984  0.782789  0.878950  1
  Y  Y2  1  0.588724  0.215304  0.378075  1
  Y  Y3  1  0.417862  0.782633  0.377726  1
  Y  Y4  1  0.413012  0.218918  0.878161  1
  Y  Y5  1  0.211028  0.415987  0.621725  1
  Y  Y6  1  0.210899  0.585280  0.120943  1
  Y  Y7  1  0.788604  0.414526  0.120366  1
  Y  Y8  1  0.788931  0.585012  0.620994  1
  Y  Y9  1  0.913785  0.710727  0.120684  1
  Y  Y10  1  0.916059  0.289503  0.617823  1
  Y  Y11  1  0.083052  0.710278  0.618398  1
  Y  Y12  1  0.083721  0.290434  0.116380  1
  Th  Th13  1  0.289579  0.090472  0.379996  1
  Th  Th14  1  0.288285  0.909504  0.879726  1
  Th  Th15  1  0.711023  0.087492  0.880489  1
  Sc  Sc16  1  0.996147  0.998658  0.501019  1
  Sc  Sc17  1  0.999597  0.999685  0.002403  1
  Sc  Sc18  1  0.500207  0.499999  0.006218  1
  Sc  Sc19  1  0.501242  0.499006  0.506667  1
  Ir  Ir20  1  0.852200  0.147479  0.242272  1
  Ir  Ir21  1  0.850404  0.856192  0.753017  1
  Ir  Ir22  1  0.149953  0.144094  0.744718  1
  Ir  Ir23  1  0.150323  0.855834  0.247051  1
  Ir  Ir24  1  0.647145  0.351291  0.754687  1
  Ir  Ir25  1  0.646962  0.644273  0.252647  1
  Ir  Ir26  1  0.352464  0.353054  0.255909  1
  Ir  Ir27  1  0.353625  0.648393  0.754795  1
  Ir  Ir28  1  0.497271  0.001238  0.117300  1
  Ir  Ir29  1  0.498705  0.000003  0.622776  1
  Ir  Ir30  1  0.999510  0.500482  0.875753  1
  Ir  Ir31  1  0.999752  0.500775  0.375315  1
