# generated using pymatgen
data_TmLu3Al2(ZnRh2)2
_symmetry_space_group_name_H-M   'P 1'
_cell_length_a   4.03708700
_cell_length_b   6.85050196
_cell_length_c   8.03127425
_cell_angle_alpha   89.94227066
_cell_angle_beta   90.00000000
_cell_angle_gamma   90.00000000
_symmetry_Int_Tables_number   1
_chemical_formula_structural   TmLu3Al2(ZnRh2)2
_chemical_formula_sum   'Tm1 Lu3 Al2 Zn2 Rh4'
_cell_volume   222.11338960
_cell_formula_units_Z   1
loop_
 _symmetry_equiv_pos_site_id
 _symmetry_equiv_pos_as_xyz
  1  'x, y, z'
loop_
 _atom_site_type_symbol
 _atom_site_label
 _atom_site_symmetry_multiplicity
 _atom_site_fract_x
 _atom_site_fract_y
 _atom_site_fract_z
 _atom_site_occupancy
  Tm  Tm0  1  0.250000  0.535518  0.177879  1
  Lu  Lu1  1  0.750000  0.464605  0.821602  1
  Lu  Lu2  1  0.750000  0.963651  0.684476  1
  Lu  Lu3  1  0.250000  0.036424  0.315757  1
  Al  Al4  1  0.250000  0.638875  0.561557  1
  Al  Al5  1  0.750000  0.360862  0.439160  1
  Zn  Zn6  1  0.750000  0.859299  0.064316  1
  Zn  Zn7  1  0.250000  0.140917  0.935395  1
  Rh  Rh8  1  0.250000  0.754510  0.868427  1
  Rh  Rh9  1  0.750000  0.244628  0.130802  1
  Rh  Rh10  1  0.750000  0.736726  0.386068  1
  Rh  Rh11  1  0.250000  0.263986  0.614561  1
