# generated using pymatgen
data_Ta12Al8CrIr3C4
_symmetry_space_group_name_H-M   'P 1'
_cell_length_a   8.28417388
_cell_length_b   8.28417419
_cell_length_c   8.31550245
_cell_angle_alpha   60.12455252
_cell_angle_beta   60.12455211
_cell_angle_gamma   60.00000093
_symmetry_Int_Tables_number   1
_chemical_formula_structural   Ta12Al8CrIr3C4
_chemical_formula_sum   'Ta12 Al8 Cr1 Ir3 C4'
_cell_volume   404.28439248
_cell_formula_units_Z   1
loop_
 _symmetry_equiv_pos_site_id
 _symmetry_equiv_pos_as_xyz
  1  'x, y, z'
loop_
 _atom_site_type_symbol
 _atom_site_label
 _atom_site_symmetry_multiplicity
 _atom_site_fract_x
 _atom_site_fract_y
 _atom_site_fract_z
 _atom_site_occupancy
  Ta  Ta0  1  0.550346  0.943129  0.563396  1
  Ta  Ta1  1  0.306871  0.699654  0.686604  1
  Ta  Ta2  1  0.687377  0.312477  0.312770  1
  Ta  Ta3  1  0.312477  0.687377  0.312770  1
  Ta  Ta4  1  0.687377  0.687377  0.312770  1
  Ta  Ta5  1  0.306871  0.306871  0.686604  1
  Ta  Ta6  1  0.562623  0.562623  0.937230  1
  Ta  Ta7  1  0.943129  0.550346  0.563396  1
  Ta  Ta8  1  0.562623  0.937523  0.937230  1
  Ta  Ta9  1  0.943129  0.943129  0.563396  1
  Ta  Ta10  1  0.699654  0.306871  0.686604  1
  Ta  Ta11  1  0.937523  0.562623  0.937230  1
  Al  Al12  1  0.917989  0.917989  0.915531  1
  Al  Al13  1  0.001506  0.332011  0.334469  1
  Al  Al14  1  0.332011  0.001506  0.334469  1
  Al  Al15  1  0.334897  0.334897  0.995307  1
  Al  Al16  1  0.917989  0.248494  0.915531  1
  Al  Al17  1  0.915103  0.915103  0.254693  1
  Al  Al18  1  0.248494  0.917989  0.915531  1
  Al  Al19  1  0.332011  0.332011  0.334469  1
  Cr  Cr20  1  0.125000  0.125000  0.625000  1
  Ir  Ir21  1  0.125000  0.125000  0.125000  1
  Ir  Ir22  1  0.625000  0.125000  0.125000  1
  Ir  Ir23  1  0.125000  0.625000  0.125000  1
  C  C24  1  0.625000  0.625000  0.625000  1
  C  C25  1  0.125000  0.625000  0.625000  1
  C  C26  1  0.625000  0.125000  0.625000  1
  C  C27  1  0.625000  0.625000  0.125000  1
