# generated using pymatgen
data_Ca2Y4SnGe5Rh12
_symmetry_space_group_name_H-M   'P 1'
_cell_length_a   5.64019800
_cell_length_b   5.64019735
_cell_length_c   15.73094200
_cell_angle_alpha   90.00000000
_cell_angle_beta   90.00000000
_cell_angle_gamma   120.00000381
_symmetry_Int_Tables_number   1
_chemical_formula_structural   Ca2Y4SnGe5Rh12
_chemical_formula_sum   'Ca2 Y4 Sn1 Ge5 Rh12'
_cell_volume   433.38511923
_cell_formula_units_Z   1
loop_
 _symmetry_equiv_pos_site_id
 _symmetry_equiv_pos_as_xyz
  1  'x, y, z'
loop_
 _atom_site_type_symbol
 _atom_site_label
 _atom_site_symmetry_multiplicity
 _atom_site_fract_x
 _atom_site_fract_y
 _atom_site_fract_z
 _atom_site_occupancy
  Ca  Ca0  1  0.333333  0.666667  0.748649  1
  Ca  Ca1  1  0.666667  0.333333  0.251351  1
  Y  Y2  1  0.333333  0.666667  0.542025  1
  Y  Y3  1  0.666667  0.333333  0.457975  1
  Y  Y4  1  0.666667  0.333333  0.044153  1
  Y  Y5  1  0.333333  0.666667  0.955847  1
  Sn  Sn6  1  0.000000  0.000000  0.000000  1
  Ge  Ge7  1  0.000000  0.000000  0.252424  1
  Ge  Ge8  1  0.000000  0.000000  0.747576  1
  Ge  Ge9  1  0.333333  0.666667  0.254197  1
  Ge  Ge10  1  0.666667  0.333333  0.745803  1
  Ge  Ge11  1  0.000000  0.000000  0.500000  1
  Rh  Rh12  1  0.170852  0.341704  0.132408  1
  Rh  Rh13  1  0.829148  0.658296  0.867592  1
  Rh  Rh14  1  0.658296  0.829148  0.132408  1
  Rh  Rh15  1  0.831555  0.663111  0.624797  1
  Rh  Rh16  1  0.341704  0.170852  0.867592  1
  Rh  Rh17  1  0.168445  0.336889  0.375203  1
  Rh  Rh18  1  0.170852  0.829148  0.132408  1
  Rh  Rh19  1  0.336889  0.168445  0.624797  1
  Rh  Rh20  1  0.829148  0.170852  0.867592  1
  Rh  Rh21  1  0.663111  0.831555  0.375203  1
  Rh  Rh22  1  0.831555  0.168445  0.624797  1
  Rh  Rh23  1  0.168445  0.831555  0.375203  1
