# generated using pymatgen
data_Sr4AcIr2
_symmetry_space_group_name_H-M   'P 1'
_cell_length_a   7.03090172
_cell_length_b   7.90978384
_cell_length_c   9.25050600
_cell_angle_alpha   96.74332287
_cell_angle_beta   112.33542130
_cell_angle_gamma   89.99999745
_symmetry_Int_Tables_number   1
_chemical_formula_structural   Sr4AcIr2
_chemical_formula_sum   'Sr8 Ac2 Ir4'
_cell_volume   472.00133293
_cell_formula_units_Z   2
loop_
 _symmetry_equiv_pos_site_id
 _symmetry_equiv_pos_as_xyz
  1  'x, y, z'
loop_
 _atom_site_type_symbol
 _atom_site_label
 _atom_site_symmetry_multiplicity
 _atom_site_fract_x
 _atom_site_fract_y
 _atom_site_fract_z
 _atom_site_occupancy
  Sr  Sr0  1  0.987655  0.915745  0.179028  1
  Sr  Sr1  1  0.808628  0.584255  0.820972  1
  Sr  Sr2  1  0.012345  0.084255  0.820972  1
  Sr  Sr3  1  0.191372  0.415745  0.179028  1
  Sr  Sr4  1  0.639191  0.820700  0.433884  1
  Sr  Sr5  1  0.205306  0.679300  0.566116  1
  Sr  Sr6  1  0.360809  0.179300  0.566116  1
  Sr  Sr7  1  0.794694  0.320700  0.433884  1
  Ac  Ac8  1  0.436518  0.750000  0.000000  1
  Ac  Ac9  1  0.563482  0.250000  0.000000  1
  Ir  Ir10  1  0.804957  0.574662  0.208534  1
  Ir  Ir11  1  0.596425  0.925338  0.791466  1
  Ir  Ir12  1  0.195043  0.425338  0.791466  1
  Ir  Ir13  1  0.403575  0.074662  0.208534  1
