# generated using pymatgen
data_SrCuAgSb2
_symmetry_space_group_name_H-M   'P 1'
_cell_length_a   4.63363300
_cell_length_b   4.63363300
_cell_length_c   11.37289800
_cell_angle_alpha   90.00000000
_cell_angle_beta   90.00000000
_cell_angle_gamma   90.00000000
_symmetry_Int_Tables_number   1
_chemical_formula_structural   SrCuAgSb2
_chemical_formula_sum   'Sr2 Cu2 Ag2 Sb4'
_cell_volume   244.18242950
_cell_formula_units_Z   2
loop_
 _symmetry_equiv_pos_site_id
 _symmetry_equiv_pos_as_xyz
  1  'x, y, z'
loop_
 _atom_site_type_symbol
 _atom_site_label
 _atom_site_symmetry_multiplicity
 _atom_site_fract_x
 _atom_site_fract_y
 _atom_site_fract_z
 _atom_site_occupancy
  Sr  Sr0  1  0.500000  0.000000  0.248961  1
  Sr  Sr1  1  0.000000  0.500000  0.751039  1
  Cu  Cu2  1  0.500000  0.000000  0.626116  1
  Cu  Cu3  1  0.000000  0.500000  0.373884  1
  Ag  Ag4  1  0.000000  0.000000  0.000000  1
  Ag  Ag5  1  0.500000  0.500000  0.000000  1
  Sb  Sb6  1  0.000000  0.500000  0.148821  1
  Sb  Sb7  1  0.500000  0.500000  0.500000  1
  Sb  Sb8  1  0.000000  0.000000  0.500000  1
  Sb  Sb9  1  0.500000  0.000000  0.851179  1
