# generated using pymatgen
data_Th4Hg2IrPd3
_symmetry_space_group_name_H-M   'P 1'
_cell_length_a   7.94603300
_cell_length_b   7.94603370
_cell_length_c   3.81640600
_cell_angle_alpha   90.00000000
_cell_angle_beta   90.00000000
_cell_angle_gamma   89.95277769
_symmetry_Int_Tables_number   1
_chemical_formula_structural   Th4Hg2IrPd3
_chemical_formula_sum   'Th4 Hg2 Ir1 Pd3'
_cell_volume   240.96567867
_cell_formula_units_Z   1
loop_
 _symmetry_equiv_pos_site_id
 _symmetry_equiv_pos_as_xyz
  1  'x, y, z'
loop_
 _atom_site_type_symbol
 _atom_site_label
 _atom_site_symmetry_multiplicity
 _atom_site_fract_x
 _atom_site_fract_y
 _atom_site_fract_z
 _atom_site_occupancy
  Th  Th0  1  0.671525  0.171525  0.500000  1
  Th  Th1  1  0.316507  0.816507  0.500000  1
  Th  Th2  1  0.178574  0.337439  0.500000  1
  Th  Th3  1  0.837439  0.678574  0.500000  1
  Hg  Hg4  1  0.999851  0.008236  0.000000  1
  Hg  Hg5  1  0.508236  0.499851  0.000000  1
  Ir  Ir6  1  0.122563  0.622563  0.000000  1
  Pd  Pd7  1  0.867102  0.367102  0.000000  1
  Pd  Pd8  1  0.625754  0.872446  0.000000  1
  Pd  Pd9  1  0.372446  0.125754  0.000000  1
