# generated using pymatgen
data_Ga(S8F)3
_symmetry_space_group_name_H-M   'P 1'
_cell_length_a   14.93449364
_cell_length_b   14.93449443
_cell_length_c   14.93449293
_cell_angle_alpha   118.75696260
_cell_angle_beta   118.75696535
_cell_angle_gamma   118.75696236
_symmetry_Int_Tables_number   1
_chemical_formula_structural   Ga(S8F)3
_chemical_formula_sum   'Ga1 S24 F3'
_cell_volume   959.29946309
_cell_formula_units_Z   1
loop_
 _symmetry_equiv_pos_site_id
 _symmetry_equiv_pos_as_xyz
  1  'x, y, z'
loop_
 _atom_site_type_symbol
 _atom_site_label
 _atom_site_symmetry_multiplicity
 _atom_site_fract_x
 _atom_site_fract_y
 _atom_site_fract_z
 _atom_site_occupancy
  Ga  Ga0  1  0.936408  0.936408  0.936408  1
  S  S1  1  0.805892  0.526510  0.526510  1
  S  S2  1  0.526510  0.526510  0.805892  1
  S  S3  1  0.526510  0.805892  0.526510  1
  S  S4  1  0.245406  0.376291  0.633656  1
  S  S5  1  0.350822  0.952249  0.350822  1
  S  S6  1  0.350822  0.350822  0.952249  1
  S  S7  1  0.952249  0.350822  0.350822  1
  S  S8  1  0.122189  0.735871  0.252495  1
  S  S9  1  0.252495  0.122189  0.735871  1
  S  S10  1  0.735871  0.252495  0.122189  1
  S  S11  1  0.735871  0.122189  0.252495  1
  S  S12  1  0.252495  0.735871  0.122189  1
  S  S13  1  0.122189  0.252495  0.735871  1
  S  S14  1  0.351532  0.883896  0.535252  1
  S  S15  1  0.535252  0.351532  0.883896  1
  S  S16  1  0.883896  0.535252  0.351532  1
  S  S17  1  0.883896  0.351532  0.535252  1
  S  S18  1  0.535252  0.883896  0.351532  1
  S  S19  1  0.351532  0.535252  0.883896  1
  S  S20  1  0.245406  0.633656  0.376291  1
  S  S21  1  0.376291  0.245406  0.633656  1
  S  S22  1  0.633656  0.376291  0.245406  1
  S  S23  1  0.633656  0.245406  0.376291  1
  S  S24  1  0.376291  0.633656  0.245406  1
  F  F25  1  0.856204  0.973351  0.973351  1
  F  F26  1  0.973351  0.973351  0.856204  1
  F  F27  1  0.973351  0.856204  0.973351  1
