# generated using pymatgen
data_Er4Tm6Si5Bi
_symmetry_space_group_name_H-M   'P 1'
_cell_length_a   8.46497106
_cell_length_b   8.46497013
_cell_length_c   6.26636000
_cell_angle_alpha   90.00000000
_cell_angle_beta   90.00000000
_cell_angle_gamma   120.27504060
_symmetry_Int_Tables_number   1
_chemical_formula_structural   Er4Tm6Si5Bi
_chemical_formula_sum   'Er4 Tm6 Si5 Bi1'
_cell_volume   387.78102417
_cell_formula_units_Z   1
loop_
 _symmetry_equiv_pos_site_id
 _symmetry_equiv_pos_as_xyz
  1  'x, y, z'
loop_
 _atom_site_type_symbol
 _atom_site_label
 _atom_site_symmetry_multiplicity
 _atom_site_fract_x
 _atom_site_fract_y
 _atom_site_fract_z
 _atom_site_occupancy
  Er  Er0  1  0.768723  0.768723  0.250000  1
  Er  Er1  1  0.239306  0.239306  0.750000  1
  Er  Er2  1  0.755671  0.998680  0.750000  1
  Er  Er3  1  0.998680  0.755671  0.750000  1
  Tm  Tm4  1  0.677033  0.330730  0.505010  1
  Tm  Tm5  1  0.330730  0.677033  0.505010  1
  Tm  Tm6  1  0.330730  0.677033  0.994990  1
  Tm  Tm7  1  0.677033  0.330730  0.994990  1
  Tm  Tm8  1  0.239086  0.984193  0.250000  1
  Tm  Tm9  1  0.984193  0.239086  0.250000  1
  Si  Si10  1  0.603812  0.998718  0.250000  1
  Si  Si11  1  0.998718  0.603812  0.250000  1
  Si  Si12  1  0.606993  0.606993  0.750000  1
  Si  Si13  1  0.393540  0.002645  0.750000  1
  Si  Si14  1  0.002645  0.393540  0.750000  1
  Bi  Bi15  1  0.393106  0.393106  0.250000  1
