# generated using pymatgen
data_Tb6Dy11Er3Pb16
_symmetry_space_group_name_H-M   'P 1'
_cell_length_a   8.21303702
_cell_length_b   8.29622578
_cell_length_c   15.66448720
_cell_angle_alpha   90.01739214
_cell_angle_beta   90.00598513
_cell_angle_gamma   90.02092283
_symmetry_Int_Tables_number   1
_chemical_formula_structural   Tb6Dy11Er3Pb16
_chemical_formula_sum   'Tb6 Dy11 Er3 Pb16'
_cell_volume   1067.33431892
_cell_formula_units_Z   1
loop_
 _symmetry_equiv_pos_site_id
 _symmetry_equiv_pos_as_xyz
  1  'x, y, z'
loop_
 _atom_site_type_symbol
 _atom_site_label
 _atom_site_symmetry_multiplicity
 _atom_site_fract_x
 _atom_site_fract_y
 _atom_site_fract_z
 _atom_site_occupancy
  Tb  Tb0  1  0.465290  0.676637  0.399863  1
  Tb  Tb1  1  0.965323  0.823369  0.100049  1
  Tb  Tb2  1  0.465303  0.676650  0.100123  1
  Tb  Tb3  1  0.965316  0.823356  0.399992  1
  Tb  Tb4  1  0.534762  0.323161  0.599977  1
  Tb  Tb5  1  0.034511  0.176463  0.900010  1
  Dy  Dy6  1  0.377556  0.840961  0.879399  1
  Dy  Dy7  1  0.877134  0.659288  0.620572  1
  Dy  Dy8  1  0.622624  0.159187  0.379359  1
  Dy  Dy9  1  0.122600  0.340801  0.120779  1
  Dy  Dy10  1  0.622625  0.159198  0.120596  1
  Dy  Dy11  1  0.122591  0.340801  0.379301  1
  Dy  Dy12  1  0.377496  0.841001  0.620611  1
  Dy  Dy13  1  0.877075  0.659263  0.879405  1
  Dy  Dy14  1  0.534859  0.323228  0.899901  1
  Dy  Dy15  1  0.034604  0.176395  0.600099  1
  Dy  Dy16  1  0.208927  0.503831  0.750007  1
  Er  Er17  1  0.709074  0.995990  0.749993  1
  Er  Er18  1  0.791064  0.495832  0.249978  1
  Er  Er19  1  0.291099  0.003989  0.249964  1
  Pb  Pb20  1  0.281200  0.033177  0.043099  1
  Pb  Pb21  1  0.781241  0.466918  0.456892  1
  Pb  Pb22  1  0.718971  0.967059  0.543032  1
  Pb  Pb23  1  0.219026  0.533129  0.957294  1
  Pb  Pb24  1  0.718581  0.966996  0.956988  1
  Pb  Pb25  1  0.218623  0.533202  0.542676  1
  Pb  Pb26  1  0.281042  0.033368  0.457058  1
  Pb  Pb27  1  0.781071  0.466742  0.042964  1
  Pb  Pb28  1  0.573282  0.626687  0.749993  1
  Pb  Pb29  1  0.072466  0.874224  0.750001  1
  Pb  Pb30  1  0.427429  0.373576  0.249991  1
  Pb  Pb31  1  0.927433  0.126360  0.250028  1
  Pb  Pb32  1  0.346540  0.152111  0.750104  1
  Pb  Pb33  1  0.846005  0.346777  0.749886  1
  Pb  Pb34  1  0.653686  0.847244  0.250003  1
  Pb  Pb35  1  0.153571  0.653032  0.250013  1
