# generated using pymatgen
data_Yb3DyHo4(B6Ru)4
_symmetry_space_group_name_H-M   'P 1'
_cell_length_a   3.65357100
_cell_length_b   9.13570451
_cell_length_c   11.52413700
_cell_angle_alpha   89.92201278
_cell_angle_beta   90.00000000
_cell_angle_gamma   90.00000000
_symmetry_Int_Tables_number   1
_chemical_formula_structural   Yb3DyHo4(B6Ru)4
_chemical_formula_sum   'Yb3 Dy1 Ho4 B24 Ru4'
_cell_volume   384.65165533
_cell_formula_units_Z   1
loop_
 _symmetry_equiv_pos_site_id
 _symmetry_equiv_pos_as_xyz
  1  'x, y, z'
loop_
 _atom_site_type_symbol
 _atom_site_label
 _atom_site_symmetry_multiplicity
 _atom_site_fract_x
 _atom_site_fract_y
 _atom_site_fract_z
 _atom_site_occupancy
  Yb  Yb0  1  0.000000  0.324903  0.414733  1
  Yb  Yb1  1  0.000000  0.675070  0.584663  1
  Yb  Yb2  1  0.000000  0.823597  0.086001  1
  Dy  Dy3  1  0.000000  0.175637  0.915152  1
  Ho  Ho4  1  0.000000  0.940648  0.366498  1
  Ho  Ho5  1  0.000000  0.058401  0.631394  1
  Ho  Ho6  1  0.000000  0.442742  0.133401  1
  Ho  Ho7  1  0.000000  0.559080  0.867575  1
  B  B8  1  0.500000  0.553364  0.432967  1
  B  B9  1  0.500000  0.446064  0.567787  1
  B  B10  1  0.500000  0.053848  0.066999  1
  B  B11  1  0.500000  0.945827  0.933190  1
  B  B12  1  0.500000  0.748096  0.417459  1
  B  B13  1  0.500000  0.251788  0.582657  1
  B  B14  1  0.500000  0.248752  0.082270  1
  B  B15  1  0.500000  0.752019  0.917753  1
  B  B16  1  0.500000  0.790255  0.264206  1
  B  B17  1  0.500000  0.209200  0.735902  1
  B  B18  1  0.500000  0.290427  0.235097  1
  B  B19  1  0.500000  0.710549  0.764739  1
  B  B20  1  0.500000  0.630778  0.186118  1
  B  B21  1  0.500000  0.369250  0.814859  1
  B  B22  1  0.500000  0.130932  0.313488  1
  B  B23  1  0.500000  0.869430  0.685430  1
  B  B24  1  0.500000  0.983127  0.210385  1
  B  B25  1  0.500000  0.016796  0.788783  1
  B  B26  1  0.500000  0.483876  0.289493  1
  B  B27  1  0.500000  0.516065  0.711302  1
  B  B28  1  0.500000  0.599190  0.027508  1
  B  B29  1  0.500000  0.400466  0.972722  1
  B  B30  1  0.500000  0.096958  0.472550  1
  B  B31  1  0.500000  0.902636  0.526329  1
  Ru  Ru32  1  0.000000  0.638973  0.320480  1
  Ru  Ru33  1  0.000000  0.359967  0.680891  1
  Ru  Ru34  1  0.000000  0.138376  0.179030  1
  Ru  Ru35  1  0.000000  0.862911  0.820187  1
