# generated using pymatgen
data_Pr6Al3ZnPt13
_symmetry_space_group_name_H-M   'P 1'
_cell_length_a   8.33867670
_cell_length_b   8.42608245
_cell_length_c   8.42608200
_cell_angle_alpha   109.68039603
_cell_angle_beta   109.26123253
_cell_angle_gamma   109.26122638
_symmetry_Int_Tables_number   1
_chemical_formula_structural   Pr6Al3ZnPt13
_chemical_formula_sum   'Pr6 Al3 Zn1 Pt13'
_cell_volume   456.92567646
_cell_formula_units_Z   1
loop_
 _symmetry_equiv_pos_site_id
 _symmetry_equiv_pos_as_xyz
  1  'x, y, z'
loop_
 _atom_site_type_symbol
 _atom_site_label
 _atom_site_symmetry_multiplicity
 _atom_site_fract_x
 _atom_site_fract_y
 _atom_site_fract_z
 _atom_site_occupancy
  Pr  Pr0  1  0.697466  0.699989  0.000000  1
  Pr  Pr1  1  0.302534  0.000000  0.300011  1
  Pr  Pr2  1  0.997477  0.300011  0.300011  1
  Pr  Pr3  1  0.302534  0.300011  0.000000  1
  Pr  Pr4  1  0.697466  0.000000  0.699989  1
  Pr  Pr5  1  0.002523  0.699989  0.699989  1
  Al  Al6  1  0.000000  0.000000  0.500000  1
  Al  Al7  1  0.000000  0.500000  0.000000  1
  Al  Al8  1  0.500000  0.500000  0.500000  1
  Zn  Zn9  1  0.500000  0.000000  0.000000  1
  Pt  Pt10  1  0.319011  0.319011  0.638020  1
  Pt  Pt11  1  0.679784  0.000000  0.325173  1
  Pt  Pt12  1  0.000000  0.680989  0.319011  1
  Pt  Pt13  1  0.679784  0.325173  0.000000  1
  Pt  Pt14  1  0.319011  0.638020  0.319011  1
  Pt  Pt15  1  0.000000  0.319011  0.680989  1
  Pt  Pt16  1  0.320216  0.674827  0.000000  1
  Pt  Pt17  1  0.320216  0.000000  0.674827  1
  Pt  Pt18  1  0.645388  0.325173  0.325173  1
  Pt  Pt19  1  0.680989  0.680989  0.361980  1
  Pt  Pt20  1  0.680989  0.361980  0.680989  1
  Pt  Pt21  1  0.354612  0.674827  0.674827  1
  Pt  Pt22  1  0.000000  0.000000  0.000000  1
