# generated using pymatgen
data_Ho3Er7Sn5Bi
_symmetry_space_group_name_H-M   'P 1'
_cell_length_a   8.91407400
_cell_length_b   8.93078437
_cell_length_c   6.49066100
_cell_angle_alpha   90.00000000
_cell_angle_beta   90.00000000
_cell_angle_gamma   119.93812385
_symmetry_Int_Tables_number   1
_chemical_formula_structural   Ho3Er7Sn5Bi
_chemical_formula_sum   'Ho3 Er7 Sn5 Bi1'
_cell_volume   447.77087829
_cell_formula_units_Z   1
loop_
 _symmetry_equiv_pos_site_id
 _symmetry_equiv_pos_as_xyz
  1  'x, y, z'
loop_
 _atom_site_type_symbol
 _atom_site_label
 _atom_site_symmetry_multiplicity
 _atom_site_fract_x
 _atom_site_fract_y
 _atom_site_fract_z
 _atom_site_occupancy
  Ho  Ho0  1  0.993593  0.757666  0.750000  1
  Ho  Ho1  1  0.765112  0.000000  0.750000  1
  Ho  Ho2  1  0.235927  0.242334  0.750000  1
  Er  Er3  1  0.000533  0.238791  0.250000  1
  Er  Er4  1  0.761743  0.761209  0.250000  1
  Er  Er5  1  0.237308  0.000000  0.250000  1
  Er  Er6  1  0.332941  0.662406  0.498139  1
  Er  Er7  1  0.670536  0.337594  0.001861  1
  Er  Er8  1  0.670536  0.337594  0.498139  1
  Er  Er9  1  0.332941  0.662406  0.001861  1
  Sn  Sn10  1  0.394872  0.392490  0.250000  1
  Sn  Sn11  1  0.002384  0.607510  0.250000  1
  Sn  Sn12  1  0.999156  0.395470  0.750000  1
  Sn  Sn13  1  0.603686  0.604530  0.750000  1
  Sn  Sn14  1  0.605696  0.000000  0.250000  1
  Bi  Bi15  1  0.393033  0.000000  0.750000  1
