# generated using pymatgen
data_Ho20Tc3RuPt8
_symmetry_space_group_name_H-M   'P 1'
_cell_length_a   10.97738800
_cell_length_b   10.97738800
_cell_length_c   6.45453200
_cell_angle_alpha   90.00000000
_cell_angle_beta   90.00000000
_cell_angle_gamma   90.00000000
_symmetry_Int_Tables_number   1
_chemical_formula_structural   Ho20Tc3RuPt8
_chemical_formula_sum   'Ho20 Tc3 Ru1 Pt8'
_cell_volume   777.79077491
_cell_formula_units_Z   1
loop_
 _symmetry_equiv_pos_site_id
 _symmetry_equiv_pos_as_xyz
  1  'x, y, z'
loop_
 _atom_site_type_symbol
 _atom_site_label
 _atom_site_symmetry_multiplicity
 _atom_site_fract_x
 _atom_site_fract_y
 _atom_site_fract_z
 _atom_site_occupancy
  Ho  Ho0  1  0.297468  0.085773  0.372110  1
  Ho  Ho1  1  0.297674  0.915071  0.872392  1
  Ho  Ho2  1  0.702326  0.084929  0.872392  1
  Ho  Ho3  1  0.702532  0.914227  0.372110  1
  Ho  Ho4  1  0.584929  0.797674  0.872392  1
  Ho  Ho5  1  0.585773  0.202532  0.372110  1
  Ho  Ho6  1  0.414227  0.797468  0.372110  1
  Ho  Ho7  1  0.415071  0.202326  0.872392  1
  Ho  Ho8  1  0.203520  0.413773  0.629391  1
  Ho  Ho9  1  0.202004  0.585864  0.126597  1
  Ho  Ho10  1  0.797996  0.414136  0.126597  1
  Ho  Ho11  1  0.796480  0.586227  0.629391  1
  Ho  Ho12  1  0.914136  0.702004  0.126597  1
  Ho  Ho13  1  0.913773  0.296480  0.629391  1
  Ho  Ho14  1  0.086227  0.703520  0.629391  1
  Ho  Ho15  1  0.085864  0.297996  0.126597  1
  Ho  Ho16  1  0.000000  0.000000  0.498368  1
  Ho  Ho17  1  0.000000  0.000000  0.998476  1
  Ho  Ho18  1  0.500000  0.500000  0.998476  1
  Ho  Ho19  1  0.500000  0.500000  0.498368  1
  Tc  Tc20  1  0.500000  0.000000  0.127069  1
  Tc  Tc21  1  0.500000  0.000000  0.627311  1
  Tc  Tc22  1  0.000000  0.500000  0.873605  1
  Ru  Ru23  1  0.000000  0.500000  0.377915  1
  Pt  Pt24  1  0.849044  0.152737  0.249544  1
  Pt  Pt25  1  0.848657  0.847219  0.750068  1
  Pt  Pt26  1  0.151343  0.152781  0.750068  1
  Pt  Pt27  1  0.150956  0.847263  0.249544  1
  Pt  Pt28  1  0.652781  0.348657  0.750068  1
  Pt  Pt29  1  0.652737  0.650956  0.249544  1
  Pt  Pt30  1  0.347263  0.349044  0.249544  1
  Pt  Pt31  1  0.347219  0.651343  0.750068  1
