# generated using pymatgen
data_CaLa4TmSi4
_symmetry_space_group_name_H-M   'P 1'
_cell_length_a   7.71445300
_cell_length_b   7.71445300
_cell_length_c   4.51711300
_cell_angle_alpha   90.00000000
_cell_angle_beta   90.00000000
_cell_angle_gamma   90.00000000
_symmetry_Int_Tables_number   1
_chemical_formula_structural   CaLa4TmSi4
_chemical_formula_sum   'Ca1 La4 Tm1 Si4'
_cell_volume   268.82597519
_cell_formula_units_Z   1
loop_
 _symmetry_equiv_pos_site_id
 _symmetry_equiv_pos_as_xyz
  1  'x, y, z'
loop_
 _atom_site_type_symbol
 _atom_site_label
 _atom_site_symmetry_multiplicity
 _atom_site_fract_x
 _atom_site_fract_y
 _atom_site_fract_z
 _atom_site_occupancy
  Ca  Ca0  1  0.500000  0.500000  0.000000  1
  La  La1  1  0.676421  0.179474  0.500000  1
  La  La2  1  0.323579  0.820526  0.500000  1
  La  La3  1  0.179474  0.323579  0.500000  1
  La  La4  1  0.820526  0.676421  0.500000  1
  Tm  Tm5  1  0.000000  0.000000  0.000000  1
  Si  Si6  1  0.104493  0.619039  0.000000  1
  Si  Si7  1  0.895507  0.380961  0.000000  1
  Si  Si8  1  0.619039  0.895507  0.000000  1
  Si  Si9  1  0.380961  0.104493  0.000000  1
