# generated using pymatgen
data_Sr2MgMn3V2(PO4)6
_symmetry_space_group_name_H-M   'P 1'
_cell_length_a   9.24052742
_cell_length_b   9.24052924
_cell_length_c   9.23904500
_cell_angle_alpha   137.59666066
_cell_angle_beta   110.24978086
_cell_angle_gamma   85.16104507
_symmetry_Int_Tables_number   1
_chemical_formula_structural   Sr2MgMn3V2(PO4)6
_chemical_formula_sum   'Sr2 Mg1 Mn3 V2 P6 O24'
_cell_volume   480.48322414
_cell_formula_units_Z   1
loop_
 _symmetry_equiv_pos_site_id
 _symmetry_equiv_pos_as_xyz
  1  'x, y, z'
loop_
 _atom_site_type_symbol
 _atom_site_label
 _atom_site_symmetry_multiplicity
 _atom_site_fract_x
 _atom_site_fract_y
 _atom_site_fract_z
 _atom_site_occupancy
  Sr  Sr0  1  0.750236  0.148465  0.397947  1
  Sr  Sr1  1  0.250518  0.852288  0.602053  1
  Mg  Mg2  1  0.617803  0.617803  0.500000  1
  Mn  Mn3  1  0.385166  0.385166  0.500000  1
  Mn  Mn4  1  0.117216  0.617216  0.000000  1
  Mn  Mn5  1  0.882178  0.382178  0.000000  1
  V  V6  1  0.999189  0.000584  0.001163  1
  V  V7  1  0.499421  0.498026  0.998837  1
  P  P8  1  0.325955  0.825955  0.000000  1
  P  P9  1  0.750043  0.658595  0.905801  1
  P  P10  1  0.175116  0.175116  0.500000  1
  P  P11  1  0.673567  0.173567  0.000000  1
  P  P12  1  0.252794  0.344242  0.094199  1
  P  P13  1  0.821372  0.821372  0.500000  1
  O  O14  1  0.573451  0.930046  0.777651  1
  O  O15  1  0.069626  0.291455  0.635022  1
  O  O16  1  0.845390  0.887238  0.048082  1
  O  O17  1  0.343816  0.709423  0.777480  1
  O  O18  1  0.140326  0.202063  0.341081  1
  O  O19  1  0.339156  0.297308  0.951918  1
  O  O20  1  0.635830  0.694357  0.340139  1
  O  O21  1  0.854218  0.795690  0.659861  1
  O  O22  1  0.375002  0.491688  0.353195  1
  O  O23  1  0.156433  0.934604  0.364978  1
  O  O24  1  0.637218  0.294563  0.934258  1
  O  O25  1  0.638493  0.521807  0.646805  1
  O  O26  1  0.860305  0.202961  0.065742  1
  O  O27  1  0.839858  0.061447  0.633643  1
  O  O28  1  0.361516  0.701491  0.061272  1
  O  O29  1  0.360981  0.299245  0.658919  1
  O  O30  1  0.655673  0.695521  0.035355  1
  O  O31  1  0.927805  0.706215  0.366357  1
  O  O32  1  0.160166  0.120316  0.964645  1
  O  O33  1  0.862741  0.509149  0.872282  1
  O  O34  1  0.136866  0.490457  0.127718  1
  O  O35  1  0.140219  0.800244  0.938728  1
  O  O36  1  0.652395  0.295800  0.222349  1
  O  O37  1  0.431943  0.066336  0.222520  1
