# generated using pymatgen
data_Hf18Re3AsPW5
_symmetry_space_group_name_H-M   'P 1'
_cell_length_a   8.67277600
_cell_length_b   8.67277571
_cell_length_c   8.62649500
_cell_angle_alpha   90.00000000
_cell_angle_beta   90.00000000
_cell_angle_gamma   120.00000111
_symmetry_Int_Tables_number   1
_chemical_formula_structural   Hf18Re3AsPW5
_chemical_formula_sum   'Hf18 Re3 As1 P1 W5'
_cell_volume   561.92874200
_cell_formula_units_Z   1
loop_
 _symmetry_equiv_pos_site_id
 _symmetry_equiv_pos_as_xyz
  1  'x, y, z'
loop_
 _atom_site_type_symbol
 _atom_site_label
 _atom_site_symmetry_multiplicity
 _atom_site_fract_x
 _atom_site_fract_y
 _atom_site_fract_z
 _atom_site_occupancy
  Hf  Hf0  1  0.194219  0.805781  0.456055  1
  Hf  Hf1  1  0.194219  0.388437  0.456055  1
  Hf  Hf2  1  0.611563  0.805781  0.456055  1
  Hf  Hf3  1  0.803487  0.196513  0.551979  1
  Hf  Hf4  1  0.803487  0.606976  0.551979  1
  Hf  Hf5  1  0.393024  0.196513  0.551979  1
  Hf  Hf6  1  0.803487  0.196513  0.948021  1
  Hf  Hf7  1  0.803487  0.606976  0.948021  1
  Hf  Hf8  1  0.393024  0.196513  0.948021  1
  Hf  Hf9  1  0.194219  0.805781  0.043945  1
  Hf  Hf10  1  0.194219  0.388437  0.043945  1
  Hf  Hf11  1  0.611563  0.805781  0.043945  1
  Hf  Hf12  1  0.539364  0.460636  0.250000  1
  Hf  Hf13  1  0.539364  0.078727  0.250000  1
  Hf  Hf14  1  0.921273  0.460636  0.250000  1
  Hf  Hf15  1  0.459529  0.540471  0.750000  1
  Hf  Hf16  1  0.459529  0.919060  0.750000  1
  Hf  Hf17  1  0.080940  0.540471  0.750000  1
  Re  Re18  1  0.110414  0.889586  0.750000  1
  Re  Re19  1  0.110414  0.220831  0.750000  1
  Re  Re20  1  0.779169  0.889586  0.750000  1
  As  As21  1  0.333333  0.666667  0.250000  1
  P  P22  1  0.666667  0.333333  0.750000  1
  W  W23  1  0.889643  0.110357  0.250000  1
  W  W24  1  0.889643  0.779285  0.250000  1
  W  W25  1  0.220715  0.110357  0.250000  1
  W  W26  1  0.000000  0.000000  0.501831  1
  W  W27  1  0.000000  0.000000  0.998169  1
