# generated using pymatgen
data_Sc12Re2PbI16
_symmetry_space_group_name_H-M   'P 1'
_cell_length_a   9.41828408
_cell_length_b   12.16438340
_cell_length_c   12.84123200
_cell_angle_alpha   117.07457478
_cell_angle_beta   101.34367475
_cell_angle_gamma   100.74565793
_symmetry_Int_Tables_number   1
_chemical_formula_structural   Sc12Re2PbI16
_chemical_formula_sum   'Sc12 Re2 Pb1 I16'
_cell_volume   1218.51698801
_cell_formula_units_Z   1
loop_
 _symmetry_equiv_pos_site_id
 _symmetry_equiv_pos_as_xyz
  1  'x, y, z'
loop_
 _atom_site_type_symbol
 _atom_site_label
 _atom_site_symmetry_multiplicity
 _atom_site_fract_x
 _atom_site_fract_y
 _atom_site_fract_z
 _atom_site_occupancy
  Sc  Sc0  1  0.109456  0.260882  0.353075  1
  Sc  Sc1  1  0.890544  0.739118  0.646925  1
  Sc  Sc2  1  0.754589  0.536248  0.325392  1
  Sc  Sc3  1  0.245411  0.463752  0.674608  1
  Sc  Sc4  1  0.303724  0.739351  0.646680  1
  Sc  Sc5  1  0.696276  0.260649  0.353320  1
  Sc  Sc6  1  0.169523  0.536333  0.325303  1
  Sc  Sc7  1  0.830477  0.463667  0.674697  1
  Sc  Sc8  1  0.409977  0.364436  0.286271  1
  Sc  Sc9  1  0.590023  0.635564  0.713729  1
  Sc  Sc10  1  0.460514  0.317381  0.517657  1
  Sc  Sc11  1  0.539486  0.682619  0.482343  1
  Re  Re12  1  0.339738  0.500102  0.499928  1
  Re  Re13  1  0.660263  0.499898  0.500072  1
  Pb  Pb14  1  0.000000  0.500000  0.500000  1
  I  I15  1  0.395883  0.738361  0.881206  1
  I  I16  1  0.604117  0.261639  0.118794  1
  I  I17  1  0.182081  0.950346  0.775164  1
  I  I18  1  0.817919  0.049654  0.224836  1
  I  I19  1  0.336529  0.095871  0.252453  1
  I  I20  1  0.663471  0.904129  0.747547  1
  I  I21  1  0.563782  0.438086  0.796580  1
  I  I22  1  0.436218  0.561914  0.203420  1
  I  I23  1  0.306644  0.825211  0.463606  1
  I  I24  1  0.693356  0.174789  0.536394  1
  I  I25  1  0.168379  0.175256  0.535829  1
  I  I26  1  0.831621  0.824744  0.464171  1
  I  I27  1  0.928311  0.570168  0.170304  1
  I  I28  1  0.071689  0.429832  0.829696  1
  I  I29  1  0.922589  0.738108  0.881402  1
  I  I30  1  0.077411  0.261892  0.118598  1
