# generated using pymatgen
data_LaPrYTaO7
_symmetry_space_group_name_H-M   'P 1'
_cell_length_a   6.64366308
_cell_length_b   6.64366176
_cell_length_c   7.72210300
_cell_angle_alpha   90.00000000
_cell_angle_beta   90.00000000
_cell_angle_gamma   109.01141833
_symmetry_Int_Tables_number   1
_chemical_formula_structural   LaPrYTaO7
_chemical_formula_sum   'La2 Pr2 Y2 Ta2 O14'
_cell_volume   322.24853991
_cell_formula_units_Z   2
loop_
 _symmetry_equiv_pos_site_id
 _symmetry_equiv_pos_as_xyz
  1  'x, y, z'
loop_
 _atom_site_type_symbol
 _atom_site_label
 _atom_site_symmetry_multiplicity
 _atom_site_fract_x
 _atom_site_fract_y
 _atom_site_fract_z
 _atom_site_occupancy
  La  La0  1  0.484307  0.484307  0.500000  1
  La  La1  1  0.484307  0.484307  0.000000  1
  Pr  Pr2  1  0.535980  0.996803  0.750000  1
  Pr  Pr3  1  0.996803  0.535980  0.250000  1
  Y  Y4  1  0.469360  0.998067  0.250000  1
  Y  Y5  1  0.998067  0.469360  0.750000  1
  Ta  Ta6  1  0.999186  0.999186  0.500000  1
  Ta  Ta7  1  0.999186  0.999186  0.000000  1
  O  O8  1  0.692310  0.941913  0.460621  1
  O  O9  1  0.941913  0.692310  0.539379  1
  O  O10  1  0.692310  0.941913  0.039379  1
  O  O11  1  0.941913  0.692310  0.960621  1
  O  O12  1  0.319478  0.070869  0.520943  1
  O  O13  1  0.070869  0.319478  0.479057  1
  O  O14  1  0.319478  0.070869  0.979057  1
  O  O15  1  0.070869  0.319478  0.020943  1
  O  O16  1  0.940690  0.056257  0.750000  1
  O  O17  1  0.056257  0.940690  0.250000  1
  O  O18  1  0.355956  0.622514  0.750000  1
  O  O19  1  0.622514  0.355956  0.250000  1
  O  O20  1  0.643943  0.364304  0.750000  1
  O  O21  1  0.364304  0.643943  0.250000  1
