# generated using pymatgen
data_Ba6PrY(BO3)6
_symmetry_space_group_name_H-M   'P 1'
_cell_length_a   8.30530593
_cell_length_b   8.30530663
_cell_length_c   8.30530518
_cell_angle_alpha   105.59235438
_cell_angle_beta   105.59236253
_cell_angle_gamma   105.59236393
_symmetry_Int_Tables_number   1
_chemical_formula_structural   Ba6PrY(BO3)6
_chemical_formula_sum   'Ba6 Pr1 Y1 B6 O18'
_cell_volume   494.28123437
_cell_formula_units_Z   1
loop_
 _symmetry_equiv_pos_site_id
 _symmetry_equiv_pos_as_xyz
  1  'x, y, z'
loop_
 _atom_site_type_symbol
 _atom_site_label
 _atom_site_symmetry_multiplicity
 _atom_site_fract_x
 _atom_site_fract_y
 _atom_site_fract_z
 _atom_site_occupancy
  Ba  Ba0  1  0.355710  0.731075  0.847655  1
  Ba  Ba1  1  0.847655  0.355710  0.731075  1
  Ba  Ba2  1  0.731075  0.847655  0.355710  1
  Ba  Ba3  1  0.644290  0.268925  0.152345  1
  Ba  Ba4  1  0.152345  0.644290  0.268925  1
  Ba  Ba5  1  0.268925  0.152345  0.644290  1
  Pr  Pr6  1  0.000000  0.000000  0.000000  1
  Y  Y7  1  0.500000  0.500000  0.500000  1
  B  B8  1  0.707881  0.614614  0.954638  1
  B  B9  1  0.954638  0.707881  0.614614  1
  B  B10  1  0.614614  0.954638  0.707881  1
  B  B11  1  0.045362  0.292119  0.385386  1
  B  B12  1  0.385386  0.045362  0.292119  1
  B  B13  1  0.292119  0.385386  0.045362  1
  O  O14  1  0.051122  0.806097  0.538828  1
  O  O15  1  0.538828  0.051122  0.806097  1
  O  O16  1  0.428475  0.493587  0.213981  1
  O  O17  1  0.493587  0.213981  0.428475  1
  O  O18  1  0.213981  0.428475  0.493587  1
  O  O19  1  0.786019  0.571525  0.506413  1
  O  O20  1  0.571525  0.506413  0.786019  1
  O  O21  1  0.506413  0.786019  0.571525  1
  O  O22  1  0.261303  0.201757  0.979240  1
  O  O23  1  0.201757  0.979240  0.261303  1
  O  O24  1  0.979240  0.261303  0.201757  1
  O  O25  1  0.738697  0.798243  0.020760  1
  O  O26  1  0.798243  0.020760  0.738697  1
  O  O27  1  0.020760  0.738697  0.798243  1
  O  O28  1  0.193903  0.461172  0.948878  1
  O  O29  1  0.461172  0.948878  0.193903  1
  O  O30  1  0.948878  0.193903  0.461172  1
  O  O31  1  0.806097  0.538828  0.051122  1
