# generated using pymatgen
data_Sn4P4Se11S
_symmetry_space_group_name_H-M   'P 1'
_cell_length_a   7.91520839
_cell_length_b   6.99962430
_cell_length_c   12.03275012
_cell_angle_alpha   55.34975823
_cell_angle_beta   89.79216166
_cell_angle_gamma   89.88481544
_symmetry_Int_Tables_number   1
_chemical_formula_structural   Sn4P4Se11S
_chemical_formula_sum   'Sn4 P4 Se11 S1'
_cell_volume   548.41326823
_cell_formula_units_Z   1
loop_
 _symmetry_equiv_pos_site_id
 _symmetry_equiv_pos_as_xyz
  1  'x, y, z'
loop_
 _atom_site_type_symbol
 _atom_site_label
 _atom_site_symmetry_multiplicity
 _atom_site_fract_x
 _atom_site_fract_y
 _atom_site_fract_z
 _atom_site_occupancy
  Sn  Sn0  1  0.885972  0.802932  0.207812  1
  Sn  Sn1  1  0.367539  0.258782  0.208641  1
  Sn  Sn2  1  0.114492  0.799113  0.710533  1
  Sn  Sn3  1  0.629043  0.258405  0.709221  1
  P  P4  1  0.642928  0.874644  0.566812  1
  P  P5  1  0.356934  0.872844  0.066759  1
  P  P6  1  0.145808  0.119396  0.938637  1
  P  P7  1  0.851119  0.125570  0.435600  1
  Se  Se8  1  0.746531  0.373415  0.232016  1
  Se  Se9  1  0.449148  0.705976  0.967620  1
  Se  Se10  1  0.238710  0.622655  0.266171  1
  Se  Se11  1  0.056929  0.902281  0.445704  1
  Se  Se12  1  0.552949  0.105393  0.058714  1
  Se  Se13  1  0.059576  0.273841  0.048323  1
  Se  Se14  1  0.249548  0.367325  0.733688  1
  Se  Se15  1  0.940022  0.272649  0.547886  1
  Se  Se16  1  0.550949  0.705044  0.469357  1
  Se  Se17  1  0.446383  0.106667  0.560141  1
  Se  Se18  1  0.760013  0.626259  0.765997  1
  S  S19  1  0.955408  0.913811  0.950764  1
