# generated using pymatgen
data_ReAgN2
_symmetry_space_group_name_H-M   'P 1'
_cell_length_a   2.87778051
_cell_length_b   4.98709195
_cell_length_c   13.52318600
_cell_angle_alpha   90.00000000
_cell_angle_beta   90.00000000
_cell_angle_gamma   29.94756186
_symmetry_Int_Tables_number   1
_chemical_formula_structural   ReAgN2
_chemical_formula_sum   'Re2 Ag2 N4'
_cell_volume   96.88686310
_cell_formula_units_Z   2
loop_
 _symmetry_equiv_pos_site_id
 _symmetry_equiv_pos_as_xyz
  1  'x, y, z'
loop_
 _atom_site_type_symbol
 _atom_site_label
 _atom_site_symmetry_multiplicity
 _atom_site_fract_x
 _atom_site_fract_y
 _atom_site_fract_z
 _atom_site_occupancy
  Re  Re0  1  0.000000  0.326954  0.250000  1
  Re  Re1  1  0.000000  0.673046  0.750000  1
  Ag  Ag2  1  0.000000  0.000000  0.500000  1
  Ag  Ag3  1  0.000000  0.000000  0.000000  1
  N  N4  1  0.000000  0.006642  0.658868  1
  N  N5  1  0.000000  0.993358  0.341132  1
  N  N6  1  0.000000  0.006642  0.841132  1
  N  N7  1  0.000000  0.993358  0.158868  1
