# generated using pymatgen
data_Y3ErGa20Os5Ru
_symmetry_space_group_name_H-M   'P 1'
_cell_length_a   8.92267853
_cell_length_b   8.92246064
_cell_length_c   6.43314100
_cell_angle_alpha   90.00000000
_cell_angle_beta   90.00000000
_cell_angle_gamma   90.04143118
_symmetry_Int_Tables_number   1
_chemical_formula_structural   Y3ErGa20Os5Ru
_chemical_formula_sum   'Y3 Er1 Ga20 Os5 Ru1'
_cell_volume   512.15668267
_cell_formula_units_Z   1
loop_
 _symmetry_equiv_pos_site_id
 _symmetry_equiv_pos_as_xyz
  1  'x, y, z'
loop_
 _atom_site_type_symbol
 _atom_site_label
 _atom_site_symmetry_multiplicity
 _atom_site_fract_x
 _atom_site_fract_y
 _atom_site_fract_z
 _atom_site_occupancy
  Y  Y0  1  0.683014  0.183065  0.000000  1
  Y  Y1  1  0.317130  0.817177  0.000000  1
  Y  Y2  1  0.816710  0.683057  0.000000  1
  Er  Er3  1  0.183253  0.316525  0.000000  1
  Ga  Ga4  1  0.938422  0.206605  0.293862  1
  Ga  Ga5  1  0.706227  0.438047  0.294415  1
  Ga  Ga6  1  0.500623  0.000713  0.288115  1
  Ga  Ga7  1  0.561168  0.706201  0.706097  1
  Ga  Ga8  1  0.293783  0.560626  0.706657  1
  Ga  Ga9  1  0.793249  0.939388  0.294004  1
  Ga  Ga10  1  0.938422  0.206605  0.706138  1
  Ga  Ga11  1  0.293783  0.560626  0.293343  1
  Ga  Ga12  1  0.060993  0.794188  0.293868  1
  Ga  Ga13  1  0.706227  0.438047  0.705585  1
  Ga  Ga14  1  0.438638  0.292720  0.706676  1
  Ga  Ga15  1  0.060993  0.794188  0.706132  1
  Ga  Ga16  1  0.206755  0.061905  0.706751  1
  Ga  Ga17  1  0.793249  0.939388  0.705996  1
  Ga  Ga18  1  0.206755  0.061905  0.293249  1
  Ga  Ga19  1  0.000100  0.499601  0.713542  1
  Ga  Ga20  1  0.000100  0.499601  0.286458  1
  Ga  Ga21  1  0.561168  0.706201  0.293903  1
  Ga  Ga22  1  0.438638  0.292720  0.293324  1
  Ga  Ga23  1  0.500623  0.000713  0.711885  1
  Os  Os24  1  0.822057  0.678035  0.500000  1
  Os  Os25  1  0.178441  0.321643  0.500000  1
  Os  Os26  1  0.000811  0.000829  0.000000  1
  Os  Os27  1  0.321310  0.821403  0.500000  1
  Os  Os28  1  0.498871  0.499709  0.000000  1
  Ru  Ru29  1  0.678490  0.178568  0.500000  1
