# generated using pymatgen
data_Ca4Ni7As7Rh
_symmetry_space_group_name_H-M   'P 1'
_cell_length_a   4.00057600
_cell_length_b   12.82674234
_cell_length_c   12.98109681
_cell_angle_alpha   81.39111527
_cell_angle_beta   90.00000000
_cell_angle_gamma   90.00000000
_symmetry_Int_Tables_number   1
_chemical_formula_structural   Ca4Ni7As7Rh
_chemical_formula_sum   'Ca8 Ni14 As14 Rh2'
_cell_volume   658.61162746
_cell_formula_units_Z   2
loop_
 _symmetry_equiv_pos_site_id
 _symmetry_equiv_pos_as_xyz
  1  'x, y, z'
loop_
 _atom_site_type_symbol
 _atom_site_label
 _atom_site_symmetry_multiplicity
 _atom_site_fract_x
 _atom_site_fract_y
 _atom_site_fract_z
 _atom_site_occupancy
  Ca  Ca0  1  0.250000  0.103201  0.800843  1
  Ca  Ca1  1  0.750000  0.896799  0.199157  1
  Ca  Ca2  1  0.250000  0.287670  0.101605  1
  Ca  Ca3  1  0.750000  0.712330  0.898395  1
  Ca  Ca4  1  0.250000  0.519695  0.291683  1
  Ca  Ca5  1  0.750000  0.480305  0.708317  1
  Ca  Ca6  1  0.250000  0.213656  0.438799  1
  Ca  Ca7  1  0.750000  0.786344  0.561201  1
  Ni  Ni8  1  0.250000  0.660703  0.727966  1
  Ni  Ni9  1  0.750000  0.339297  0.272034  1
  Ni  Ni10  1  0.250000  0.558450  0.049660  1
  Ni  Ni11  1  0.750000  0.441550  0.950340  1
  Ni  Ni12  1  0.250000  0.060323  0.276514  1
  Ni  Ni13  1  0.750000  0.939677  0.723486  1
  Ni  Ni14  1  0.250000  0.424987  0.529036  1
  Ni  Ni15  1  0.750000  0.575013  0.470964  1
  Ni  Ni16  1  0.250000  0.913005  0.000867  1
  Ni  Ni17  1  0.750000  0.086995  0.999133  1
  Ni  Ni18  1  0.250000  0.723583  0.399543  1
  Ni  Ni19  1  0.750000  0.276417  0.600457  1
  Ni  Ni20  1  0.250000  0.347177  0.858939  1
  Ni  Ni21  1  0.750000  0.652823  0.141061  1
  As  As22  1  0.250000  0.057395  0.093441  1
  As  As23  1  0.750000  0.942605  0.906559  1
  As  As24  1  0.250000  0.311491  0.686193  1
  As  As25  1  0.750000  0.688509  0.313807  1
  As  As26  1  0.250000  0.604830  0.562457  1
  As  As27  1  0.750000  0.395170  0.437543  1
  As  As28  1  0.250000  0.837717  0.725743  1
  As  As29  1  0.750000  0.162283  0.274257  1
  As  As30  1  0.750000  0.261465  0.918447  1
  As  As31  1  0.250000  0.738535  0.081553  1
  As  As32  1  0.750000  0.094707  0.594069  1
  As  As33  1  0.250000  0.905293  0.405931  1
  As  As34  1  0.750000  0.471463  0.127770  1
  As  As35  1  0.250000  0.528537  0.872230  1
  Rh  Rh36  1  0.250000  0.983160  0.577876  1
  Rh  Rh37  1  0.750000  0.016840  0.422124  1
