# generated using pymatgen
data_BaHfTeO6
_symmetry_space_group_name_H-M   'P 1'
_cell_length_a   5.46620500
_cell_length_b   5.46620441
_cell_length_c   5.76388300
_cell_angle_alpha   90.00000000
_cell_angle_beta   90.00000000
_cell_angle_gamma   119.99999752
_symmetry_Int_Tables_number   1
_chemical_formula_structural   BaHfTeO6
_chemical_formula_sum   'Ba1 Hf1 Te1 O6'
_cell_volume   149.14805095
_cell_formula_units_Z   1
loop_
 _symmetry_equiv_pos_site_id
 _symmetry_equiv_pos_as_xyz
  1  'x, y, z'
loop_
 _atom_site_type_symbol
 _atom_site_label
 _atom_site_symmetry_multiplicity
 _atom_site_fract_x
 _atom_site_fract_y
 _atom_site_fract_z
 _atom_site_occupancy
  Ba  Ba0  1  0.000000  0.000000  0.000000  1
  Hf  Hf1  1  0.333333  0.666666  0.500000  1
  Te  Te2  1  0.666666  0.333334  0.500000  1
  O  O3  1  0.623039  0.018555  0.306204  1
  O  O4  1  0.395515  0.376960  0.306204  1
  O  O5  1  0.981446  0.604485  0.306204  1
  O  O6  1  0.395516  0.018555  0.693796  1
  O  O7  1  0.981446  0.376960  0.693796  1
  O  O8  1  0.623040  0.604485  0.693796  1
