# generated using pymatgen
data_Ba4Sr2Sn8BiSe
_symmetry_space_group_name_H-M   'P 1'
_cell_length_a   9.21751890
_cell_length_b   9.21751915
_cell_length_c   9.19709184
_cell_angle_alpha   120.07350921
_cell_angle_beta   120.07350642
_cell_angle_gamma   89.99999831
_symmetry_Int_Tables_number   1
_chemical_formula_structural   Ba4Sr2Sn8BiSe
_chemical_formula_sum   'Ba4 Sr2 Sn8 Bi1 Se1'
_cell_volume   551.30976648
_cell_formula_units_Z   1
loop_
 _symmetry_equiv_pos_site_id
 _symmetry_equiv_pos_as_xyz
  1  'x, y, z'
loop_
 _atom_site_type_symbol
 _atom_site_label
 _atom_site_symmetry_multiplicity
 _atom_site_fract_x
 _atom_site_fract_y
 _atom_site_fract_z
 _atom_site_occupancy
  Ba  Ba0  1  0.672894  0.157918  0.000000  1
  Ba  Ba1  1  0.327106  0.842082  0.000000  1
  Ba  Ba2  1  0.842082  0.672894  0.000000  1
  Ba  Ba3  1  0.157918  0.327106  0.000000  1
  Sr  Sr4  1  0.239400  0.239400  0.478800  1
  Sr  Sr5  1  0.760600  0.760600  0.521200  1
  Sn  Sn6  1  0.340538  0.834431  0.388942  1
  Sn  Sn7  1  0.659462  0.165569  0.611058  1
  Sn  Sn8  1  0.048405  0.554511  0.388942  1
  Sn  Sn9  1  0.554511  0.340538  0.388942  1
  Sn  Sn10  1  0.165569  0.951595  0.611058  1
  Sn  Sn11  1  0.951595  0.445489  0.611058  1
  Sn  Sn12  1  0.445489  0.659462  0.611058  1
  Sn  Sn13  1  0.834431  0.048405  0.388942  1
  Bi  Bi14  1  0.500000  0.500000  0.000000  1
  Se  Se15  1  0.000000  0.000000  0.000000  1
