# generated using pymatgen
data_La3AlPt3Au2
_symmetry_space_group_name_H-M   'P 1'
_cell_length_a   7.76082576
_cell_length_b   7.49075467
_cell_length_c   4.02179900
_cell_angle_alpha   90.00000000
_cell_angle_beta   90.00000000
_cell_angle_gamma   118.85538085
_symmetry_Int_Tables_number   1
_chemical_formula_structural   La3AlPt3Au2
_chemical_formula_sum   'La3 Al1 Pt3 Au2'
_cell_volume   204.77595076
_cell_formula_units_Z   1
loop_
 _symmetry_equiv_pos_site_id
 _symmetry_equiv_pos_as_xyz
  1  'x, y, z'
loop_
 _atom_site_type_symbol
 _atom_site_label
 _atom_site_symmetry_multiplicity
 _atom_site_fract_x
 _atom_site_fract_y
 _atom_site_fract_z
 _atom_site_occupancy
  La  La0  1  0.406305  0.395491  0.500000  1
  La  La1  1  0.593695  0.989187  0.500000  1
  La  La2  1  0.000000  0.616733  0.500000  1
  Al  Al3  1  0.000000  0.250700  0.000000  1
  Pt  Pt4  1  0.697607  0.326656  0.000000  1
  Pt  Pt5  1  0.302393  0.629049  0.000000  1
  Pt  Pt6  1  0.000000  0.048408  0.500000  1
  Au  Au7  1  0.737963  0.740869  0.000000  1
  Au  Au8  1  0.262037  0.002906  0.000000  1
