# generated using pymatgen
data_ErZr2IrF15
_symmetry_space_group_name_H-M   'P 1'
_cell_length_a   8.12395810
_cell_length_b   8.12395764
_cell_length_c   8.14126704
_cell_angle_alpha   79.84412362
_cell_angle_beta   79.84412243
_cell_angle_gamma   99.81452790
_symmetry_Int_Tables_number   1
_chemical_formula_structural   ErZr2IrF15
_chemical_formula_sum   'Er2 Zr4 Ir2 F30'
_cell_volume   509.21901930
_cell_formula_units_Z   2
loop_
 _symmetry_equiv_pos_site_id
 _symmetry_equiv_pos_as_xyz
  1  'x, y, z'
loop_
 _atom_site_type_symbol
 _atom_site_label
 _atom_site_symmetry_multiplicity
 _atom_site_fract_x
 _atom_site_fract_y
 _atom_site_fract_z
 _atom_site_occupancy
  Er  Er0  1  0.176262  0.823738  0.250000  1
  Er  Er1  1  0.823738  0.176262  0.750000  1
  Zr  Zr2  1  0.748135  0.677242  0.673630  1
  Zr  Zr3  1  0.322758  0.251865  0.826370  1
  Zr  Zr4  1  0.251865  0.322758  0.326370  1
  Zr  Zr5  1  0.677242  0.748135  0.173630  1
  Ir  Ir6  1  0.749584  0.250416  0.250000  1
  Ir  Ir7  1  0.250416  0.749584  0.750000  1
  F  F8  1  0.314592  0.350399  0.054194  1
  F  F9  1  0.937004  0.812454  0.152180  1
  F  F10  1  0.842867  0.456896  0.685917  1
  F  F11  1  0.456896  0.842867  0.185917  1
  F  F12  1  0.812454  0.937004  0.652180  1
  F  F13  1  0.350399  0.314592  0.554193  1
  F  F14  1  0.685408  0.649601  0.945806  1
  F  F15  1  0.062996  0.187546  0.847820  1
  F  F16  1  0.157133  0.543104  0.314083  1
  F  F17  1  0.543104  0.157133  0.814083  1
  F  F18  1  0.187546  0.062996  0.347820  1
  F  F19  1  0.649601  0.685408  0.445806  1
  F  F20  1  0.772651  0.282725  0.003428  1
  F  F21  1  0.000847  0.274667  0.213967  1
  F  F22  1  0.785563  0.502790  0.224297  1
  F  F23  1  0.502790  0.785563  0.724297  1
  F  F24  1  0.274667  0.000847  0.713967  1
  F  F25  1  0.282725  0.772651  0.503428  1
  F  F26  1  0.227349  0.717275  0.996572  1
  F  F27  1  0.999153  0.725333  0.786033  1
  F  F28  1  0.214437  0.497210  0.775703  1
  F  F29  1  0.497210  0.214437  0.275703  1
  F  F30  1  0.725333  0.999153  0.286033  1
  F  F31  1  0.717275  0.227349  0.496572  1
  F  F32  1  0.470057  0.529943  0.250000  1
  F  F33  1  0.746061  0.957094  0.971979  1
  F  F34  1  0.042906  0.253939  0.528021  1
  F  F35  1  0.253939  0.042906  0.028021  1
  F  F36  1  0.957094  0.746061  0.471979  1
  F  F37  1  0.529943  0.470057  0.750000  1
