# generated using pymatgen
data_Ac2HfWF14
_symmetry_space_group_name_H-M   'P 1'
_cell_length_a   5.99661997
_cell_length_b   6.45546165
_cell_length_c   8.73538700
_cell_angle_alpha   78.29435867
_cell_angle_beta   89.84141123
_cell_angle_gamma   89.44508384
_symmetry_Int_Tables_number   1
_chemical_formula_structural   Ac2HfWF14
_chemical_formula_sum   'Ac2 Hf1 W1 F14'
_cell_volume   331.10682400
_cell_formula_units_Z   1
loop_
 _symmetry_equiv_pos_site_id
 _symmetry_equiv_pos_as_xyz
  1  'x, y, z'
loop_
 _atom_site_type_symbol
 _atom_site_label
 _atom_site_symmetry_multiplicity
 _atom_site_fract_x
 _atom_site_fract_y
 _atom_site_fract_z
 _atom_site_occupancy
  Ac  Ac0  1  0.201987  0.661447  0.309778  1
  Ac  Ac1  1  0.703148  0.337263  0.690859  1
  Hf  Hf2  1  0.710706  0.191168  0.222982  1
  W  W3  1  0.211510  0.809395  0.776368  1
  F  F4  1  0.378677  0.438638  0.527470  1
  F  F5  1  0.879468  0.561484  0.471821  1
  F  F6  1  0.923246  0.949044  0.224264  1
  F  F7  1  0.420144  0.048109  0.774704  1
  F  F8  1  0.461136  0.980014  0.240835  1
  F  F9  1  0.950592  0.022012  0.761165  1
  F  F10  1  0.501125  0.437804  0.212181  1
  F  F11  1  0.003956  0.567106  0.785417  1
  F  F12  1  0.202816  0.761484  0.009301  1
  F  F13  1  0.701021  0.239845  0.989770  1
  F  F14  1  0.220573  0.861630  0.542876  1
  F  F15  1  0.720256  0.144066  0.456903  1
  F  F16  1  0.978933  0.379938  0.211126  1
  F  F17  1  0.483423  0.609554  0.792181  1
