# generated using pymatgen
data_Ho10Os3Ru
_symmetry_space_group_name_H-M   'P 1'
_cell_length_a   6.32696721
_cell_length_b   7.34455669
_cell_length_c   8.40243603
_cell_angle_alpha   96.86222369
_cell_angle_beta   112.23291602
_cell_angle_gamma   90.03924399
_symmetry_Int_Tables_number   1
_chemical_formula_structural   Ho10Os3Ru
_chemical_formula_sum   'Ho10 Os3 Ru1'
_cell_volume   358.38534558
_cell_formula_units_Z   1
loop_
 _symmetry_equiv_pos_site_id
 _symmetry_equiv_pos_as_xyz
  1  'x, y, z'
loop_
 _atom_site_type_symbol
 _atom_site_label
 _atom_site_symmetry_multiplicity
 _atom_site_fract_x
 _atom_site_fract_y
 _atom_site_fract_z
 _atom_site_occupancy
  Ho  Ho0  1  0.794303  0.583835  0.816563  1
  Ho  Ho1  1  0.975638  0.916255  0.183015  1
  Ho  Ho2  1  0.207760  0.416719  0.186181  1
  Ho  Ho3  1  0.024372  0.084924  0.817482  1
  Ho  Ho4  1  0.203996  0.683478  0.564860  1
  Ho  Ho5  1  0.640616  0.816943  0.436086  1
  Ho  Ho6  1  0.794431  0.315839  0.434460  1
  Ho  Ho7  1  0.360357  0.182223  0.563494  1
  Ho  Ho8  1  0.420869  0.749737  0.000033  1
  Ho  Ho9  1  0.580005  0.250205  0.000520  1
  Os  Os10  1  0.603820  0.922242  0.780407  1
  Os  Os11  1  0.822089  0.577883  0.219824  1
  Os  Os12  1  0.395864  0.077678  0.218597  1
  Ru  Ru13  1  0.175878  0.422038  0.778478  1
