# generated using pymatgen
data_PrHo15Cd4(IrPd)2
_symmetry_space_group_name_H-M   'P 1'
_cell_length_a   9.64972435
_cell_length_b   9.64972364
_cell_length_c   9.63084300
_cell_angle_alpha   60.06470613
_cell_angle_beta   60.06470854
_cell_angle_gamma   60.14009261
_symmetry_Int_Tables_number   1
_chemical_formula_structural   PrHo15Cd4(IrPd)2
_chemical_formula_sum   'Pr1 Ho15 Cd4 Ir2 Pd2'
_cell_volume   635.42128618
_cell_formula_units_Z   1
loop_
 _symmetry_equiv_pos_site_id
 _symmetry_equiv_pos_as_xyz
  1  'x, y, z'
loop_
 _atom_site_type_symbol
 _atom_site_label
 _atom_site_symmetry_multiplicity
 _atom_site_fract_x
 _atom_site_fract_y
 _atom_site_fract_z
 _atom_site_occupancy
  Pr  Pr0  1  0.934622  0.934622  0.565378  1
  Ho  Ho1  1  0.351569  0.351569  0.344460  1
  Ho  Ho2  1  0.351569  0.351569  0.952402  1
  Ho  Ho3  1  0.360476  0.941230  0.349146  1
  Ho  Ho4  1  0.941230  0.360476  0.349146  1
  Ho  Ho5  1  0.805623  0.191857  0.187173  1
  Ho  Ho6  1  0.191857  0.805623  0.815346  1
  Ho  Ho7  1  0.191857  0.805623  0.187173  1
  Ho  Ho8  1  0.805623  0.191857  0.815346  1
  Ho  Ho9  1  0.190665  0.190665  0.809335  1
  Ho  Ho10  1  0.812274  0.812274  0.187726  1
  Ho  Ho11  1  0.936566  0.563512  0.562311  1
  Ho  Ho12  1  0.563512  0.936566  0.937610  1
  Ho  Ho13  1  0.563512  0.936566  0.562311  1
  Ho  Ho14  1  0.936566  0.563512  0.937610  1
  Ho  Ho15  1  0.564287  0.564287  0.935713  1
  Cd  Cd16  1  0.581928  0.581928  0.582429  1
  Cd  Cd17  1  0.581928  0.581928  0.253716  1
  Cd  Cd18  1  0.576773  0.258528  0.582350  1
  Cd  Cd19  1  0.258528  0.576773  0.582350  1
  Ir  Ir20  1  0.141296  0.571612  0.143547  1
  Ir  Ir21  1  0.571612  0.141296  0.143547  1
  Pd  Pd22  1  0.143064  0.143064  0.143895  1
  Pd  Pd23  1  0.143064  0.143064  0.569977  1
