# generated using pymatgen
data_Ho2Al9Os2Au
_symmetry_space_group_name_H-M   'P 1'
_cell_length_a   7.62676834
_cell_length_b   7.62676796
_cell_length_c   9.52785900
_cell_angle_alpha   90.00000000
_cell_angle_beta   90.00000000
_cell_angle_gamma   119.39470153
_symmetry_Int_Tables_number   1
_chemical_formula_structural   Ho2Al9Os2Au
_chemical_formula_sum   'Ho4 Al18 Os4 Au2'
_cell_volume   482.86284479
_cell_formula_units_Z   2
loop_
 _symmetry_equiv_pos_site_id
 _symmetry_equiv_pos_as_xyz
  1  'x, y, z'
loop_
 _atom_site_type_symbol
 _atom_site_label
 _atom_site_symmetry_multiplicity
 _atom_site_fract_x
 _atom_site_fract_y
 _atom_site_fract_z
 _atom_site_occupancy
  Ho  Ho0  1  0.997806  0.673903  0.250000  1
  Ho  Ho1  1  0.002194  0.326097  0.750000  1
  Ho  Ho2  1  0.673903  0.997806  0.250000  1
  Ho  Ho3  1  0.326097  0.002194  0.750000  1
  Al  Al4  1  0.141311  0.141311  0.250000  1
  Al  Al5  1  0.858689  0.858689  0.750000  1
  Al  Al6  1  0.002313  0.346363  0.075901  1
  Al  Al7  1  0.997687  0.653637  0.924099  1
  Al  Al8  1  0.997687  0.653637  0.575901  1
  Al  Al9  1  0.346363  0.002313  0.424099  1
  Al  Al10  1  0.002313  0.346363  0.424099  1
  Al  Al11  1  0.653637  0.997687  0.575901  1
  Al  Al12  1  0.653637  0.997687  0.924099  1
  Al  Al13  1  0.346363  0.002313  0.075901  1
  Al  Al14  1  0.343623  0.343623  0.553639  1
  Al  Al15  1  0.656377  0.656378  0.446361  1
  Al  Al16  1  0.656377  0.656378  0.053639  1
  Al  Al17  1  0.343623  0.343623  0.946361  1
  Al  Al18  1  0.337263  0.553097  0.250000  1
  Al  Al19  1  0.662737  0.446903  0.750000  1
  Al  Al20  1  0.553097  0.337263  0.250000  1
  Al  Al21  1  0.446903  0.662737  0.750000  1
  Os  Os22  1  0.672211  0.327789  0.000000  1
  Os  Os23  1  0.327789  0.672211  0.000000  1
  Os  Os24  1  0.327789  0.672211  0.500000  1
  Os  Os25  1  0.672211  0.327789  0.500000  1
  Au  Au26  1  0.000000  0.000000  0.000000  1
  Au  Au27  1  0.000000  0.000000  0.500000  1
