# generated using pymatgen
data_TaNbPdPt5
_symmetry_space_group_name_H-M   'P 1'
_cell_length_a   5.61068500
_cell_length_b   4.92186025
_cell_length_c   9.38866524
_cell_angle_alpha   79.53100836
_cell_angle_beta   90.00000000
_cell_angle_gamma   90.00000000
_symmetry_Int_Tables_number   1
_chemical_formula_structural   TaNbPdPt5
_chemical_formula_sum   'Ta2 Nb2 Pd2 Pt10'
_cell_volume   254.95212614
_cell_formula_units_Z   2
loop_
 _symmetry_equiv_pos_site_id
 _symmetry_equiv_pos_as_xyz
  1  'x, y, z'
loop_
 _atom_site_type_symbol
 _atom_site_label
 _atom_site_symmetry_multiplicity
 _atom_site_fract_x
 _atom_site_fract_y
 _atom_site_fract_z
 _atom_site_occupancy
  Ta  Ta0  1  0.750000  0.377840  0.377715  1
  Ta  Ta1  1  0.250000  0.622160  0.622285  1
  Nb  Nb2  1  0.750000  0.214678  0.872718  1
  Nb  Nb3  1  0.250000  0.785322  0.127282  1
  Pd  Pd4  1  0.750000  0.791868  0.127957  1
  Pd  Pd5  1  0.250000  0.208132  0.872043  1
  Pt  Pt6  1  0.750000  0.609024  0.624233  1
  Pt  Pt7  1  0.250000  0.390976  0.375767  1
  Pt  Pt8  1  0.998128  0.879118  0.374188  1
  Pt  Pt9  1  0.498128  0.120882  0.625812  1
  Pt  Pt10  1  0.001872  0.120882  0.625812  1
  Pt  Pt11  1  0.501872  0.879118  0.374188  1
  Pt  Pt12  1  0.998486  0.291759  0.122768  1
  Pt  Pt13  1  0.498486  0.708241  0.877232  1
  Pt  Pt14  1  0.001514  0.708241  0.877232  1
  Pt  Pt15  1  0.501514  0.291759  0.122768  1
