# generated using pymatgen
data_Ho5Tm(Lu2Sn3)2
_symmetry_space_group_name_H-M   'P 1'
_cell_length_a   8.86825731
_cell_length_b   8.86825774
_cell_length_c   6.42752500
_cell_angle_alpha   90.00000000
_cell_angle_beta   90.00000000
_cell_angle_gamma   119.96953381
_symmetry_Int_Tables_number   1
_chemical_formula_structural   Ho5Tm(Lu2Sn3)2
_chemical_formula_sum   'Ho5 Tm1 Lu4 Sn6'
_cell_volume   437.90937606
_cell_formula_units_Z   1
loop_
 _symmetry_equiv_pos_site_id
 _symmetry_equiv_pos_as_xyz
  1  'x, y, z'
loop_
 _atom_site_type_symbol
 _atom_site_label
 _atom_site_symmetry_multiplicity
 _atom_site_fract_x
 _atom_site_fract_y
 _atom_site_fract_z
 _atom_site_occupancy
  Ho  Ho0  1  0.239153  0.999917  0.750000  1
  Ho  Ho1  1  0.999917  0.239153  0.750000  1
  Ho  Ho2  1  0.239377  0.239377  0.250000  1
  Ho  Ho3  1  0.760743  0.999909  0.250000  1
  Ho  Ho4  1  0.999909  0.760743  0.250000  1
  Tm  Tm5  1  0.760691  0.760691  0.750000  1
  Lu  Lu6  1  0.666680  0.333380  0.999960  1
  Lu  Lu7  1  0.333380  0.666680  0.999960  1
  Lu  Lu8  1  0.333380  0.666680  0.500040  1
  Lu  Lu9  1  0.666680  0.333380  0.500040  1
  Sn  Sn10  1  0.396045  0.396045  0.750000  1
  Sn  Sn11  1  0.604312  0.999785  0.750000  1
  Sn  Sn12  1  0.999785  0.604312  0.750000  1
  Sn  Sn13  1  0.604145  0.604145  0.250000  1
  Sn  Sn14  1  0.395808  0.999994  0.250000  1
  Sn  Sn15  1  0.999994  0.395808  0.250000  1
