# generated using pymatgen
data_HfU3(Ti3Ge4)2
_symmetry_space_group_name_H-M   'P 1'
_cell_length_a   7.05507551
_cell_length_b   6.98521393
_cell_length_c   7.06779110
_cell_angle_alpha   69.76131547
_cell_angle_beta   89.30142845
_cell_angle_gamma   90.24644857
_symmetry_Int_Tables_number   1
_chemical_formula_structural   HfU3(Ti3Ge4)2
_chemical_formula_sum   'Hf1 U3 Ti6 Ge8'
_cell_volume   326.76681694
_cell_formula_units_Z   1
loop_
 _symmetry_equiv_pos_site_id
 _symmetry_equiv_pos_as_xyz
  1  'x, y, z'
loop_
 _atom_site_type_symbol
 _atom_site_label
 _atom_site_symmetry_multiplicity
 _atom_site_fract_x
 _atom_site_fract_y
 _atom_site_fract_z
 _atom_site_occupancy
  Hf  Hf0  1  0.671323  0.942749  0.692082  1
  U  U1  1  0.329924  0.053933  0.311914  1
  U  U2  1  0.155936  0.560989  0.330366  1
  U  U3  1  0.844889  0.442561  0.670556  1
  Ti  Ti4  1  0.666745  0.746339  0.248256  1
  Ti  Ti5  1  0.330032  0.252519  0.751867  1
  Ti  Ti6  1  0.171011  0.751893  0.746383  1
  Ti  Ti7  1  0.827906  0.251729  0.246875  1
  Ti  Ti8  1  0.001652  0.000692  0.000594  1
  Ti  Ti9  1  0.501593  0.495602  0.001475  1
  Ge  Ge10  1  0.945544  0.869179  0.414495  1
  Ge  Ge11  1  0.042765  0.130073  0.590278  1
  Ge  Ge12  1  0.468110  0.647791  0.592909  1
  Ge  Ge13  1  0.540621  0.349958  0.417251  1
  Ge  Ge14  1  0.863270  0.641303  0.988881  1
  Ge  Ge15  1  0.134467  0.366899  0.004629  1
  Ge  Ge16  1  0.366929  0.858872  0.001373  1
  Ge  Ge17  1  0.637284  0.136918  0.989816  1
