# generated using pymatgen
data_Hf2ZrScAs4
_symmetry_space_group_name_H-M   'P 1'
_cell_length_a   3.81771600
_cell_length_b   3.81771510
_cell_length_c   12.90987700
_cell_angle_alpha   90.00000000
_cell_angle_beta   90.00000000
_cell_angle_gamma   120.00000781
_symmetry_Int_Tables_number   1
_chemical_formula_structural   Hf2ZrScAs4
_chemical_formula_sum   'Hf2 Zr1 Sc1 As4'
_cell_volume   162.95205273
_cell_formula_units_Z   1
loop_
 _symmetry_equiv_pos_site_id
 _symmetry_equiv_pos_as_xyz
  1  'x, y, z'
loop_
 _atom_site_type_symbol
 _atom_site_label
 _atom_site_symmetry_multiplicity
 _atom_site_fract_x
 _atom_site_fract_y
 _atom_site_fract_z
 _atom_site_occupancy
  Hf  Hf0  1  0.666667  0.333333  0.619359  1
  Hf  Hf1  1  0.333333  0.666667  0.119390  1
  Zr  Zr2  1  0.333333  0.666667  0.382213  1
  Sc  Sc3  1  0.666667  0.333333  0.880756  1
  As  As4  1  0.666667  0.333333  0.247508  1
  As  As5  1  0.333333  0.666667  0.748543  1
  As  As6  1  0.000000  0.000000  0.502731  1
  As  As7  1  0.000000  0.000000  0.999501  1
