# generated using pymatgen
data_CaDySiN3
_symmetry_space_group_name_H-M   'P 1'
_cell_length_a   5.82270600
_cell_length_b   5.82270510
_cell_length_c   11.26955600
_cell_angle_alpha   90.00000000
_cell_angle_beta   90.00000000
_cell_angle_gamma   125.51718854
_symmetry_Int_Tables_number   1
_chemical_formula_structural   CaDySiN3
_chemical_formula_sum   'Ca4 Dy4 Si4 N12'
_cell_volume   310.99222700
_cell_formula_units_Z   4
loop_
 _symmetry_equiv_pos_site_id
 _symmetry_equiv_pos_as_xyz
  1  'x, y, z'
loop_
 _atom_site_type_symbol
 _atom_site_label
 _atom_site_symmetry_multiplicity
 _atom_site_fract_x
 _atom_site_fract_y
 _atom_site_fract_z
 _atom_site_occupancy
  Ca  Ca0  1  0.045716  0.954284  0.855379  1
  Ca  Ca1  1  0.954284  0.045716  0.144621  1
  Ca  Ca2  1  0.454284  0.545716  0.355379  1
  Ca  Ca3  1  0.545716  0.454284  0.644621  1
  Dy  Dy4  1  0.641517  0.358483  0.078022  1
  Dy  Dy5  1  0.358483  0.641517  0.921978  1
  Dy  Dy6  1  0.858483  0.141517  0.578022  1
  Dy  Dy7  1  0.141517  0.858483  0.421978  1
  Si  Si8  1  0.738581  0.261419  0.838159  1
  Si  Si9  1  0.261419  0.738581  0.161841  1
  Si  Si10  1  0.761419  0.238581  0.338159  1
  Si  Si11  1  0.238581  0.761419  0.661841  1
  N  N12  1  0.573250  0.426750  0.870762  1
  N  N13  1  0.426750  0.573250  0.129238  1
  N  N14  1  0.926750  0.073250  0.370762  1
  N  N15  1  0.073250  0.926750  0.629238  1
  N  N16  1  0.532803  0.967197  0.750000  1
  N  N17  1  0.967197  0.532803  0.250000  1
  N  N18  1  0.467197  0.032803  0.250000  1
  N  N19  1  0.032803  0.467197  0.750000  1
  N  N20  1  0.838499  0.161501  0.961873  1
  N  N21  1  0.161501  0.838499  0.038127  1
  N  N22  1  0.661501  0.338499  0.461873  1
  N  N23  1  0.338499  0.661501  0.538127  1
