# generated using pymatgen
data_BaCeF5
_symmetry_space_group_name_H-M   'P 1'
_cell_length_a   8.72666680
_cell_length_b   8.72666747
_cell_length_c   6.15238958
_cell_angle_alpha   89.36935568
_cell_angle_beta   89.36935864
_cell_angle_gamma   149.61898915
_symmetry_Int_Tables_number   1
_chemical_formula_structural   BaCeF5
_chemical_formula_sum   'Ba2 Ce2 F10'
_cell_volume   236.75068269
_cell_formula_units_Z   2
loop_
 _symmetry_equiv_pos_site_id
 _symmetry_equiv_pos_as_xyz
  1  'x, y, z'
loop_
 _atom_site_type_symbol
 _atom_site_label
 _atom_site_symmetry_multiplicity
 _atom_site_fract_x
 _atom_site_fract_y
 _atom_site_fract_z
 _atom_site_occupancy
  Ba  Ba0  1  0.324644  0.675356  0.750000  1
  Ba  Ba1  1  0.675356  0.324644  0.250000  1
  Ce  Ce2  1  0.075304  0.924696  0.750000  1
  Ce  Ce3  1  0.924696  0.075304  0.250000  1
  F  F4  1  0.624360  0.375640  0.750000  1
  F  F5  1  0.375640  0.624360  0.250000  1
  F  F6  1  0.805050  0.731095  0.097404  1
  F  F7  1  0.268905  0.194950  0.402596  1
  F  F8  1  0.802704  0.177326  0.003304  1
  F  F9  1  0.822674  0.197296  0.496696  1
  F  F10  1  0.197296  0.822674  0.996696  1
  F  F11  1  0.177326  0.802704  0.503304  1
  F  F12  1  0.731095  0.805050  0.597404  1
  F  F13  1  0.194950  0.268905  0.902596  1
