# generated using pymatgen
data_Ti8Al14Fe7Ge
_symmetry_space_group_name_H-M   'P 1'
_cell_length_a   8.44181142
_cell_length_b   8.44190629
_cell_length_c   8.44160363
_cell_angle_alpha   120.15478579
_cell_angle_beta   119.90326960
_cell_angle_gamma   89.95235206
_symmetry_Int_Tables_number   1
_chemical_formula_structural   Ti8Al14Fe7Ge
_chemical_formula_sum   'Ti8 Al14 Fe7 Ge1'
_cell_volume   425.19028814
_cell_formula_units_Z   1
loop_
 _symmetry_equiv_pos_site_id
 _symmetry_equiv_pos_as_xyz
  1  'x, y, z'
loop_
 _atom_site_type_symbol
 _atom_site_label
 _atom_site_symmetry_multiplicity
 _atom_site_fract_x
 _atom_site_fract_y
 _atom_site_fract_z
 _atom_site_occupancy
  Ti  Ti0  1  0.790961  0.284960  0.069272  1
  Ti  Ti1  1  0.215668  0.284974  0.494003  1
  Ti  Ti2  1  0.212389  0.712387  0.500010  1
  Ti  Ti3  1  0.215693  0.721699  0.930722  1
  Ti  Ti4  1  0.790975  0.721666  0.506002  1
  Ti  Ti5  1  0.781236  0.281237  0.499990  1
  Ti  Ti6  1  0.380089  0.119721  0.739671  1
  Ti  Ti7  1  0.380044  0.640413  0.260328  1
  Al  Al8  1  0.160773  0.339885  0.179144  1
  Al  Al9  1  0.160730  0.981641  0.820851  1
  Al  Al10  1  0.158189  0.341465  0.816699  1
  Al  Al11  1  0.524766  0.341498  0.183302  1
  Al  Al12  1  0.840913  0.658341  0.817403  1
  Al  Al13  1  0.840951  0.023500  0.182600  1
  Al  Al14  1  0.839506  0.659458  0.180096  1
  Al  Al15  1  0.479362  0.659402  0.819904  1
  Al  Al16  1  0.380891  0.119698  0.261234  1
  Al  Al17  1  0.858464  0.119665  0.738769  1
  Al  Al18  1  0.618880  0.878111  0.259277  1
  Al  Al19  1  0.618843  0.359599  0.740728  1
  Al  Al20  1  0.619007  0.879443  0.739538  1
  Al  Al21  1  0.139904  0.879458  0.260458  1
  Fe  Fe22  1  0.001069  0.999721  0.501648  1
  Fe  Fe23  1  0.498067  0.999677  0.998616  1
  Fe  Fe24  1  0.498444  0.498447  0.000001  1
  Fe  Fe25  1  0.498075  0.499445  0.498383  1
  Fe  Fe26  1  0.001055  0.499440  0.001364  1
  Fe  Fe27  1  0.000715  0.000713  0.999995  1
  Fe  Fe28  1  0.497932  0.997930  0.499995  1
  Ge  Ge29  1  0.996406  0.496406  0.499997  1
