# generated using pymatgen
data_Tb16In3AgIrRu3
_symmetry_space_group_name_H-M   'P 1'
_cell_length_a   9.67641771
_cell_length_b   9.68514135
_cell_length_c   9.67641693
_cell_angle_alpha   59.72496642
_cell_angle_beta   59.67752099
_cell_angle_gamma   59.72496615
_symmetry_Int_Tables_number   1
_chemical_formula_structural   Tb16In3AgIrRu3
_chemical_formula_sum   'Tb16 In3 Ag1 Ir1 Ru3'
_cell_volume   637.00285477
_cell_formula_units_Z   1
loop_
 _symmetry_equiv_pos_site_id
 _symmetry_equiv_pos_as_xyz
  1  'x, y, z'
loop_
 _atom_site_type_symbol
 _atom_site_label
 _atom_site_symmetry_multiplicity
 _atom_site_fract_x
 _atom_site_fract_y
 _atom_site_fract_z
 _atom_site_occupancy
  Tb  Tb0  1  0.098223  0.705668  0.098223  1
  Tb  Tb1  1  0.941139  0.941454  0.558343  1
  Tb  Tb2  1  0.941679  0.559467  0.941679  1
  Tb  Tb3  1  0.308769  0.687357  0.308769  1
  Tb  Tb4  1  0.938781  0.560722  0.557647  1
  Tb  Tb5  1  0.310081  0.308306  0.687119  1
  Tb  Tb6  1  0.098999  0.097129  0.098999  1
  Tb  Tb7  1  0.557647  0.560722  0.938781  1
  Tb  Tb8  1  0.099568  0.097951  0.705041  1
  Tb  Tb9  1  0.689870  0.308439  0.689870  1
  Tb  Tb10  1  0.690387  0.690261  0.309176  1
  Tb  Tb11  1  0.687119  0.308306  0.310081  1
  Tb  Tb12  1  0.309176  0.690261  0.690387  1
  Tb  Tb13  1  0.559653  0.937859  0.559653  1
  Tb  Tb14  1  0.705041  0.097951  0.099568  1
  Tb  Tb15  1  0.558343  0.941454  0.941139  1
  In  In16  1  0.005986  0.331992  0.331797  1
  In  In17  1  0.332002  0.005345  0.332002  1
  In  In18  1  0.331797  0.331992  0.005986  1
  Ag  Ag19  1  0.332798  0.333047  0.332798  1
  Ir  Ir20  1  0.891566  0.329320  0.891566  1
  Ru  Ru21  1  0.889348  0.891325  0.889348  1
  Ru  Ru22  1  0.890581  0.891834  0.331445  1
  Ru  Ru23  1  0.331445  0.891834  0.890581  1
