# generated using pymatgen
data_Hf2(Al3Co)3
_symmetry_space_group_name_H-M   'P 1'
_cell_length_a   7.26137721
_cell_length_b   7.26137721
_cell_length_c   8.97625300
_cell_angle_alpha   90.00000000
_cell_angle_beta   90.00000000
_cell_angle_gamma   119.40680292
_symmetry_Int_Tables_number   1
_chemical_formula_structural   Hf2(Al3Co)3
_chemical_formula_sum   'Hf4 Al18 Co6'
_cell_volume   412.31465575
_cell_formula_units_Z   2
loop_
 _symmetry_equiv_pos_site_id
 _symmetry_equiv_pos_as_xyz
  1  'x, y, z'
loop_
 _atom_site_type_symbol
 _atom_site_label
 _atom_site_symmetry_multiplicity
 _atom_site_fract_x
 _atom_site_fract_y
 _atom_site_fract_z
 _atom_site_occupancy
  Hf  Hf0  1  0.992110  0.674803  0.250000  1
  Hf  Hf1  1  0.007890  0.325197  0.750000  1
  Hf  Hf2  1  0.674803  0.992110  0.250000  1
  Hf  Hf3  1  0.325197  0.007890  0.750000  1
  Al  Al4  1  0.994306  0.335444  0.074385  1
  Al  Al5  1  0.005694  0.664556  0.925615  1
  Al  Al6  1  0.005694  0.664556  0.574385  1
  Al  Al7  1  0.335444  0.994306  0.425615  1
  Al  Al8  1  0.994306  0.335444  0.425615  1
  Al  Al9  1  0.664556  0.005694  0.574385  1
  Al  Al10  1  0.664556  0.005694  0.925615  1
  Al  Al11  1  0.335444  0.994306  0.074385  1
  Al  Al12  1  0.339444  0.562978  0.250000  1
  Al  Al13  1  0.660556  0.437022  0.750000  1
  Al  Al14  1  0.562978  0.339444  0.250000  1
  Al  Al15  1  0.437022  0.660556  0.750000  1
  Al  Al16  1  0.330108  0.330108  0.548046  1
  Al  Al17  1  0.669892  0.669892  0.451954  1
  Al  Al18  1  0.669892  0.669892  0.048046  1
  Al  Al19  1  0.330108  0.330108  0.951954  1
  Al  Al20  1  0.121012  0.121012  0.250000  1
  Al  Al21  1  0.878988  0.878988  0.750000  1
  Co  Co22  1  0.672721  0.327279  0.000000  1
  Co  Co23  1  0.327279  0.672721  0.000000  1
  Co  Co24  1  0.327279  0.672721  0.500000  1
  Co  Co25  1  0.672721  0.327279  0.500000  1
  Co  Co26  1  0.000000  0.000000  0.000000  1
  Co  Co27  1  0.000000  0.000000  0.500000  1
