# generated using pymatgen
data_Y5Er11Cd4Co3Ni
_symmetry_space_group_name_H-M   'P 1'
_cell_length_a   9.45190344
_cell_length_b   9.45835840
_cell_length_c   9.45835848
_cell_angle_alpha   59.98987517
_cell_angle_beta   59.94076905
_cell_angle_gamma   59.94076760
_symmetry_Int_Tables_number   1
_chemical_formula_structural   Y5Er11Cd4Co3Ni
_chemical_formula_sum   'Y5 Er11 Cd4 Co3 Ni1'
_cell_volume   597.32849599
_cell_formula_units_Z   1
loop_
 _symmetry_equiv_pos_site_id
 _symmetry_equiv_pos_as_xyz
  1  'x, y, z'
loop_
 _atom_site_type_symbol
 _atom_site_label
 _atom_site_symmetry_multiplicity
 _atom_site_fract_x
 _atom_site_fract_y
 _atom_site_fract_z
 _atom_site_occupancy
  Y  Y0  1  0.809135  0.189191  0.189191  1
  Y  Y1  1  0.810763  0.189171  0.812357  1
  Y  Y2  1  0.188547  0.810799  0.188848  1
  Y  Y3  1  0.810763  0.812357  0.189171  1
  Y  Y4  1  0.188547  0.188848  0.810799  1
  Er  Er5  1  0.592965  0.597521  0.597521  1
  Er  Er6  1  0.594741  0.599180  0.209318  1
  Er  Er7  1  0.594741  0.209318  0.599180  1
  Er  Er8  1  0.212095  0.596564  0.596564  1
  Er  Er9  1  0.064627  0.437853  0.437853  1
  Er  Er10  1  0.435648  0.062619  0.062619  1
  Er  Er11  1  0.436967  0.061263  0.438421  1
  Er  Er12  1  0.066183  0.436832  0.058351  1
  Er  Er13  1  0.436967  0.438421  0.061263  1
  Er  Er14  1  0.066183  0.058351  0.436832  1
  Er  Er15  1  0.189334  0.811246  0.811246  1
  Cd  Cd16  1  0.830275  0.829820  0.829820  1
  Cd  Cd17  1  0.830541  0.830239  0.508782  1
  Cd  Cd18  1  0.830541  0.508782  0.830239  1
  Cd  Cd19  1  0.507162  0.830775  0.830775  1
  Co  Co20  1  0.392483  0.391354  0.391354  1
  Co  Co21  1  0.392243  0.392452  0.825677  1
  Co  Co22  1  0.392243  0.825677  0.392452  1
  Ni  Ni23  1  0.826304  0.391365  0.391365  1
