# generated using pymatgen
data_Zr6Ga6PdPt5
_symmetry_space_group_name_H-M   'P 1'
_cell_length_a   7.22663700
_cell_length_b   7.22663742
_cell_length_c   7.13452900
_cell_angle_alpha   90.00000000
_cell_angle_beta   90.00000000
_cell_angle_gamma   119.99999350
_symmetry_Int_Tables_number   1
_chemical_formula_structural   Zr6Ga6PdPt5
_chemical_formula_sum   'Zr6 Ga6 Pd1 Pt5'
_cell_volume   322.67734403
_cell_formula_units_Z   1
loop_
 _symmetry_equiv_pos_site_id
 _symmetry_equiv_pos_as_xyz
  1  'x, y, z'
loop_
 _atom_site_type_symbol
 _atom_site_label
 _atom_site_symmetry_multiplicity
 _atom_site_fract_x
 _atom_site_fract_y
 _atom_site_fract_z
 _atom_site_occupancy
  Zr  Zr0  1  0.390009  0.414819  0.750000  1
  Zr  Zr1  1  0.024809  0.609991  0.750000  1
  Zr  Zr2  1  0.585181  0.975191  0.750000  1
  Zr  Zr3  1  0.616206  0.023260  0.250000  1
  Zr  Zr4  1  0.976740  0.592946  0.250000  1
  Zr  Zr5  1  0.407054  0.383794  0.250000  1
  Ga  Ga6  1  0.266491  0.999256  0.998337  1
  Ga  Ga7  1  0.732764  0.733509  0.998337  1
  Ga  Ga8  1  0.000744  0.267236  0.998337  1
  Ga  Ga9  1  0.732764  0.733509  0.501663  1
  Ga  Ga10  1  0.266491  0.999256  0.501663  1
  Ga  Ga11  1  0.000744  0.267236  0.501663  1
  Pd  Pd12  1  0.000000  0.000000  0.750000  1
  Pt  Pt13  1  0.666667  0.333333  0.968828  1
  Pt  Pt14  1  0.666667  0.333333  0.531172  1
  Pt  Pt15  1  0.333333  0.666667  0.464271  1
  Pt  Pt16  1  0.333333  0.666667  0.035729  1
  Pt  Pt17  1  0.000000  0.000000  0.250000  1
