# generated using pymatgen
data_Zr6Al16Cu2PdRh4
_symmetry_space_group_name_H-M   'P 1'
_cell_length_a   8.72543282
_cell_length_b   8.70748118
_cell_length_c   8.72675815
_cell_angle_alpha   59.90302728
_cell_angle_beta   59.85890855
_cell_angle_gamma   60.07809809
_symmetry_Int_Tables_number   1
_chemical_formula_structural   Zr6Al16Cu2PdRh4
_chemical_formula_sum   'Zr6 Al16 Cu2 Pd1 Rh4'
_cell_volume   468.26141015
_cell_formula_units_Z   1
loop_
 _symmetry_equiv_pos_site_id
 _symmetry_equiv_pos_as_xyz
  1  'x, y, z'
loop_
 _atom_site_type_symbol
 _atom_site_label
 _atom_site_symmetry_multiplicity
 _atom_site_fract_x
 _atom_site_fract_y
 _atom_site_fract_z
 _atom_site_occupancy
  Zr  Zr0  1  0.676028  0.675289  0.324711  1
  Zr  Zr1  1  0.303762  0.696030  0.303970  1
  Zr  Zr2  1  0.695379  0.304621  0.304621  1
  Zr  Zr3  1  0.323972  0.324711  0.675289  1
  Zr  Zr4  1  0.696238  0.303970  0.696030  1
  Zr  Zr5  1  0.304621  0.695379  0.695379  1
  Al  Al6  1  0.875966  0.874579  0.358759  1
  Al  Al7  1  0.890693  0.358759  0.874579  1
  Al  Al8  1  0.357919  0.887818  0.873644  1
  Al  Al9  1  0.880616  0.873644  0.887818  1
  Al  Al10  1  0.124034  0.125421  0.641241  1
  Al  Al11  1  0.109307  0.641241  0.125421  1
  Al  Al12  1  0.642081  0.112182  0.126356  1
  Al  Al13  1  0.119384  0.126356  0.112182  1
  Al  Al14  1  0.665534  0.660673  0.003784  1
  Al  Al15  1  0.670007  0.003784  0.660673  1
  Al  Al16  1  0.004555  0.667853  0.663522  1
  Al  Al17  1  0.664068  0.663522  0.667853  1
  Al  Al18  1  0.334466  0.339327  0.996216  1
  Al  Al19  1  0.329993  0.996216  0.339327  1
  Al  Al20  1  0.995445  0.332147  0.336478  1
  Al  Al21  1  0.335932  0.336478  0.332147  1
  Cu  Cu22  1  0.000000  0.000000  0.500000  1
  Cu  Cu23  1  0.500000  0.500000  0.000000  1
  Pd  Pd24  1  0.500000  0.000000  0.000000  1
  Rh  Rh25  1  0.000000  0.000000  0.000000  1
  Rh  Rh26  1  0.500000  0.000000  0.500000  1
  Rh  Rh27  1  0.000000  0.500000  0.500000  1
  Rh  Rh28  1  0.000000  0.500000  0.000000  1
