# generated using pymatgen
data_Y3ErTcPt3F28
_symmetry_space_group_name_H-M   'P 1'
_cell_length_a   5.56100424
_cell_length_b   8.90124908
_cell_length_c   12.00777715
_cell_angle_alpha   62.41708300
_cell_angle_beta   90.01476598
_cell_angle_gamma   89.98176671
_symmetry_Int_Tables_number   1
_chemical_formula_structural   Y3ErTcPt3F28
_chemical_formula_sum   'Y3 Er1 Tc1 Pt3 F28'
_cell_volume   526.82685057
_cell_formula_units_Z   1
loop_
 _symmetry_equiv_pos_site_id
 _symmetry_equiv_pos_as_xyz
  1  'x, y, z'
loop_
 _atom_site_type_symbol
 _atom_site_label
 _atom_site_symmetry_multiplicity
 _atom_site_fract_x
 _atom_site_fract_y
 _atom_site_fract_z
 _atom_site_occupancy
  Y  Y0  1  0.739286  0.185939  0.735915  1
  Y  Y1  1  0.760956  0.183577  0.236631  1
  Y  Y2  1  0.239352  0.813695  0.763723  1
  Er  Er3  1  0.260000  0.813057  0.265566  1
  Tc  Tc4  1  0.758152  0.726120  0.044478  1
  Pt  Pt5  1  0.240970  0.271994  0.957649  1
  Pt  Pt6  1  0.259531  0.273943  0.456343  1
  Pt  Pt7  1  0.740647  0.726777  0.542548  1
  F  F8  1  0.936038  0.704136  0.414505  1
  F  F9  1  0.064991  0.296833  0.584265  1
  F  F10  1  0.435923  0.296250  0.085047  1
  F  F11  1  0.554442  0.708057  0.918460  1
  F  F12  1  0.474495  0.730357  0.140583  1
  F  F13  1  0.533635  0.273505  0.865382  1
  F  F14  1  0.966913  0.274215  0.364131  1
  F  F15  1  0.033542  0.725446  0.634766  1
  F  F16  1  0.959116  0.746216  0.172592  1
  F  F17  1  0.052291  0.255398  0.824820  1
  F  F18  1  0.449213  0.257086  0.323837  1
  F  F19  1  0.552561  0.743071  0.675733  1
  F  F20  1  0.771800  0.477998  0.141532  1
  F  F21  1  0.227735  0.520519  0.858174  1
  F  F22  1  0.271130  0.523045  0.357932  1
  F  F23  1  0.727887  0.478314  0.641635  1
  F  F24  1  0.941028  0.279178  0.042982  1
  F  F25  1  0.052119  0.720729  0.954663  1
  F  F26  1  0.440283  0.720389  0.456733  1
  F  F27  1  0.559225  0.280921  0.541716  1
  F  F28  1  0.743061  0.975404  0.449910  1
  F  F29  1  0.258454  0.025235  0.549239  1
  F  F30  1  0.242777  0.023176  0.051959  1
  F  F31  1  0.758698  0.973171  0.947536  1
  F  F32  1  0.581366  0.967715  0.233061  1
  F  F33  1  0.412914  0.031367  0.767394  1
  F  F34  1  0.086254  0.027264  0.268274  1
  F  F35  1  0.913217  0.969905  0.730290  1
