# generated using pymatgen
data_Pu2U4Co3Ni3Sb8
_symmetry_space_group_name_H-M   'P 1'
_cell_length_a   8.14260264
_cell_length_b   8.13983102
_cell_length_c   8.13983096
_cell_angle_alpha   109.35361429
_cell_angle_beta   109.40273134
_cell_angle_gamma   109.64363487
_symmetry_Int_Tables_number   1
_chemical_formula_structural   Pu2U4Co3Ni3Sb8
_chemical_formula_sum   'Pu2 U4 Co3 Ni3 Sb8'
_cell_volume   415.37757027
_cell_formula_units_Z   1
loop_
 _symmetry_equiv_pos_site_id
 _symmetry_equiv_pos_as_xyz
  1  'x, y, z'
loop_
 _atom_site_type_symbol
 _atom_site_label
 _atom_site_symmetry_multiplicity
 _atom_site_fract_x
 _atom_site_fract_y
 _atom_site_fract_z
 _atom_site_occupancy
  Pu  Pu0  1  0.880555  0.254310  0.129271  1
  Pu  Pu1  1  0.619445  0.748716  0.373755  1
  U  U2  1  0.250000  0.121913  0.871913  1
  U  U3  1  0.750000  0.379295  0.629295  1
  U  U4  1  0.129378  0.874030  0.252141  1
  U  U5  1  0.370622  0.622764  0.744652  1
  Co  Co6  1  0.375338  0.248770  0.625100  1
  Co  Co7  1  0.124662  0.749762  0.873432  1
  Co  Co8  1  0.250000  0.629327  0.379327  1
  Ni  Ni9  1  0.750000  0.871693  0.121693  1
  Ni  Ni10  1  0.621781  0.370646  0.250129  1
  Ni  Ni11  1  0.878219  0.128349  0.748865  1
  Sb  Sb12  1  0.661124  0.499494  0.000172  1
  Sb  Sb13  1  0.501910  0.001030  0.664806  1
  Sb  Sb14  1  0.998090  0.662896  0.499121  1
  Sb  Sb15  1  0.838876  0.839047  0.838370  1
  Sb  Sb16  1  0.500267  0.999533  0.161887  1
  Sb  Sb17  1  0.163395  0.500424  0.999777  1
  Sb  Sb18  1  0.999733  0.161620  0.499265  1
  Sb  Sb19  1  0.336605  0.336381  0.337029  1
