# generated using pymatgen
data_Sm8Pd4Pt20Pb
_symmetry_space_group_name_H-M   'P 1'
_cell_length_a   8.52299700
_cell_length_b   8.52299700
_cell_length_c   8.55229400
_cell_angle_alpha   90.00000000
_cell_angle_beta   90.00000000
_cell_angle_gamma   90.00000000
_symmetry_Int_Tables_number   1
_chemical_formula_structural   Sm8Pd4Pt20Pb
_chemical_formula_sum   'Sm8 Pd4 Pt20 Pb1'
_cell_volume   621.25127527
_cell_formula_units_Z   1
loop_
 _symmetry_equiv_pos_site_id
 _symmetry_equiv_pos_as_xyz
  1  'x, y, z'
loop_
 _atom_site_type_symbol
 _atom_site_label
 _atom_site_symmetry_multiplicity
 _atom_site_fract_x
 _atom_site_fract_y
 _atom_site_fract_z
 _atom_site_occupancy
  Sm  Sm0  1  0.251582  0.251582  0.252224  1
  Sm  Sm1  1  0.748418  0.748418  0.747776  1
  Sm  Sm2  1  0.748418  0.748418  0.252224  1
  Sm  Sm3  1  0.748418  0.251582  0.747776  1
  Sm  Sm4  1  0.251582  0.251582  0.747776  1
  Sm  Sm5  1  0.251582  0.748418  0.252224  1
  Sm  Sm6  1  0.251582  0.748418  0.747776  1
  Sm  Sm7  1  0.748418  0.251582  0.252224  1
  Pd  Pd8  1  0.500000  0.500000  0.256027  1
  Pd  Pd9  1  0.500000  0.500000  0.743973  1
  Pd  Pd10  1  0.000000  0.000000  0.319534  1
  Pd  Pd11  1  0.000000  0.000000  0.680466  1
  Pt  Pt12  1  0.269460  0.500000  0.000000  1
  Pt  Pt13  1  0.730540  0.500000  0.000000  1
  Pt  Pt14  1  0.000000  0.267721  0.500000  1
  Pt  Pt15  1  0.500000  0.269460  0.000000  1
  Pt  Pt16  1  0.000000  0.732279  0.500000  1
  Pt  Pt17  1  0.500000  0.730540  0.000000  1
  Pt  Pt18  1  0.500000  0.000000  0.268546  1
  Pt  Pt19  1  0.267721  0.000000  0.500000  1
  Pt  Pt20  1  0.500000  0.000000  0.731454  1
  Pt  Pt21  1  0.732279  0.000000  0.500000  1
  Pt  Pt22  1  0.000000  0.500000  0.268546  1
  Pt  Pt23  1  0.000000  0.500000  0.731454  1
  Pt  Pt24  1  0.255487  0.500000  0.500000  1
  Pt  Pt25  1  0.744513  0.500000  0.500000  1
  Pt  Pt26  1  0.500000  0.255487  0.500000  1
  Pt  Pt27  1  0.500000  0.744513  0.500000  1
  Pt  Pt28  1  0.321773  0.000000  0.000000  1
  Pt  Pt29  1  0.678227  0.000000  0.000000  1
  Pt  Pt30  1  0.000000  0.321773  0.000000  1
  Pt  Pt31  1  0.000000  0.678227  0.000000  1
  Pb  Pb32  1  0.000000  0.000000  0.000000  1
