# generated using pymatgen
data_RbLiCeO3
_symmetry_space_group_name_H-M   'P 1'
_cell_length_a   6.48834741
_cell_length_b   6.48834713
_cell_length_c   9.05404500
_cell_angle_alpha   90.00000000
_cell_angle_beta   90.00000000
_cell_angle_gamma   147.93719926
_symmetry_Int_Tables_number   1
_chemical_formula_structural   RbLiCeO3
_chemical_formula_sum   'Rb2 Li2 Ce2 O6'
_cell_volume   202.33983624
_cell_formula_units_Z   2
loop_
 _symmetry_equiv_pos_site_id
 _symmetry_equiv_pos_as_xyz
  1  'x, y, z'
loop_
 _atom_site_type_symbol
 _atom_site_label
 _atom_site_symmetry_multiplicity
 _atom_site_fract_x
 _atom_site_fract_y
 _atom_site_fract_z
 _atom_site_occupancy
  Rb  Rb0  1  0.735534  0.264464  0.250000  1
  Rb  Rb1  1  0.264464  0.735534  0.750000  1
  Li  Li2  1  0.462282  0.537716  0.250000  1
  Li  Li3  1  0.537716  0.462282  0.750000  1
  Ce  Ce4  1  0.000000  0.000000  0.000000  1
  Ce  Ce5  1  0.000000  0.000000  0.500000  1
  O  O6  1  0.396692  0.603306  0.058144  1
  O  O7  1  0.038587  0.961410  0.250000  1
  O  O8  1  0.396692  0.603306  0.441856  1
  O  O9  1  0.603306  0.396692  0.558144  1
  O  O10  1  0.961410  0.038587  0.750000  1
  O  O11  1  0.603306  0.396692  0.941856  1
