# generated using pymatgen
data_Pr10Si5Ge
_symmetry_space_group_name_H-M   'P 1'
_cell_length_a   7.89530737
_cell_length_b   7.89530806
_cell_length_c   8.96337487
_cell_angle_alpha   116.13071228
_cell_angle_beta   116.13071704
_cell_angle_gamma   90.00000234
_symmetry_Int_Tables_number   1
_chemical_formula_structural   Pr10Si5Ge
_chemical_formula_sum   'Pr10 Si5 Ge1'
_cell_volume   437.12587332
_cell_formula_units_Z   1
loop_
 _symmetry_equiv_pos_site_id
 _symmetry_equiv_pos_as_xyz
  1  'x, y, z'
loop_
 _atom_site_type_symbol
 _atom_site_label
 _atom_site_symmetry_multiplicity
 _atom_site_fract_x
 _atom_site_fract_y
 _atom_site_fract_z
 _atom_site_occupancy
  Pr  Pr0  1  0.499026  0.499026  0.998053  1
  Pr  Pr1  1  0.000974  0.000974  0.001947  1
  Pr  Pr2  1  0.968196  0.824797  0.290674  1
  Pr  Pr3  1  0.322478  0.465877  0.290674  1
  Pr  Pr4  1  0.824797  0.322478  0.290674  1
  Pr  Pr5  1  0.465877  0.968196  0.290674  1
  Pr  Pr6  1  0.034123  0.177522  0.709326  1
  Pr  Pr7  1  0.675203  0.531804  0.709326  1
  Pr  Pr8  1  0.177522  0.675203  0.709326  1
  Pr  Pr9  1  0.531804  0.034123  0.709326  1
  Si  Si10  1  0.250000  0.250000  0.500000  1
  Si  Si11  1  0.613696  0.886304  0.000000  1
  Si  Si12  1  0.386304  0.113696  0.000000  1
  Si  Si13  1  0.886304  0.386304  0.000000  1
  Si  Si14  1  0.113696  0.613696  0.000000  1
  Ge  Ge15  1  0.750000  0.750000  0.500000  1
