# generated using pymatgen
data_GeBi6(IrO9)2
_symmetry_space_group_name_H-M   'P 1'
_cell_length_a   9.23606300
_cell_length_b   9.23606172
_cell_length_c   5.22790400
_cell_angle_alpha   90.00000000
_cell_angle_beta   90.00000000
_cell_angle_gamma   119.99999480
_symmetry_Int_Tables_number   1
_chemical_formula_structural   GeBi6(IrO9)2
_chemical_formula_sum   'Ge1 Bi6 Ir2 O18'
_cell_volume   386.21752066
_cell_formula_units_Z   1
loop_
 _symmetry_equiv_pos_site_id
 _symmetry_equiv_pos_as_xyz
  1  'x, y, z'
loop_
 _atom_site_type_symbol
 _atom_site_label
 _atom_site_symmetry_multiplicity
 _atom_site_fract_x
 _atom_site_fract_y
 _atom_site_fract_z
 _atom_site_occupancy
  Ge  Ge0  1  0.666667  0.333333  0.999555  1
  Bi  Bi1  1  0.987340  0.372415  0.500594  1
  Bi  Bi2  1  0.294684  0.290534  0.001308  1
  Bi  Bi3  1  0.995849  0.705316  0.001308  1
  Bi  Bi4  1  0.627585  0.614924  0.500594  1
  Bi  Bi5  1  0.385076  0.012660  0.500594  1
  Bi  Bi6  1  0.709466  0.004151  0.001308  1
  Ir  Ir7  1  0.000000  0.000000  0.502343  1
  Ir  Ir8  1  0.333333  0.666667  0.003182  1
  O  O9  1  0.079497  0.198062  0.712920  1
  O  O10  1  0.226771  0.466312  0.214954  1
  O  O11  1  0.134148  0.595157  0.789343  1
  O  O12  1  0.404843  0.538991  0.789343  1
  O  O13  1  0.239543  0.773229  0.214954  1
  O  O14  1  0.118564  0.920503  0.712920  1
  O  O15  1  0.533688  0.760457  0.214954  1
  O  O16  1  0.200207  0.079636  0.284975  1
  O  O17  1  0.461009  0.865852  0.789343  1
  O  O18  1  0.801938  0.881436  0.712920  1
  O  O19  1  0.467350  0.233084  0.784144  1
  O  O20  1  0.597221  0.137694  0.210066  1
  O  O21  1  0.540473  0.402779  0.210066  1
  O  O22  1  0.766916  0.234266  0.784144  1
  O  O23  1  0.920364  0.120570  0.284975  1
  O  O24  1  0.765734  0.532650  0.784144  1
  O  O25  1  0.862306  0.459527  0.210066  1
  O  O26  1  0.879430  0.799793  0.284975  1
