# generated using pymatgen
data_Sc3Ga3Pd10
_symmetry_space_group_name_H-M   'P 1'
_cell_length_a   4.15053500
_cell_length_b   5.61223027
_cell_length_c   10.96242386
_cell_angle_alpha   92.26456685
_cell_angle_beta   90.00000000
_cell_angle_gamma   90.00000000
_symmetry_Int_Tables_number   1
_chemical_formula_structural   Sc3Ga3Pd10
_chemical_formula_sum   'Sc3 Ga3 Pd10'
_cell_volume   255.15662307
_cell_formula_units_Z   1
loop_
 _symmetry_equiv_pos_site_id
 _symmetry_equiv_pos_as_xyz
  1  'x, y, z'
loop_
 _atom_site_type_symbol
 _atom_site_label
 _atom_site_symmetry_multiplicity
 _atom_site_fract_x
 _atom_site_fract_y
 _atom_site_fract_z
 _atom_site_occupancy
  Sc  Sc0  1  0.000000  0.817812  0.641317  1
  Sc  Sc1  1  0.000000  0.326305  0.863935  1
  Sc  Sc2  1  0.000000  0.173172  0.354689  1
  Ga  Ga3  1  0.500000  0.498666  0.498426  1
  Ga  Ga4  1  0.500000  0.011955  0.998760  1
  Ga  Ga5  1  0.000000  0.667263  0.145002  1
  Pd  Pd6  1  0.000000  0.818796  0.895164  1
  Pd  Pd7  1  0.000000  0.684920  0.391579  1
  Pd  Pd8  1  0.000000  0.311644  0.607621  1
  Pd  Pd9  1  0.500000  0.916269  0.234043  1
  Pd  Pd10  1  0.500000  0.421434  0.257531  1
  Pd  Pd11  1  0.500000  0.569674  0.747173  1
  Pd  Pd12  1  0.500000  0.071191  0.754848  1
  Pd  Pd13  1  0.500000  0.521721  0.007597  1
  Pd  Pd14  1  0.500000  0.999720  0.497055  1
  Pd  Pd15  1  0.000000  0.189459  0.105259  1
