# generated using pymatgen
data_Sc2Ta3Co9P7
_symmetry_space_group_name_H-M   'P 1'
_cell_length_a   3.62379800
_cell_length_b   9.15416473
_cell_length_c   9.15416400
_cell_angle_alpha   119.99999012
_cell_angle_beta   90.00000000
_cell_angle_gamma   90.00000000
_symmetry_Int_Tables_number   1
_chemical_formula_structural   Sc2Ta3Co9P7
_chemical_formula_sum   'Sc2 Ta3 Co9 P7'
_cell_volume   262.98566005
_cell_formula_units_Z   1
loop_
 _symmetry_equiv_pos_site_id
 _symmetry_equiv_pos_as_xyz
  1  'x, y, z'
loop_
 _atom_site_type_symbol
 _atom_site_label
 _atom_site_symmetry_multiplicity
 _atom_site_fract_x
 _atom_site_fract_y
 _atom_site_fract_z
 _atom_site_occupancy
  Sc  Sc0  1  0.000000  0.666667  0.333333  1
  Sc  Sc1  1  0.500000  0.333333  0.666667  1
  Ta  Ta2  1  0.500000  0.772147  0.898140  1
  Ta  Ta3  1  0.500000  0.125994  0.227853  1
  Ta  Ta4  1  0.500000  0.101860  0.874006  1
  Co  Co5  1  0.000000  0.565398  0.933123  1
  Co  Co6  1  0.000000  0.367726  0.434602  1
  Co  Co7  1  0.000000  0.066877  0.632274  1
  Co  Co8  1  0.000000  0.877217  0.163745  1
  Co  Co9  1  0.000000  0.286529  0.122783  1
  Co  Co10  1  0.000000  0.836255  0.713471  1
  Co  Co11  1  0.500000  0.945596  0.389090  1
  Co  Co12  1  0.500000  0.443494  0.054404  1
  Co  Co13  1  0.500000  0.610910  0.556506  1
  P  P14  1  0.000000  0.000000  0.000000  1
  P  P15  1  0.500000  0.710653  0.131704  1
  P  P16  1  0.500000  0.421051  0.289347  1
  P  P17  1  0.500000  0.868296  0.578949  1
  P  P18  1  0.000000  0.576496  0.691068  1
  P  P19  1  0.000000  0.114572  0.423504  1
  P  P20  1  0.000000  0.308932  0.885428  1
