# generated using pymatgen
data_ScUB6Ir
_symmetry_space_group_name_H-M   'P 1'
_cell_length_a   3.53324900
_cell_length_b   9.02723600
_cell_length_c   11.41365100
_cell_angle_alpha   90.00000000
_cell_angle_beta   90.00000000
_cell_angle_gamma   90.00000000
_symmetry_Int_Tables_number   1
_chemical_formula_structural   ScUB6Ir
_chemical_formula_sum   'Sc4 U4 B24 Ir4'
_cell_volume   364.04379239
_cell_formula_units_Z   4
loop_
 _symmetry_equiv_pos_site_id
 _symmetry_equiv_pos_as_xyz
  1  'x, y, z'
loop_
 _atom_site_type_symbol
 _atom_site_label
 _atom_site_symmetry_multiplicity
 _atom_site_fract_x
 _atom_site_fract_y
 _atom_site_fract_z
 _atom_site_occupancy
  Sc  Sc0  1  0.500000  0.446770  0.125190  1
  Sc  Sc1  1  0.500000  0.553230  0.874810  1
  Sc  Sc2  1  0.500000  0.053230  0.625190  1
  Sc  Sc3  1  0.500000  0.946770  0.374810  1
  U  U4  1  0.500000  0.325504  0.415772  1
  U  U5  1  0.500000  0.674496  0.584228  1
  U  U6  1  0.500000  0.174496  0.915772  1
  U  U7  1  0.500000  0.825504  0.084228  1
  B  B8  1  0.000000  0.102112  0.472982  1
  B  B9  1  0.000000  0.897888  0.527018  1
  B  B10  1  0.000000  0.397888  0.972982  1
  B  B11  1  0.000000  0.602112  0.027018  1
  B  B12  1  0.000000  0.134366  0.320688  1
  B  B13  1  0.000000  0.865634  0.679312  1
  B  B14  1  0.000000  0.365634  0.820688  1
  B  B15  1  0.000000  0.634366  0.179312  1
  B  B16  1  0.000000  0.051189  0.064488  1
  B  B17  1  0.000000  0.948811  0.935512  1
  B  B18  1  0.000000  0.448811  0.564488  1
  B  B19  1  0.000000  0.551189  0.435512  1
  B  B20  1  0.000000  0.480946  0.285663  1
  B  B21  1  0.000000  0.519054  0.714337  1
  B  B22  1  0.000000  0.019054  0.785663  1
  B  B23  1  0.000000  0.980946  0.214337  1
  B  B24  1  0.000000  0.252944  0.078454  1
  B  B25  1  0.000000  0.747056  0.921546  1
  B  B26  1  0.000000  0.247056  0.578454  1
  B  B27  1  0.000000  0.752944  0.421546  1
  B  B28  1  0.000000  0.299227  0.236219  1
  B  B29  1  0.000000  0.700773  0.763781  1
  B  B30  1  0.000000  0.200773  0.736219  1
  B  B31  1  0.000000  0.799227  0.263781  1
  Ir  Ir32  1  0.500000  0.144422  0.184005  1
  Ir  Ir33  1  0.500000  0.855578  0.815995  1
  Ir  Ir34  1  0.500000  0.355578  0.684005  1
  Ir  Ir35  1  0.500000  0.644422  0.315995  1
