# generated using pymatgen
data_MnNb12Al8Cu3C4
_symmetry_space_group_name_H-M   'P 1'
_cell_length_a   8.27375524
_cell_length_b   8.31742523
_cell_length_c   8.27375400
_cell_angle_alpha   60.17352807
_cell_angle_beta   59.99999695
_cell_angle_gamma   60.17352450
_symmetry_Int_Tables_number   1
_chemical_formula_structural   MnNb12Al8Cu3C4
_chemical_formula_sum   'Mn1 Nb12 Al8 Cu3 C4'
_cell_volume   403.65774877
_cell_formula_units_Z   1
loop_
 _symmetry_equiv_pos_site_id
 _symmetry_equiv_pos_as_xyz
  1  'x, y, z'
loop_
 _atom_site_type_symbol
 _atom_site_label
 _atom_site_symmetry_multiplicity
 _atom_site_fract_x
 _atom_site_fract_y
 _atom_site_fract_z
 _atom_site_occupancy
  Mn  Mn0  1  0.125000  0.625000  0.125000  1
  Nb  Nb1  1  0.566661  0.932048  0.566661  1
  Nb  Nb2  1  0.311218  0.681200  0.696365  1
  Nb  Nb3  1  0.683339  0.317952  0.315371  1
  Nb  Nb4  1  0.311218  0.681200  0.311218  1
  Nb  Nb5  1  0.696365  0.681200  0.311218  1
  Nb  Nb6  1  0.315371  0.317952  0.683339  1
  Nb  Nb7  1  0.553635  0.568800  0.938782  1
  Nb  Nb8  1  0.938782  0.568800  0.553635  1
  Nb  Nb9  1  0.566661  0.932048  0.934629  1
  Nb  Nb10  1  0.934629  0.932048  0.566661  1
  Nb  Nb11  1  0.683339  0.317952  0.683339  1
  Nb  Nb12  1  0.938782  0.568800  0.938782  1
  Al  Al13  1  0.917829  0.917711  0.917829  1
  Al  Al14  1  0.003369  0.332289  0.332171  1
  Al  Al15  1  0.335769  0.992693  0.335769  1
  Al  Al16  1  0.332171  0.332289  0.003369  1
  Al  Al17  1  0.914231  0.257307  0.914231  1
  Al  Al18  1  0.917829  0.917711  0.246631  1
  Al  Al19  1  0.246631  0.917711  0.917829  1
  Al  Al20  1  0.332171  0.332289  0.332171  1
  Cu  Cu21  1  0.125000  0.125000  0.125000  1
  Cu  Cu22  1  0.625000  0.125000  0.125000  1
  Cu  Cu23  1  0.125000  0.125000  0.625000  1
  C  C24  1  0.625000  0.625000  0.625000  1
  C  C25  1  0.125000  0.625000  0.625000  1
  C  C26  1  0.625000  0.125000  0.625000  1
  C  C27  1  0.625000  0.625000  0.125000  1
