# generated using pymatgen
data_YbNb2P2O11
_symmetry_space_group_name_H-M   'P 1'
_cell_length_a   9.30294107
_cell_length_b   9.30294127
_cell_length_c   5.28895526
_cell_angle_alpha   87.08369700
_cell_angle_beta   87.08369702
_cell_angle_gamma   71.72928682
_symmetry_Int_Tables_number   1
_chemical_formula_structural   YbNb2P2O11
_chemical_formula_sum   'Yb2 Nb4 P4 O22'
_cell_volume   433.79759347
_cell_formula_units_Z   2
loop_
 _symmetry_equiv_pos_site_id
 _symmetry_equiv_pos_as_xyz
  1  'x, y, z'
loop_
 _atom_site_type_symbol
 _atom_site_label
 _atom_site_symmetry_multiplicity
 _atom_site_fract_x
 _atom_site_fract_y
 _atom_site_fract_z
 _atom_site_occupancy
  Yb  Yb0  1  0.605765  0.394235  0.250000  1
  Yb  Yb1  1  0.394235  0.605765  0.750000  1
  Nb  Nb2  1  0.004289  0.246093  0.261900  1
  Nb  Nb3  1  0.246093  0.004289  0.761900  1
  Nb  Nb4  1  0.753907  0.995711  0.238100  1
  Nb  Nb5  1  0.995711  0.753907  0.738100  1
  P  P6  1  0.188652  0.519703  0.244953  1
  P  P7  1  0.811348  0.480297  0.755047  1
  P  P8  1  0.480297  0.811348  0.255047  1
  P  P9  1  0.519703  0.188652  0.744953  1
  O  O10  1  0.625865  0.078267  0.553621  1
  O  O11  1  0.088165  0.137404  0.573009  1
  O  O12  1  0.078267  0.625865  0.053621  1
  O  O13  1  0.827805  0.405592  0.494372  1
  O  O14  1  0.831251  0.168749  0.250000  1
  O  O15  1  0.405592  0.827805  0.994372  1
  O  O16  1  0.594408  0.172195  0.005628  1
  O  O17  1  0.373413  0.141310  0.785291  1
  O  O18  1  0.911835  0.862596  0.426991  1
  O  O19  1  0.137404  0.088165  0.073009  1
  O  O20  1  0.921733  0.374135  0.946379  1
  O  O21  1  0.515511  0.650049  0.367498  1
  O  O22  1  0.349951  0.484489  0.132502  1
  O  O23  1  0.858690  0.626587  0.714709  1
  O  O24  1  0.168749  0.831251  0.750000  1
  O  O25  1  0.862596  0.911835  0.926991  1
  O  O26  1  0.172195  0.594408  0.505628  1
  O  O27  1  0.626587  0.858690  0.214709  1
  O  O28  1  0.650049  0.515511  0.867498  1
  O  O29  1  0.374135  0.921733  0.446379  1
  O  O30  1  0.484489  0.349951  0.632502  1
  O  O31  1  0.141310  0.373413  0.285291  1
