# generated using pymatgen
data_Dy4MnRu7
_symmetry_space_group_name_H-M   'P 1'
_cell_length_a   5.35540008
_cell_length_b   5.21954479
_cell_length_c   8.95091900
_cell_angle_alpha   90.00000000
_cell_angle_beta   90.00000000
_cell_angle_gamma   120.70916434
_symmetry_Int_Tables_number   1
_chemical_formula_structural   Dy4MnRu7
_chemical_formula_sum   'Dy4 Mn1 Ru7'
_cell_volume   215.11701728
_cell_formula_units_Z   1
loop_
 _symmetry_equiv_pos_site_id
 _symmetry_equiv_pos_as_xyz
  1  'x, y, z'
loop_
 _atom_site_type_symbol
 _atom_site_label
 _atom_site_symmetry_multiplicity
 _atom_site_fract_x
 _atom_site_fract_y
 _atom_site_fract_z
 _atom_site_occupancy
  Dy  Dy0  1  0.668152  0.335804  0.565882  1
  Dy  Dy1  1  0.331136  0.662905  0.433016  1
  Dy  Dy2  1  0.331136  0.662905  0.066984  1
  Dy  Dy3  1  0.668152  0.335804  0.934118  1
  Mn  Mn4  1  0.166934  0.333445  0.750000  1
  Ru  Ru5  1  0.000368  0.001451  0.502024  1
  Ru  Ru6  1  0.000368  0.001451  0.997976  1
  Ru  Ru7  1  0.173494  0.827207  0.750000  1
  Ru  Ru8  1  0.653356  0.826984  0.750000  1
  Ru  Ru9  1  0.833901  0.668327  0.250000  1
  Ru  Ru10  1  0.826554  0.171567  0.250000  1
  Ru  Ru11  1  0.346451  0.172150  0.250000  1
