# generated using pymatgen
data_ErCoAs3Rh4
_symmetry_space_group_name_H-M   'P 1'
_cell_length_a   3.90707200
_cell_length_b   11.24775600
_cell_length_c   12.79196700
_cell_angle_alpha   90.00000000
_cell_angle_beta   90.00000000
_cell_angle_gamma   90.00000000
_symmetry_Int_Tables_number   1
_chemical_formula_structural   ErCoAs3Rh4
_chemical_formula_sum   'Er4 Co4 As12 Rh16'
_cell_volume   562.15312784
_cell_formula_units_Z   4
loop_
 _symmetry_equiv_pos_site_id
 _symmetry_equiv_pos_as_xyz
  1  'x, y, z'
loop_
 _atom_site_type_symbol
 _atom_site_label
 _atom_site_symmetry_multiplicity
 _atom_site_fract_x
 _atom_site_fract_y
 _atom_site_fract_z
 _atom_site_occupancy
  Er  Er0  1  0.250000  0.583927  0.707014  1
  Er  Er1  1  0.250000  0.916073  0.207014  1
  Er  Er2  1  0.750000  0.416073  0.292986  1
  Er  Er3  1  0.750000  0.083927  0.792986  1
  Co  Co4  1  0.250000  0.466163  0.931976  1
  Co  Co5  1  0.250000  0.033837  0.431976  1
  Co  Co6  1  0.750000  0.533837  0.068024  1
  Co  Co7  1  0.750000  0.966163  0.568024  1
  As  As8  1  0.250000  0.421204  0.107038  1
  As  As9  1  0.250000  0.078796  0.607038  1
  As  As10  1  0.750000  0.578796  0.892962  1
  As  As11  1  0.750000  0.921204  0.392962  1
  As  As12  1  0.250000  0.270975  0.872937  1
  As  As13  1  0.250000  0.229025  0.372937  1
  As  As14  1  0.750000  0.729025  0.127063  1
  As  As15  1  0.750000  0.770975  0.627063  1
  As  As16  1  0.250000  0.599336  0.388111  1
  As  As17  1  0.250000  0.900664  0.888111  1
  As  As18  1  0.750000  0.400664  0.611889  1
  As  As19  1  0.750000  0.099336  0.111889  1
  Rh  Rh20  1  0.250000  0.712482  0.988289  1
  Rh  Rh21  1  0.250000  0.787518  0.488289  1
  Rh  Rh22  1  0.750000  0.287518  0.011711  1
  Rh  Rh23  1  0.750000  0.212482  0.511711  1
  Rh  Rh24  1  0.250000  0.407957  0.479675  1
  Rh  Rh25  1  0.250000  0.092043  0.979675  1
  Rh  Rh26  1  0.750000  0.592043  0.520325  1
  Rh  Rh27  1  0.750000  0.907957  0.020325  1
  Rh  Rh28  1  0.250000  0.224726  0.178673  1
  Rh  Rh29  1  0.250000  0.275274  0.678673  1
  Rh  Rh30  1  0.750000  0.775274  0.821327  1
  Rh  Rh31  1  0.750000  0.724726  0.321327  1
  Rh  Rh32  1  0.250000  0.888061  0.697875  1
  Rh  Rh33  1  0.250000  0.611939  0.197875  1
  Rh  Rh34  1  0.750000  0.111939  0.302125  1
  Rh  Rh35  1  0.750000  0.388061  0.802125  1
