# generated using pymatgen
data_Ho7Er3InSb5
_symmetry_space_group_name_H-M   'P 1'
_cell_length_a   8.92724400
_cell_length_b   8.92961409
_cell_length_c   6.35288103
_cell_angle_alpha   89.98951588
_cell_angle_beta   90.00284724
_cell_angle_gamma   119.99221751
_symmetry_Int_Tables_number   1
_chemical_formula_structural   Ho7Er3InSb5
_chemical_formula_sum   'Ho7 Er3 In1 Sb5'
_cell_volume   438.61703480
_cell_formula_units_Z   1
loop_
 _symmetry_equiv_pos_site_id
 _symmetry_equiv_pos_as_xyz
  1  'x, y, z'
loop_
 _atom_site_type_symbol
 _atom_site_label
 _atom_site_symmetry_multiplicity
 _atom_site_fract_x
 _atom_site_fract_y
 _atom_site_fract_z
 _atom_site_occupancy
  Ho  Ho0  1  0.333912  0.669029  0.499130  1
  Ho  Ho1  1  0.757107  0.000004  0.750012  1
  Ho  Ho2  1  0.753904  0.755920  0.249987  1
  Ho  Ho3  1  0.998023  0.244121  0.249959  1
  Ho  Ho4  1  0.003944  0.758210  0.749988  1
  Ho  Ho5  1  0.245782  0.241812  0.750056  1
  Ho  Ho6  1  0.242007  0.000029  0.249922  1
  Er  Er7  1  0.333888  0.669018  0.000931  1
  Er  Er8  1  0.664770  0.330849  0.499186  1
  Er  Er9  1  0.664838  0.330934  0.000810  1
  In  In10  1  0.394771  0.000252  0.750230  1
  Sb  Sb11  1  0.388891  0.390296  0.249803  1
  Sb  Sb12  1  0.998109  0.609456  0.249828  1
  Sb  Sb13  1  0.000688  0.389928  0.750202  1
  Sb  Sb14  1  0.611022  0.609898  0.750162  1
  Sb  Sb15  1  0.608344  0.000243  0.249791  1
