# generated using pymatgen
data_BaLi2Pr4O8
_symmetry_space_group_name_H-M   'P 1'
_cell_length_a   7.17417484
_cell_length_b   7.17417507
_cell_length_c   10.04650322
_cell_angle_alpha   61.58822475
_cell_angle_beta   61.58822385
_cell_angle_gamma   29.99603582
_symmetry_Int_Tables_number   1
_chemical_formula_structural   BaLi2Pr4O8
_chemical_formula_sum   'Ba1 Li2 Pr4 O8'
_cell_volume   224.97175480
_cell_formula_units_Z   1
loop_
 _symmetry_equiv_pos_site_id
 _symmetry_equiv_pos_as_xyz
  1  'x, y, z'
loop_
 _atom_site_type_symbol
 _atom_site_label
 _atom_site_symmetry_multiplicity
 _atom_site_fract_x
 _atom_site_fract_y
 _atom_site_fract_z
 _atom_site_occupancy
  Ba  Ba0  1  0.500000  0.500000  0.000000  1
  Li  Li1  1  0.187508  0.187508  0.741302  1
  Li  Li2  1  0.812492  0.812492  0.258698  1
  Pr  Pr3  1  0.611158  0.611158  0.560660  1
  Pr  Pr4  1  0.388842  0.388842  0.439340  1
  Pr  Pr5  1  0.163430  0.163430  0.187543  1
  Pr  Pr6  1  0.836570  0.836570  0.812457  1
  O  O7  1  0.045065  0.045065  0.749385  1
  O  O8  1  0.954935  0.954935  0.250615  1
  O  O9  1  0.238076  0.238076  0.376823  1
  O  O10  1  0.761924  0.761924  0.623177  1
  O  O11  1  0.814101  0.814101  0.066598  1
  O  O12  1  0.185899  0.185899  0.933402  1
  O  O13  1  0.582380  0.582380  0.342652  1
  O  O14  1  0.417620  0.417620  0.657348  1
