# generated using pymatgen
data_Tm12Os3Pt
_symmetry_space_group_name_H-M   'P 1'
_cell_length_a   6.31066478
_cell_length_b   7.28302472
_cell_length_c   8.92282300
_cell_angle_alpha   90.00000000
_cell_angle_beta   90.00000000
_cell_angle_gamma   89.79581851
_symmetry_Int_Tables_number   1
_chemical_formula_structural   Tm12Os3Pt
_chemical_formula_sum   'Tm12 Os3 Pt1'
_cell_volume   410.09683288
_cell_formula_units_Z   1
loop_
 _symmetry_equiv_pos_site_id
 _symmetry_equiv_pos_as_xyz
  1  'x, y, z'
loop_
 _atom_site_type_symbol
 _atom_site_label
 _atom_site_symmetry_multiplicity
 _atom_site_fract_x
 _atom_site_fract_y
 _atom_site_fract_z
 _atom_site_occupancy
  Tm  Tm0  1  0.326331  0.676917  0.065701  1
  Tm  Tm1  1  0.168909  0.176899  0.437950  1
  Tm  Tm2  1  0.670606  0.318051  0.558160  1
  Tm  Tm3  1  0.836883  0.828347  0.941122  1
  Tm  Tm4  1  0.670606  0.318051  0.941840  1
  Tm  Tm5  1  0.836883  0.828347  0.558878  1
  Tm  Tm6  1  0.326331  0.676917  0.434299  1
  Tm  Tm7  1  0.168909  0.176899  0.062050  1
  Tm  Tm8  1  0.871626  0.537991  0.250000  1
  Tm  Tm9  1  0.622630  0.036261  0.250000  1
  Tm  Tm10  1  0.122780  0.460319  0.750000  1
  Tm  Tm11  1  0.375417  0.966818  0.750000  1
  Os  Os12  1  0.033641  0.884709  0.250000  1
  Os  Os13  1  0.464549  0.384921  0.250000  1
  Os  Os14  1  0.961414  0.115743  0.750000  1
  Pt  Pt15  1  0.542482  0.612811  0.750000  1
