# generated using pymatgen
data_Sm3Y(TcB4)4
_symmetry_space_group_name_H-M   'P 1'
_cell_length_a   6.01037402
_cell_length_b   11.63697172
_cell_length_c   3.63515400
_cell_angle_alpha   90.00000000
_cell_angle_beta   90.00000000
_cell_angle_gamma   89.92566459
_symmetry_Int_Tables_number   1
_chemical_formula_structural   Sm3Y(TcB4)4
_chemical_formula_sum   'Sm3 Y1 Tc4 B16'
_cell_volume   254.25173523
_cell_formula_units_Z   1
loop_
 _symmetry_equiv_pos_site_id
 _symmetry_equiv_pos_as_xyz
  1  'x, y, z'
loop_
 _atom_site_type_symbol
 _atom_site_label
 _atom_site_symmetry_multiplicity
 _atom_site_fract_x
 _atom_site_fract_y
 _atom_site_fract_z
 _atom_site_occupancy
  Sm  Sm0  1  0.626146  0.349610  0.000000  1
  Sm  Sm1  1  0.373854  0.650762  0.000000  1
  Sm  Sm2  1  0.126112  0.150063  0.000000  1
  Y  Y3  1  0.873910  0.849976  0.000000  1
  Tc  Tc4  1  0.632091  0.085742  0.000000  1
  Tc  Tc5  1  0.368209  0.912774  0.000000  1
  Tc  Tc6  1  0.131154  0.413714  0.000000  1
  Tc  Tc7  1  0.868554  0.587776  0.000000  1
  B  B8  1  0.784455  0.183785  0.500000  1
  B  B9  1  0.213612  0.815811  0.500000  1
  B  B10  1  0.284429  0.315710  0.500000  1
  B  B11  1  0.715526  0.685408  0.500000  1
  B  B12  1  0.862762  0.030740  0.500000  1
  B  B13  1  0.137285  0.967412  0.500000  1
  B  B14  1  0.361830  0.468400  0.500000  1
  B  B15  1  0.638197  0.532447  0.500000  1
  B  B16  1  0.887260  0.453967  0.500000  1
  B  B17  1  0.112165  0.547062  0.500000  1
  B  B18  1  0.387885  0.045625  0.500000  1
  B  B19  1  0.614275  0.952465  0.500000  1
  B  B20  1  0.976190  0.309129  0.500000  1
  B  B21  1  0.022859  0.692359  0.500000  1
  B  B22  1  0.476357  0.190440  0.500000  1
  B  B23  1  0.524884  0.808823  0.500000  1
