# generated using pymatgen
data_HoHf2Sc(Al3Ir)6
_symmetry_space_group_name_H-M   'P 1'
_cell_length_a   7.49214601
_cell_length_b   7.48186216
_cell_length_c   9.31246000
_cell_angle_alpha   90.00000000
_cell_angle_beta   90.00000000
_cell_angle_gamma   119.75297551
_symmetry_Int_Tables_number   1
_chemical_formula_structural   HoHf2Sc(Al3Ir)6
_chemical_formula_sum   'Ho1 Hf2 Sc1 Al18 Ir6'
_cell_volume   453.19661051
_cell_formula_units_Z   1
loop_
 _symmetry_equiv_pos_site_id
 _symmetry_equiv_pos_as_xyz
  1  'x, y, z'
loop_
 _atom_site_type_symbol
 _atom_site_label
 _atom_site_symmetry_multiplicity
 _atom_site_fract_x
 _atom_site_fract_y
 _atom_site_fract_z
 _atom_site_occupancy
  Ho  Ho0  1  0.329449  0.005941  0.750000  1
  Hf  Hf1  1  0.995400  0.671805  0.250000  1
  Hf  Hf2  1  0.004138  0.327691  0.750000  1
  Sc  Sc3  1  0.671546  0.994636  0.250000  1
  Al  Al4  1  0.123378  0.123140  0.250000  1
  Al  Al5  1  0.872142  0.874947  0.750000  1
  Al  Al6  1  0.997051  0.334322  0.078918  1
  Al  Al7  1  0.999828  0.662944  0.924777  1
  Al  Al8  1  0.999828  0.662944  0.575223  1
  Al  Al9  1  0.335418  0.998269  0.418397  1
  Al  Al10  1  0.997051  0.334322  0.421082  1
  Al  Al11  1  0.667405  0.001277  0.575133  1
  Al  Al12  1  0.667405  0.001277  0.924867  1
  Al  Al13  1  0.335418  0.998269  0.081603  1
  Al  Al14  1  0.331498  0.333802  0.556229  1
  Al  Al15  1  0.668785  0.668917  0.439517  1
  Al  Al16  1  0.668785  0.668917  0.060483  1
  Al  Al17  1  0.331498  0.333802  0.943771  1
  Al  Al18  1  0.337169  0.552027  0.250000  1
  Al  Al19  1  0.665258  0.452488  0.750000  1
  Al  Al20  1  0.555077  0.342327  0.250000  1
  Al  Al21  1  0.446712  0.656421  0.750000  1
  Ir  Ir22  1  0.673052  0.328161  0.999708  1
  Ir  Ir23  1  0.326610  0.671858  0.000551  1
  Ir  Ir24  1  0.326610  0.671858  0.499449  1
  Ir  Ir25  1  0.673052  0.328161  0.500292  1
  Ir  Ir26  1  0.000220  0.999739  0.000089  1
  Ir  Ir27  1  0.000220  0.999739  0.499911  1
