# generated using pymatgen
data_EuHo(Si7Ir3)2
_symmetry_space_group_name_H-M   'P 1'
_cell_length_a   8.09457162
_cell_length_b   8.09457327
_cell_length_c   8.09457277
_cell_angle_alpha   56.80014854
_cell_angle_beta   56.80014315
_cell_angle_gamma   56.80014749
_symmetry_Int_Tables_number   1
_chemical_formula_structural   EuHo(Si7Ir3)2
_chemical_formula_sum   'Eu1 Ho1 Si14 Ir6'
_cell_volume   347.33327281
_cell_formula_units_Z   1
loop_
 _symmetry_equiv_pos_site_id
 _symmetry_equiv_pos_as_xyz
  1  'x, y, z'
loop_
 _atom_site_type_symbol
 _atom_site_label
 _atom_site_symmetry_multiplicity
 _atom_site_fract_x
 _atom_site_fract_y
 _atom_site_fract_z
 _atom_site_occupancy
  Eu  Eu0  1  0.500000  0.500000  0.500000  1
  Ho  Ho1  1  0.000000  0.000000  0.000000  1
  Si  Si2  1  0.064705  0.850149  0.673013  1
  Si  Si3  1  0.673013  0.064705  0.850149  1
  Si  Si4  1  0.850149  0.673013  0.064705  1
  Si  Si5  1  0.172904  0.350463  0.565124  1
  Si  Si6  1  0.565124  0.172904  0.350463  1
  Si  Si7  1  0.350463  0.565124  0.172904  1
  Si  Si8  1  0.935295  0.149851  0.326987  1
  Si  Si9  1  0.326987  0.935295  0.149851  1
  Si  Si10  1  0.149851  0.326987  0.935295  1
  Si  Si11  1  0.827096  0.649537  0.434876  1
  Si  Si12  1  0.434876  0.827096  0.649537  1
  Si  Si13  1  0.649537  0.434876  0.827096  1
  Si  Si14  1  0.749895  0.749895  0.749895  1
  Si  Si15  1  0.250105  0.250105  0.250105  1
  Ir  Ir16  1  0.067301  0.752521  0.428194  1
  Ir  Ir17  1  0.428194  0.067301  0.752521  1
  Ir  Ir18  1  0.752521  0.428194  0.067301  1
  Ir  Ir19  1  0.932699  0.247479  0.571806  1
  Ir  Ir20  1  0.571806  0.932699  0.247479  1
  Ir  Ir21  1  0.247479  0.571806  0.932699  1
