# generated using pymatgen
data_La2Y(AlI)2
_symmetry_space_group_name_H-M   'P 1'
_cell_length_a   9.96834378
_cell_length_b   9.96834391
_cell_length_c   12.21660193
_cell_angle_alpha   59.65238735
_cell_angle_beta   59.65238770
_cell_angle_gamma   25.07242428
_symmetry_Int_Tables_number   1
_chemical_formula_structural   La2Y(AlI)2
_chemical_formula_sum   'La4 Y2 Al4 I4'
_cell_volume   440.15642568
_cell_formula_units_Z   2
loop_
 _symmetry_equiv_pos_site_id
 _symmetry_equiv_pos_as_xyz
  1  'x, y, z'
loop_
 _atom_site_type_symbol
 _atom_site_label
 _atom_site_symmetry_multiplicity
 _atom_site_fract_x
 _atom_site_fract_y
 _atom_site_fract_z
 _atom_site_occupancy
  La  La0  1  0.753637  0.753637  0.802420  1
  La  La1  1  0.246363  0.246363  0.197580  1
  La  La2  1  0.534620  0.534620  0.309143  1
  La  La3  1  0.465380  0.465380  0.690857  1
  Y  Y4  1  0.830430  0.830430  0.392759  1
  Y  Y5  1  0.169570  0.169570  0.607241  1
  Al  Al6  1  0.925363  0.925363  0.529925  1
  Al  Al7  1  0.074637  0.074637  0.470075  1
  Al  Al8  1  0.335955  0.335955  0.579901  1
  Al  Al9  1  0.664045  0.664045  0.420099  1
  I  I10  1  0.420559  0.420559  0.177778  1
  I  I11  1  0.579441  0.579441  0.822222  1
  I  I12  1  0.860087  0.860087  0.942725  1
  I  I13  1  0.139913  0.139913  0.057275  1
