# generated using pymatgen
data_Er4IrRh3O14
_symmetry_space_group_name_H-M   'P 1'
_cell_length_a   7.20564169
_cell_length_b   7.20564184
_cell_length_c   7.20564170
_cell_angle_alpha   59.92241538
_cell_angle_beta   59.92241304
_cell_angle_gamma   59.92241784
_symmetry_Int_Tables_number   1
_chemical_formula_structural   Er4IrRh3O14
_chemical_formula_sum   'Er4 Ir1 Rh3 O14'
_cell_volume   264.08152198
_cell_formula_units_Z   1
loop_
 _symmetry_equiv_pos_site_id
 _symmetry_equiv_pos_as_xyz
  1  'x, y, z'
loop_
 _atom_site_type_symbol
 _atom_site_label
 _atom_site_symmetry_multiplicity
 _atom_site_fract_x
 _atom_site_fract_y
 _atom_site_fract_z
 _atom_site_occupancy
  Er  Er0  1  0.625000  0.125000  0.125000  1
  Er  Er1  1  0.125000  0.625000  0.125000  1
  Er  Er2  1  0.125000  0.125000  0.625000  1
  Er  Er3  1  0.125000  0.125000  0.125000  1
  Ir  Ir4  1  0.625000  0.625000  0.625000  1
  Rh  Rh5  1  0.125000  0.625000  0.625000  1
  Rh  Rh6  1  0.625000  0.125000  0.625000  1
  Rh  Rh7  1  0.625000  0.625000  0.125000  1
  O  O8  1  0.711704  0.711704  0.290491  1
  O  O9  1  0.285337  0.285337  0.712457  1
  O  O10  1  0.711704  0.290491  0.711704  1
  O  O11  1  0.285337  0.712457  0.285337  1
  O  O12  1  0.290491  0.711704  0.711704  1
  O  O13  1  0.712457  0.285337  0.285337  1
  O  O14  1  0.538296  0.538296  0.959509  1
  O  O15  1  0.964663  0.964663  0.537543  1
  O  O16  1  0.538296  0.959509  0.538296  1
  O  O17  1  0.964663  0.537543  0.964663  1
  O  O18  1  0.959509  0.538296  0.538296  1
  O  O19  1  0.537543  0.964663  0.964663  1
  O  O20  1  0.250600  0.250600  0.250600  1
  O  O21  1  0.999400  0.999400  0.999400  1
