# generated using pymatgen
data_Pr2Co2RhN3
_symmetry_space_group_name_H-M   'P 1'
_cell_length_a   6.23811211
_cell_length_b   6.23811320
_cell_length_c   6.24202200
_cell_angle_alpha   89.24116694
_cell_angle_beta   89.24115763
_cell_angle_gamma   116.22721644
_symmetry_Int_Tables_number   1
_chemical_formula_structural   Pr2Co2RhN3
_chemical_formula_sum   'Pr4 Co4 Rh2 N6'
_cell_volume   217.82670803
_cell_formula_units_Z   2
loop_
 _symmetry_equiv_pos_site_id
 _symmetry_equiv_pos_as_xyz
  1  'x, y, z'
loop_
 _atom_site_type_symbol
 _atom_site_label
 _atom_site_symmetry_multiplicity
 _atom_site_fract_x
 _atom_site_fract_y
 _atom_site_fract_z
 _atom_site_occupancy
  Pr  Pr0  1  0.827178  0.667290  0.901672  1
  Pr  Pr1  1  0.332710  0.172822  0.598328  1
  Pr  Pr2  1  0.172822  0.332710  0.098328  1
  Pr  Pr3  1  0.667290  0.827178  0.401672  1
  Co  Co4  1  0.572901  0.172666  0.103240  1
  Co  Co5  1  0.427099  0.827334  0.896760  1
  Co  Co6  1  0.827334  0.427099  0.396760  1
  Co  Co7  1  0.172666  0.572901  0.603240  1
  Rh  Rh8  1  0.815438  0.184562  0.750000  1
  Rh  Rh9  1  0.184562  0.815438  0.250000  1
  N  N10  1  0.430217  0.569783  0.750000  1
  N  N11  1  0.569783  0.430217  0.250000  1
  N  N12  1  0.993549  0.730537  0.525098  1
  N  N13  1  0.730537  0.993549  0.025098  1
  N  N14  1  0.006451  0.269463  0.474902  1
  N  N15  1  0.269463  0.006451  0.974902  1
