# generated using pymatgen
data_Y2Lu2TcOsC4
_symmetry_space_group_name_H-M   'P 1'
_cell_length_a   5.04443000
_cell_length_b   6.51938046
_cell_length_c   9.68445817
_cell_angle_alpha   89.69239200
_cell_angle_beta   90.00000000
_cell_angle_gamma   90.00000000
_symmetry_Int_Tables_number   1
_chemical_formula_structural   Y2Lu2TcOsC4
_chemical_formula_sum   'Y4 Lu4 Tc2 Os2 C8'
_cell_volume   318.48390896
_cell_formula_units_Z   2
loop_
 _symmetry_equiv_pos_site_id
 _symmetry_equiv_pos_as_xyz
  1  'x, y, z'
loop_
 _atom_site_type_symbol
 _atom_site_label
 _atom_site_symmetry_multiplicity
 _atom_site_fract_x
 _atom_site_fract_y
 _atom_site_fract_z
 _atom_site_occupancy
  Y  Y0  1  0.250000  0.534622  0.214114  1
  Y  Y1  1  0.750000  0.465378  0.785886  1
  Y  Y2  1  0.750000  0.967282  0.711472  1
  Y  Y3  1  0.250000  0.032718  0.288528  1
  Lu  Lu4  1  0.250000  0.671741  0.557436  1
  Lu  Lu5  1  0.750000  0.328259  0.442564  1
  Lu  Lu6  1  0.750000  0.828955  0.058084  1
  Lu  Lu7  1  0.250000  0.171045  0.941916  1
  Tc  Tc8  1  0.250000  0.719882  0.867171  1
  Tc  Tc9  1  0.750000  0.280118  0.132829  1
  Os  Os10  1  0.750000  0.778717  0.366890  1
  Os  Os11  1  0.250000  0.221283  0.633110  1
  C  C12  1  0.250000  0.451518  0.760007  1
  C  C13  1  0.750000  0.548482  0.239993  1
  C  C14  1  0.750000  0.047670  0.260648  1
  C  C15  1  0.250000  0.952330  0.739352  1
  C  C16  1  0.250000  0.831157  0.051917  1
  C  C17  1  0.750000  0.168843  0.948083  1
  C  C18  1  0.750000  0.667160  0.552553  1
  C  C19  1  0.250000  0.332840  0.447447  1
