# generated using pymatgen
data_Lu10In8Rh3Au
_symmetry_space_group_name_H-M   'P 1'
_cell_length_a   3.54127100
_cell_length_b   8.03713637
_cell_length_c   18.04789577
_cell_angle_alpha   89.87152960
_cell_angle_beta   90.00000000
_cell_angle_gamma   90.00000000
_symmetry_Int_Tables_number   1
_chemical_formula_structural   Lu10In8Rh3Au
_chemical_formula_sum   'Lu10 In8 Rh3 Au1'
_cell_volume   513.67210543
_cell_formula_units_Z   1
loop_
 _symmetry_equiv_pos_site_id
 _symmetry_equiv_pos_as_xyz
  1  'x, y, z'
loop_
 _atom_site_type_symbol
 _atom_site_label
 _atom_site_symmetry_multiplicity
 _atom_site_fract_x
 _atom_site_fract_y
 _atom_site_fract_z
 _atom_site_occupancy
  Lu  Lu0  1  0.000000  0.499690  0.500650  1
  Lu  Lu1  1  0.000000  0.000723  0.999706  1
  Lu  Lu2  1  0.000000  0.726365  0.277203  1
  Lu  Lu3  1  0.000000  0.257528  0.721958  1
  Lu  Lu4  1  0.000000  0.757264  0.778281  1
  Lu  Lu5  1  0.000000  0.255915  0.218621  1
  Lu  Lu6  1  0.000000  0.615486  0.085548  1
  Lu  Lu7  1  0.000000  0.384550  0.912085  1
  Lu  Lu8  1  0.000000  0.883949  0.588115  1
  Lu  Lu9  1  0.000000  0.120068  0.418641  1
  In  In10  1  0.500000  0.707732  0.932838  1
  In  In11  1  0.500000  0.292987  0.066771  1
  In  In12  1  0.500000  0.789578  0.435350  1
  In  In13  1  0.500000  0.207742  0.568294  1
  In  In14  1  0.500000  0.575326  0.649678  1
  In  In15  1  0.500000  0.425894  0.351365  1
  In  In16  1  0.500000  0.919188  0.146896  1
  In  In17  1  0.500000  0.074127  0.850472  1
  Rh  Rh18  1  0.500000  0.523517  0.195154  1
  Rh  Rh19  1  0.500000  0.480314  0.804640  1
  Rh  Rh20  1  0.500000  0.979372  0.695487  1
  Au  Au21  1  0.500000  0.022687  0.302249  1
