# generated using pymatgen
data_NpTa2(Nb2Br9)2
_symmetry_space_group_name_H-M   'P 1'
_cell_length_a   10.70333310
_cell_length_b   10.69769336
_cell_length_c   10.70188700
_cell_angle_alpha   56.10854405
_cell_angle_beta   56.07503516
_cell_angle_gamma   56.09499363
_symmetry_Int_Tables_number   1
_chemical_formula_structural   NpTa2(Nb2Br9)2
_chemical_formula_sum   'Np1 Ta2 Nb4 Br18'
_cell_volume   788.07444390
_cell_formula_units_Z   1
loop_
 _symmetry_equiv_pos_site_id
 _symmetry_equiv_pos_as_xyz
  1  'x, y, z'
loop_
 _atom_site_type_symbol
 _atom_site_label
 _atom_site_symmetry_multiplicity
 _atom_site_fract_x
 _atom_site_fract_y
 _atom_site_fract_z
 _atom_site_occupancy
  Np  Np0  1  0.000168  0.999663  0.000189  1
  Ta  Ta1  1  0.412625  0.309930  0.642411  1
  Ta  Ta2  1  0.357463  0.587617  0.689895  1
  Nb  Nb3  1  0.691568  0.356389  0.587848  1
  Nb  Nb4  1  0.308709  0.643645  0.411777  1
  Nb  Nb5  1  0.644251  0.411670  0.307897  1
  Nb  Nb6  1  0.588506  0.691962  0.355814  1
  Br  Br7  1  0.566919  0.160767  0.443607  1
  Br  Br8  1  0.223263  0.371937  0.906857  1
  Br  Br9  1  0.908752  0.222324  0.371067  1
  Br  Br10  1  0.371037  0.908707  0.222884  1
  Br  Br11  1  0.777413  0.628912  0.091317  1
  Br  Br12  1  0.092504  0.776500  0.630492  1
  Br  Br13  1  0.700502  0.960709  0.160623  1
  Br  Br14  1  0.959412  0.159615  0.701980  1
  Br  Br15  1  0.161753  0.699954  0.957939  1
  Br  Br16  1  0.299511  0.042526  0.838870  1
  Br  Br17  1  0.039823  0.839133  0.299361  1
  Br  Br18  1  0.840000  0.298779  0.039541  1
  Br  Br19  1  0.556071  0.433267  0.839139  1
  Br  Br20  1  0.162188  0.439423  0.569757  1
  Br  Br21  1  0.441712  0.568041  0.160943  1
  Br  Br22  1  0.430356  0.837862  0.560499  1
  Br  Br23  1  0.839097  0.558584  0.431715  1
  Br  Br24  1  0.626397  0.092083  0.777578  1
