# generated using pymatgen
data_PrDy3(CBr)2
_symmetry_space_group_name_H-M   'P 1'
_cell_length_a   3.71688300
_cell_length_b   3.71688316
_cell_length_c   14.47546500
_cell_angle_alpha   90.00000000
_cell_angle_beta   90.00000000
_cell_angle_gamma   120.00000745
_symmetry_Int_Tables_number   1
_chemical_formula_structural   PrDy3(CBr)2
_chemical_formula_sum   'Pr1 Dy3 C2 Br2'
_cell_volume   173.18924656
_cell_formula_units_Z   1
loop_
 _symmetry_equiv_pos_site_id
 _symmetry_equiv_pos_as_xyz
  1  'x, y, z'
loop_
 _atom_site_type_symbol
 _atom_site_label
 _atom_site_symmetry_multiplicity
 _atom_site_fract_x
 _atom_site_fract_y
 _atom_site_fract_z
 _atom_site_occupancy
  Pr  Pr0  1  0.333333  0.666667  0.409289  1
  Dy  Dy1  1  0.333333  0.666667  0.085648  1
  Dy  Dy2  1  0.666667  0.333333  0.594474  1
  Dy  Dy3  1  0.666667  0.333333  0.909565  1
  C  C4  1  0.000000  0.000000  0.997194  1
  C  C5  1  0.000000  0.000000  0.512935  1
  Br  Br6  1  0.666667  0.333333  0.236376  1
  Br  Br7  1  0.333333  0.666667  0.754520  1
