# generated using pymatgen
data_Nd19DyIr7Pt5
_symmetry_space_group_name_H-M   'P 1'
_cell_length_a   11.40426653
_cell_length_b   11.40180052
_cell_length_c   6.53177225
_cell_angle_alpha   90.05331639
_cell_angle_beta   90.05932691
_cell_angle_gamma   89.94366578
_symmetry_Int_Tables_number   1
_chemical_formula_structural   Nd19DyIr7Pt5
_chemical_formula_sum   'Nd19 Dy1 Ir7 Pt5'
_cell_volume   849.31970415
_cell_formula_units_Z   1
loop_
 _symmetry_equiv_pos_site_id
 _symmetry_equiv_pos_as_xyz
  1  'x, y, z'
loop_
 _atom_site_type_symbol
 _atom_site_label
 _atom_site_symmetry_multiplicity
 _atom_site_fract_x
 _atom_site_fract_y
 _atom_site_fract_z
 _atom_site_occupancy
  Nd  Nd0  1  0.295685  0.091698  0.375247  1
  Nd  Nd1  1  0.296621  0.907930  0.873972  1
  Nd  Nd2  1  0.703556  0.087276  0.873777  1
  Nd  Nd3  1  0.703326  0.906870  0.374129  1
  Nd  Nd4  1  0.587037  0.788661  0.880993  1
  Nd  Nd5  1  0.585238  0.207905  0.376058  1
  Nd  Nd6  1  0.412550  0.790114  0.380678  1
  Nd  Nd7  1  0.409357  0.208351  0.881915  1
  Nd  Nd8  1  0.211836  0.413171  0.618838  1
  Nd  Nd9  1  0.209198  0.587782  0.119537  1
  Nd  Nd10  1  0.792636  0.414138  0.124503  1
  Nd  Nd11  1  0.791314  0.590332  0.617943  1
  Nd  Nd12  1  0.908501  0.704159  0.124924  1
  Nd  Nd13  1  0.912733  0.296133  0.626404  1
  Nd  Nd14  1  0.092247  0.703537  0.625987  1
  Nd  Nd15  1  0.092888  0.296848  0.125885  1
  Nd  Nd16  1  0.999358  0.999496  0.499303  1
  Nd  Nd17  1  0.000525  0.000535  0.000691  1
  Nd  Nd18  1  0.498203  0.500776  0.000364  1
  Dy  Dy19  1  0.499207  0.501993  0.499556  1
  Ir  Ir20  1  0.650884  0.650532  0.253535  1
  Ir  Ir21  1  0.349894  0.348634  0.253365  1
  Ir  Ir22  1  0.347434  0.652238  0.746615  1
  Ir  Ir23  1  0.500122  0.000087  0.116875  1
  Ir  Ir24  1  0.499925  0.000831  0.618220  1
  Ir  Ir25  1  0.999093  0.500072  0.881990  1
  Ir  Ir26  1  0.999883  0.499863  0.382972  1
  Pt  Pt27  1  0.845045  0.155204  0.249935  1
  Pt  Pt28  1  0.845465  0.847178  0.750555  1
  Pt  Pt29  1  0.153127  0.154223  0.749907  1
  Pt  Pt30  1  0.154330  0.845421  0.249848  1
  Pt  Pt31  1  0.652780  0.348013  0.745477  1
