# generated using pymatgen
data_Ho20GeOs4Pd7
_symmetry_space_group_name_H-M   'P 1'
_cell_length_a   11.00760738
_cell_length_b   11.00760665
_cell_length_c   6.38375200
_cell_angle_alpha   89.94336842
_cell_angle_beta   89.94336842
_cell_angle_gamma   90.35493448
_symmetry_Int_Tables_number   1
_chemical_formula_structural   Ho20GeOs4Pd7
_chemical_formula_sum   'Ho20 Ge1 Os4 Pd7'
_cell_volume   773.48710794
_cell_formula_units_Z   1
loop_
 _symmetry_equiv_pos_site_id
 _symmetry_equiv_pos_as_xyz
  1  'x, y, z'
loop_
 _atom_site_type_symbol
 _atom_site_label
 _atom_site_symmetry_multiplicity
 _atom_site_fract_x
 _atom_site_fract_y
 _atom_site_fract_z
 _atom_site_occupancy
  Ho  Ho0  1  0.297727  0.084551  0.366790  1
  Ho  Ho1  1  0.297765  0.914777  0.866783  1
  Ho  Ho2  1  0.701611  0.084935  0.866627  1
  Ho  Ho3  1  0.700455  0.914921  0.367355  1
  Ho  Ho4  1  0.583642  0.797082  0.865717  1
  Ho  Ho5  1  0.585039  0.201730  0.367728  1
  Ho  Ho6  1  0.414640  0.797667  0.366776  1
  Ho  Ho7  1  0.414889  0.201546  0.866716  1
  Ho  Ho8  1  0.202918  0.416358  0.634283  1
  Ho  Ho9  1  0.202333  0.585360  0.133224  1
  Ho  Ho10  1  0.798270  0.414961  0.132272  1
  Ho  Ho11  1  0.798454  0.585111  0.633284  1
  Ho  Ho12  1  0.915449  0.702273  0.133210  1
  Ho  Ho13  1  0.915065  0.298389  0.633373  1
  Ho  Ho14  1  0.085223  0.702235  0.633217  1
  Ho  Ho15  1  0.085079  0.299545  0.132645  1
  Ho  Ho16  1  0.999836  0.000151  0.500956  1
  Ho  Ho17  1  0.999849  0.000164  0.999044  1
  Ho  Ho18  1  0.501617  0.496938  0.998951  1
  Ho  Ho19  1  0.503062  0.498383  0.501049  1
  Ge  Ge20  1  0.345119  0.654881  0.750000  1
  Os  Os21  1  0.500123  0.999362  0.119114  1
  Os  Os22  1  0.499704  0.999844  0.618688  1
  Os  Os23  1  0.000156  0.500296  0.881312  1
  Os  Os24  1  0.000638  0.499877  0.380886  1
  Pd  Pd25  1  0.846839  0.153161  0.250000  1
  Pd  Pd26  1  0.846014  0.846342  0.751172  1
  Pd  Pd27  1  0.153658  0.153986  0.748828  1
  Pd  Pd28  1  0.151136  0.848864  0.250000  1
  Pd  Pd29  1  0.653086  0.346914  0.750000  1
  Pd  Pd30  1  0.654047  0.653438  0.250189  1
  Pd  Pd31  1  0.346562  0.345953  0.249811  1
