# generated using pymatgen
data_CaCd(CuPd)2
_symmetry_space_group_name_H-M   'P 1'
_cell_length_a   5.10341414
_cell_length_b   5.26926824
_cell_length_c   5.26926807
_cell_angle_alpha   63.60242996
_cell_angle_beta   61.03585998
_cell_angle_gamma   61.03585853
_symmetry_Int_Tables_number   1
_chemical_formula_structural   CaCd(CuPd)2
_chemical_formula_sum   'Ca1 Cd1 Cu2 Pd2'
_cell_volume   104.30289227
_cell_formula_units_Z   1
loop_
 _symmetry_equiv_pos_site_id
 _symmetry_equiv_pos_as_xyz
  1  'x, y, z'
loop_
 _atom_site_type_symbol
 _atom_site_label
 _atom_site_symmetry_multiplicity
 _atom_site_fract_x
 _atom_site_fract_y
 _atom_site_fract_z
 _atom_site_occupancy
  Ca  Ca0  1  0.749032  0.750968  0.750968  1
  Cd  Cd1  1  0.994412  0.005588  0.005588  1
  Cu  Cu2  1  0.378673  0.372327  0.372327  1
  Cu  Cu3  1  0.876673  0.372327  0.372327  1
  Pd  Pd4  1  0.375605  0.373418  0.875372  1
  Pd  Pd5  1  0.375605  0.875372  0.373418  1
