# generated using pymatgen
data_Dy2Ho6SnHg3Au8
_symmetry_space_group_name_H-M   'P 1'
_cell_length_a   7.99981875
_cell_length_b   7.99963275
_cell_length_c   7.32150000
_cell_angle_alpha   90.00000000
_cell_angle_beta   90.00000000
_cell_angle_gamma   90.07572614
_symmetry_Int_Tables_number   1
_chemical_formula_structural   Dy2Ho6SnHg3Au8
_chemical_formula_sum   'Dy2 Ho6 Sn1 Hg3 Au8'
_cell_volume   468.54346414
_cell_formula_units_Z   1
loop_
 _symmetry_equiv_pos_site_id
 _symmetry_equiv_pos_as_xyz
  1  'x, y, z'
loop_
 _atom_site_type_symbol
 _atom_site_label
 _atom_site_symmetry_multiplicity
 _atom_site_fract_x
 _atom_site_fract_y
 _atom_site_fract_z
 _atom_site_occupancy
  Dy  Dy0  1  0.840741  0.159310  0.500117  1
  Dy  Dy1  1  0.159259  0.840690  0.500117  1
  Ho  Ho2  1  0.340823  0.340858  0.999856  1
  Ho  Ho3  1  0.659177  0.659142  0.999856  1
  Ho  Ho4  1  0.684297  0.685139  0.499688  1
  Ho  Ho5  1  0.315703  0.314861  0.499688  1
  Ho  Ho6  1  0.185227  0.815555  0.000302  1
  Ho  Ho7  1  0.814773  0.184445  0.000302  1
  Sn  Sn8  1  0.000000  0.500000  0.249944  1
  Hg  Hg9  1  0.500000  0.000000  0.249954  1
  Hg  Hg10  1  0.000000  0.500000  0.750099  1
  Hg  Hg11  1  0.500000  0.000000  0.750039  1
  Au  Au12  1  0.626383  0.372475  0.275869  1
  Au  Au13  1  0.373617  0.627525  0.275869  1
  Au  Au14  1  0.127920  0.126969  0.776043  1
  Au  Au15  1  0.872080  0.873031  0.776043  1
  Au  Au16  1  0.373407  0.627516  0.724703  1
  Au  Au17  1  0.626593  0.372484  0.724703  1
  Au  Au18  1  0.872082  0.873248  0.223406  1
  Au  Au19  1  0.127918  0.126752  0.223406  1
