# generated using pymatgen
data_NdDy2Sc7(Si5Ir2)4
_symmetry_space_group_name_H-M   'P 1'
_cell_length_a   12.48445512
_cell_length_b   12.48555543
_cell_length_c   4.15709400
_cell_angle_alpha   90.00000000
_cell_angle_beta   90.00000000
_cell_angle_gamma   90.18722946
_symmetry_Int_Tables_number   1
_chemical_formula_structural   NdDy2Sc7(Si5Ir2)4
_chemical_formula_sum   'Nd1 Dy2 Sc7 Si20 Ir8'
_cell_volume   647.98504893
_cell_formula_units_Z   1
loop_
 _symmetry_equiv_pos_site_id
 _symmetry_equiv_pos_as_xyz
  1  'x, y, z'
loop_
 _atom_site_type_symbol
 _atom_site_label
 _atom_site_symmetry_multiplicity
 _atom_site_fract_x
 _atom_site_fract_y
 _atom_site_fract_z
 _atom_site_occupancy
  Nd  Nd0  1  0.884661  0.384538  0.500000  1
  Dy  Dy1  1  0.115828  0.615723  0.500000  1
  Dy  Dy2  1  0.614861  0.885123  0.500000  1
  Sc  Sc3  1  0.384582  0.115399  0.500000  1
  Sc  Sc4  1  0.672771  0.173957  0.500000  1
  Sc  Sc5  1  0.325552  0.826718  0.500000  1
  Sc  Sc6  1  0.176009  0.324499  0.500000  1
  Sc  Sc7  1  0.825510  0.675036  0.500000  1
  Sc  Sc8  1  0.000791  0.999731  0.000000  1
  Sc  Sc9  1  0.499623  0.499291  0.000000  1
  Si  Si10  1  0.566319  0.067589  0.000000  1
  Si  Si11  1  0.432337  0.933600  0.000000  1
  Si  Si12  1  0.069427  0.431782  0.000000  1
  Si  Si13  1  0.932237  0.569043  0.000000  1
  Si  Si14  1  0.202237  0.164311  0.000000  1
  Si  Si15  1  0.799839  0.835251  0.000000  1
  Si  Si16  1  0.165699  0.801123  0.000000  1
  Si  Si17  1  0.697797  0.334380  0.000000  1
  Si  Si18  1  0.834536  0.199090  0.000000  1
  Si  Si19  1  0.299731  0.665546  0.000000  1
  Si  Si20  1  0.664485  0.700800  0.000000  1
  Si  Si21  1  0.335450  0.298411  0.000000  1
  Si  Si22  1  0.009036  0.149398  0.500000  1
  Si  Si23  1  0.992320  0.850060  0.500000  1
  Si  Si24  1  0.152809  0.993543  0.500000  1
  Si  Si25  1  0.506256  0.347184  0.500000  1
  Si  Si26  1  0.849361  0.009534  0.500000  1
  Si  Si27  1  0.490317  0.650636  0.500000  1
  Si  Si28  1  0.649145  0.508023  0.500000  1
  Si  Si29  1  0.349833  0.491280  0.500000  1
  Ir  Ir30  1  0.023078  0.241596  0.000000  1
  Ir  Ir31  1  0.979319  0.757285  0.000000  1
  Ir  Ir32  1  0.246464  0.980449  0.000000  1
  Ir  Ir33  1  0.519113  0.253472  0.000000  1
  Ir  Ir34  1  0.754949  0.020720  0.000000  1
  Ir  Ir35  1  0.478809  0.744994  0.000000  1
  Ir  Ir36  1  0.741610  0.522309  0.000000  1
  Ir  Ir37  1  0.257294  0.478582  0.000000  1
