# generated using pymatgen
data_Yb6Y2Al(Si4Pd)3
_symmetry_space_group_name_H-M   'P 1'
_cell_length_a   8.25892000
_cell_length_b   8.25891904
_cell_length_c   8.18842200
_cell_angle_alpha   90.00000000
_cell_angle_beta   90.00000000
_cell_angle_gamma   119.99999582
_symmetry_Int_Tables_number   1
_chemical_formula_structural   Yb6Y2Al(Si4Pd)3
_chemical_formula_sum   'Yb6 Y2 Al1 Si12 Pd3'
_cell_volume   483.70138929
_cell_formula_units_Z   1
loop_
 _symmetry_equiv_pos_site_id
 _symmetry_equiv_pos_as_xyz
  1  'x, y, z'
loop_
 _atom_site_type_symbol
 _atom_site_label
 _atom_site_symmetry_multiplicity
 _atom_site_fract_x
 _atom_site_fract_y
 _atom_site_fract_z
 _atom_site_occupancy
  Yb  Yb0  1  0.502940  0.005880  0.256898  1
  Yb  Yb1  1  0.501572  0.003144  0.743272  1
  Yb  Yb2  1  0.994120  0.497060  0.256898  1
  Yb  Yb3  1  0.996856  0.498428  0.743272  1
  Yb  Yb4  1  0.502940  0.497060  0.256898  1
  Yb  Yb5  1  0.501572  0.498428  0.743272  1
  Y  Y6  1  0.000000  0.000000  0.251374  1
  Y  Y7  1  0.000000  0.000000  0.747851  1
  Al  Al8  1  0.333333  0.666667  0.004560  1
  Si  Si9  1  0.160386  0.320773  0.998785  1
  Si  Si10  1  0.833890  0.667779  0.000663  1
  Si  Si11  1  0.679227  0.839614  0.998785  1
  Si  Si12  1  0.836851  0.673702  0.500369  1
  Si  Si13  1  0.332221  0.166110  0.000663  1
  Si  Si14  1  0.164410  0.328821  0.499682  1
  Si  Si15  1  0.160386  0.839614  0.998785  1
  Si  Si16  1  0.326298  0.163149  0.500369  1
  Si  Si17  1  0.833890  0.166110  0.000663  1
  Si  Si18  1  0.671179  0.835590  0.499682  1
  Si  Si19  1  0.836851  0.163149  0.500369  1
  Si  Si20  1  0.164410  0.835590  0.499682  1
  Pd  Pd21  1  0.666667  0.333333  0.997909  1
  Pd  Pd22  1  0.666667  0.333333  0.501858  1
  Pd  Pd23  1  0.333333  0.666667  0.497439  1
