# generated using pymatgen
data_Tb5(Hg2Pd)2
_symmetry_space_group_name_H-M   'P 1'
_cell_length_a   7.98274300
_cell_length_b   18.25505000
_cell_length_c   3.67010300
_cell_angle_alpha   90.00000000
_cell_angle_beta   90.00000000
_cell_angle_gamma   90.00000000
_symmetry_Int_Tables_number   1
_chemical_formula_structural   Tb5(Hg2Pd)2
_chemical_formula_sum   'Tb10 Hg8 Pd4'
_cell_volume   534.82712716
_cell_formula_units_Z   2
loop_
 _symmetry_equiv_pos_site_id
 _symmetry_equiv_pos_as_xyz
  1  'x, y, z'
loop_
 _atom_site_type_symbol
 _atom_site_label
 _atom_site_symmetry_multiplicity
 _atom_site_fract_x
 _atom_site_fract_y
 _atom_site_fract_z
 _atom_site_occupancy
  Tb  Tb0  1  0.500000  0.500000  0.000000  1
  Tb  Tb1  1  0.000000  0.000000  0.000000  1
  Tb  Tb2  1  0.737087  0.284280  0.000000  1
  Tb  Tb3  1  0.262913  0.715720  0.000000  1
  Tb  Tb4  1  0.762913  0.784280  0.000000  1
  Tb  Tb5  1  0.237087  0.215720  0.000000  1
  Tb  Tb6  1  0.615171  0.084487  0.000000  1
  Tb  Tb7  1  0.384829  0.915513  0.000000  1
  Tb  Tb8  1  0.884829  0.584487  0.000000  1
  Tb  Tb9  1  0.115171  0.415513  0.000000  1
  Hg  Hg10  1  0.711410  0.934719  0.500000  1
  Hg  Hg11  1  0.288590  0.065281  0.500000  1
  Hg  Hg12  1  0.788590  0.434719  0.500000  1
  Hg  Hg13  1  0.211410  0.565281  0.500000  1
  Hg  Hg14  1  0.579506  0.648101  0.500000  1
  Hg  Hg15  1  0.420494  0.351899  0.500000  1
  Hg  Hg16  1  0.920494  0.148101  0.500000  1
  Hg  Hg17  1  0.079506  0.851899  0.500000  1
  Pd  Pd18  1  0.525951  0.195965  0.500000  1
  Pd  Pd19  1  0.474049  0.804035  0.500000  1
  Pd  Pd20  1  0.974049  0.695965  0.500000  1
  Pd  Pd21  1  0.025951  0.304035  0.500000  1
