# generated using pymatgen
data_Pr2Dy3Ga4
_symmetry_space_group_name_H-M   'P 1'
_cell_length_a   7.67884800
_cell_length_b   8.06842300
_cell_length_c   15.38085500
_cell_angle_alpha   90.00000000
_cell_angle_beta   90.00000000
_cell_angle_gamma   90.00000000
_symmetry_Int_Tables_number   1
_chemical_formula_structural   Pr2Dy3Ga4
_chemical_formula_sum   'Pr8 Dy12 Ga16'
_cell_volume   952.93923345
_cell_formula_units_Z   4
loop_
 _symmetry_equiv_pos_site_id
 _symmetry_equiv_pos_as_xyz
  1  'x, y, z'
loop_
 _atom_site_type_symbol
 _atom_site_label
 _atom_site_symmetry_multiplicity
 _atom_site_fract_x
 _atom_site_fract_y
 _atom_site_fract_z
 _atom_site_occupancy
  Pr  Pr0  1  0.021425  0.180556  0.406210  1
  Pr  Pr1  1  0.521425  0.319444  0.406210  1
  Pr  Pr2  1  0.478575  0.680556  0.906210  1
  Pr  Pr3  1  0.478575  0.680556  0.593790  1
  Pr  Pr4  1  0.978575  0.819444  0.593790  1
  Pr  Pr5  1  0.978575  0.819444  0.906210  1
  Pr  Pr6  1  0.521425  0.319444  0.093790  1
  Pr  Pr7  1  0.021425  0.180556  0.093790  1
  Dy  Dy8  1  0.321163  0.175708  0.622089  1
  Dy  Dy9  1  0.678837  0.824292  0.377911  1
  Dy  Dy10  1  0.657665  0.985459  0.750000  1
  Dy  Dy11  1  0.178837  0.675708  0.377911  1
  Dy  Dy12  1  0.821163  0.324292  0.877911  1
  Dy  Dy13  1  0.821163  0.324292  0.622089  1
  Dy  Dy14  1  0.842335  0.485459  0.250000  1
  Dy  Dy15  1  0.342335  0.014541  0.250000  1
  Dy  Dy16  1  0.321163  0.175708  0.877911  1
  Dy  Dy17  1  0.178837  0.675708  0.122089  1
  Dy  Dy18  1  0.678837  0.824292  0.122089  1
  Dy  Dy19  1  0.157665  0.514541  0.750000  1
  Ga  Ga20  1  0.268359  0.879330  0.750000  1
  Ga  Ga21  1  0.473253  0.611841  0.250000  1
  Ga  Ga22  1  0.026747  0.111841  0.750000  1
  Ga  Ga23  1  0.526747  0.388159  0.750000  1
  Ga  Ga24  1  0.151508  0.470399  0.541242  1
  Ga  Ga25  1  0.973253  0.888159  0.250000  1
  Ga  Ga26  1  0.731641  0.120670  0.250000  1
  Ga  Ga27  1  0.848492  0.529601  0.041242  1
  Ga  Ga28  1  0.348492  0.970399  0.041242  1
  Ga  Ga29  1  0.151508  0.470399  0.958758  1
  Ga  Ga30  1  0.651508  0.029601  0.541242  1
  Ga  Ga31  1  0.348492  0.970399  0.458758  1
  Ga  Ga32  1  0.848492  0.529601  0.458758  1
  Ga  Ga33  1  0.768359  0.620670  0.750000  1
  Ga  Ga34  1  0.231641  0.379330  0.250000  1
  Ga  Ga35  1  0.651508  0.029601  0.958758  1
