# generated using pymatgen
data_Nb12Cr3Os9C3N
_symmetry_space_group_name_H-M   'P 1'
_cell_length_a   8.27533694
_cell_length_b   8.27533616
_cell_length_c   8.38004150
_cell_angle_alpha   60.41246068
_cell_angle_beta   60.41246856
_cell_angle_gamma   59.99999703
_symmetry_Int_Tables_number   1
_chemical_formula_structural   Nb12Cr3Os9C3N
_chemical_formula_sum   'Nb12 Cr3 Os9 C3 N1'
_cell_volume   408.30256615
_cell_formula_units_Z   1
loop_
 _symmetry_equiv_pos_site_id
 _symmetry_equiv_pos_as_xyz
  1  'x, y, z'
loop_
 _atom_site_type_symbol
 _atom_site_label
 _atom_site_symmetry_multiplicity
 _atom_site_fract_x
 _atom_site_fract_y
 _atom_site_fract_z
 _atom_site_occupancy
  Nb  Nb0  1  0.806905  0.806905  0.192374  1
  Nb  Nb1  1  0.191266  0.191266  0.809168  1
  Nb  Nb2  1  0.808300  0.191266  0.809168  1
  Nb  Nb3  1  0.193814  0.806905  0.192374  1
  Nb  Nb4  1  0.191266  0.808300  0.809168  1
  Nb  Nb5  1  0.806905  0.193814  0.192374  1
  Nb  Nb6  1  0.443095  0.443095  0.057626  1
  Nb  Nb7  1  0.058734  0.058734  0.440832  1
  Nb  Nb8  1  0.441700  0.058734  0.440832  1
  Nb  Nb9  1  0.056186  0.443095  0.057626  1
  Nb  Nb10  1  0.058734  0.441700  0.440832  1
  Nb  Nb11  1  0.443095  0.056186  0.057626  1
  Cr  Cr12  1  0.125000  0.625000  0.625000  1
  Cr  Cr13  1  0.625000  0.125000  0.625000  1
  Cr  Cr14  1  0.625000  0.625000  0.625000  1
  Os  Os15  1  0.625000  0.625000  0.125000  1
  Os  Os16  1  0.744127  0.414428  0.427017  1
  Os  Os17  1  0.414428  0.744127  0.427017  1
  Os  Os18  1  0.417164  0.417164  0.748510  1
  Os  Os19  1  0.414428  0.414428  0.427017  1
  Os  Os20  1  0.505873  0.835572  0.822983  1
  Os  Os21  1  0.835572  0.505873  0.822983  1
  Os  Os22  1  0.832836  0.832836  0.501490  1
  Os  Os23  1  0.835572  0.835572  0.822983  1
  C  C24  1  0.625000  0.125000  0.125000  1
  C  C25  1  0.125000  0.625000  0.125000  1
  C  C26  1  0.125000  0.125000  0.125000  1
  N  N27  1  0.125000  0.125000  0.625000  1
