# generated using pymatgen
data_Nd2Si7Ir12
_symmetry_space_group_name_H-M   'P 1'
_cell_length_a   9.80674300
_cell_length_b   9.80674239
_cell_length_c   3.91509600
_cell_angle_alpha   90.00000000
_cell_angle_beta   90.00000000
_cell_angle_gamma   120.00001217
_symmetry_Int_Tables_number   1
_chemical_formula_structural   Nd2Si7Ir12
_chemical_formula_sum   'Nd2 Si7 Ir12'
_cell_volume   326.07879354
_cell_formula_units_Z   1
loop_
 _symmetry_equiv_pos_site_id
 _symmetry_equiv_pos_as_xyz
  1  'x, y, z'
loop_
 _atom_site_type_symbol
 _atom_site_label
 _atom_site_symmetry_multiplicity
 _atom_site_fract_x
 _atom_site_fract_y
 _atom_site_fract_z
 _atom_site_occupancy
  Nd  Nd0  1  0.333333  0.666667  0.749751  1
  Nd  Nd1  1  0.666667  0.333333  0.250249  1
  Si  Si2  1  0.000000  0.000000  0.500000  1
  Si  Si3  1  0.887720  0.597185  0.751773  1
  Si  Si4  1  0.402815  0.290537  0.751773  1
  Si  Si5  1  0.709463  0.112280  0.751773  1
  Si  Si6  1  0.112280  0.402815  0.248227  1
  Si  Si7  1  0.597185  0.709463  0.248227  1
  Si  Si8  1  0.290537  0.887720  0.248227  1
  Ir  Ir9  1  0.619298  0.558190  0.751255  1
  Ir  Ir10  1  0.441810  0.061110  0.751255  1
  Ir  Ir11  1  0.938890  0.380702  0.751255  1
  Ir  Ir12  1  0.380702  0.441810  0.248745  1
  Ir  Ir13  1  0.558190  0.938890  0.248745  1
  Ir  Ir14  1  0.061110  0.619298  0.248745  1
  Ir  Ir15  1  0.117293  0.856015  0.745775  1
  Ir  Ir16  1  0.143985  0.261278  0.745775  1
  Ir  Ir17  1  0.738722  0.882707  0.745775  1
  Ir  Ir18  1  0.882707  0.143985  0.254225  1
  Ir  Ir19  1  0.856015  0.738722  0.254225  1
  Ir  Ir20  1  0.261278  0.117293  0.254225  1
