# generated using pymatgen
data_TbY2Ho3(Co3P2)6
_symmetry_space_group_name_H-M   'P 1'
_cell_length_a   3.69507100
_cell_length_b   10.50598004
_cell_length_c   12.16719905
_cell_angle_alpha   90.01012939
_cell_angle_beta   90.00000000
_cell_angle_gamma   90.00000000
_symmetry_Int_Tables_number   1
_chemical_formula_structural   TbY2Ho3(Co3P2)6
_chemical_formula_sum   'Tb1 Y2 Ho3 Co18 P12'
_cell_volume   472.33482297
_cell_formula_units_Z   1
loop_
 _symmetry_equiv_pos_site_id
 _symmetry_equiv_pos_as_xyz
  1  'x, y, z'
loop_
 _atom_site_type_symbol
 _atom_site_label
 _atom_site_symmetry_multiplicity
 _atom_site_fract_x
 _atom_site_fract_y
 _atom_site_fract_z
 _atom_site_occupancy
  Tb  Tb0  1  0.500000  0.999926  0.477642  1
  Y  Y1  1  0.000000  0.500131  0.522311  1
  Y  Y2  1  0.500000  0.182780  0.205585  1
  Ho  Ho3  1  0.500000  0.817084  0.205735  1
  Ho  Ho4  1  0.000000  0.682699  0.794210  1
  Ho  Ho5  1  0.000000  0.317312  0.794258  1
  Co  Co6  1  0.500000  0.500132  0.158674  1
  Co  Co7  1  0.000000  0.999963  0.841278  1
  Co  Co8  1  0.500000  0.500019  0.703895  1
  Co  Co9  1  0.000000  0.999243  0.296332  1
  Co  Co10  1  0.000000  0.500317  0.985863  1
  Co  Co11  1  0.500000  0.999799  0.013658  1
  Co  Co12  1  0.500000  0.333539  0.994299  1
  Co  Co13  1  0.500000  0.666653  0.994614  1
  Co  Co14  1  0.000000  0.166580  0.004978  1
  Co  Co15  1  0.000000  0.833152  0.005243  1
  Co  Co16  1  0.500000  0.297361  0.430824  1
  Co  Co17  1  0.500000  0.702803  0.430452  1
  Co  Co18  1  0.000000  0.202999  0.569795  1
  Co  Co19  1  0.000000  0.796974  0.569602  1
  Co  Co20  1  0.500000  0.879091  0.710067  1
  Co  Co21  1  0.500000  0.120904  0.710082  1
  Co  Co22  1  0.000000  0.620970  0.289981  1
  Co  Co23  1  0.000000  0.379703  0.290281  1
  P  P24  1  0.500000  0.500082  0.882668  1
  P  P25  1  0.000000  0.999407  0.117046  1
  P  P26  1  0.500000  0.500049  0.343615  1
  P  P27  1  0.000000  0.999997  0.656593  1
  P  P28  1  0.500000  0.310456  0.616686  1
  P  P29  1  0.500000  0.689604  0.616557  1
  P  P30  1  0.000000  0.189772  0.384029  1
  P  P31  1  0.000000  0.809994  0.383517  1
  P  P32  1  0.500000  0.847194  0.893105  1
  P  P33  1  0.500000  0.152714  0.893177  1
  P  P34  1  0.000000  0.652701  0.106800  1
  P  P35  1  0.000000  0.347895  0.106549  1
