# generated using pymatgen
data_Sr2TbUO6
_symmetry_space_group_name_H-M   'P 1'
_cell_length_a   6.07770580
_cell_length_b   6.07770802
_cell_length_c   6.07770685
_cell_angle_alpha   60.22913694
_cell_angle_beta   60.22912807
_cell_angle_gamma   60.22912769
_symmetry_Int_Tables_number   1
_chemical_formula_structural   Sr2TbUO6
_chemical_formula_sum   'Sr2 Tb1 U1 O6'
_cell_volume   159.57001966
_cell_formula_units_Z   1
loop_
 _symmetry_equiv_pos_site_id
 _symmetry_equiv_pos_as_xyz
  1  'x, y, z'
loop_
 _atom_site_type_symbol
 _atom_site_label
 _atom_site_symmetry_multiplicity
 _atom_site_fract_x
 _atom_site_fract_y
 _atom_site_fract_z
 _atom_site_occupancy
  Sr  Sr0  1  0.259574  0.259574  0.259574  1
  Sr  Sr1  1  0.740426  0.740426  0.740426  1
  Tb  Tb2  1  0.000000  0.000000  0.000000  1
  U  U3  1  0.500000  0.500000  0.500000  1
  O  O4  1  0.732888  0.347411  0.167291  1
  O  O5  1  0.652590  0.832709  0.267111  1
  O  O6  1  0.167291  0.732888  0.347410  1
  O  O7  1  0.832708  0.267112  0.652590  1
  O  O8  1  0.347410  0.167291  0.732889  1
  O  O9  1  0.267112  0.652589  0.832709  1
