# generated using pymatgen
data_YbY2Er(Ga3Ir)6
_symmetry_space_group_name_H-M   'P 1'
_cell_length_a   7.57669503
_cell_length_b   7.58068916
_cell_length_c   9.52849000
_cell_angle_alpha   90.00000000
_cell_angle_beta   90.00000000
_cell_angle_gamma   119.76716824
_symmetry_Int_Tables_number   1
_chemical_formula_structural   YbY2Er(Ga3Ir)6
_chemical_formula_sum   'Yb1 Y2 Er1 Ga18 Ir6'
_cell_volume   475.06973473
_cell_formula_units_Z   1
loop_
 _symmetry_equiv_pos_site_id
 _symmetry_equiv_pos_as_xyz
  1  'x, y, z'
loop_
 _atom_site_type_symbol
 _atom_site_label
 _atom_site_symmetry_multiplicity
 _atom_site_fract_x
 _atom_site_fract_y
 _atom_site_fract_z
 _atom_site_occupancy
  Yb  Yb0  1  0.996315  0.668569  0.750000  1
  Y  Y1  1  0.001277  0.330935  0.250000  1
  Y  Y2  1  0.669042  0.998465  0.750000  1
  Er  Er3  1  0.330153  0.000331  0.250000  1
  Ga  Ga4  1  0.126603  0.127668  0.750000  1
  Ga  Ga5  1  0.872562  0.871934  0.250000  1
  Ga  Ga6  1  0.000983  0.336826  0.580574  1
  Ga  Ga7  1  0.000246  0.664970  0.420891  1
  Ga  Ga8  1  0.000246  0.664970  0.079109  1
  Ga  Ga9  1  0.332838  0.998672  0.920216  1
  Ga  Ga10  1  0.000983  0.336826  0.919426  1
  Ga  Ga11  1  0.664808  0.000570  0.080804  1
  Ga  Ga12  1  0.664808  0.000570  0.419196  1
  Ga  Ga13  1  0.332838  0.998672  0.579784  1
  Ga  Ga14  1  0.332537  0.331794  0.066159  1
  Ga  Ga15  1  0.669044  0.667605  0.938402  1
  Ga  Ga16  1  0.669044  0.667605  0.561598  1
  Ga  Ga17  1  0.332537  0.331794  0.433841  1
  Ga  Ga18  1  0.339471  0.547746  0.750000  1
  Ga  Ga19  1  0.661382  0.452862  0.250000  1
  Ga  Ga20  1  0.546104  0.337572  0.750000  1
  Ga  Ga21  1  0.453486  0.661468  0.250000  1
  Ir  Ir22  1  0.670532  0.328070  0.499692  1
  Ir  Ir23  1  0.329497  0.671353  0.499151  1
  Ir  Ir24  1  0.329497  0.671353  0.000849  1
  Ir  Ir25  1  0.670532  0.328070  0.000308  1
  Ir  Ir26  1  0.001317  0.001364  0.498657  1
  Ir  Ir27  1  0.001317  0.001364  0.001343  1
