# generated using pymatgen
data_Dy3Tm2Mg3(P3Ir4)4
_symmetry_space_group_name_H-M   'P 1'
_cell_length_a   12.79727000
_cell_length_b   12.79890429
_cell_length_c   3.97958100
_cell_angle_alpha   90.00000000
_cell_angle_beta   90.00000000
_cell_angle_gamma   119.99577613
_symmetry_Int_Tables_number   1
_chemical_formula_structural   Dy3Tm2Mg3(P3Ir4)4
_chemical_formula_sum   'Dy3 Tm2 Mg3 P12 Ir16'
_cell_volume   564.51643207
_cell_formula_units_Z   1
loop_
 _symmetry_equiv_pos_site_id
 _symmetry_equiv_pos_as_xyz
  1  'x, y, z'
loop_
 _atom_site_type_symbol
 _atom_site_label
 _atom_site_symmetry_multiplicity
 _atom_site_fract_x
 _atom_site_fract_y
 _atom_site_fract_z
 _atom_site_occupancy
  Dy  Dy0  1  0.333308  0.666653  0.500000  1
  Dy  Dy1  1  0.666656  0.333347  0.500000  1
  Dy  Dy2  1  0.809741  0.000000  0.000000  1
  Tm  Tm3  1  0.000014  0.809527  0.000000  1
  Tm  Tm4  1  0.190486  0.190473  0.000000  1
  Mg  Mg5  1  0.999979  0.445111  0.500000  1
  Mg  Mg6  1  0.554869  0.554889  0.500000  1
  Mg  Mg7  1  0.445016  0.000000  0.500000  1
  P  P8  1  0.999993  0.642047  0.500000  1
  P  P9  1  0.357945  0.357953  0.500000  1
  P  P10  1  0.641502  0.000000  0.500000  1
  P  P11  1  0.516204  0.688256  0.000000  1
  P  P12  1  0.311732  0.827870  0.000000  1
  P  P13  1  0.172119  0.483928  0.000000  1
  P  P14  1  0.483862  0.172130  0.000000  1
  P  P15  1  0.688191  0.516072  0.000000  1
  P  P16  1  0.827949  0.311744  0.000000  1
  P  P17  1  0.000273  0.177205  0.500000  1
  P  P18  1  0.823068  0.822795  0.500000  1
  P  P19  1  0.177119  0.000000  0.500000  1
  Ir  Ir20  1  0.508842  0.868061  0.000000  1
  Ir  Ir21  1  0.132017  0.640867  0.000000  1
  Ir  Ir22  1  0.359179  0.491191  0.000000  1
  Ir  Ir23  1  0.491151  0.359133  0.000000  1
  Ir  Ir24  1  0.867988  0.508809  0.000000  1
  Ir  Ir25  1  0.640783  0.131939  0.000000  1
  Ir  Ir26  1  0.000309  0.279260  0.000000  1
  Ir  Ir27  1  0.721049  0.720740  0.000000  1
  Ir  Ir28  1  0.278843  0.000000  0.000000  1
  Ir  Ir29  1  0.627931  0.806277  0.500000  1
  Ir  Ir30  1  0.192811  0.821624  0.500000  1
  Ir  Ir31  1  0.178436  0.371239  0.500000  1
  Ir  Ir32  1  0.371186  0.178376  0.500000  1
  Ir  Ir33  1  0.807197  0.628761  0.500000  1
  Ir  Ir34  1  0.821654  0.193723  0.500000  1
  Ir  Ir35  1  0.000596  0.000000  0.500000  1
