# generated using pymatgen
data_Sc2Al6Si3IrOs2
_symmetry_space_group_name_H-M   'P 1'
_cell_length_a   7.39754562
_cell_length_b   7.37551520
_cell_length_c   9.25915398
_cell_angle_alpha   89.99655797
_cell_angle_beta   90.11662388
_cell_angle_gamma   120.20977563
_symmetry_Int_Tables_number   1
_chemical_formula_structural   Sc2Al6Si3IrOs2
_chemical_formula_sum   'Sc4 Al12 Si6 Ir2 Os4'
_cell_volume   436.57500548
_cell_formula_units_Z   2
loop_
 _symmetry_equiv_pos_site_id
 _symmetry_equiv_pos_as_xyz
  1  'x, y, z'
loop_
 _atom_site_type_symbol
 _atom_site_label
 _atom_site_symmetry_multiplicity
 _atom_site_fract_x
 _atom_site_fract_y
 _atom_site_fract_z
 _atom_site_occupancy
  Sc  Sc0  1  0.000337  0.664379  0.752997  1
  Sc  Sc1  1  0.999663  0.335621  0.247003  1
  Sc  Sc2  1  0.676408  0.009613  0.756707  1
  Sc  Sc3  1  0.323592  0.990387  0.243293  1
  Al  Al4  1  0.126491  0.126824  0.750003  1
  Al  Al5  1  0.873509  0.873176  0.249997  1
  Al  Al6  1  0.660726  0.998155  0.425658  1
  Al  Al7  1  0.339274  0.001845  0.574342  1
  Al  Al8  1  0.336373  0.334765  0.064686  1
  Al  Al9  1  0.663627  0.665235  0.935314  1
  Al  Al10  1  0.663448  0.667804  0.563821  1
  Al  Al11  1  0.336552  0.332196  0.436179  1
  Al  Al12  1  0.338317  0.553796  0.749758  1
  Al  Al13  1  0.661683  0.446204  0.250242  1
  Al  Al14  1  0.551943  0.342264  0.750737  1
  Al  Al15  1  0.448057  0.657736  0.249263  1
  Si  Si16  1  0.000671  0.329567  0.568374  1
  Si  Si17  1  0.999329  0.670433  0.431626  1
  Si  Si18  1  0.992894  0.663459  0.073494  1
  Si  Si19  1  0.336588  0.005578  0.920987  1
  Si  Si20  1  0.007106  0.336541  0.926506  1
  Si  Si21  1  0.663412  0.994422  0.079013  1
  Ir  Ir22  1  0.000000  0.000000  0.500000  1
  Ir  Ir23  1  0.000000  0.000000  0.000000  1
  Os  Os24  1  0.689473  0.336277  0.503082  1
  Os  Os25  1  0.310527  0.663723  0.496918  1
  Os  Os26  1  0.317696  0.681698  0.000125  1
  Os  Os27  1  0.682304  0.318302  0.999875  1
