# generated using pymatgen
data_TaMn2NbSi2
_symmetry_space_group_name_H-M   'P 1'
_cell_length_a   3.54785200
_cell_length_b   6.36586500
_cell_length_c   7.48065200
_cell_angle_alpha   90.00000000
_cell_angle_beta   90.00000000
_cell_angle_gamma   90.00000000
_symmetry_Int_Tables_number   1
_chemical_formula_structural   TaMn2NbSi2
_chemical_formula_sum   'Ta2 Mn4 Nb2 Si4'
_cell_volume   168.95162412
_cell_formula_units_Z   2
loop_
 _symmetry_equiv_pos_site_id
 _symmetry_equiv_pos_as_xyz
  1  'x, y, z'
loop_
 _atom_site_type_symbol
 _atom_site_label
 _atom_site_symmetry_multiplicity
 _atom_site_fract_x
 _atom_site_fract_y
 _atom_site_fract_z
 _atom_site_occupancy
  Ta  Ta0  1  0.750000  0.033642  0.673295  1
  Ta  Ta1  1  0.750000  0.533642  0.826705  1
  Mn  Mn2  1  0.250000  0.361775  0.564028  1
  Mn  Mn3  1  0.250000  0.861775  0.935972  1
  Mn  Mn4  1  0.750000  0.637937  0.438786  1
  Mn  Mn5  1  0.750000  0.137937  0.061214  1
  Nb  Nb6  1  0.250000  0.966546  0.327491  1
  Nb  Nb7  1  0.250000  0.466546  0.172509  1
  Si  Si8  1  0.250000  0.734318  0.629238  1
  Si  Si9  1  0.250000  0.234318  0.870762  1
  Si  Si10  1  0.750000  0.265784  0.370807  1
  Si  Si11  1  0.750000  0.765784  0.129193  1
