# generated using pymatgen
data_Er2Ta3Co9As7
_symmetry_space_group_name_H-M   'P 1'
_cell_length_a   3.80273900
_cell_length_b   9.53092014
_cell_length_c   9.53092000
_cell_angle_alpha   119.99999952
_cell_angle_beta   90.00000000
_cell_angle_gamma   90.00000000
_symmetry_Int_Tables_number   1
_chemical_formula_structural   Er2Ta3Co9As7
_chemical_formula_sum   'Er2 Ta3 Co9 As7'
_cell_volume   299.15537285
_cell_formula_units_Z   1
loop_
 _symmetry_equiv_pos_site_id
 _symmetry_equiv_pos_as_xyz
  1  'x, y, z'
loop_
 _atom_site_type_symbol
 _atom_site_label
 _atom_site_symmetry_multiplicity
 _atom_site_fract_x
 _atom_site_fract_y
 _atom_site_fract_z
 _atom_site_occupancy
  Er  Er0  1  0.000000  0.666667  0.333333  1
  Er  Er1  1  0.500000  0.333333  0.666667  1
  Ta  Ta2  1  0.500000  0.774975  0.896550  1
  Ta  Ta3  1  0.500000  0.121575  0.225025  1
  Ta  Ta4  1  0.500000  0.103450  0.878425  1
  Co  Co5  1  0.000000  0.571348  0.936165  1
  Co  Co6  1  0.000000  0.364816  0.428652  1
  Co  Co7  1  0.000000  0.063835  0.635184  1
  Co  Co8  1  0.000000  0.878365  0.159504  1
  Co  Co9  1  0.000000  0.281139  0.121635  1
  Co  Co10  1  0.000000  0.840496  0.718861  1
  Co  Co11  1  0.500000  0.948230  0.384147  1
  Co  Co12  1  0.500000  0.435916  0.051770  1
  Co  Co13  1  0.500000  0.615853  0.564084  1
  As  As14  1  0.000000  0.000000  0.000000  1
  As  As15  1  0.500000  0.707872  0.125871  1
  As  As16  1  0.500000  0.418000  0.292128  1
  As  As17  1  0.500000  0.874129  0.582000  1
  As  As18  1  0.000000  0.578661  0.691460  1
  As  As19  1  0.000000  0.112800  0.421339  1
  As  As20  1  0.000000  0.308540  0.887200  1
