# generated using pymatgen
data_Tm4Cu3Ir
_symmetry_space_group_name_H-M   'P 1'
_cell_length_a   4.41463100
_cell_length_b   5.40543913
_cell_length_c   6.92847495
_cell_angle_alpha   90.19031638
_cell_angle_beta   90.00000000
_cell_angle_gamma   90.00000000
_symmetry_Int_Tables_number   1
_chemical_formula_structural   Tm4Cu3Ir
_chemical_formula_sum   'Tm4 Cu3 Ir1'
_cell_volume   165.33341833
_cell_formula_units_Z   1
loop_
 _symmetry_equiv_pos_site_id
 _symmetry_equiv_pos_as_xyz
  1  'x, y, z'
loop_
 _atom_site_type_symbol
 _atom_site_label
 _atom_site_symmetry_multiplicity
 _atom_site_fract_x
 _atom_site_fract_y
 _atom_site_fract_z
 _atom_site_occupancy
  Tm  Tm0  1  0.250000  0.631030  0.183660  1
  Tm  Tm1  1  0.750000  0.360334  0.808276  1
  Tm  Tm2  1  0.750000  0.144077  0.326490  1
  Tm  Tm3  1  0.250000  0.864995  0.679031  1
  Cu  Cu4  1  0.250000  0.124922  0.034677  1
  Cu  Cu5  1  0.750000  0.874309  0.973298  1
  Cu  Cu6  1  0.750000  0.643437  0.458338  1
  Ir  Ir7  1  0.250000  0.356896  0.536229  1
