# generated using pymatgen
data_Ac4Hg3Au10
_symmetry_space_group_name_H-M   'P 1'
_cell_length_a   9.13929407
_cell_length_b   9.13929593
_cell_length_c   10.61876000
_cell_angle_alpha   90.00000000
_cell_angle_beta   90.00000000
_cell_angle_gamma   108.75149805
_symmetry_Int_Tables_number   1
_chemical_formula_structural   Ac4Hg3Au10
_chemical_formula_sum   'Ac8 Hg6 Au20'
_cell_volume   839.87233766
_cell_formula_units_Z   2
loop_
 _symmetry_equiv_pos_site_id
 _symmetry_equiv_pos_as_xyz
  1  'x, y, z'
loop_
 _atom_site_type_symbol
 _atom_site_label
 _atom_site_symmetry_multiplicity
 _atom_site_fract_x
 _atom_site_fract_y
 _atom_site_fract_z
 _atom_site_occupancy
  Ac  Ac0  1  0.705996  0.294004  0.000000  1
  Ac  Ac1  1  0.205996  0.794004  0.500000  1
  Ac  Ac2  1  0.803799  0.803799  0.289886  1
  Ac  Ac3  1  0.303799  0.303799  0.210114  1
  Ac  Ac4  1  0.794004  0.205996  0.500000  1
  Ac  Ac5  1  0.294004  0.705996  0.000000  1
  Ac  Ac6  1  0.696201  0.696201  0.789886  1
  Ac  Ac7  1  0.196201  0.196201  0.710114  1
  Hg  Hg8  1  0.524734  0.024734  0.250000  1
  Hg  Hg9  1  0.975266  0.475266  0.750000  1
  Hg  Hg10  1  0.000000  0.000000  0.000000  1
  Hg  Hg11  1  0.024734  0.524734  0.250000  1
  Hg  Hg12  1  0.475266  0.975266  0.750000  1
  Hg  Hg13  1  0.500000  0.500000  0.500000  1
  Au  Au14  1  0.156484  0.423772  0.481341  1
  Au  Au15  1  0.904241  0.904241  0.589180  1
  Au  Au16  1  0.576228  0.843516  0.518659  1
  Au  Au17  1  0.902352  0.171136  0.210901  1
  Au  Au18  1  0.402352  0.671136  0.289099  1
  Au  Au19  1  0.671136  0.402352  0.289099  1
  Au  Au20  1  0.404241  0.404241  0.910820  1
  Au  Au21  1  0.923772  0.656484  0.018659  1
  Au  Au22  1  0.328864  0.597648  0.710901  1
  Au  Au23  1  0.343516  0.076228  0.981341  1
  Au  Au24  1  0.595759  0.595759  0.089180  1
  Au  Au25  1  0.656484  0.923772  0.018659  1
  Au  Au26  1  0.095759  0.095759  0.410820  1
  Au  Au27  1  0.597648  0.328864  0.710901  1
  Au  Au28  1  0.097648  0.828864  0.789099  1
  Au  Au29  1  0.076228  0.343516  0.981341  1
  Au  Au30  1  0.843516  0.576228  0.518659  1
  Au  Au31  1  0.171136  0.902352  0.210901  1
  Au  Au32  1  0.423772  0.156484  0.481341  1
  Au  Au33  1  0.828864  0.097648  0.789099  1
