# generated using pymatgen
data_Tb3TmLu(ReO6)2
_symmetry_space_group_name_H-M   'P 1'
_cell_length_a   6.81125659
_cell_length_b   6.81125725
_cell_length_c   7.50075378
_cell_angle_alpha   73.86040272
_cell_angle_beta   73.86040322
_cell_angle_gamma   49.24588943
_symmetry_Int_Tables_number   1
_chemical_formula_structural   Tb3TmLu(ReO6)2
_chemical_formula_sum   'Tb3 Tm1 Lu1 Re2 O12'
_cell_volume   250.97791250
_cell_formula_units_Z   1
loop_
 _symmetry_equiv_pos_site_id
 _symmetry_equiv_pos_as_xyz
  1  'x, y, z'
loop_
 _atom_site_type_symbol
 _atom_site_label
 _atom_site_symmetry_multiplicity
 _atom_site_fract_x
 _atom_site_fract_y
 _atom_site_fract_z
 _atom_site_occupancy
  Tb  Tb0  1  0.803004  0.803004  0.359390  1
  Tb  Tb1  1  0.197007  0.197007  0.643135  1
  Tb  Tb2  1  0.184592  0.184592  0.176462  1
  Tm  Tm3  1  0.815571  0.815571  0.822709  1
  Lu  Lu4  1  0.499871  0.499871  0.500679  1
  Re  Re5  1  0.286463  0.713551  0.999143  1
  Re  Re6  1  0.713551  0.286463  0.999143  1
  O  O7  1  0.417343  0.915217  0.913091  1
  O  O8  1  0.079820  0.588627  0.083053  1
  O  O9  1  0.588627  0.079820  0.083053  1
  O  O10  1  0.915217  0.417343  0.913091  1
  O  O11  1  0.601014  0.098445  0.575284  1
  O  O12  1  0.899492  0.401541  0.429512  1
  O  O13  1  0.401541  0.899492  0.429512  1
  O  O14  1  0.999558  0.999558  0.822311  1
  O  O15  1  0.999024  0.999024  0.175580  1
  O  O16  1  0.498290  0.498290  0.791201  1
  O  O17  1  0.501571  0.501571  0.208366  1
  O  O18  1  0.098445  0.601014  0.575284  1
