# generated using pymatgen
data_Tb17Dy3Ir11Au
_symmetry_space_group_name_H-M   'P 1'
_cell_length_a   10.99837464
_cell_length_b   10.99861718
_cell_length_c   6.37237371
_cell_angle_alpha   90.00513064
_cell_angle_beta   90.00645778
_cell_angle_gamma   89.47600734
_symmetry_Int_Tables_number   1
_chemical_formula_structural   Tb17Dy3Ir11Au
_chemical_formula_sum   'Tb17 Dy3 Ir11 Au1'
_cell_volume   770.81412743
_cell_formula_units_Z   1
loop_
 _symmetry_equiv_pos_site_id
 _symmetry_equiv_pos_as_xyz
  1  'x, y, z'
loop_
 _atom_site_type_symbol
 _atom_site_label
 _atom_site_symmetry_multiplicity
 _atom_site_fract_x
 _atom_site_fract_y
 _atom_site_fract_z
 _atom_site_occupancy
  Tb  Tb0  1  0.289835  0.088157  0.377354  1
  Tb  Tb1  1  0.292928  0.910599  0.877049  1
  Tb  Tb2  1  0.704081  0.084476  0.865848  1
  Tb  Tb3  1  0.705045  0.903912  0.381151  1
  Tb  Tb4  1  0.588209  0.790749  0.880001  1
  Tb  Tb5  1  0.579188  0.210173  0.378743  1
  Tb  Tb6  1  0.410372  0.790866  0.378704  1
  Tb  Tb7  1  0.409295  0.207981  0.878734  1
  Tb  Tb8  1  0.209243  0.411811  0.619989  1
  Tb  Tb9  1  0.209126  0.589646  0.121348  1
  Tb  Tb10  1  0.789823  0.420816  0.121301  1
  Tb  Tb11  1  0.792014  0.590693  0.621240  1
  Tb  Tb12  1  0.911861  0.710214  0.122596  1
  Tb  Tb13  1  0.915497  0.295965  0.634202  1
  Tb  Tb14  1  0.089428  0.706992  0.622993  1
  Tb  Tb15  1  0.096068  0.294919  0.118790  1
  Tb  Tb16  1  0.003164  0.995559  0.501146  1
  Dy  Dy17  1  0.004483  0.996803  0.998820  1
  Dy  Dy18  1  0.498829  0.499076  0.998686  1
  Dy  Dy19  1  0.500928  0.501168  0.501313  1
  Ir  Ir20  1  0.846882  0.848336  0.749729  1
  Ir  Ir21  1  0.151649  0.153135  0.750720  1
  Ir  Ir22  1  0.155517  0.844512  0.249779  1
  Ir  Ir23  1  0.655006  0.344994  0.750015  1
  Ir  Ir24  1  0.653421  0.651758  0.248365  1
  Ir  Ir25  1  0.348241  0.346570  0.251637  1
  Ir  Ir26  1  0.346654  0.653348  0.750009  1
  Ir  Ir27  1  0.500449  0.999928  0.125979  1
  Ir  Ir28  1  0.499338  0.000247  0.621751  1
  Ir  Ir29  1  0.999758  0.500659  0.878230  1
  Ir  Ir30  1  0.000073  0.499552  0.374010  1
  Au  Au31  1  0.843596  0.156381  0.249771  1
