# generated using pymatgen
data_La4Pr3Nd3Ru4
_symmetry_space_group_name_H-M   'P 1'
_cell_length_a   9.08701218
_cell_length_b   9.09126050
_cell_length_c   7.34389371
_cell_angle_alpha   84.44997096
_cell_angle_beta   84.41990892
_cell_angle_gamma   43.14424423
_symmetry_Int_Tables_number   1
_chemical_formula_structural   La4Pr3Nd3Ru4
_chemical_formula_sum   'La4 Pr3 Nd3 Ru4'
_cell_volume   412.61980171
_cell_formula_units_Z   1
loop_
 _symmetry_equiv_pos_site_id
 _symmetry_equiv_pos_as_xyz
  1  'x, y, z'
loop_
 _atom_site_type_symbol
 _atom_site_label
 _atom_site_symmetry_multiplicity
 _atom_site_fract_x
 _atom_site_fract_y
 _atom_site_fract_z
 _atom_site_occupancy
  La  La0  1  0.017399  0.794576  0.904928  1
  La  La1  1  0.205206  0.982833  0.595020  1
  La  La2  1  0.982793  0.205257  0.095145  1
  La  La3  1  0.794531  0.017389  0.404791  1
  Pr  Pr4  1  0.361717  0.208183  0.815830  1
  Pr  Pr5  1  0.792101  0.638065  0.684007  1
  Pr  Pr6  1  0.638233  0.791980  0.184227  1
  Nd  Nd7  1  0.208140  0.362027  0.316061  1
  Nd  Nd8  1  0.574567  0.425449  0.750028  1
  Nd  Nd9  1  0.425286  0.574489  0.250031  1
  Ru  Ru10  1  0.165838  0.611413  0.585504  1
  Ru  Ru11  1  0.388316  0.834128  0.914250  1
  Ru  Ru12  1  0.834535  0.388274  0.414215  1
  Ru  Ru13  1  0.611339  0.165937  0.085963  1
