# generated using pymatgen
data_YbDy(Ga2Cu)2
_symmetry_space_group_name_H-M   'P 1'
_cell_length_a   4.34007200
_cell_length_b   6.50800414
_cell_length_c   10.11827765
_cell_angle_alpha   90.13033620
_cell_angle_beta   90.00000000
_cell_angle_gamma   90.00000000
_symmetry_Int_Tables_number   1
_chemical_formula_structural   YbDy(Ga2Cu)2
_chemical_formula_sum   'Yb2 Dy2 Ga8 Cu4'
_cell_volume   285.79210258
_cell_formula_units_Z   2
loop_
 _symmetry_equiv_pos_site_id
 _symmetry_equiv_pos_as_xyz
  1  'x, y, z'
loop_
 _atom_site_type_symbol
 _atom_site_label
 _atom_site_symmetry_multiplicity
 _atom_site_fract_x
 _atom_site_fract_y
 _atom_site_fract_z
 _atom_site_occupancy
  Yb  Yb0  1  0.750000  0.742738  0.343489  1
  Yb  Yb1  1  0.250000  0.257262  0.656511  1
  Dy  Dy2  1  0.250000  0.762777  0.841246  1
  Dy  Dy3  1  0.750000  0.237223  0.158754  1
  Ga  Ga4  1  0.250000  0.729144  0.541903  1
  Ga  Ga5  1  0.750000  0.270856  0.458097  1
  Ga  Ga6  1  0.750000  0.765403  0.045525  1
  Ga  Ga7  1  0.250000  0.234597  0.954475  1
  Ga  Ga8  1  0.250000  0.923877  0.156157  1
  Ga  Ga9  1  0.750000  0.076123  0.843843  1
  Ga  Ga10  1  0.750000  0.570440  0.655642  1
  Ga  Ga11  1  0.250000  0.429560  0.344358  1
  Cu  Cu12  1  0.250000  0.544678  0.103919  1
  Cu  Cu13  1  0.750000  0.455322  0.896081  1
  Cu  Cu14  1  0.750000  0.954872  0.603374  1
  Cu  Cu15  1  0.250000  0.045128  0.396626  1
