# generated using pymatgen
data_U2AlRu2Pt
_symmetry_space_group_name_H-M   'P 1'
_cell_length_a   5.72717400
_cell_length_b   5.56245219
_cell_length_c   7.69847400
_cell_angle_alpha   90.00000000
_cell_angle_beta   90.00000000
_cell_angle_gamma   120.98453956
_symmetry_Int_Tables_number   1
_chemical_formula_structural   U2AlRu2Pt
_chemical_formula_sum   'U4 Al2 Ru4 Pt2'
_cell_volume   210.25547024
_cell_formula_units_Z   2
loop_
 _symmetry_equiv_pos_site_id
 _symmetry_equiv_pos_as_xyz
  1  'x, y, z'
loop_
 _atom_site_type_symbol
 _atom_site_label
 _atom_site_symmetry_multiplicity
 _atom_site_fract_x
 _atom_site_fract_y
 _atom_site_fract_z
 _atom_site_occupancy
  U  U0  1  0.346257  0.692516  0.425343  1
  U  U1  1  0.653743  0.307484  0.925343  1
  U  U2  1  0.653743  0.307484  0.574657  1
  U  U3  1  0.346257  0.692516  0.074657  1
  Al  Al4  1  0.000000  0.000000  0.500000  1
  Al  Al5  1  0.000000  0.000000  0.000000  1
  Ru  Ru6  1  0.156383  0.807068  0.750000  1
  Ru  Ru7  1  0.349315  0.192932  0.250000  1
  Ru  Ru8  1  0.843617  0.192932  0.250000  1
  Ru  Ru9  1  0.650685  0.807068  0.750000  1
  Pt  Pt10  1  0.162536  0.325073  0.750000  1
  Pt  Pt11  1  0.837464  0.674927  0.250000  1
