# generated using pymatgen
data_Y2ErFe2Co7P6
_symmetry_space_group_name_H-M   'P 1'
_cell_length_a   3.69455500
_cell_length_b   10.54089700
_cell_length_c   12.09257300
_cell_angle_alpha   90.00000000
_cell_angle_beta   90.00000000
_cell_angle_gamma   90.00000000
_symmetry_Int_Tables_number   1
_chemical_formula_structural   Y2ErFe2Co7P6
_chemical_formula_sum   'Y4 Er2 Fe4 Co14 P12'
_cell_volume   470.93224044
_cell_formula_units_Z   2
loop_
 _symmetry_equiv_pos_site_id
 _symmetry_equiv_pos_as_xyz
  1  'x, y, z'
loop_
 _atom_site_type_symbol
 _atom_site_label
 _atom_site_symmetry_multiplicity
 _atom_site_fract_x
 _atom_site_fract_y
 _atom_site_fract_z
 _atom_site_occupancy
  Y  Y0  1  0.000000  0.500000  0.522022  1
  Y  Y1  1  0.500000  0.000000  0.477387  1
  Y  Y2  1  0.000000  0.680944  0.795849  1
  Y  Y3  1  0.000000  0.319056  0.795849  1
  Er  Er4  1  0.500000  0.819398  0.204137  1
  Er  Er5  1  0.500000  0.180602  0.204137  1
  Fe  Fe6  1  0.500000  0.500000  0.155639  1
  Fe  Fe7  1  0.000000  0.000000  0.844915  1
  Fe  Fe8  1  0.000000  0.500000  0.989517  1
  Fe  Fe9  1  0.500000  0.000000  0.012187  1
  Co  Co10  1  0.500000  0.500000  0.701243  1
  Co  Co11  1  0.000000  0.000000  0.298051  1
  Co  Co12  1  0.500000  0.331321  0.995133  1
  Co  Co13  1  0.500000  0.668679  0.995133  1
  Co  Co14  1  0.000000  0.168088  0.006311  1
  Co  Co15  1  0.000000  0.831912  0.006311  1
  Co  Co16  1  0.500000  0.296361  0.429656  1
  Co  Co17  1  0.500000  0.703639  0.429656  1
  Co  Co18  1  0.000000  0.203303  0.569098  1
  Co  Co19  1  0.000000  0.796697  0.569098  1
  Co  Co20  1  0.500000  0.879193  0.709288  1
  Co  Co21  1  0.500000  0.120807  0.709288  1
  Co  Co22  1  0.000000  0.621315  0.290178  1
  Co  Co23  1  0.000000  0.378685  0.290178  1
  P  P24  1  0.500000  0.500000  0.885216  1
  P  P25  1  0.000000  0.000000  0.116093  1
  P  P26  1  0.500000  0.500000  0.341126  1
  P  P27  1  0.000000  0.000000  0.658642  1
  P  P28  1  0.500000  0.309756  0.616197  1
  P  P29  1  0.500000  0.690244  0.616197  1
  P  P30  1  0.000000  0.189889  0.382399  1
  P  P31  1  0.000000  0.810111  0.382399  1
  P  P32  1  0.500000  0.847894  0.893799  1
  P  P33  1  0.500000  0.152106  0.893799  1
  P  P34  1  0.000000  0.653157  0.106937  1
  P  P35  1  0.000000  0.346843  0.106937  1
