# generated using pymatgen
data_Ce12AlSi5Tc5Ru
_symmetry_space_group_name_H-M   'P 1'
_cell_length_a   7.70827349
_cell_length_b   7.70827233
_cell_length_c   9.77534378
_cell_angle_alpha   89.92626721
_cell_angle_beta   89.92626876
_cell_angle_gamma   119.92705752
_symmetry_Int_Tables_number   1
_chemical_formula_structural   Ce12AlSi5Tc5Ru
_chemical_formula_sum   'Ce12 Al1 Si5 Tc5 Ru1'
_cell_volume   503.37790088
_cell_formula_units_Z   1
loop_
 _symmetry_equiv_pos_site_id
 _symmetry_equiv_pos_as_xyz
  1  'x, y, z'
loop_
 _atom_site_type_symbol
 _atom_site_label
 _atom_site_symmetry_multiplicity
 _atom_site_fract_x
 _atom_site_fract_y
 _atom_site_fract_z
 _atom_site_occupancy
  Ce  Ce0  1  0.999438  0.583401  0.500547  1
  Ce  Ce1  1  0.583401  0.999438  0.500547  1
  Ce  Ce2  1  0.415296  0.415296  0.500328  1
  Ce  Ce3  1  0.999136  0.419652  0.002833  1
  Ce  Ce4  1  0.419652  0.999136  0.002833  1
  Ce  Ce5  1  0.584084  0.584084  0.003516  1
  Ce  Ce6  1  0.999748  0.738732  0.180357  1
  Ce  Ce7  1  0.738732  0.999748  0.180357  1
  Ce  Ce8  1  0.263265  0.263265  0.179315  1
  Ce  Ce9  1  0.999405  0.260705  0.674180  1
  Ce  Ce10  1  0.260705  0.999405  0.674180  1
  Ce  Ce11  1  0.739314  0.739314  0.675106  1
  Al  Al12  1  0.000221  0.000221  0.922757  1
  Si  Si13  1  0.666783  0.333419  0.270298  1
  Si  Si14  1  0.333419  0.666783  0.270298  1
  Si  Si15  1  0.333446  0.665839  0.769081  1
  Si  Si16  1  0.665839  0.333446  0.769081  1
  Si  Si17  1  0.000621  0.000621  0.423219  1
  Tc  Tc18  1  0.000224  0.342538  0.339031  1
  Tc  Tc19  1  0.342538  0.000224  0.339031  1
  Tc  Tc20  1  0.656882  0.656882  0.340009  1
  Tc  Tc21  1  0.999707  0.651451  0.837785  1
  Tc  Tc22  1  0.651451  0.999707  0.837785  1
  Ru  Ru23  1  0.346695  0.346695  0.836779  1
