# generated using pymatgen
data_DyTm3Cd2Si3Ge
_symmetry_space_group_name_H-M   'P 1'
_cell_length_a   7.15296028
_cell_length_b   7.15269000
_cell_length_c   4.16239000
_cell_angle_alpha   90.00000000
_cell_angle_beta   90.00000000
_cell_angle_gamma   89.85834966
_symmetry_Int_Tables_number   1
_chemical_formula_structural   DyTm3Cd2Si3Ge
_chemical_formula_sum   'Dy1 Tm3 Cd2 Si3 Ge1'
_cell_volume   212.95932356
_cell_formula_units_Z   1
loop_
 _symmetry_equiv_pos_site_id
 _symmetry_equiv_pos_as_xyz
  1  'x, y, z'
loop_
 _atom_site_type_symbol
 _atom_site_label
 _atom_site_symmetry_multiplicity
 _atom_site_fract_x
 _atom_site_fract_y
 _atom_site_fract_z
 _atom_site_occupancy
  Dy  Dy0  1  0.679952  0.177384  0.500000  1
  Tm  Tm1  1  0.322214  0.819540  0.500000  1
  Tm  Tm2  1  0.175355  0.324995  0.500000  1
  Tm  Tm3  1  0.823520  0.676768  0.500000  1
  Cd  Cd4  1  0.500978  0.503737  0.000000  1
  Cd  Cd5  1  0.997517  0.998290  0.000000  1
  Si  Si6  1  0.117942  0.618095  0.000000  1
  Si  Si7  1  0.883518  0.383668  0.000000  1
  Si  Si8  1  0.620175  0.878124  0.000000  1
  Ge  Ge9  1  0.378830  0.119399  0.000000  1
