# generated using pymatgen
data_TbY5V2(Co4P3)4
_symmetry_space_group_name_H-M   'P 1'
_cell_length_a   3.69266700
_cell_length_b   10.55747700
_cell_length_c   12.23291900
_cell_angle_alpha   90.00000000
_cell_angle_beta   90.00000000
_cell_angle_gamma   90.00000000
_symmetry_Int_Tables_number   1
_chemical_formula_structural   TbY5V2(Co4P3)4
_chemical_formula_sum   'Tb1 Y5 V2 Co16 P12'
_cell_volume   476.90336778
_cell_formula_units_Z   1
loop_
 _symmetry_equiv_pos_site_id
 _symmetry_equiv_pos_as_xyz
  1  'x, y, z'
loop_
 _atom_site_type_symbol
 _atom_site_label
 _atom_site_symmetry_multiplicity
 _atom_site_fract_x
 _atom_site_fract_y
 _atom_site_fract_z
 _atom_site_occupancy
  Tb  Tb0  1  0.000000  0.500000  0.523234  1
  Y  Y1  1  0.500000  0.000000  0.476792  1
  Y  Y2  1  0.500000  0.818258  0.204488  1
  Y  Y3  1  0.500000  0.181742  0.204488  1
  Y  Y4  1  0.000000  0.681747  0.795515  1
  Y  Y5  1  0.000000  0.318253  0.795515  1
  V  V6  1  0.500000  0.500000  0.153935  1
  V  V7  1  0.000000  0.000000  0.846085  1
  Co  Co8  1  0.500000  0.500000  0.702002  1
  Co  Co9  1  0.000000  0.000000  0.297994  1
  Co  Co10  1  0.000000  0.500000  0.986745  1
  Co  Co11  1  0.500000  0.000000  0.013275  1
  Co  Co12  1  0.500000  0.332556  0.992935  1
  Co  Co13  1  0.500000  0.667444  0.992935  1
  Co  Co14  1  0.000000  0.167438  0.007076  1
  Co  Co15  1  0.000000  0.832562  0.007076  1
  Co  Co16  1  0.500000  0.295986  0.431174  1
  Co  Co17  1  0.500000  0.704014  0.431174  1
  Co  Co18  1  0.000000  0.204001  0.568819  1
  Co  Co19  1  0.000000  0.795999  0.568819  1
  Co  Co20  1  0.500000  0.879092  0.707876  1
  Co  Co21  1  0.500000  0.120908  0.707876  1
  Co  Co22  1  0.000000  0.620896  0.292111  1
  Co  Co23  1  0.000000  0.379104  0.292111  1
  P  P24  1  0.500000  0.500000  0.882121  1
  P  P25  1  0.000000  0.000000  0.117872  1
  P  P26  1  0.500000  0.500000  0.346621  1
  P  P27  1  0.000000  0.000000  0.653324  1
  P  P28  1  0.500000  0.310736  0.615838  1
  P  P29  1  0.500000  0.689264  0.615838  1
  P  P30  1  0.000000  0.189239  0.384164  1
  P  P31  1  0.000000  0.810761  0.384164  1
  P  P32  1  0.500000  0.846305  0.892449  1
  P  P33  1  0.500000  0.153695  0.892449  1
  P  P34  1  0.000000  0.653672  0.107554  1
  P  P35  1  0.000000  0.346328  0.107554  1
