# generated using pymatgen
data_DyAl2PdPt2
_symmetry_space_group_name_H-M   'P 1'
_cell_length_a   4.34768700
_cell_length_b   6.55552892
_cell_length_c   7.46324045
_cell_angle_alpha   90.01119457
_cell_angle_beta   90.00000000
_cell_angle_gamma   90.00000000
_symmetry_Int_Tables_number   1
_chemical_formula_structural   DyAl2PdPt2
_chemical_formula_sum   'Dy2 Al4 Pd2 Pt4'
_cell_volume   212.71270660
_cell_formula_units_Z   2
loop_
 _symmetry_equiv_pos_site_id
 _symmetry_equiv_pos_as_xyz
  1  'x, y, z'
loop_
 _atom_site_type_symbol
 _atom_site_label
 _atom_site_symmetry_multiplicity
 _atom_site_fract_x
 _atom_site_fract_y
 _atom_site_fract_z
 _atom_site_occupancy
  Dy  Dy0  1  0.750000  0.999253  0.750826  1
  Dy  Dy1  1  0.250000  0.000747  0.249174  1
  Al  Al2  1  0.250000  0.664941  0.918462  1
  Al  Al3  1  0.750000  0.335059  0.081538  1
  Al  Al4  1  0.750000  0.667335  0.418421  1
  Al  Al5  1  0.250000  0.332665  0.581579  1
  Pd  Pd6  1  0.250000  0.500962  0.250219  1
  Pd  Pd7  1  0.750000  0.499038  0.749781  1
  Pt  Pt8  1  0.250000  0.730992  0.584816  1
  Pt  Pt9  1  0.750000  0.269008  0.415184  1
  Pt  Pt10  1  0.750000  0.732319  0.084509  1
  Pt  Pt11  1  0.250000  0.267681  0.915491  1
