# generated using pymatgen
data_Rb8NaLi3(HoSb2)4
_symmetry_space_group_name_H-M   'P 1'
_cell_length_a   11.22578108
_cell_length_b   11.22578044
_cell_length_c   7.28968523
_cell_angle_alpha   90.05120411
_cell_angle_beta   89.94879835
_cell_angle_gamma   99.11260134
_symmetry_Int_Tables_number   1
_chemical_formula_structural   Rb8NaLi3(HoSb2)4
_chemical_formula_sum   'Rb8 Na1 Li3 Ho4 Sb8'
_cell_volume   907.03798428
_cell_formula_units_Z   1
loop_
 _symmetry_equiv_pos_site_id
 _symmetry_equiv_pos_as_xyz
  1  'x, y, z'
loop_
 _atom_site_type_symbol
 _atom_site_label
 _atom_site_symmetry_multiplicity
 _atom_site_fract_x
 _atom_site_fract_y
 _atom_site_fract_z
 _atom_site_occupancy
  Rb  Rb0  1  0.071277  0.429132  0.249528  1
  Rb  Rb1  1  0.429132  0.071277  0.750472  1
  Rb  Rb2  1  0.929142  0.568917  0.750298  1
  Rb  Rb3  1  0.568917  0.929142  0.249702  1
  Rb  Rb4  1  0.674782  0.324233  0.213774  1
  Rb  Rb5  1  0.823803  0.177669  0.714935  1
  Rb  Rb6  1  0.324233  0.674782  0.786226  1
  Rb  Rb7  1  0.177669  0.823803  0.285065  1
  Na  Na8  1  0.883146  0.883146  0.500000  1
  Li  Li9  1  0.379718  0.379718  0.000000  1
  Li  Li10  1  0.123861  0.123861  0.500000  1
  Li  Li11  1  0.619717  0.619717  0.000000  1
  Ho  Ho12  1  0.130904  0.130904  0.000000  1
  Ho  Ho13  1  0.370550  0.370550  0.500000  1
  Ho  Ho14  1  0.869375  0.869375  0.000000  1
  Ho  Ho15  1  0.629038  0.629038  0.500000  1
  Sb  Sb16  1  0.841590  0.648316  0.240672  1
  Sb  Sb17  1  0.648316  0.841590  0.759328  1
  Sb  Sb18  1  0.155213  0.345106  0.748811  1
  Sb  Sb19  1  0.345106  0.155213  0.251189  1
  Sb  Sb20  1  0.903354  0.101565  0.224127  1
  Sb  Sb21  1  0.594651  0.404936  0.735468  1
  Sb  Sb22  1  0.101565  0.903354  0.775873  1
  Sb  Sb23  1  0.404936  0.594651  0.264532  1
