# generated using pymatgen
data_DyLu2Sn3Ir2Rh
_symmetry_space_group_name_H-M   'P 1'
_cell_length_a   7.66711569
_cell_length_b   7.66711549
_cell_length_c   3.67840000
_cell_angle_alpha   90.00000000
_cell_angle_beta   90.00000000
_cell_angle_gamma   120.45968118
_symmetry_Int_Tables_number   1
_chemical_formula_structural   DyLu2Sn3Ir2Rh
_chemical_formula_sum   'Dy1 Lu2 Sn3 Ir2 Rh1'
_cell_volume   186.39027014
_cell_formula_units_Z   1
loop_
 _symmetry_equiv_pos_site_id
 _symmetry_equiv_pos_as_xyz
  1  'x, y, z'
loop_
 _atom_site_type_symbol
 _atom_site_label
 _atom_site_symmetry_multiplicity
 _atom_site_fract_x
 _atom_site_fract_y
 _atom_site_fract_z
 _atom_site_occupancy
  Dy  Dy0  1  0.402348  0.402348  0.500000  1
  Lu  Lu1  1  0.597813  0.999832  0.500000  1
  Lu  Lu2  1  0.999832  0.597813  0.500000  1
  Sn  Sn3  1  0.733634  0.733634  0.000000  1
  Sn  Sn4  1  0.266756  0.997812  0.000000  1
  Sn  Sn5  1  0.997812  0.266756  0.000000  1
  Ir  Ir6  1  0.669803  0.332650  0.000000  1
  Ir  Ir7  1  0.332650  0.669803  0.000000  1
  Rh  Rh8  1  0.999352  0.999352  0.500000  1
