# generated using pymatgen
data_Nd2Dy(SiPd)3
_symmetry_space_group_name_H-M   'P 1'
_cell_length_a   4.42160500
_cell_length_b   7.52703600
_cell_length_c   21.57710800
_cell_angle_alpha   90.00000000
_cell_angle_beta   90.00000000
_cell_angle_gamma   90.00000000
_symmetry_Int_Tables_number   1
_chemical_formula_structural   Nd2Dy(SiPd)3
_chemical_formula_sum   'Nd8 Dy4 Si12 Pd12'
_cell_volume   718.12024635
_cell_formula_units_Z   4
loop_
 _symmetry_equiv_pos_site_id
 _symmetry_equiv_pos_as_xyz
  1  'x, y, z'
loop_
 _atom_site_type_symbol
 _atom_site_label
 _atom_site_symmetry_multiplicity
 _atom_site_fract_x
 _atom_site_fract_y
 _atom_site_fract_z
 _atom_site_occupancy
  Nd  Nd0  1  0.250000  0.706033  0.333734  1
  Nd  Nd1  1  0.750000  0.293967  0.666266  1
  Nd  Nd2  1  0.750000  0.206033  0.166266  1
  Nd  Nd3  1  0.250000  0.793967  0.833734  1
  Nd  Nd4  1  0.250000  0.794850  0.165128  1
  Nd  Nd5  1  0.750000  0.205150  0.834872  1
  Nd  Nd6  1  0.750000  0.294850  0.334872  1
  Nd  Nd7  1  0.250000  0.705150  0.665128  1
  Dy  Dy8  1  0.250000  0.710282  0.001421  1
  Dy  Dy9  1  0.750000  0.289718  0.998579  1
  Dy  Dy10  1  0.750000  0.210282  0.498579  1
  Dy  Dy11  1  0.250000  0.789718  0.501421  1
  Si  Si12  1  0.250000  0.089165  0.067910  1
  Si  Si13  1  0.750000  0.910835  0.932090  1
  Si  Si14  1  0.750000  0.589165  0.432090  1
  Si  Si15  1  0.250000  0.410835  0.567910  1
  Si  Si16  1  0.250000  0.083922  0.273180  1
  Si  Si17  1  0.750000  0.916078  0.726820  1
  Si  Si18  1  0.750000  0.583922  0.226820  1
  Si  Si19  1  0.250000  0.416078  0.773180  1
  Si  Si20  1  0.250000  0.085432  0.397590  1
  Si  Si21  1  0.750000  0.914568  0.602410  1
  Si  Si22  1  0.750000  0.585432  0.102410  1
  Si  Si23  1  0.250000  0.414568  0.897590  1
  Pd  Pd24  1  0.250000  0.416977  0.236391  1
  Pd  Pd25  1  0.750000  0.583023  0.763609  1
  Pd  Pd26  1  0.750000  0.916977  0.263609  1
  Pd  Pd27  1  0.250000  0.083023  0.736391  1
  Pd  Pd28  1  0.250000  0.415640  0.440619  1
  Pd  Pd29  1  0.750000  0.584360  0.559381  1
  Pd  Pd30  1  0.750000  0.915640  0.059381  1
  Pd  Pd31  1  0.250000  0.084360  0.940619  1
  Pd  Pd32  1  0.250000  0.420437  0.090373  1
  Pd  Pd33  1  0.750000  0.579563  0.909627  1
  Pd  Pd34  1  0.750000  0.920437  0.409627  1
  Pd  Pd35  1  0.250000  0.079563  0.590373  1
