# generated using pymatgen
data_YbHf7(Si4Mo3)4
_symmetry_space_group_name_H-M   'P 1'
_cell_length_a   6.59106690
_cell_length_b   6.78154641
_cell_length_c   12.67746264
_cell_angle_alpha   90.09304105
_cell_angle_beta   89.94427856
_cell_angle_gamma   90.06694625
_symmetry_Int_Tables_number   1
_chemical_formula_structural   YbHf7(Si4Mo3)4
_chemical_formula_sum   'Yb1 Hf7 Si16 Mo12'
_cell_volume   566.65108398
_cell_formula_units_Z   1
loop_
 _symmetry_equiv_pos_site_id
 _symmetry_equiv_pos_as_xyz
  1  'x, y, z'
loop_
 _atom_site_type_symbol
 _atom_site_label
 _atom_site_symmetry_multiplicity
 _atom_site_fract_x
 _atom_site_fract_y
 _atom_site_fract_z
 _atom_site_occupancy
  Yb  Yb0  1  0.995445  0.167429  0.089950  1
  Hf  Hf1  1  0.007287  0.825361  0.904064  1
  Hf  Hf2  1  0.506905  0.671086  0.906285  1
  Hf  Hf3  1  0.005472  0.829764  0.593566  1
  Hf  Hf4  1  0.497017  0.329839  0.092480  1
  Hf  Hf5  1  0.995950  0.171106  0.407546  1
  Hf  Hf6  1  0.494245  0.329765  0.409284  1
  Hf  Hf7  1  0.506132  0.671213  0.592576  1
  Si  Si8  1  0.032204  0.124080  0.751076  1
  Si  Si9  1  0.966140  0.874615  0.250984  1
  Si  Si10  1  0.466016  0.623116  0.250581  1
  Si  Si11  1  0.531745  0.378759  0.748971  1
  Si  Si12  1  0.301264  0.863265  0.749134  1
  Si  Si13  1  0.697049  0.139412  0.250644  1
  Si  Si14  1  0.199172  0.361372  0.250203  1
  Si  Si15  1  0.799065  0.637364  0.749318  1
  Si  Si16  1  0.167475  0.459068  0.543695  1
  Si  Si17  1  0.833088  0.540729  0.458209  1
  Si  Si18  1  0.331853  0.958973  0.458036  1
  Si  Si19  1  0.832676  0.541930  0.043330  1
  Si  Si20  1  0.667847  0.040931  0.543246  1
  Si  Si21  1  0.168051  0.461187  0.955217  1
  Si  Si22  1  0.665407  0.038845  0.955253  1
  Si  Si23  1  0.336724  0.959023  0.042751  1
  Mo  Mo24  1  0.167917  0.515959  0.750447  1
  Mo  Mo25  1  0.831329  0.491553  0.252101  1
  Mo  Mo26  1  0.333067  0.010287  0.252012  1
  Mo  Mo27  1  0.669325  0.986002  0.748882  1
  Mo  Mo28  1  0.331758  0.164729  0.622874  1
  Mo  Mo29  1  0.666306  0.834747  0.378179  1
  Mo  Mo30  1  0.168881  0.662761  0.377877  1
  Mo  Mo31  1  0.664530  0.832406  0.124411  1
  Mo  Mo32  1  0.831787  0.335605  0.623126  1
  Mo  Mo33  1  0.334025  0.164453  0.875137  1
  Mo  Mo34  1  0.827759  0.338321  0.874862  1
  Mo  Mo35  1  0.169086  0.664944  0.123694  1
