# generated using pymatgen
data_La5Pr3(CdPt)2
_symmetry_space_group_name_H-M   'P 1'
_cell_length_a   10.17679079
_cell_length_b   10.17679106
_cell_length_c   10.17679100
_cell_angle_alpha   59.99999693
_cell_angle_beta   59.99999606
_cell_angle_gamma   60.00000012
_symmetry_Int_Tables_number   1
_chemical_formula_structural   La5Pr3(CdPt)2
_chemical_formula_sum   'La10 Pr6 Cd4 Pt4'
_cell_volume   745.27669248
_cell_formula_units_Z   2
loop_
 _symmetry_equiv_pos_site_id
 _symmetry_equiv_pos_as_xyz
  1  'x, y, z'
loop_
 _atom_site_type_symbol
 _atom_site_label
 _atom_site_symmetry_multiplicity
 _atom_site_fract_x
 _atom_site_fract_y
 _atom_site_fract_z
 _atom_site_occupancy
  La  La0  1  0.349058  0.349058  0.349058  1
  La  La1  1  0.349058  0.349058  0.952826  1
  La  La2  1  0.349058  0.952826  0.349058  1
  La  La3  1  0.952826  0.349058  0.349058  1
  La  La4  1  0.807187  0.192813  0.192813  1
  La  La5  1  0.192813  0.807187  0.807187  1
  La  La6  1  0.192813  0.807187  0.192813  1
  La  La7  1  0.807187  0.192813  0.807187  1
  La  La8  1  0.192813  0.192813  0.807187  1
  La  La9  1  0.807187  0.807187  0.192813  1
  Pr  Pr10  1  0.934511  0.565489  0.565489  1
  Pr  Pr11  1  0.565489  0.934511  0.934511  1
  Pr  Pr12  1  0.565489  0.934511  0.565489  1
  Pr  Pr13  1  0.934511  0.565489  0.934511  1
  Pr  Pr14  1  0.565489  0.565489  0.934511  1
  Pr  Pr15  1  0.934511  0.934511  0.565489  1
  Cd  Cd16  1  0.580079  0.580079  0.580079  1
  Cd  Cd17  1  0.580079  0.580079  0.259763  1
  Cd  Cd18  1  0.580079  0.259763  0.580079  1
  Cd  Cd19  1  0.259763  0.580079  0.580079  1
  Pt  Pt20  1  0.142243  0.142243  0.142243  1
  Pt  Pt21  1  0.142243  0.142243  0.573272  1
  Pt  Pt22  1  0.142243  0.573272  0.142243  1
  Pt  Pt23  1  0.573272  0.142243  0.142243  1
