# generated using pymatgen
data_Tm7Hf(Nb3Si4)4
_symmetry_space_group_name_H-M   'P 1'
_cell_length_a   7.00455381
_cell_length_b   7.00802740
_cell_length_c   12.93571522
_cell_angle_alpha   90.01928671
_cell_angle_beta   89.98527124
_cell_angle_gamma   89.93304085
_symmetry_Int_Tables_number   1
_chemical_formula_structural   Tm7Hf(Nb3Si4)4
_chemical_formula_sum   'Tm7 Hf1 Nb12 Si16'
_cell_volume   634.98925655
_cell_formula_units_Z   1
loop_
 _symmetry_equiv_pos_site_id
 _symmetry_equiv_pos_as_xyz
  1  'x, y, z'
loop_
 _atom_site_type_symbol
 _atom_site_label
 _atom_site_symmetry_multiplicity
 _atom_site_fract_x
 _atom_site_fract_y
 _atom_site_fract_z
 _atom_site_occupancy
  Tm  Tm0  1  0.996878  0.339728  0.219040  1
  Tm  Tm1  1  0.001542  0.658911  0.717826  1
  Tm  Tm2  1  0.158575  0.498625  0.466936  1
  Tm  Tm3  1  0.501632  0.841752  0.031889  1
  Tm  Tm4  1  0.841397  0.501463  0.969148  1
  Tm  Tm5  1  0.498446  0.158940  0.530659  1
  Tm  Tm6  1  0.341003  0.998444  0.781866  1
  Hf  Hf7  1  0.654330  0.994715  0.282929  1
  Nb  Nb8  1  0.172074  0.170826  0.001390  1
  Nb  Nb9  1  0.827595  0.829746  0.498830  1
  Nb  Nb10  1  0.331859  0.672767  0.250385  1
  Nb  Nb11  1  0.671504  0.328674  0.749974  1
  Nb  Nb12  1  0.152309  0.995227  0.375058  1
  Nb  Nb13  1  0.846638  0.007081  0.876349  1
  Nb  Nb14  1  0.506010  0.652917  0.625365  1
  Nb  Nb15  1  0.348033  0.494029  0.874070  1
  Nb  Nb16  1  0.496465  0.346115  0.127434  1
  Nb  Nb17  1  0.653273  0.506356  0.372682  1
  Nb  Nb18  1  0.991948  0.153323  0.622888  1
  Nb  Nb19  1  0.005108  0.850082  0.125321  1
  Si  Si20  1  0.299415  0.044791  0.187337  1
  Si  Si21  1  0.704285  0.955155  0.686342  1
  Si  Si22  1  0.455767  0.796520  0.435390  1
  Si  Si23  1  0.205730  0.545509  0.064409  1
  Si  Si24  1  0.545038  0.204470  0.937058  1
  Si  Si25  1  0.795287  0.455018  0.562455  1
  Si  Si26  1  0.045317  0.295362  0.813850  1
  Si  Si27  1  0.953663  0.706499  0.313278  1
  Si  Si28  1  0.368513  0.291185  0.319415  1
  Si  Si29  1  0.635089  0.704252  0.818420  1
  Si  Si30  1  0.204559  0.866265  0.567832  1
  Si  Si31  1  0.134399  0.795552  0.932142  1
  Si  Si32  1  0.793867  0.134324  0.071078  1
  Si  Si33  1  0.861970  0.202004  0.427679  1
  Si  Si34  1  0.295330  0.365295  0.681412  1
  Si  Si35  1  0.705155  0.638078  0.181865  1
