# generated using pymatgen
data_Pr2Bi8(MoO8)3
_symmetry_space_group_name_H-M   'P 1'
_cell_length_a   12.23037836
_cell_length_b   12.29693214
_cell_length_c   8.89018047
_cell_angle_alpha   84.87005371
_cell_angle_beta   85.37689427
_cell_angle_gamma   27.14570217
_symmetry_Int_Tables_number   1
_chemical_formula_structural   Pr2Bi8(MoO8)3
_chemical_formula_sum   'Pr2 Bi8 Mo3 O24'
_cell_volume   607.58988221
_cell_formula_units_Z   1
loop_
 _symmetry_equiv_pos_site_id
 _symmetry_equiv_pos_as_xyz
  1  'x, y, z'
loop_
 _atom_site_type_symbol
 _atom_site_label
 _atom_site_symmetry_multiplicity
 _atom_site_fract_x
 _atom_site_fract_y
 _atom_site_fract_z
 _atom_site_occupancy
  Pr  Pr0  1  0.454849  0.472278  0.300055  1
  Pr  Pr1  1  0.643120  0.740747  0.460895  1
  Bi  Bi2  1  0.525864  0.545912  0.661396  1
  Bi  Bi3  1  0.200510  0.267241  0.192329  1
  Bi  Bi4  1  0.061654  0.089000  0.409933  1
  Bi  Bi5  1  0.210084  0.402518  0.544436  1
  Bi  Bi6  1  0.127619  0.175205  0.742156  1
  Bi  Bi7  1  0.924295  0.924955  0.580402  1
  Bi  Bi8  1  0.814699  0.884293  0.249144  1
  Bi  Bi9  1  0.725025  0.799756  0.812697  1
  Mo  Mo10  1  0.333522  0.418437  0.929925  1
  Mo  Mo11  1  0.006137  0.999143  0.002505  1
  Mo  Mo12  1  0.552320  0.695882  0.080046  1
  O  O13  1  0.894538  0.758831  0.648267  1
  O  O14  1  0.377807  0.969785  0.008758  1
  O  O15  1  0.255674  0.082089  0.343138  1
  O  O16  1  0.231531  0.897004  0.930807  1
  O  O17  1  0.722062  0.281336  0.500100  1
  O  O18  1  0.995502  0.540662  0.358038  1
  O  O19  1  0.233969  0.764535  0.493754  1
  O  O20  1  0.827303  0.205545  0.152300  1
  O  O21  1  0.732754  0.494208  0.929829  1
  O  O22  1  0.523162  0.269769  0.092805  1
  O  O23  1  0.469554  0.188043  0.837904  1
  O  O24  1  0.299397  0.558376  0.783376  1
  O  O25  1  0.663335  0.128481  0.400449  1
  O  O26  1  0.767211  0.567565  0.202420  1
  O  O27  1  0.417897  0.710121  0.213700  1
  O  O28  1  0.841509  0.384853  0.569507  1
  O  O29  1  0.147411  0.749057  0.084571  1
  O  O30  1  0.334353  0.877920  0.586686  1
  O  O31  1  0.955081  0.491839  0.675589  1
  O  O32  1  0.132406  0.641643  0.413055  1
  O  O33  1  0.519122  0.033171  0.312002  1
  O  O34  1  0.826867  0.133144  0.844310  1
  O  O35  1  0.050266  0.611136  0.993008  1
  O  O36  1  0.446171  0.000939  0.659707  1
