# generated using pymatgen
data_Rb6H9Pt2Cl
_symmetry_space_group_name_H-M   'P 1'
_cell_length_a   8.09370800
_cell_length_b   8.09370800
_cell_length_c   6.17579900
_cell_angle_alpha   90.00000000
_cell_angle_beta   90.00000000
_cell_angle_gamma   90.00000000
_symmetry_Int_Tables_number   1
_chemical_formula_structural   Rb6H9Pt2Cl
_chemical_formula_sum   'Rb6 H9 Pt2 Cl1'
_cell_volume   404.56491522
_cell_formula_units_Z   1
loop_
 _symmetry_equiv_pos_site_id
 _symmetry_equiv_pos_as_xyz
  1  'x, y, z'
loop_
 _atom_site_type_symbol
 _atom_site_label
 _atom_site_symmetry_multiplicity
 _atom_site_fract_x
 _atom_site_fract_y
 _atom_site_fract_z
 _atom_site_occupancy
  Rb  Rb0  1  0.500000  0.500000  0.000000  1
  Rb  Rb1  1  0.000000  0.000000  0.000000  1
  Rb  Rb2  1  0.163349  0.689999  0.500000  1
  Rb  Rb3  1  0.836651  0.310001  0.500000  1
  Rb  Rb4  1  0.689999  0.836651  0.500000  1
  Rb  Rb5  1  0.310001  0.163349  0.500000  1
  H  H6  1  0.000000  0.000000  0.500000  1
  H  H7  1  0.604417  0.104184  0.811458  1
  H  H8  1  0.395583  0.895816  0.811458  1
  H  H9  1  0.104184  0.395583  0.811458  1
  H  H10  1  0.895816  0.604417  0.811458  1
  H  H11  1  0.395583  0.895816  0.188542  1
  H  H12  1  0.604417  0.104184  0.188542  1
  H  H13  1  0.895816  0.604417  0.188542  1
  H  H14  1  0.104184  0.395583  0.188542  1
  Pt  Pt15  1  0.500000  0.000000  0.000000  1
  Pt  Pt16  1  0.000000  0.500000  0.000000  1
  Cl  Cl17  1  0.500000  0.500000  0.500000  1
