# generated using pymatgen
data_Ac2ReTcH18
_symmetry_space_group_name_H-M   'P 1'
_cell_length_a   5.02054330
_cell_length_b   5.02054215
_cell_length_c   9.19468200
_cell_angle_alpha   90.00000000
_cell_angle_beta   90.00000000
_cell_angle_gamma   119.72209143
_symmetry_Int_Tables_number   1
_chemical_formula_structural   Ac2ReTcH18
_chemical_formula_sum   'Ac2 Re1 Tc1 H18'
_cell_volume   201.26954961
_cell_formula_units_Z   1
loop_
 _symmetry_equiv_pos_site_id
 _symmetry_equiv_pos_as_xyz
  1  'x, y, z'
loop_
 _atom_site_type_symbol
 _atom_site_label
 _atom_site_symmetry_multiplicity
 _atom_site_fract_x
 _atom_site_fract_y
 _atom_site_fract_z
 _atom_site_occupancy
  Ac  Ac0  1  0.001404  0.998596  0.018841  1
  Ac  Ac1  1  0.001404  0.998596  0.481159  1
  Re  Re2  1  0.662533  0.337467  0.750000  1
  Tc  Tc3  1  0.337146  0.662854  0.250000  1
  H  H4  1  0.477285  0.522715  0.116235  1
  H  H5  1  0.523909  0.476091  0.883601  1
  H  H6  1  0.477285  0.522715  0.383765  1
  H  H7  1  0.523909  0.476091  0.616399  1
  H  H8  1  0.476319  0.943258  0.383689  1
  H  H9  1  0.941068  0.475350  0.617237  1
  H  H10  1  0.476319  0.943258  0.116311  1
  H  H11  1  0.941068  0.475350  0.882763  1
  H  H12  1  0.524650  0.058932  0.617237  1
  H  H13  1  0.056742  0.523681  0.383689  1
  H  H14  1  0.524650  0.058932  0.882763  1
  H  H15  1  0.056742  0.523681  0.116311  1
  H  H16  1  0.743843  0.863206  0.250000  1
  H  H17  1  0.852119  0.723786  0.750000  1
  H  H18  1  0.276214  0.147881  0.750000  1
  H  H19  1  0.136794  0.256157  0.250000  1
  H  H20  1  0.132271  0.867729  0.250000  1
  H  H21  1  0.856323  0.143677  0.750000  1
