# generated using pymatgen
data_CaNdPt3Rh
_symmetry_space_group_name_H-M   'P 1'
_cell_length_a   5.50809238
_cell_length_b   5.50929285
_cell_length_c   5.50929200
_cell_angle_alpha   59.99999308
_cell_angle_beta   59.99278322
_cell_angle_gamma   59.99278505
_symmetry_Int_Tables_number   1
_chemical_formula_structural   CaNdPt3Rh
_chemical_formula_sum   'Ca1 Nd1 Pt3 Rh1'
_cell_volume   118.20353588
_cell_formula_units_Z   1
loop_
 _symmetry_equiv_pos_site_id
 _symmetry_equiv_pos_as_xyz
  1  'x, y, z'
loop_
 _atom_site_type_symbol
 _atom_site_label
 _atom_site_symmetry_multiplicity
 _atom_site_fract_x
 _atom_site_fract_y
 _atom_site_fract_z
 _atom_site_occupancy
  Ca  Ca0  1  0.749639  0.750120  0.750120  1
  Nd  Nd1  1  0.500707  0.499764  0.499764  1
  Pt  Pt2  1  0.124717  0.124726  0.625832  1
  Pt  Pt3  1  0.124717  0.625832  0.124726  1
  Pt  Pt4  1  0.124717  0.124726  0.124726  1
  Rh  Rh5  1  0.625502  0.124833  0.124833  1
