# generated using pymatgen
data_YbTa2Nb3FeB4Ru9
_symmetry_space_group_name_H-M   'P 1'
_cell_length_a   9.41428400
_cell_length_b   9.41428462
_cell_length_c   3.05378100
_cell_angle_alpha   90.00000000
_cell_angle_beta   90.00000000
_cell_angle_gamma   90.02078385
_symmetry_Int_Tables_number   1
_chemical_formula_structural   YbTa2Nb3FeB4Ru9
_chemical_formula_sum   'Yb1 Ta2 Nb3 Fe1 B4 Ru9'
_cell_volume   270.65277214
_cell_formula_units_Z   1
loop_
 _symmetry_equiv_pos_site_id
 _symmetry_equiv_pos_as_xyz
  1  'x, y, z'
loop_
 _atom_site_type_symbol
 _atom_site_label
 _atom_site_symmetry_multiplicity
 _atom_site_fract_x
 _atom_site_fract_y
 _atom_site_fract_z
 _atom_site_occupancy
  Yb  Yb0  1  0.822918  0.677082  0.000000  1
  Ta  Ta1  1  0.503654  0.501707  0.000000  1
  Ta  Ta2  1  0.998293  0.996346  0.000000  1
  Nb  Nb3  1  0.178498  0.321502  0.000000  1
  Nb  Nb4  1  0.329289  0.830173  0.000000  1
  Nb  Nb5  1  0.669827  0.170711  0.000000  1
  Fe  Fe6  1  0.495439  0.004561  0.500000  1
  B  B7  1  0.610042  0.889958  0.000000  1
  B  B8  1  0.386207  0.113793  0.000000  1
  B  B9  1  0.123552  0.619636  0.000000  1
  B  B10  1  0.880364  0.376448  0.000000  1
  Ru  Ru11  1  0.554013  0.731041  0.500000  1
  Ru  Ru12  1  0.429799  0.278639  0.500000  1
  Ru  Ru13  1  0.084012  0.783364  0.500000  1
  Ru  Ru14  1  0.932012  0.214130  0.500000  1
  Ru  Ru15  1  0.285870  0.567988  0.500000  1
  Ru  Ru16  1  0.716636  0.415988  0.500000  1
  Ru  Ru17  1  0.221361  0.070201  0.500000  1
  Ru  Ru18  1  0.768959  0.945987  0.500000  1
  Ru  Ru19  1  0.009254  0.490746  0.500000  1
