# generated using pymatgen
data_Nd7Sm5(SiBr3)4
_symmetry_space_group_name_H-M   'P 1'
_cell_length_a   10.38678619
_cell_length_b   10.35935804
_cell_length_c   10.38678699
_cell_angle_alpha   109.39325020
_cell_angle_beta   109.57972678
_cell_angle_gamma   109.39324591
_symmetry_Int_Tables_number   1
_chemical_formula_structural   Nd7Sm5(SiBr3)4
_chemical_formula_sum   'Nd7 Sm5 Si4 Br12'
_cell_volume   860.84749712
_cell_formula_units_Z   1
loop_
 _symmetry_equiv_pos_site_id
 _symmetry_equiv_pos_as_xyz
  1  'x, y, z'
loop_
 _atom_site_type_symbol
 _atom_site_label
 _atom_site_symmetry_multiplicity
 _atom_site_fract_x
 _atom_site_fract_y
 _atom_site_fract_z
 _atom_site_occupancy
  Nd  Nd0  1  0.237846  0.477483  0.487590  1
  Nd  Nd1  1  0.012410  0.022517  0.262154  1
  Nd  Nd2  1  0.011048  0.489009  0.748481  1
  Nd  Nd3  1  0.490437  0.240431  0.477852  1
  Nd  Nd4  1  0.751519  0.010991  0.488952  1
  Nd  Nd5  1  0.022148  0.259569  0.009563  1
  Nd  Nd6  1  0.261178  0.750000  0.238822  1
  Sm  Sm7  1  0.486189  0.750000  0.013811  1
  Sm  Sm8  1  0.749792  0.235714  0.262329  1
  Sm  Sm9  1  0.237671  0.264286  0.750208  1
  Sm  Sm10  1  0.472831  0.485985  0.235598  1
  Sm  Sm11  1  0.264402  0.014015  0.027169  1
  Si  Si12  1  0.250209  0.250000  0.249791  1
  Si  Si13  1  0.000383  0.250000  0.499617  1
  Si  Si14  1  0.249366  0.499655  0.999235  1
  Si  Si15  1  0.500765  0.000345  0.250634  1
  Br  Br16  1  0.003812  0.991761  0.746532  1
  Br  Br17  1  0.749154  0.740473  0.245000  1
  Br  Br18  1  0.992255  0.748788  0.992454  1
  Br  Br19  1  0.253048  0.999266  0.510025  1
  Br  Br20  1  0.741423  0.993662  0.991919  1
  Br  Br21  1  0.502663  0.250000  0.997337  1
  Br  Br22  1  0.745381  0.250000  0.754619  1
  Br  Br23  1  0.507546  0.751212  0.507745  1
  Br  Br24  1  0.753468  0.508239  0.496188  1
  Br  Br25  1  0.255000  0.759527  0.750846  1
  Br  Br26  1  0.508081  0.506338  0.758577  1
  Br  Br27  1  0.989975  0.500734  0.246952  1
