# generated using pymatgen
data_Er9Tm3Co4SnRu
_symmetry_space_group_name_H-M   'P 1'
_cell_length_a   8.18965313
_cell_length_b   8.19309059
_cell_length_c   8.18965329
_cell_angle_alpha   111.39223984
_cell_angle_beta   110.81573158
_cell_angle_gamma   106.23724786
_symmetry_Int_Tables_number   1
_chemical_formula_structural   Er9Tm3Co4SnRu
_chemical_formula_sum   'Er9 Tm3 Co4 Sn1 Ru1'
_cell_volume   422.09041694
_cell_formula_units_Z   1
loop_
 _symmetry_equiv_pos_site_id
 _symmetry_equiv_pos_as_xyz
  1  'x, y, z'
loop_
 _atom_site_type_symbol
 _atom_site_label
 _atom_site_symmetry_multiplicity
 _atom_site_fract_x
 _atom_site_fract_y
 _atom_site_fract_z
 _atom_site_occupancy
  Er  Er0  1  0.410867  0.216312  0.194158  1
  Er  Er1  1  0.588871  0.783152  0.805850  1
  Er  Er2  1  0.022154  0.216312  0.805444  1
  Er  Er3  1  0.977303  0.783152  0.194282  1
  Er  Er4  1  0.184337  0.284654  0.469609  1
  Er  Er5  1  0.815814  0.714900  0.530524  1
  Er  Er6  1  0.184376  0.714900  0.899087  1
  Er  Er7  1  0.815045  0.284654  0.100316  1
  Er  Er8  1  0.313046  0.619351  0.306303  1
  Tm  Tm9  1  0.686985  0.379779  0.692795  1
  Tm  Tm10  1  0.313211  0.006038  0.692826  1
  Tm  Tm11  1  0.687130  0.994051  0.306922  1
  Co  Co12  1  0.377063  0.000464  0.376841  1
  Co  Co13  1  0.623624  0.000464  0.623402  1
  Co  Co14  1  0.111774  0.611948  0.500173  1
  Co  Co15  1  0.888359  0.388346  0.499986  1
  Sn  Sn16  1  0.500036  0.499570  0.999534  1
  Ru  Ru17  1  0.000005  0.001954  0.001949  1
