# generated using pymatgen
data_Y4HoGaSb2
_symmetry_space_group_name_H-M   'P 1'
_cell_length_a   8.84671900
_cell_length_b   8.81603303
_cell_length_c   6.43707600
_cell_angle_alpha   90.00000000
_cell_angle_beta   90.00000000
_cell_angle_gamma   120.11520383
_symmetry_Int_Tables_number   1
_chemical_formula_structural   Y4HoGaSb2
_chemical_formula_sum   'Y8 Ho2 Ga2 Sb4'
_cell_volume   434.27954988
_cell_formula_units_Z   2
loop_
 _symmetry_equiv_pos_site_id
 _symmetry_equiv_pos_as_xyz
  1  'x, y, z'
loop_
 _atom_site_type_symbol
 _atom_site_label
 _atom_site_symmetry_multiplicity
 _atom_site_fract_x
 _atom_site_fract_y
 _atom_site_fract_z
 _atom_site_occupancy
  Y  Y0  1  0.341607  0.683216  0.000000  1
  Y  Y1  1  0.658393  0.316784  0.500000  1
  Y  Y2  1  0.243801  0.000000  0.250000  1
  Y  Y3  1  0.756199  0.000000  0.750000  1
  Y  Y4  1  0.987821  0.234321  0.250078  1
  Y  Y5  1  0.753501  0.765679  0.249922  1
  Y  Y6  1  0.246499  0.234321  0.749922  1
  Y  Y7  1  0.012179  0.765679  0.750078  1
  Ho  Ho8  1  0.657031  0.314059  0.000000  1
  Ho  Ho9  1  0.342969  0.685941  0.500000  1
  Ga  Ga10  1  0.603033  0.000000  0.250000  1
  Ga  Ga11  1  0.396967  0.000000  0.750000  1
  Sb  Sb12  1  0.994851  0.606508  0.249623  1
  Sb  Sb13  1  0.388343  0.393492  0.250377  1
  Sb  Sb14  1  0.611657  0.606508  0.750377  1
  Sb  Sb15  1  0.005149  0.393492  0.749623  1
