# generated using pymatgen
data_CaLa5Cd4Pd13
_symmetry_space_group_name_H-M   'P 1'
_cell_length_a   8.62182682
_cell_length_b   8.62182662
_cell_length_c   8.62182671
_cell_angle_alpha   109.15798561
_cell_angle_beta   109.62806386
_cell_angle_gamma   109.62805851
_symmetry_Int_Tables_number   1
_chemical_formula_structural   CaLa5Cd4Pd13
_chemical_formula_sum   'Ca1 La5 Cd4 Pd13'
_cell_volume   493.36267435
_cell_formula_units_Z   1
loop_
 _symmetry_equiv_pos_site_id
 _symmetry_equiv_pos_as_xyz
  1  'x, y, z'
loop_
 _atom_site_type_symbol
 _atom_site_label
 _atom_site_symmetry_multiplicity
 _atom_site_fract_x
 _atom_site_fract_y
 _atom_site_fract_z
 _atom_site_occupancy
  Ca  Ca0  1  0.000000  0.302034  0.302034  1
  La  La1  1  0.000000  0.690442  0.690442  1
  La  La2  1  0.303111  0.000581  0.303692  1
  La  La3  1  0.696889  0.697470  0.000581  1
  La  La4  1  0.696889  0.000581  0.697470  1
  La  La5  1  0.303111  0.303692  0.000581  1
  Cd  Cd6  1  0.000000  0.001367  0.499103  1
  Cd  Cd7  1  0.502265  0.001367  0.001367  1
  Cd  Cd8  1  0.000000  0.499103  0.001367  1
  Cd  Cd9  1  0.497735  0.499103  0.499103  1
  Pd  Pd10  1  0.341496  0.657691  0.999187  1
  Pd  Pd11  1  0.000000  0.340560  0.660005  1
  Pd  Pd12  1  0.657233  0.000518  0.343285  1
  Pd  Pd13  1  0.319444  0.660005  0.660005  1
  Pd  Pd14  1  0.658504  0.316193  0.657691  1
  Pd  Pd15  1  0.680556  0.340560  0.340560  1
  Pd  Pd16  1  0.342767  0.686054  0.343285  1
  Pd  Pd17  1  0.342767  0.343285  0.686054  1
  Pd  Pd18  1  0.000000  0.660005  0.340560  1
  Pd  Pd19  1  0.658504  0.657691  0.316193  1
  Pd  Pd20  1  0.341496  0.999187  0.657691  1
  Pd  Pd21  1  0.000000  0.999227  0.999227  1
  Pd  Pd22  1  0.657233  0.343285  0.000518  1
