# generated using pymatgen
data_Sm8Tm12Sn13Au3
_symmetry_space_group_name_H-M   'P 1'
_cell_length_a   7.74586320
_cell_length_b   8.33122259
_cell_length_c   15.38326200
_cell_angle_alpha   90.00000000
_cell_angle_beta   90.00000000
_cell_angle_gamma   89.84981316
_symmetry_Int_Tables_number   1
_chemical_formula_structural   Sm8Tm12Sn13Au3
_chemical_formula_sum   'Sm8 Tm12 Sn13 Au3'
_cell_volume   992.71710564
_cell_formula_units_Z   1
loop_
 _symmetry_equiv_pos_site_id
 _symmetry_equiv_pos_as_xyz
  1  'x, y, z'
loop_
 _atom_site_type_symbol
 _atom_site_label
 _atom_site_symmetry_multiplicity
 _atom_site_fract_x
 _atom_site_fract_y
 _atom_site_fract_z
 _atom_site_occupancy
  Sm  Sm0  1  0.507637  0.314691  0.905731  1
  Sm  Sm1  1  0.007225  0.187599  0.593833  1
  Sm  Sm2  1  0.494001  0.685015  0.411155  1
  Sm  Sm3  1  0.992804  0.816660  0.093208  1
  Sm  Sm4  1  0.494001  0.685015  0.088845  1
  Sm  Sm5  1  0.992804  0.816660  0.406792  1
  Sm  Sm6  1  0.507637  0.314691  0.594269  1
  Sm  Sm7  1  0.007225  0.187599  0.906167  1
  Tm  Tm8  1  0.344457  0.829415  0.868032  1
  Tm  Tm9  1  0.840848  0.668736  0.631383  1
  Tm  Tm10  1  0.643851  0.173165  0.373998  1
  Tm  Tm11  1  0.168630  0.334935  0.125591  1
  Tm  Tm12  1  0.643851  0.173165  0.126002  1
  Tm  Tm13  1  0.168630  0.334935  0.374409  1
  Tm  Tm14  1  0.344457  0.829415  0.631968  1
  Tm  Tm15  1  0.840848  0.668736  0.868617  1
  Tm  Tm16  1  0.192973  0.498200  0.750000  1
  Tm  Tm17  1  0.694335  0.001776  0.750000  1
  Tm  Tm18  1  0.803971  0.498063  0.250000  1
  Tm  Tm19  1  0.315955  0.998092  0.250000  1
  Sn  Sn20  1  0.310686  0.036255  0.036840  1
  Sn  Sn21  1  0.816967  0.461955  0.460007  1
  Sn  Sn22  1  0.691000  0.963326  0.541359  1
  Sn  Sn23  1  0.186703  0.537994  0.957651  1
  Sn  Sn24  1  0.691000  0.963326  0.958641  1
  Sn  Sn25  1  0.186703  0.537994  0.542349  1
  Sn  Sn26  1  0.310686  0.036255  0.463160  1
  Sn  Sn27  1  0.816967  0.461955  0.039993  1
  Sn  Sn28  1  0.951356  0.121382  0.250000  1
  Sn  Sn29  1  0.302201  0.135358  0.750000  1
  Sn  Sn30  1  0.802665  0.362465  0.750000  1
  Sn  Sn31  1  0.687796  0.857678  0.250000  1
  Sn  Sn32  1  0.198469  0.638957  0.250000  1
  Au  Au33  1  0.544764  0.622921  0.750000  1
  Au  Au34  1  0.044604  0.873894  0.750000  1
  Au  Au35  1  0.451298  0.371719  0.250000  1
