# generated using pymatgen
data_CaLuSi5Rh3
_symmetry_space_group_name_H-M   'P 1'
_cell_length_a   8.16388419
_cell_length_b   8.13851281
_cell_length_c   5.63433454
_cell_angle_alpha   71.41500040
_cell_angle_beta   71.18278112
_cell_angle_gamma   94.18759685
_symmetry_Int_Tables_number   1
_chemical_formula_structural   CaLuSi5Rh3
_chemical_formula_sum   'Ca2 Lu2 Si10 Rh6'
_cell_volume   329.35624814
_cell_formula_units_Z   2
loop_
 _symmetry_equiv_pos_site_id
 _symmetry_equiv_pos_as_xyz
  1  'x, y, z'
loop_
 _atom_site_type_symbol
 _atom_site_label
 _atom_site_symmetry_multiplicity
 _atom_site_fract_x
 _atom_site_fract_y
 _atom_site_fract_z
 _atom_site_occupancy
  Ca  Ca0  1  0.867678  0.596714  0.759308  1
  Ca  Ca1  1  0.132322  0.403286  0.240692  1
  Lu  Lu2  1  0.403684  0.133967  0.738534  1
  Lu  Lu3  1  0.596316  0.866033  0.261466  1
  Si  Si4  1  0.777608  0.218788  0.750478  1
  Si  Si5  1  0.222392  0.781212  0.249522  1
  Si  Si6  1  0.510160  0.490052  0.751062  1
  Si  Si7  1  0.489840  0.509948  0.248938  1
  Si  Si8  1  0.211331  0.793460  0.745848  1
  Si  Si9  1  0.788669  0.206540  0.254152  1
  Si  Si10  1  0.267104  0.059799  0.337166  1
  Si  Si11  1  0.732896  0.940201  0.662834  1
  Si  Si12  1  0.937037  0.733975  0.163850  1
  Si  Si13  1  0.062963  0.266025  0.836150  1
  Rh  Rh14  1  0.541319  0.256811  0.125701  1
  Rh  Rh15  1  0.736981  0.457622  0.376754  1
  Rh  Rh16  1  0.458681  0.743189  0.874299  1
  Rh  Rh17  1  0.263019  0.542378  0.623246  1
  Rh  Rh18  1  0.998293  0.003523  0.247968  1
  Rh  Rh19  1  0.001707  0.996477  0.752032  1
