# generated using pymatgen
data_YbDy2Sc5(B6Os)4
_symmetry_space_group_name_H-M   'P 1'
_cell_length_a   3.54611300
_cell_length_b   8.94357200
_cell_length_c   11.31493482
_cell_angle_alpha   90.03919462
_cell_angle_beta   90.00000000
_cell_angle_gamma   90.00000000
_symmetry_Int_Tables_number   1
_chemical_formula_structural   YbDy2Sc5(B6Os)4
_chemical_formula_sum   'Yb1 Dy2 Sc5 B24 Os4'
_cell_volume   358.85213405
_cell_formula_units_Z   1
loop_
 _symmetry_equiv_pos_site_id
 _symmetry_equiv_pos_as_xyz
  1  'x, y, z'
loop_
 _atom_site_type_symbol
 _atom_site_label
 _atom_site_symmetry_multiplicity
 _atom_site_fract_x
 _atom_site_fract_y
 _atom_site_fract_z
 _atom_site_occupancy
  Yb  Yb0  1  0.000000  0.821252  0.085935  1
  Dy  Dy1  1  0.000000  0.319812  0.413407  1
  Dy  Dy2  1  0.000000  0.680662  0.586247  1
  Sc  Sc3  1  0.000000  0.179251  0.914988  1
  Sc  Sc4  1  0.000000  0.944750  0.372128  1
  Sc  Sc5  1  0.000000  0.054931  0.627154  1
  Sc  Sc6  1  0.000000  0.444315  0.126054  1
  Sc  Sc7  1  0.000000  0.555872  0.873991  1
  B  B8  1  0.500000  0.553861  0.433181  1
  B  B9  1  0.500000  0.445028  0.568151  1
  B  B10  1  0.500000  0.054480  0.065127  1
  B  B11  1  0.500000  0.947265  0.933620  1
  B  B12  1  0.500000  0.752505  0.418553  1
  B  B13  1  0.500000  0.246791  0.581747  1
  B  B14  1  0.500000  0.251640  0.078390  1
  B  B15  1  0.500000  0.748704  0.919568  1
  B  B16  1  0.500000  0.793254  0.264668  1
  B  B17  1  0.500000  0.205637  0.736653  1
  B  B18  1  0.500000  0.293700  0.232977  1
  B  B19  1  0.500000  0.707475  0.766194  1
  B  B20  1  0.500000  0.628893  0.182641  1
  B  B21  1  0.500000  0.369264  0.818852  1
  B  B22  1  0.500000  0.128930  0.315742  1
  B  B23  1  0.500000  0.872230  0.683339  1
  B  B24  1  0.500000  0.981257  0.212938  1
  B  B25  1  0.500000  0.020506  0.787588  1
  B  B26  1  0.500000  0.481013  0.285420  1
  B  B27  1  0.500000  0.518268  0.715806  1
  B  B28  1  0.500000  0.598095  0.026632  1
  B  B29  1  0.500000  0.398496  0.972327  1
  B  B30  1  0.500000  0.099941  0.472585  1
  B  B31  1  0.500000  0.900706  0.527044  1
  Os  Os32  1  0.000000  0.638886  0.318921  1
  Os  Os33  1  0.000000  0.359305  0.683254  1
  Os  Os34  1  0.000000  0.140515  0.179074  1
  Os  Os35  1  0.000000  0.862506  0.819104  1
