# generated using pymatgen
data_Nd16Dy(ErIr4)3
_symmetry_space_group_name_H-M   'P 1'
_cell_length_a   11.19012300
_cell_length_b   11.19012300
_cell_length_c   6.52337500
_cell_angle_alpha   90.00000000
_cell_angle_beta   90.00000000
_cell_angle_gamma   90.00000000
_symmetry_Int_Tables_number   1
_chemical_formula_structural   Nd16Dy(ErIr4)3
_chemical_formula_sum   'Nd16 Dy1 Er3 Ir12'
_cell_volume   816.84953359
_cell_formula_units_Z   1
loop_
 _symmetry_equiv_pos_site_id
 _symmetry_equiv_pos_as_xyz
  1  'x, y, z'
loop_
 _atom_site_type_symbol
 _atom_site_label
 _atom_site_symmetry_multiplicity
 _atom_site_fract_x
 _atom_site_fract_y
 _atom_site_fract_z
 _atom_site_occupancy
  Nd  Nd0  1  0.288666  0.086877  0.381260  1
  Nd  Nd1  1  0.288671  0.913237  0.881366  1
  Nd  Nd2  1  0.711329  0.086763  0.881366  1
  Nd  Nd3  1  0.711334  0.913123  0.381260  1
  Nd  Nd4  1  0.586851  0.788694  0.881228  1
  Nd  Nd5  1  0.586807  0.211572  0.381388  1
  Nd  Nd6  1  0.413193  0.788428  0.381388  1
  Nd  Nd7  1  0.413149  0.211306  0.881228  1
  Nd  Nd8  1  0.211572  0.413193  0.618612  1
  Nd  Nd9  1  0.211306  0.586851  0.118772  1
  Nd  Nd10  1  0.788694  0.413149  0.118772  1
  Nd  Nd11  1  0.788428  0.586807  0.618612  1
  Nd  Nd12  1  0.913237  0.711329  0.118634  1
  Nd  Nd13  1  0.913123  0.288666  0.618740  1
  Nd  Nd14  1  0.086877  0.711334  0.618740  1
  Nd  Nd15  1  0.086763  0.288671  0.118634  1
  Dy  Dy16  1  0.500000  0.500000  0.500000  1
  Er  Er17  1  0.000000  0.000000  0.500000  1
  Er  Er18  1  0.000000  0.000000  0.000000  1
  Er  Er19  1  0.500000  0.500000  0.000000  1
  Ir  Ir20  1  0.851839  0.148152  0.250025  1
  Ir  Ir21  1  0.851848  0.851839  0.749975  1
  Ir  Ir22  1  0.148152  0.148161  0.749975  1
  Ir  Ir23  1  0.148161  0.851848  0.250025  1
  Ir  Ir24  1  0.648636  0.351461  0.750821  1
  Ir  Ir25  1  0.648539  0.648636  0.249179  1
  Ir  Ir26  1  0.351461  0.351364  0.249179  1
  Ir  Ir27  1  0.351364  0.648539  0.750821  1
  Ir  Ir28  1  0.500000  0.000000  0.119659  1
  Ir  Ir29  1  0.500000  0.000000  0.619450  1
  Ir  Ir30  1  0.000000  0.500000  0.880341  1
  Ir  Ir31  1  0.000000  0.500000  0.380550  1
