# generated using pymatgen
data_Nd6Sc2PtAu9
_symmetry_space_group_name_H-M   'P 1'
_cell_length_a   8.08192742
_cell_length_b   8.08192686
_cell_length_c   8.08192708
_cell_angle_alpha   66.12077110
_cell_angle_beta   66.12077456
_cell_angle_gamma   66.12074825
_symmetry_Int_Tables_number   1
_chemical_formula_structural   Nd6Sc2PtAu9
_chemical_formula_sum   'Nd6 Sc2 Pt1 Au9'
_cell_volume   422.66277455
_cell_formula_units_Z   1
loop_
 _symmetry_equiv_pos_site_id
 _symmetry_equiv_pos_as_xyz
  1  'x, y, z'
loop_
 _atom_site_type_symbol
 _atom_site_label
 _atom_site_symmetry_multiplicity
 _atom_site_fract_x
 _atom_site_fract_y
 _atom_site_fract_z
 _atom_site_occupancy
  Nd  Nd0  1  0.888110  0.175929  0.632101  1
  Nd  Nd1  1  0.632101  0.888110  0.175929  1
  Nd  Nd2  1  0.175929  0.632101  0.888110  1
  Nd  Nd3  1  0.105914  0.810686  0.385783  1
  Nd  Nd4  1  0.385783  0.105914  0.810686  1
  Nd  Nd5  1  0.810686  0.385783  0.105914  1
  Sc  Sc6  1  0.658558  0.658558  0.658558  1
  Sc  Sc7  1  0.342539  0.342539  0.342539  1
  Pt  Pt8  1  0.798684  0.798684  0.798684  1
  Au  Au9  1  0.004814  0.004814  0.004814  1
  Au  Au10  1  0.500864  0.500864  0.500864  1
  Au  Au11  1  0.197613  0.197613  0.197613  1
  Au  Au12  1  0.939767  0.540584  0.331358  1
  Au  Au13  1  0.331358  0.939767  0.540584  1
  Au  Au14  1  0.540584  0.331358  0.939767  1
  Au  Au15  1  0.062634  0.446903  0.677160  1
  Au  Au16  1  0.677160  0.062634  0.446903  1
  Au  Au17  1  0.446903  0.677160  0.062634  1
