# generated using pymatgen
data_Cs5SrTaAs4
_symmetry_space_group_name_H-M   'P 1'
_cell_length_a   11.21967005
_cell_length_b   11.21967087
_cell_length_c   8.42106344
_cell_angle_alpha   87.22762157
_cell_angle_beta   87.22762773
_cell_angle_gamma   121.18615505
_symmetry_Int_Tables_number   1
_chemical_formula_structural   Cs5SrTaAs4
_chemical_formula_sum   'Cs10 Sr2 Ta2 As8'
_cell_volume   902.45247499
_cell_formula_units_Z   2
loop_
 _symmetry_equiv_pos_site_id
 _symmetry_equiv_pos_as_xyz
  1  'x, y, z'
loop_
 _atom_site_type_symbol
 _atom_site_label
 _atom_site_symmetry_multiplicity
 _atom_site_fract_x
 _atom_site_fract_y
 _atom_site_fract_z
 _atom_site_occupancy
  Cs  Cs0  1  0.462500  0.525892  0.492094  1
  Cs  Cs1  1  0.064051  0.529925  0.500450  1
  Cs  Cs2  1  0.525892  0.462500  0.992094  1
  Cs  Cs3  1  0.529925  0.064051  0.000450  1
  Cs  Cs4  1  0.867004  0.141160  0.681671  1
  Cs  Cs5  1  0.289369  0.148979  0.730756  1
  Cs  Cs6  1  0.857479  0.717233  0.649409  1
  Cs  Cs7  1  0.141160  0.867004  0.181671  1
  Cs  Cs8  1  0.717233  0.857479  0.149409  1
  Cs  Cs9  1  0.148979  0.289369  0.230756  1
  Sr  Sr10  1  0.466616  0.941980  0.500431  1
  Sr  Sr11  1  0.941980  0.466616  0.000431  1
  Ta  Ta12  1  0.673202  0.325968  0.391714  1
  Ta  Ta13  1  0.325968  0.673202  0.891714  1
  As  As14  1  0.691355  0.341531  0.687783  1
  As  As15  1  0.341531  0.691355  0.187783  1
  As  As16  1  0.787111  0.198777  0.286804  1
  As  As17  1  0.418358  0.185337  0.339487  1
  As  As18  1  0.797345  0.568824  0.253690  1
  As  As19  1  0.198777  0.787111  0.786804  1
  As  As20  1  0.568824  0.797345  0.753690  1
  As  As21  1  0.185337  0.418358  0.839487  1
