# generated using pymatgen
data_NaZr8Tl2(PO4)12
_symmetry_space_group_name_H-M   'P 1'
_cell_length_a   8.91716382
_cell_length_b   9.41746399
_cell_length_c   15.67978400
_cell_angle_alpha   93.27679912
_cell_angle_beta   106.51787751
_cell_angle_gamma   118.39628682
_symmetry_Int_Tables_number   1
_chemical_formula_structural   NaZr8Tl2(PO4)12
_chemical_formula_sum   'Na1 Zr8 Tl2 P12 O48'
_cell_volume   1081.23438341
_cell_formula_units_Z   1
loop_
 _symmetry_equiv_pos_site_id
 _symmetry_equiv_pos_as_xyz
  1  'x, y, z'
loop_
 _atom_site_type_symbol
 _atom_site_label
 _atom_site_symmetry_multiplicity
 _atom_site_fract_x
 _atom_site_fract_y
 _atom_site_fract_z
 _atom_site_occupancy
  Na  Na0  1  0.500000  0.500000  0.000000  1
  Zr  Zr1  1  0.147425  0.120227  0.675196  1
  Zr  Zr2  1  0.356732  0.641176  0.578352  1
  Zr  Zr3  1  0.150320  0.623053  0.175455  1
  Zr  Zr4  1  0.353136  0.132145  0.067745  1
  Zr  Zr5  1  0.643268  0.358824  0.421648  1
  Zr  Zr6  1  0.852575  0.879773  0.324804  1
  Zr  Zr7  1  0.646864  0.867855  0.932255  1
  Zr  Zr8  1  0.849680  0.376947  0.824545  1
  Tl  Tl9  1  0.032964  0.272378  0.270745  1
  Tl  Tl10  1  0.967036  0.727622  0.729255  1
  P  P11  1  0.743643  0.762792  0.512642  1
  P  P12  1  0.039148  0.626141  0.378348  1
  P  P13  1  0.455359  0.975566  0.737818  1
  P  P14  1  0.544641  0.024434  0.262182  1
  P  P15  1  0.960852  0.373859  0.621652  1
  P  P16  1  0.754005  0.272463  0.023494  1
  P  P17  1  0.256357  0.237208  0.487358  1
  P  P18  1  0.032398  0.120549  0.871795  1
  P  P19  1  0.468899  0.484176  0.223450  1
  P  P20  1  0.531101  0.515824  0.776550  1
  P  P21  1  0.967602  0.879451  0.128205  1
  P  P22  1  0.245995  0.727537  0.976506  1
  O  O23  1  0.264397  0.404100  0.501986  1
  O  O24  1  0.502716  0.596552  0.695865  1
  O  O25  1  0.926483  0.888553  0.590836  1
  O  O26  1  0.129288  0.532344  0.620944  1
  O  O27  1  0.738474  0.830382  0.425168  1
  O  O28  1  0.584624  0.743407  0.540639  1
  O  O29  1  0.083923  0.588343  0.293990  1
  O  O30  1  0.204092  0.677878  0.464826  1
  O  O31  1  0.377418  0.850407  0.243163  1
  O  O32  1  0.430211  0.867946  0.652075  1
  O  O33  1  0.714991  0.008834  0.275863  1
  O  O34  1  0.998119  0.230183  0.629355  1
  O  O35  1  0.279855  0.905029  0.991854  1
  O  O36  1  0.001881  0.769817  0.370645  1
  O  O37  1  0.285009  0.991166  0.724137  1
  O  O38  1  0.569789  0.132054  0.347925  1
  O  O39  1  0.622582  0.149593  0.756837  1
  O  O40  1  0.518153  0.104116  0.179942  1
  O  O41  1  0.795908  0.322122  0.535174  1
  O  O42  1  0.920206  0.379181  0.112360  1
  O  O43  1  0.128161  0.018988  0.108464  1
  O  O44  1  0.916077  0.411657  0.706010  1
  O  O45  1  0.793725  0.352411  0.943554  1
  O  O46  1  0.415376  0.256593  0.459361  1
  O  O47  1  0.583959  0.270490  0.030873  1
  O  O48  1  0.261526  0.169618  0.574832  1
  O  O49  1  0.038035  0.053037  0.781118  1
  O  O50  1  0.870712  0.467656  0.379056  1
  O  O51  1  0.073517  0.111447  0.409164  1
  O  O52  1  0.213819  0.179092  0.950424  1
  O  O53  1  0.497284  0.403448  0.304135  1
  O  O54  1  0.362100  0.344296  0.763071  1
  O  O55  1  0.426728  0.372970  0.133114  1
  O  O56  1  0.695988  0.493245  0.785080  1
  O  O57  1  0.989842  0.727920  0.136983  1
  O  O58  1  0.735603  0.595900  0.498014  1
  O  O59  1  0.010158  0.272080  0.863017  1
  O  O60  1  0.304012  0.506755  0.214920  1
  O  O61  1  0.573272  0.627030  0.866886  1
  O  O62  1  0.637900  0.655704  0.236929  1
  O  O63  1  0.786181  0.820908  0.049576  1
  O  O64  1  0.961965  0.946963  0.218882  1
  O  O65  1  0.416041  0.729510  0.969127  1
  O  O66  1  0.206275  0.647589  0.056446  1
  O  O67  1  0.871839  0.981012  0.891536  1
  O  O68  1  0.079794  0.620819  0.887640  1
  O  O69  1  0.481847  0.895884  0.820058  1
  O  O70  1  0.720145  0.094971  0.008146  1
