# generated using pymatgen
data_Ho10Co4OsAu
_symmetry_space_group_name_H-M   'P 1'
_cell_length_a   8.72038164
_cell_length_b   8.72038161
_cell_length_c   8.72038030
_cell_angle_alpha   131.39618715
_cell_angle_beta   131.39618064
_cell_angle_gamma   71.18437826
_symmetry_Int_Tables_number   1
_chemical_formula_structural   Ho10Co4OsAu
_chemical_formula_sum   'Ho10 Co4 Os1 Au1'
_cell_volume   365.33156188
_cell_formula_units_Z   1
loop_
 _symmetry_equiv_pos_site_id
 _symmetry_equiv_pos_as_xyz
  1  'x, y, z'
loop_
 _atom_site_type_symbol
 _atom_site_label
 _atom_site_symmetry_multiplicity
 _atom_site_fract_x
 _atom_site_fract_y
 _atom_site_fract_z
 _atom_site_occupancy
  Ho  Ho0  1  0.695072  0.548120  0.522974  1
  Ho  Ho1  1  0.474854  0.951880  0.146952  1
  Ho  Ho2  1  0.804928  0.327902  0.853048  1
  Ho  Ho3  1  0.548120  0.025146  0.853048  1
  Ho  Ho4  1  0.009275  0.009275  0.000000  1
  Ho  Ho5  1  0.025146  0.172098  0.477026  1
  Ho  Ho6  1  0.327902  0.474854  0.522974  1
  Ho  Ho7  1  0.172098  0.695072  0.146952  1
  Ho  Ho8  1  0.951880  0.804928  0.477026  1
  Ho  Ho9  1  0.490725  0.490725  0.000000  1
  Co  Co10  1  0.112199  0.612199  0.724398  1
  Co  Co11  1  0.887801  0.387801  0.275602  1
  Co  Co12  1  0.612199  0.887801  0.500000  1
  Co  Co13  1  0.387801  0.112199  0.500000  1
  Os  Os14  1  0.750000  0.750000  0.000000  1
  Au  Au15  1  0.250000  0.250000  0.000000  1
