# generated using pymatgen
data_Ho3Si2IrPt
_symmetry_space_group_name_H-M   'P 1'
_cell_length_a   5.57778530
_cell_length_b   5.57778549
_cell_length_c   13.28319200
_cell_angle_alpha   90.00000000
_cell_angle_beta   90.00000000
_cell_angle_gamma   137.01977625
_symmetry_Int_Tables_number   1
_chemical_formula_structural   Ho3Si2IrPt
_chemical_formula_sum   'Ho6 Si4 Ir2 Pt2'
_cell_volume   281.74004342
_cell_formula_units_Z   2
loop_
 _symmetry_equiv_pos_site_id
 _symmetry_equiv_pos_as_xyz
  1  'x, y, z'
loop_
 _atom_site_type_symbol
 _atom_site_label
 _atom_site_symmetry_multiplicity
 _atom_site_fract_x
 _atom_site_fract_y
 _atom_site_fract_z
 _atom_site_occupancy
  Ho  Ho0  1  0.775686  0.224314  0.602057  1
  Ho  Ho1  1  0.518099  0.481901  0.250000  1
  Ho  Ho2  1  0.224314  0.775686  0.397943  1
  Ho  Ho3  1  0.775686  0.224314  0.897943  1
  Ho  Ho4  1  0.481901  0.518099  0.750000  1
  Ho  Ho5  1  0.224314  0.775686  0.102057  1
  Si  Si6  1  0.061242  0.938758  0.588943  1
  Si  Si7  1  0.061242  0.938758  0.911057  1
  Si  Si8  1  0.938758  0.061242  0.411057  1
  Si  Si9  1  0.938758  0.061242  0.088943  1
  Ir  Ir10  1  0.500000  0.500000  0.000000  1
  Ir  Ir11  1  0.500000  0.500000  0.500000  1
  Pt  Pt12  1  0.806410  0.193590  0.250000  1
  Pt  Pt13  1  0.193590  0.806410  0.750000  1
