# generated using pymatgen
data_Nd16MgCd3TcPd3
_symmetry_space_group_name_H-M   'P 1'
_cell_length_a   10.07935996
_cell_length_b   10.07936013
_cell_length_c   10.07936104
_cell_angle_alpha   59.22903886
_cell_angle_beta   59.22903815
_cell_angle_gamma   59.22904061
_symmetry_Int_Tables_number   1
_chemical_formula_structural   Nd16MgCd3TcPd3
_chemical_formula_sum   'Nd16 Mg1 Cd3 Tc1 Pd3'
_cell_volume   711.35920535
_cell_formula_units_Z   1
loop_
 _symmetry_equiv_pos_site_id
 _symmetry_equiv_pos_as_xyz
  1  'x, y, z'
loop_
 _atom_site_type_symbol
 _atom_site_label
 _atom_site_symmetry_multiplicity
 _atom_site_fract_x
 _atom_site_fract_y
 _atom_site_fract_z
 _atom_site_occupancy
  Nd  Nd0  1  0.353467  0.353467  0.353467  1
  Nd  Nd1  1  0.347118  0.347118  0.953370  1
  Nd  Nd2  1  0.347118  0.953370  0.347118  1
  Nd  Nd3  1  0.953370  0.347118  0.347118  1
  Nd  Nd4  1  0.816650  0.189171  0.189171  1
  Nd  Nd5  1  0.188196  0.808438  0.808438  1
  Nd  Nd6  1  0.189171  0.816650  0.189171  1
  Nd  Nd7  1  0.808438  0.188196  0.808438  1
  Nd  Nd8  1  0.189171  0.189171  0.816650  1
  Nd  Nd9  1  0.808438  0.808438  0.188196  1
  Nd  Nd10  1  0.934685  0.565248  0.565248  1
  Nd  Nd11  1  0.556615  0.938200  0.938200  1
  Nd  Nd12  1  0.565248  0.934685  0.565248  1
  Nd  Nd13  1  0.938200  0.556615  0.938200  1
  Nd  Nd14  1  0.565248  0.565248  0.934685  1
  Nd  Nd15  1  0.938200  0.938200  0.556615  1
  Mg  Mg16  1  0.574894  0.574894  0.574894  1
  Cd  Cd17  1  0.581325  0.581325  0.255163  1
  Cd  Cd18  1  0.581325  0.255163  0.581325  1
  Cd  Cd19  1  0.255163  0.581325  0.581325  1
  Tc  Tc20  1  0.143113  0.143113  0.143113  1
  Pd  Pd21  1  0.146344  0.146344  0.572161  1
  Pd  Pd22  1  0.146344  0.572161  0.146344  1
  Pd  Pd23  1  0.572161  0.146344  0.146344  1
