# generated using pymatgen
data_Er7UAlPt24
_symmetry_space_group_name_H-M   'P 1'
_cell_length_a   8.33765205
_cell_length_b   8.33765210
_cell_length_c   8.33765300
_cell_angle_alpha   90.02877278
_cell_angle_beta   89.97122722
_cell_angle_gamma   89.97122106
_symmetry_Int_Tables_number   1
_chemical_formula_structural   Er7UAlPt24
_chemical_formula_sum   'Er7 U1 Al1 Pt24'
_cell_volume   579.60375325
_cell_formula_units_Z   1
loop_
 _symmetry_equiv_pos_site_id
 _symmetry_equiv_pos_as_xyz
  1  'x, y, z'
loop_
 _atom_site_type_symbol
 _atom_site_label
 _atom_site_symmetry_multiplicity
 _atom_site_fract_x
 _atom_site_fract_y
 _atom_site_fract_z
 _atom_site_occupancy
  Er  Er0  1  0.250495  0.252173  0.252173  1
  Er  Er1  1  0.749047  0.747674  0.747674  1
  Er  Er2  1  0.747827  0.749505  0.252173  1
  Er  Er3  1  0.747827  0.252173  0.749505  1
  Er  Er4  1  0.252326  0.250953  0.747674  1
  Er  Er5  1  0.252326  0.747674  0.250953  1
  Er  Er6  1  0.251325  0.748675  0.748675  1
  U  U7  1  0.748824  0.251176  0.251176  1
  Al  Al8  1  0.000710  0.999290  0.999290  1
  Pt  Pt9  1  0.260259  0.499513  0.999366  1
  Pt  Pt10  1  0.739295  0.497583  0.004106  1
  Pt  Pt11  1  0.995894  0.260705  0.497583  1
  Pt  Pt12  1  0.502417  0.260705  0.004106  1
  Pt  Pt13  1  0.000634  0.739741  0.499513  1
  Pt  Pt14  1  0.500487  0.739741  0.999366  1
  Pt  Pt15  1  0.502417  0.004106  0.260705  1
  Pt  Pt16  1  0.260259  0.999366  0.499513  1
  Pt  Pt17  1  0.500487  0.999366  0.739741  1
  Pt  Pt18  1  0.739295  0.004106  0.497583  1
  Pt  Pt19  1  0.995894  0.497583  0.260705  1
  Pt  Pt20  1  0.000634  0.499513  0.739741  1
  Pt  Pt21  1  0.252763  0.500289  0.500289  1
  Pt  Pt22  1  0.746201  0.497102  0.497102  1
  Pt  Pt23  1  0.502898  0.253799  0.497102  1
  Pt  Pt24  1  0.499711  0.747237  0.500289  1
  Pt  Pt25  1  0.502898  0.497102  0.253799  1
  Pt  Pt26  1  0.499711  0.500289  0.747237  1
  Pt  Pt27  1  0.290410  0.000461  0.000461  1
  Pt  Pt28  1  0.709569  0.000955  0.000955  1
  Pt  Pt29  1  0.999045  0.290431  0.000955  1
  Pt  Pt30  1  0.999539  0.709590  0.000461  1
  Pt  Pt31  1  0.999045  0.000955  0.290431  1
  Pt  Pt32  1  0.999539  0.000461  0.709590  1
