# generated using pymatgen
data_Er3Hg5Ir
_symmetry_space_group_name_H-M   'P 1'
_cell_length_a   8.08072500
_cell_length_b   8.08072637
_cell_length_c   3.74173800
_cell_angle_alpha   90.00000000
_cell_angle_beta   90.00000000
_cell_angle_gamma   119.99999030
_symmetry_Int_Tables_number   1
_chemical_formula_structural   Er3Hg5Ir
_chemical_formula_sum   'Er3 Hg5 Ir1'
_cell_volume   211.59469582
_cell_formula_units_Z   1
loop_
 _symmetry_equiv_pos_site_id
 _symmetry_equiv_pos_as_xyz
  1  'x, y, z'
loop_
 _atom_site_type_symbol
 _atom_site_label
 _atom_site_symmetry_multiplicity
 _atom_site_fract_x
 _atom_site_fract_y
 _atom_site_fract_z
 _atom_site_occupancy
  Er  Er0  1  0.425142  0.384085  0.500000  1
  Er  Er1  1  0.615915  0.041058  0.500000  1
  Er  Er2  1  0.958942  0.574858  0.500000  1
  Hg  Hg3  1  0.718705  0.719196  0.000000  1
  Hg  Hg4  1  0.280804  0.999509  0.000000  1
  Hg  Hg5  1  0.000491  0.281295  0.000000  1
  Hg  Hg6  1  0.333333  0.666667  0.000000  1
  Hg  Hg7  1  0.000000  0.000000  0.500000  1
  Ir  Ir8  1  0.666667  0.333333  0.000000  1
