# generated using pymatgen
data_Ac3TlTe2
_symmetry_space_group_name_H-M   'P 1'
_cell_length_a   8.45354741
_cell_length_b   8.45354913
_cell_length_c   8.45354809
_cell_angle_alpha   148.12648814
_cell_angle_beta   132.94779542
_cell_angle_gamma   57.95753848
_symmetry_Int_Tables_number   1
_chemical_formula_structural   Ac3TlTe2
_chemical_formula_sum   'Ac3 Tl1 Te2'
_cell_volume   231.68756401
_cell_formula_units_Z   1
loop_
 _symmetry_equiv_pos_site_id
 _symmetry_equiv_pos_as_xyz
  1  'x, y, z'
loop_
 _atom_site_type_symbol
 _atom_site_label
 _atom_site_symmetry_multiplicity
 _atom_site_fract_x
 _atom_site_fract_y
 _atom_site_fract_z
 _atom_site_occupancy
  Ac  Ac0  1  0.000000  0.000000  0.000000  1
  Ac  Ac1  1  0.664782  0.664782  0.000000  1
  Ac  Ac2  1  0.335218  0.335218  0.000000  1
  Tl  Tl3  1  0.500000  0.000000  0.500000  1
  Te  Te4  1  0.168494  0.668494  0.500000  1
  Te  Te5  1  0.831506  0.331506  0.500000  1
