# generated using pymatgen
data_Ca6Ti5Ni2
_symmetry_space_group_name_H-M   'P 1'
_cell_length_a   6.82446228
_cell_length_b   9.30997743
_cell_length_c   25.72143929
_cell_angle_alpha   84.14784094
_cell_angle_beta   83.61001988
_cell_angle_gamma   71.85357079
_symmetry_Int_Tables_number   1
_chemical_formula_structural   Ca6Ti5Ni2
_chemical_formula_sum   'Ca6 Ti5 Ni2'
_cell_volume   1539.37460431
_cell_formula_units_Z   1
loop_
 _symmetry_equiv_pos_site_id
 _symmetry_equiv_pos_as_xyz
  1  'x, y, z'
loop_
 _atom_site_type_symbol
 _atom_site_label
 _atom_site_symmetry_multiplicity
 _atom_site_fract_x
 _atom_site_fract_y
 _atom_site_fract_z
 _atom_site_occupancy
  Ca  Ca0  1  0.698331  0.856256  0.436622  1
  Ca  Ca1  1  0.377139  0.143555  0.010548  1
  Ca  Ca2  1  0.987428  0.601860  0.822952  1
  Ca  Ca3  1  0.520673  0.576204  0.075994  1
  Ca  Ca4  1  0.047675  0.503912  0.979253  1
  Ca  Ca5  1  0.384439  0.459995  0.483651  1
  Ti  Ti6  1  0.858905  0.310917  0.606219  1
  Ti  Ti7  1  0.794294  0.210305  0.675525  1
  Ti  Ti8  1  0.965673  0.862031  0.159677  1
  Ti  Ti9  1  0.143175  0.697113  0.408772  1
  Ti  Ti10  1  0.425018  0.834923  0.703592  1
  Ni  Ni11  1  0.184784  0.111623  0.836121  1
  Ni  Ni12  1  0.435506  0.285869  0.225623  1
