# generated using pymatgen
data_TbY7AlPd24
_symmetry_space_group_name_H-M   'P 1'
_cell_length_a   8.36974503
_cell_length_b   8.36974518
_cell_length_c   8.36974588
_cell_angle_alpha   89.98659499
_cell_angle_beta   90.01340279
_cell_angle_gamma   90.01340494
_symmetry_Int_Tables_number   1
_chemical_formula_structural   TbY7AlPd24
_chemical_formula_sum   'Tb1 Y7 Al1 Pd24'
_cell_volume   586.32268939
_cell_formula_units_Z   1
loop_
 _symmetry_equiv_pos_site_id
 _symmetry_equiv_pos_as_xyz
  1  'x, y, z'
loop_
 _atom_site_type_symbol
 _atom_site_label
 _atom_site_symmetry_multiplicity
 _atom_site_fract_x
 _atom_site_fract_y
 _atom_site_fract_z
 _atom_site_occupancy
  Tb  Tb0  1  0.748164  0.251836  0.251836  1
  Y  Y1  1  0.250970  0.251372  0.251372  1
  Y  Y2  1  0.748613  0.748442  0.748442  1
  Y  Y3  1  0.748628  0.749030  0.251372  1
  Y  Y4  1  0.748628  0.251372  0.749030  1
  Y  Y5  1  0.251558  0.251387  0.748442  1
  Y  Y6  1  0.251558  0.748442  0.251387  1
  Y  Y7  1  0.251442  0.748558  0.748558  1
  Al  Al8  1  0.000258  0.999742  0.999742  1
  Pd  Pd9  1  0.259642  0.499702  0.999952  1
  Pd  Pd10  1  0.740515  0.499968  0.000642  1
  Pd  Pd11  1  0.999358  0.259485  0.499968  1
  Pd  Pd12  1  0.500032  0.259485  0.000642  1
  Pd  Pd13  1  0.000048  0.740358  0.499702  1
  Pd  Pd14  1  0.500298  0.740358  0.999952  1
  Pd  Pd15  1  0.500032  0.000642  0.259485  1
  Pd  Pd16  1  0.259642  0.999952  0.499702  1
  Pd  Pd17  1  0.500298  0.999952  0.740358  1
  Pd  Pd18  1  0.740515  0.000642  0.499968  1
  Pd  Pd19  1  0.999358  0.499968  0.259485  1
  Pd  Pd20  1  0.000048  0.499702  0.740358  1
  Pd  Pd21  1  0.252432  0.499795  0.499795  1
  Pd  Pd22  1  0.747344  0.500147  0.500147  1
  Pd  Pd23  1  0.499853  0.252656  0.500147  1
  Pd  Pd24  1  0.500205  0.747568  0.499795  1
  Pd  Pd25  1  0.499853  0.500147  0.252656  1
  Pd  Pd26  1  0.500205  0.499795  0.747568  1
  Pd  Pd27  1  0.289600  0.999964  0.999964  1
  Pd  Pd28  1  0.711326  0.000249  0.000249  1
  Pd  Pd29  1  0.999751  0.288674  0.000249  1
  Pd  Pd30  1  0.000036  0.710400  0.999964  1
  Pd  Pd31  1  0.999751  0.000249  0.288674  1
  Pd  Pd32  1  0.000036  0.999964  0.710400  1
