# generated using pymatgen
data_Dy3HoAl4(IrPt)2
_symmetry_space_group_name_H-M   'P 1'
_cell_length_a   4.36091400
_cell_length_b   6.80256523
_cell_length_c   7.86064926
_cell_angle_alpha   89.97033469
_cell_angle_beta   90.00000000
_cell_angle_gamma   90.00000000
_symmetry_Int_Tables_number   1
_chemical_formula_structural   Dy3HoAl4(IrPt)2
_chemical_formula_sum   'Dy3 Ho1 Al4 Ir2 Pt2'
_cell_volume   233.18928864
_cell_formula_units_Z   1
loop_
 _symmetry_equiv_pos_site_id
 _symmetry_equiv_pos_as_xyz
  1  'x, y, z'
loop_
 _atom_site_type_symbol
 _atom_site_label
 _atom_site_symmetry_multiplicity
 _atom_site_fract_x
 _atom_site_fract_y
 _atom_site_fract_z
 _atom_site_occupancy
  Dy  Dy0  1  0.250000  0.032630  0.679158  1
  Dy  Dy1  1  0.250000  0.532519  0.820991  1
  Dy  Dy2  1  0.750000  0.972376  0.317708  1
  Ho  Ho3  1  0.750000  0.472314  0.182193  1
  Al  Al4  1  0.250000  0.140978  0.064548  1
  Al  Al5  1  0.250000  0.640698  0.435304  1
  Al  Al6  1  0.750000  0.856148  0.940213  1
  Al  Al7  1  0.750000  0.356308  0.559738  1
  Ir  Ir8  1  0.250000  0.267734  0.381785  1
  Ir  Ir9  1  0.250000  0.767042  0.118081  1
  Pt  Pt10  1  0.750000  0.730547  0.620071  1
  Pt  Pt11  1  0.750000  0.230707  0.880210  1
