# generated using pymatgen
data_Nd3AlHg2Pd3
_symmetry_space_group_name_H-M   'P 1'
_cell_length_a   7.81600760
_cell_length_b   7.81600776
_cell_length_c   3.93968600
_cell_angle_alpha   90.00000000
_cell_angle_beta   90.00000000
_cell_angle_gamma   121.25481971
_symmetry_Int_Tables_number   1
_chemical_formula_structural   Nd3AlHg2Pd3
_chemical_formula_sum   'Nd3 Al1 Hg2 Pd3'
_cell_volume   205.74568742
_cell_formula_units_Z   1
loop_
 _symmetry_equiv_pos_site_id
 _symmetry_equiv_pos_as_xyz
  1  'x, y, z'
loop_
 _atom_site_type_symbol
 _atom_site_label
 _atom_site_symmetry_multiplicity
 _atom_site_fract_x
 _atom_site_fract_y
 _atom_site_fract_z
 _atom_site_occupancy
  Nd  Nd0  1  0.595639  0.002285  0.000000  1
  Nd  Nd1  1  0.002285  0.595639  0.000000  1
  Nd  Nd2  1  0.406114  0.406114  0.000000  1
  Al  Al3  1  0.746218  0.746218  0.500000  1
  Hg  Hg4  1  0.257292  0.000980  0.500000  1
  Hg  Hg5  1  0.000980  0.257292  0.500000  1
  Pd  Pd6  1  0.958244  0.958244  0.000000  1
  Pd  Pd7  1  0.359061  0.674165  0.500000  1
  Pd  Pd8  1  0.674165  0.359061  0.500000  1
