# generated using pymatgen
data_Dy4Er4Re3B24Rh
_symmetry_space_group_name_H-M   'P 1'
_cell_length_a   3.66768800
_cell_length_b   9.14400610
_cell_length_c   11.52832008
_cell_angle_alpha   90.15194382
_cell_angle_beta   90.00000000
_cell_angle_gamma   90.00000000
_symmetry_Int_Tables_number   1
_chemical_formula_structural   Dy4Er4Re3B24Rh
_chemical_formula_sum   'Dy4 Er4 Re3 B24 Rh1'
_cell_volume   386.62807779
_cell_formula_units_Z   1
loop_
 _symmetry_equiv_pos_site_id
 _symmetry_equiv_pos_as_xyz
  1  'x, y, z'
loop_
 _atom_site_type_symbol
 _atom_site_label
 _atom_site_symmetry_multiplicity
 _atom_site_fract_x
 _atom_site_fract_y
 _atom_site_fract_z
 _atom_site_occupancy
  Dy  Dy0  1  0.000000  0.318335  0.415504  1
  Dy  Dy1  1  0.000000  0.678305  0.591032  1
  Dy  Dy2  1  0.000000  0.826825  0.081593  1
  Dy  Dy3  1  0.000000  0.177623  0.912730  1
  Er  Er4  1  0.000000  0.943384  0.370115  1
  Er  Er5  1  0.000000  0.055825  0.628880  1
  Er  Er6  1  0.000000  0.441333  0.128879  1
  Er  Er7  1  0.000000  0.556674  0.871675  1
  Re  Re8  1  0.000000  0.362250  0.678073  1
  Re  Re9  1  0.000000  0.138661  0.180323  1
  Re  Re10  1  0.000000  0.861283  0.820498  1
  B  B11  1  0.500000  0.554119  0.433501  1
  B  B12  1  0.500000  0.446501  0.566788  1
  B  B13  1  0.500000  0.053672  0.066778  1
  B  B14  1  0.500000  0.947023  0.932467  1
  B  B15  1  0.500000  0.749427  0.419965  1
  B  B16  1  0.500000  0.250109  0.581088  1
  B  B17  1  0.500000  0.249810  0.081502  1
  B  B18  1  0.500000  0.751300  0.918740  1
  B  B19  1  0.500000  0.791236  0.265213  1
  B  B20  1  0.500000  0.208217  0.733974  1
  B  B21  1  0.500000  0.291984  0.235143  1
  B  B22  1  0.500000  0.707944  0.765947  1
  B  B23  1  0.500000  0.631530  0.184034  1
  B  B24  1  0.500000  0.369693  0.814305  1
  B  B25  1  0.500000  0.130441  0.315039  1
  B  B26  1  0.500000  0.868754  0.685266  1
  B  B27  1  0.500000  0.982855  0.212247  1
  B  B28  1  0.500000  0.017458  0.786696  1
  B  B29  1  0.500000  0.483264  0.287724  1
  B  B30  1  0.500000  0.518224  0.712683  1
  B  B31  1  0.500000  0.603109  0.029178  1
  B  B32  1  0.500000  0.398273  0.972390  1
  B  B33  1  0.500000  0.100827  0.471311  1
  B  B34  1  0.500000  0.895759  0.527956  1
  Rh  Rh35  1  0.000000  0.637977  0.320764  1
