# generated using pymatgen
data_Sm2YEr5(Si3Rh)4
_symmetry_space_group_name_H-M   'P 1'
_cell_length_a   8.16996851
_cell_length_b   8.16996965
_cell_length_c   7.92285400
_cell_angle_alpha   90.00000000
_cell_angle_beta   90.00000000
_cell_angle_gamma   120.04063767
_symmetry_Int_Tables_number   1
_chemical_formula_structural   Sm2YEr5(Si3Rh)4
_chemical_formula_sum   'Sm2 Y1 Er5 Si12 Rh4'
_cell_volume   457.79930060
_cell_formula_units_Z   1
loop_
 _symmetry_equiv_pos_site_id
 _symmetry_equiv_pos_as_xyz
  1  'x, y, z'
loop_
 _atom_site_type_symbol
 _atom_site_label
 _atom_site_symmetry_multiplicity
 _atom_site_fract_x
 _atom_site_fract_y
 _atom_site_fract_z
 _atom_site_occupancy
  Sm  Sm0  1  0.000130  0.999870  0.250000  1
  Sm  Sm1  1  0.000002  0.999998  0.750000  1
  Y  Y2  1  0.491128  0.508872  0.250000  1
  Er  Er3  1  0.492069  0.984396  0.250000  1
  Er  Er4  1  0.015604  0.507931  0.250000  1
  Er  Er5  1  0.508063  0.491937  0.750000  1
  Er  Er6  1  0.983929  0.491950  0.750000  1
  Er  Er7  1  0.508050  0.016071  0.750000  1
  Si  Si8  1  0.832338  0.167662  0.502514  1
  Si  Si9  1  0.832063  0.663963  0.503099  1
  Si  Si10  1  0.336037  0.167937  0.503099  1
  Si  Si11  1  0.832338  0.167662  0.997486  1
  Si  Si12  1  0.832063  0.663963  0.996901  1
  Si  Si13  1  0.336037  0.167937  0.996901  1
  Si  Si14  1  0.167945  0.832055  0.002322  1
  Si  Si15  1  0.664060  0.832208  0.000897  1
  Si  Si16  1  0.167792  0.335940  0.000897  1
  Si  Si17  1  0.167945  0.832055  0.497678  1
  Si  Si18  1  0.664060  0.832208  0.499103  1
  Si  Si19  1  0.167792  0.335940  0.499103  1
  Rh  Rh20  1  0.667341  0.332659  0.468040  1
  Rh  Rh21  1  0.667341  0.332659  0.031960  1
  Rh  Rh22  1  0.332936  0.667064  0.963299  1
  Rh  Rh23  1  0.332936  0.667064  0.536701  1
