# generated using pymatgen
data_Zr10Tl2Bi4As
_symmetry_space_group_name_H-M   'P 1'
_cell_length_a   5.91787819
_cell_length_b   8.73739232
_cell_length_c   8.72409500
_cell_angle_alpha   120.05044110
_cell_angle_beta   89.98536110
_cell_angle_gamma   90.02923278
_symmetry_Int_Tables_number   1
_chemical_formula_structural   Zr10Tl2Bi4As
_chemical_formula_sum   'Zr10 Tl2 Bi4 As1'
_cell_volume   390.46117132
_cell_formula_units_Z   1
loop_
 _symmetry_equiv_pos_site_id
 _symmetry_equiv_pos_as_xyz
  1  'x, y, z'
loop_
 _atom_site_type_symbol
 _atom_site_label
 _atom_site_symmetry_multiplicity
 _atom_site_fract_x
 _atom_site_fract_y
 _atom_site_fract_z
 _atom_site_occupancy
  Zr  Zr0  1  0.497792  0.332817  0.665744  1
  Zr  Zr1  1  0.497792  0.667073  0.334256  1
  Zr  Zr2  1  0.003176  0.667599  0.334387  1
  Zr  Zr3  1  0.003176  0.333212  0.665613  1
  Zr  Zr4  1  0.761702  0.253537  0.000000  1
  Zr  Zr5  1  0.764491  0.748626  0.747548  1
  Zr  Zr6  1  0.764491  0.001078  0.252452  1
  Zr  Zr7  1  0.236187  0.747329  0.000000  1
  Zr  Zr8  1  0.238180  0.252594  0.257064  1
  Zr  Zr9  1  0.238180  0.995531  0.742936  1
  Tl  Tl10  1  0.251509  0.609235  0.610099  1
  Tl  Tl11  1  0.251509  0.999137  0.389901  1
  Bi  Bi12  1  0.746884  0.609970  0.000000  1
  Bi  Bi13  1  0.747707  0.393351  0.393722  1
  Bi  Bi14  1  0.747707  0.999630  0.606278  1
  Bi  Bi15  1  0.251204  0.389046  0.000000  1
  As  As16  1  0.498321  0.000236  0.000000  1
