# generated using pymatgen
data_Tb3(SiAg2)2
_symmetry_space_group_name_H-M   'P 1'
_cell_length_a   7.23502100
_cell_length_b   7.23502076
_cell_length_c   4.18332700
_cell_angle_alpha   90.00000000
_cell_angle_beta   90.00000000
_cell_angle_gamma   119.99999650
_symmetry_Int_Tables_number   1
_chemical_formula_structural   Tb3(SiAg2)2
_chemical_formula_sum   'Tb3 Si2 Ag4'
_cell_volume   189.64091344
_cell_formula_units_Z   1
loop_
 _symmetry_equiv_pos_site_id
 _symmetry_equiv_pos_as_xyz
  1  'x, y, z'
loop_
 _atom_site_type_symbol
 _atom_site_label
 _atom_site_symmetry_multiplicity
 _atom_site_fract_x
 _atom_site_fract_y
 _atom_site_fract_z
 _atom_site_occupancy
  Tb  Tb0  1  0.583212  0.000000  0.000000  1
  Tb  Tb1  1  0.000000  0.583212  0.000000  1
  Tb  Tb2  1  0.416788  0.416788  0.000000  1
  Si  Si3  1  0.333333  0.666667  0.500000  1
  Si  Si4  1  0.666667  0.333333  0.500000  1
  Ag  Ag5  1  0.262130  0.000000  0.500000  1
  Ag  Ag6  1  0.000000  0.262130  0.500000  1
  Ag  Ag7  1  0.737870  0.737870  0.500000  1
  Ag  Ag8  1  0.000000  0.000000  0.000000  1
