# generated using pymatgen
data_LiAc6Zn3Pd12Rh
_symmetry_space_group_name_H-M   'P 1'
_cell_length_a   8.60713630
_cell_length_b   8.60713644
_cell_length_c   8.60713664
_cell_angle_alpha   109.48406761
_cell_angle_beta   109.48406202
_cell_angle_gamma   109.48407521
_symmetry_Int_Tables_number   1
_chemical_formula_structural   LiAc6Zn3Pd12Rh
_chemical_formula_sum   'Li1 Ac6 Zn3 Pd12 Rh1'
_cell_volume   490.62245469
_cell_formula_units_Z   1
loop_
 _symmetry_equiv_pos_site_id
 _symmetry_equiv_pos_as_xyz
  1  'x, y, z'
loop_
 _atom_site_type_symbol
 _atom_site_label
 _atom_site_symmetry_multiplicity
 _atom_site_fract_x
 _atom_site_fract_y
 _atom_site_fract_z
 _atom_site_occupancy
  Li  Li0  1  0.500000  0.500000  0.500000  1
  Ac  Ac1  1  0.700928  0.700928  0.001418  1
  Ac  Ac2  1  0.299072  0.998582  0.299072  1
  Ac  Ac3  1  0.998582  0.299072  0.299072  1
  Ac  Ac4  1  0.299072  0.299072  0.998582  1
  Ac  Ac5  1  0.700928  0.001418  0.700928  1
  Ac  Ac6  1  0.001418  0.700928  0.700928  1
  Zn  Zn7  1  0.000000  0.000000  0.500000  1
  Zn  Zn8  1  0.000000  0.500000  0.000000  1
  Zn  Zn9  1  0.500000  0.000000  0.000000  1
  Pd  Pd10  1  0.331028  0.331028  0.663099  1
  Pd  Pd11  1  0.669286  0.000000  0.330714  1
  Pd  Pd12  1  0.000000  0.669286  0.330714  1
  Pd  Pd13  1  0.669286  0.330714  0.000000  1
  Pd  Pd14  1  0.331028  0.663099  0.331028  1
  Pd  Pd15  1  0.000000  0.330714  0.669286  1
  Pd  Pd16  1  0.330714  0.669286  0.000000  1
  Pd  Pd17  1  0.330714  0.000000  0.669286  1
  Pd  Pd18  1  0.663099  0.331028  0.331028  1
  Pd  Pd19  1  0.668972  0.668972  0.336901  1
  Pd  Pd20  1  0.668972  0.336901  0.668972  1
  Pd  Pd21  1  0.336901  0.668972  0.668972  1
  Rh  Rh22  1  0.000000  0.000000  0.000000  1
