# generated using pymatgen
data_Dy4Ho3Sn23Ru6
_symmetry_space_group_name_H-M   'P 1'
_cell_length_a   9.85277600
_cell_length_b   9.85277523
_cell_length_c   10.08273100
_cell_angle_alpha   90.00000000
_cell_angle_beta   90.00000000
_cell_angle_gamma   119.99999588
_symmetry_Int_Tables_number   1
_chemical_formula_structural   Dy4Ho3Sn23Ru6
_chemical_formula_sum   'Dy4 Ho3 Sn23 Ru6'
_cell_volume   847.66844212
_cell_formula_units_Z   1
loop_
 _symmetry_equiv_pos_site_id
 _symmetry_equiv_pos_as_xyz
  1  'x, y, z'
loop_
 _atom_site_type_symbol
 _atom_site_label
 _atom_site_symmetry_multiplicity
 _atom_site_fract_x
 _atom_site_fract_y
 _atom_site_fract_z
 _atom_site_occupancy
  Dy  Dy0  1  0.000000  0.000000  0.000026  1
  Dy  Dy1  1  0.515640  0.484360  0.696864  1
  Dy  Dy2  1  0.515640  0.031278  0.696864  1
  Dy  Dy3  1  0.968722  0.484360  0.696864  1
  Ho  Ho4  1  0.030924  0.515462  0.303031  1
  Ho  Ho5  1  0.484538  0.969076  0.303031  1
  Ho  Ho6  1  0.484538  0.515462  0.303031  1
  Sn  Sn7  1  0.666667  0.333333  0.178187  1
  Sn  Sn8  1  0.666667  0.333333  0.872489  1
  Sn  Sn9  1  0.333333  0.666667  0.127945  1
  Sn  Sn10  1  0.349112  0.349103  0.000024  1
  Sn  Sn11  1  0.999991  0.650888  0.000024  1
  Sn  Sn12  1  0.650897  0.000009  0.000024  1
  Sn  Sn13  1  0.650897  0.650888  0.000024  1
  Sn  Sn14  1  0.333333  0.666667  0.821935  1
  Sn  Sn15  1  0.439515  0.219758  0.462201  1
  Sn  Sn16  1  0.219759  0.780241  0.537505  1
  Sn  Sn17  1  0.219759  0.439516  0.537505  1
  Sn  Sn18  1  0.560484  0.780241  0.537505  1
  Sn  Sn19  1  0.118470  0.881530  0.273709  1
  Sn  Sn20  1  0.780242  0.560485  0.462201  1
  Sn  Sn21  1  0.780242  0.219758  0.462201  1
  Sn  Sn22  1  0.349112  0.000009  0.000024  1
  Sn  Sn23  1  0.118470  0.236939  0.273709  1
  Sn  Sn24  1  0.763061  0.881530  0.273709  1
  Sn  Sn25  1  0.236824  0.118412  0.726326  1
  Sn  Sn26  1  0.881588  0.763176  0.726326  1
  Sn  Sn27  1  0.881588  0.118412  0.726326  1
  Sn  Sn28  1  0.000000  0.000000  0.500009  1
  Sn  Sn29  1  0.999991  0.349103  0.000024  1
  Ru  Ru30  1  0.169995  0.830005  0.797800  1
  Ru  Ru31  1  0.169995  0.339988  0.797800  1
  Ru  Ru32  1  0.660012  0.830005  0.797800  1
  Ru  Ru33  1  0.340149  0.170075  0.202320  1
  Ru  Ru34  1  0.829925  0.659851  0.202320  1
  Ru  Ru35  1  0.829925  0.170075  0.202320  1
