# generated using pymatgen
data_PrNd4DyTa2O14
_symmetry_space_group_name_H-M   'P 1'
_cell_length_a   6.67967477
_cell_length_b   6.64978049
_cell_length_c   7.69789400
_cell_angle_alpha   90.00242144
_cell_angle_beta   90.00214168
_cell_angle_gamma   108.68445173
_symmetry_Int_Tables_number   1
_chemical_formula_structural   PrNd4DyTa2O14
_chemical_formula_sum   'Pr1 Nd4 Dy1 Ta2 O14'
_cell_volume   323.90736868
_cell_formula_units_Z   1
loop_
 _symmetry_equiv_pos_site_id
 _symmetry_equiv_pos_as_xyz
  1  'x, y, z'
loop_
 _atom_site_type_symbol
 _atom_site_label
 _atom_site_symmetry_multiplicity
 _atom_site_fract_x
 _atom_site_fract_y
 _atom_site_fract_z
 _atom_site_occupancy
  Pr  Pr0  1  0.534148  0.527290  0.498935  1
  Nd  Nd1  1  0.536303  0.529246  0.000943  1
  Nd  Nd2  1  0.007112  0.461775  0.750327  1
  Nd  Nd3  1  0.532489  0.003669  0.750352  1
  Nd  Nd4  1  0.462954  0.004030  0.249602  1
  Dy  Dy5  1  0.004008  0.531610  0.249666  1
  Ta  Ta6  1  0.001016  0.001291  0.497810  1
  Ta  Ta7  1  0.001106  0.001345  0.002183  1
  O  O8  1  0.945359  0.056324  0.749987  1
  O  O9  1  0.058749  0.934970  0.250011  1
  O  O10  1  0.354014  0.634825  0.248717  1
  O  O11  1  0.643562  0.368418  0.751461  1
  O  O12  1  0.371888  0.631593  0.751600  1
  O  O13  1  0.644351  0.376904  0.248377  1
  O  O14  1  0.307978  0.069904  0.969456  1
  O  O15  1  0.678945  0.919476  0.472855  1
  O  O16  1  0.308317  0.070079  0.530504  1
  O  O17  1  0.678532  0.918044  0.027045  1
  O  O18  1  0.033812  0.299400  0.458179  1
  O  O19  1  0.930477  0.680289  0.975942  1
  O  O20  1  0.931600  0.680628  0.524156  1
  O  O21  1  0.033280  0.298888  0.041892  1
