# generated using pymatgen
data_Ta3Zn2SiRu6
_symmetry_space_group_name_H-M   'P 1'
_cell_length_a   4.37084600
_cell_length_b   6.17347400
_cell_length_c   13.07184000
_cell_angle_alpha   90.00000000
_cell_angle_beta   89.99807878
_cell_angle_gamma   90.00000000
_symmetry_Int_Tables_number   1
_chemical_formula_structural   Ta3Zn2SiRu6
_chemical_formula_sum   'Ta6 Zn4 Si2 Ru12'
_cell_volume   352.72143428
_cell_formula_units_Z   2
loop_
 _symmetry_equiv_pos_site_id
 _symmetry_equiv_pos_as_xyz
  1  'x, y, z'
loop_
 _atom_site_type_symbol
 _atom_site_label
 _atom_site_symmetry_multiplicity
 _atom_site_fract_x
 _atom_site_fract_y
 _atom_site_fract_z
 _atom_site_occupancy
  Ta  Ta0  1  0.000009  0.000000  0.996848  1
  Ta  Ta1  1  0.499864  0.500000  0.169832  1
  Ta  Ta2  1  0.999892  0.000000  0.336857  1
  Ta  Ta3  1  0.500012  0.500000  0.500332  1
  Ta  Ta4  1  0.000106  0.000000  0.666356  1
  Ta  Ta5  1  0.500113  0.500000  0.829788  1
  Zn  Zn6  1  0.999879  0.500000  0.332240  1
  Zn  Zn7  1  0.500012  0.000000  0.499425  1
  Zn  Zn8  1  0.000116  0.500000  0.667279  1
  Zn  Zn9  1  0.500114  0.000000  0.834423  1
  Si  Si10  1  0.999994  0.500000  0.999691  1
  Si  Si11  1  0.499928  0.000000  0.167008  1
  Ru  Ru12  1  0.499992  0.252664  0.003854  1
  Ru  Ru13  1  0.499992  0.747337  0.003854  1
  Ru  Ru14  1  0.999882  0.247429  0.162741  1
  Ru  Ru15  1  0.999882  0.752573  0.162741  1
  Ru  Ru16  1  0.499885  0.245447  0.328320  1
  Ru  Ru17  1  0.499885  0.754553  0.328320  1
  Ru  Ru18  1  0.000010  0.249581  0.499283  1
  Ru  Ru19  1  0.000010  0.750418  0.499283  1
  Ru  Ru20  1  0.500103  0.250397  0.667368  1
  Ru  Ru21  1  0.500103  0.749603  0.667368  1
  Ru  Ru22  1  0.000108  0.254586  0.838396  1
  Ru  Ru23  1  0.000108  0.745416  0.838396  1
