# generated using pymatgen
data_BaHf2ZrS6
_symmetry_space_group_name_H-M   'P 1'
_cell_length_a   6.28947286
_cell_length_b   6.28947332
_cell_length_c   7.91918869
_cell_angle_alpha   97.59392161
_cell_angle_beta   97.59392409
_cell_angle_gamma   119.98476918
_symmetry_Int_Tables_number   1
_chemical_formula_structural   BaHf2ZrS6
_chemical_formula_sum   'Ba1 Hf2 Zr1 S6'
_cell_volume   261.69120379
_cell_formula_units_Z   1
loop_
 _symmetry_equiv_pos_site_id
 _symmetry_equiv_pos_as_xyz
  1  'x, y, z'
loop_
 _atom_site_type_symbol
 _atom_site_label
 _atom_site_symmetry_multiplicity
 _atom_site_fract_x
 _atom_site_fract_y
 _atom_site_fract_z
 _atom_site_occupancy
  Ba  Ba0  1  0.999655  0.000345  0.500000  1
  Hf  Hf1  1  0.499698  0.500304  0.000000  1
  Hf  Hf2  1  0.166183  0.833818  0.000000  1
  Zr  Zr3  1  0.833852  0.166149  0.000000  1
  S  S4  1  0.241408  0.235980  0.198256  1
  S  S5  1  0.899241  0.567526  0.197694  1
  S  S6  1  0.557634  0.894163  0.198017  1
  S  S7  1  0.432473  0.100759  0.802305  1
  S  S8  1  0.105837  0.442365  0.801982  1
  S  S9  1  0.764021  0.758593  0.801743  1
