# generated using pymatgen
data_Mg4AlIn(SbPt)6
_symmetry_space_group_name_H-M   'P 1'
_cell_length_a   7.78866731
_cell_length_b   7.78432172
_cell_length_c   7.80507644
_cell_angle_alpha   99.68641437
_cell_angle_beta   99.74873094
_cell_angle_gamma   119.87773853
_symmetry_Int_Tables_number   1
_chemical_formula_structural   Mg4AlIn(SbPt)6
_chemical_formula_sum   'Mg4 Al1 In1 Sb6 Pt6'
_cell_volume   386.32631615
_cell_formula_units_Z   1
loop_
 _symmetry_equiv_pos_site_id
 _symmetry_equiv_pos_as_xyz
  1  'x, y, z'
loop_
 _atom_site_type_symbol
 _atom_site_label
 _atom_site_symmetry_multiplicity
 _atom_site_fract_x
 _atom_site_fract_y
 _atom_site_fract_z
 _atom_site_occupancy
  Mg  Mg0  1  0.332555  0.166383  0.499803  1
  Mg  Mg1  1  0.998746  0.501976  0.500374  1
  Mg  Mg2  1  0.163662  0.330849  0.998590  1
  Mg  Mg3  1  0.502959  0.998034  0.999609  1
  Al  Al4  1  0.668792  0.833140  0.501772  1
  In  In5  1  0.830540  0.669439  0.998360  1
  Sb  Sb6  1  0.919801  0.092509  0.251072  1
  Sb  Sb7  1  0.254332  0.750319  0.252792  1
  Sb  Sb8  1  0.577735  0.408970  0.252589  1
  Sb  Sb9  1  0.095666  0.920064  0.746994  1
  Sb  Sb10  1  0.748499  0.252018  0.746217  1
  Sb  Sb11  1  0.404242  0.574853  0.751535  1
  Pt  Pt12  1  0.209220  0.040609  0.123617  1
  Pt  Pt13  1  0.874067  0.377760  0.123882  1
  Pt  Pt14  1  0.548345  0.713070  0.143169  1
  Pt  Pt15  1  0.023668  0.189990  0.619149  1
  Pt  Pt16  1  0.391084  0.871784  0.620649  1
  Pt  Pt17  1  0.706083  0.558234  0.619828  1
