# generated using pymatgen
data_Hf11Zr7CuRe8Ni
_symmetry_space_group_name_H-M   'P 1'
_cell_length_a   8.69452280
_cell_length_b   8.69452357
_cell_length_c   8.47827315
_cell_angle_alpha   89.94871851
_cell_angle_beta   90.05127934
_cell_angle_gamma   120.05345330
_symmetry_Int_Tables_number   1
_chemical_formula_structural   Hf11Zr7CuRe8Ni
_chemical_formula_sum   'Hf11 Zr7 Cu1 Re8 Ni1'
_cell_volume   554.74726223
_cell_formula_units_Z   1
loop_
 _symmetry_equiv_pos_site_id
 _symmetry_equiv_pos_as_xyz
  1  'x, y, z'
loop_
 _atom_site_type_symbol
 _atom_site_label
 _atom_site_symmetry_multiplicity
 _atom_site_fract_x
 _atom_site_fract_y
 _atom_site_fract_z
 _atom_site_occupancy
  Hf  Hf0  1  0.193541  0.386793  0.445593  1
  Hf  Hf1  1  0.613207  0.806459  0.445593  1
  Hf  Hf2  1  0.802752  0.197248  0.556486  1
  Hf  Hf3  1  0.802591  0.606333  0.557304  1
  Hf  Hf4  1  0.393667  0.197409  0.557304  1
  Hf  Hf5  1  0.803169  0.196831  0.942842  1
  Hf  Hf6  1  0.803007  0.606615  0.943084  1
  Hf  Hf7  1  0.393385  0.196993  0.943084  1
  Hf  Hf8  1  0.193500  0.806500  0.053762  1
  Hf  Hf9  1  0.193498  0.387087  0.054114  1
  Hf  Hf10  1  0.612913  0.806502  0.054114  1
  Zr  Zr11  1  0.195527  0.804473  0.447135  1
  Zr  Zr12  1  0.541088  0.458912  0.249981  1
  Zr  Zr13  1  0.541439  0.082267  0.249050  1
  Zr  Zr14  1  0.917733  0.458561  0.249050  1
  Zr  Zr15  1  0.458636  0.541364  0.749838  1
  Zr  Zr16  1  0.459745  0.918376  0.751353  1
  Zr  Zr17  1  0.081624  0.540255  0.751353  1
  Cu  Cu18  1  0.334266  0.665734  0.248071  1
  Re  Re19  1  0.889674  0.110326  0.250046  1
  Re  Re20  1  0.889425  0.779916  0.249758  1
  Re  Re21  1  0.220084  0.110575  0.249758  1
  Re  Re22  1  0.109234  0.890766  0.750851  1
  Re  Re23  1  0.109447  0.219646  0.749903  1
  Re  Re24  1  0.780354  0.890553  0.749903  1
  Re  Re25  1  0.999926  0.000074  0.500231  1
  Re  Re26  1  0.999917  0.000083  0.000082  1
  Ni  Ni27  1  0.666657  0.333343  0.750355  1
