# generated using pymatgen
data_Tm5GaTe4
_symmetry_space_group_name_H-M   'P 1'
_cell_length_a   7.41892816
_cell_length_b   7.41892730
_cell_length_c   10.50834462
_cell_angle_alpha   62.09721117
_cell_angle_beta   62.09721305
_cell_angle_gamma   33.56263386
_symmetry_Int_Tables_number   1
_chemical_formula_structural   Tm5GaTe4
_chemical_formula_sum   'Tm5 Ga1 Te4'
_cell_volume   278.95832021
_cell_formula_units_Z   1
loop_
 _symmetry_equiv_pos_site_id
 _symmetry_equiv_pos_as_xyz
  1  'x, y, z'
loop_
 _atom_site_type_symbol
 _atom_site_label
 _atom_site_symmetry_multiplicity
 _atom_site_fract_x
 _atom_site_fract_y
 _atom_site_fract_z
 _atom_site_occupancy
  Tm  Tm0  1  0.000000  0.000000  0.500000  1
  Tm  Tm1  1  0.584480  0.584480  0.089449  1
  Tm  Tm2  1  0.185003  0.185003  0.729560  1
  Tm  Tm3  1  0.814997  0.814997  0.270440  1
  Tm  Tm4  1  0.415520  0.415520  0.910551  1
  Ga  Ga5  1  0.000000  0.000000  0.000000  1
  Te  Te6  1  0.609214  0.609214  0.587909  1
  Te  Te7  1  0.193798  0.193798  0.195446  1
  Te  Te8  1  0.806202  0.806202  0.804554  1
  Te  Te9  1  0.390786  0.390786  0.412091  1
