# generated using pymatgen
data_Ca2AcNd(AsPd)4
_symmetry_space_group_name_H-M   'P 1'
_cell_length_a   4.35321300
_cell_length_b   8.25173643
_cell_length_c   7.53862934
_cell_angle_alpha   89.99883789
_cell_angle_beta   90.00000000
_cell_angle_gamma   90.00000000
_symmetry_Int_Tables_number   1
_chemical_formula_structural   Ca2AcNd(AsPd)4
_chemical_formula_sum   'Ca2 Ac1 Nd1 As4 Pd4'
_cell_volume   270.79937351
_cell_formula_units_Z   1
loop_
 _symmetry_equiv_pos_site_id
 _symmetry_equiv_pos_as_xyz
  1  'x, y, z'
loop_
 _atom_site_type_symbol
 _atom_site_label
 _atom_site_symmetry_multiplicity
 _atom_site_fract_x
 _atom_site_fract_y
 _atom_site_fract_z
 _atom_site_occupancy
  Ca  Ca0  1  0.250000  0.999393  0.250845  1
  Ca  Ca1  1  0.750000  0.500631  0.748625  1
  Ac  Ac2  1  0.750000  0.999912  0.749719  1
  Nd  Nd3  1  0.250000  0.500160  0.250653  1
  As  As4  1  0.250000  0.265357  0.918948  1
  As  As5  1  0.250000  0.739014  0.580884  1
  As  As6  1  0.750000  0.749434  0.085987  1
  As  As7  1  0.750000  0.253637  0.413797  1
  Pd  Pd8  1  0.250000  0.738126  0.918495  1
  Pd  Pd9  1  0.250000  0.257654  0.582358  1
  Pd  Pd10  1  0.750000  0.251429  0.083281  1
  Pd  Pd11  1  0.750000  0.745250  0.416409  1
