# generated using pymatgen
data_Er16Al4NiRh3
_symmetry_space_group_name_H-M   'P 1'
_cell_length_a   9.42712635
_cell_length_b   9.43208405
_cell_length_c   9.42712700
_cell_angle_alpha   60.01738710
_cell_angle_beta   60.00000121
_cell_angle_gamma   60.01739277
_symmetry_Int_Tables_number   1
_chemical_formula_structural   Er16Al4NiRh3
_chemical_formula_sum   'Er16 Al4 Ni1 Rh3'
_cell_volume   592.87816694
_cell_formula_units_Z   1
loop_
 _symmetry_equiv_pos_site_id
 _symmetry_equiv_pos_as_xyz
  1  'x, y, z'
loop_
 _atom_site_type_symbol
 _atom_site_label
 _atom_site_symmetry_multiplicity
 _atom_site_fract_x
 _atom_site_fract_y
 _atom_site_fract_z
 _atom_site_occupancy
  Er  Er0  1  0.189790  0.193690  0.808260  1
  Er  Er1  1  0.437723  0.061844  0.062712  1
  Er  Er2  1  0.437723  0.061844  0.437723  1
  Er  Er3  1  0.065119  0.435085  0.065119  1
  Er  Er4  1  0.645953  0.062142  0.645953  1
  Er  Er5  1  0.192483  0.808118  0.806917  1
  Er  Er6  1  0.062712  0.061844  0.437723  1
  Er  Er7  1  0.808260  0.193690  0.189790  1
  Er  Er8  1  0.806917  0.808118  0.192483  1
  Er  Er9  1  0.650282  0.644275  0.055161  1
  Er  Er10  1  0.650282  0.644275  0.650282  1
  Er  Er11  1  0.065119  0.435085  0.434677  1
  Er  Er12  1  0.055161  0.644275  0.650282  1
  Er  Er13  1  0.808260  0.193690  0.808260  1
  Er  Er14  1  0.434677  0.435085  0.065119  1
  Er  Er15  1  0.192483  0.808118  0.192483  1
  Al  Al16  1  0.422636  0.732091  0.422636  1
  Al  Al17  1  0.421328  0.424294  0.733051  1
  Al  Al18  1  0.733051  0.424294  0.421328  1
  Al  Al19  1  0.421328  0.424294  0.421328  1
  Ni  Ni20  1  0.857926  0.426224  0.857926  1
  Rh  Rh21  1  0.855692  0.859207  0.429408  1
  Rh  Rh22  1  0.429408  0.859207  0.855692  1
  Rh  Rh23  1  0.855692  0.859207  0.855692  1
