# generated using pymatgen
data_Yb2CrIrO6
_symmetry_space_group_name_H-M   'P 1'
_cell_length_a   5.56438100
_cell_length_b   5.29341319
_cell_length_c   9.27481059
_cell_angle_alpha   55.14893694
_cell_angle_beta   90.00000000
_cell_angle_gamma   90.00000000
_symmetry_Int_Tables_number   1
_chemical_formula_structural   Yb2CrIrO6
_chemical_formula_sum   'Yb4 Cr2 Ir2 O12'
_cell_volume   224.18704803
_cell_formula_units_Z   2
loop_
 _symmetry_equiv_pos_site_id
 _symmetry_equiv_pos_as_xyz
  1  'x, y, z'
loop_
 _atom_site_type_symbol
 _atom_site_label
 _atom_site_symmetry_multiplicity
 _atom_site_fract_x
 _atom_site_fract_y
 _atom_site_fract_z
 _atom_site_occupancy
  Yb  Yb0  1  0.936058  0.230700  0.751315  1
  Yb  Yb1  1  0.436058  0.769300  0.748685  1
  Yb  Yb2  1  0.563942  0.230700  0.251315  1
  Yb  Yb3  1  0.063942  0.769300  0.248685  1
  Cr  Cr4  1  0.500000  0.000000  0.000000  1
  Cr  Cr5  1  0.000000  0.000000  0.500000  1
  Ir  Ir6  1  0.500000  0.500000  0.500000  1
  Ir  Ir7  1  0.000000  0.500000  0.000000  1
  O  O8  1  0.469111  0.648772  0.250929  1
  O  O9  1  0.198970  0.853306  0.949511  1
  O  O10  1  0.200310  0.254771  0.551725  1
  O  O11  1  0.700310  0.745229  0.948275  1
  O  O12  1  0.698970  0.146694  0.550489  1
  O  O13  1  0.969111  0.351228  0.249071  1
  O  O14  1  0.030889  0.648772  0.750929  1
  O  O15  1  0.301030  0.853306  0.449511  1
  O  O16  1  0.299690  0.254771  0.051725  1
  O  O17  1  0.801030  0.146694  0.050489  1
  O  O18  1  0.799690  0.745229  0.448275  1
  O  O19  1  0.530889  0.351228  0.749071  1
