# generated using pymatgen
data_Dy4Ga18CuRu4Pt
_symmetry_space_group_name_H-M   'P 1'
_cell_length_a   7.53972786
_cell_length_b   7.53972797
_cell_length_c   9.58640233
_cell_angle_alpha   89.80705725
_cell_angle_beta   89.80706065
_cell_angle_gamma   119.47432698
_symmetry_Int_Tables_number   1
_chemical_formula_structural   Dy4Ga18CuRu4Pt
_chemical_formula_sum   'Dy4 Ga18 Cu1 Ru4 Pt1'
_cell_volume   474.42123591
_cell_formula_units_Z   1
loop_
 _symmetry_equiv_pos_site_id
 _symmetry_equiv_pos_as_xyz
  1  'x, y, z'
loop_
 _atom_site_type_symbol
 _atom_site_label
 _atom_site_symmetry_multiplicity
 _atom_site_fract_x
 _atom_site_fract_y
 _atom_site_fract_z
 _atom_site_occupancy
  Dy  Dy0  1  0.325919  0.001747  0.749730  1
  Dy  Dy1  1  0.674081  0.998253  0.250270  1
  Dy  Dy2  1  0.001747  0.325919  0.749730  1
  Dy  Dy3  1  0.998253  0.674081  0.250270  1
  Ga  Ga4  1  0.865789  0.865789  0.746249  1
  Ga  Ga5  1  0.134211  0.134211  0.253751  1
  Ga  Ga6  1  0.660494  0.660494  0.436083  1
  Ga  Ga7  1  0.341017  0.341017  0.935882  1
  Ga  Ga8  1  0.658983  0.658983  0.064118  1
  Ga  Ga9  1  0.339506  0.339506  0.563917  1
  Ga  Ga10  1  0.446733  0.662979  0.749980  1
  Ga  Ga11  1  0.553267  0.337021  0.250020  1
  Ga  Ga12  1  0.662979  0.446733  0.749980  1
  Ga  Ga13  1  0.337021  0.553267  0.250020  1
  Ga  Ga14  1  0.004949  0.342410  0.078865  1
  Ga  Ga15  1  0.995889  0.661949  0.578341  1
  Ga  Ga16  1  0.338051  0.004111  0.421659  1
  Ga  Ga17  1  0.657590  0.995051  0.921135  1
  Ga  Ga18  1  0.995051  0.657590  0.921135  1
  Ga  Ga19  1  0.004111  0.338051  0.421659  1
  Ga  Ga20  1  0.661949  0.995889  0.578341  1
  Ga  Ga21  1  0.342410  0.004949  0.078865  1
  Cu  Cu22  1  0.000000  0.000000  0.500000  1
  Ru  Ru23  1  0.674110  0.325890  0.500000  1
  Ru  Ru24  1  0.325853  0.674147  0.000000  1
  Ru  Ru25  1  0.325890  0.674110  0.500000  1
  Ru  Ru26  1  0.674147  0.325853  0.000000  1
  Pt  Pt27  1  0.000000  0.000000  0.000000  1
