# generated using pymatgen
data_SrLi2DySi4
_symmetry_space_group_name_H-M   'P 1'
_cell_length_a   3.83921100
_cell_length_b   7.91267567
_cell_length_c   10.62645926
_cell_angle_alpha   89.33991697
_cell_angle_beta   90.00000000
_cell_angle_gamma   90.00000000
_symmetry_Int_Tables_number   1
_chemical_formula_structural   SrLi2DySi4
_chemical_formula_sum   'Sr2 Li4 Dy2 Si8'
_cell_volume   322.79374176
_cell_formula_units_Z   2
loop_
 _symmetry_equiv_pos_site_id
 _symmetry_equiv_pos_as_xyz
  1  'x, y, z'
loop_
 _atom_site_type_symbol
 _atom_site_label
 _atom_site_symmetry_multiplicity
 _atom_site_fract_x
 _atom_site_fract_y
 _atom_site_fract_z
 _atom_site_occupancy
  Sr  Sr0  1  0.250000  0.640005  0.635189  1
  Sr  Sr1  1  0.750000  0.359995  0.364811  1
  Li  Li2  1  0.250000  0.000769  0.388277  1
  Li  Li3  1  0.750000  0.999231  0.611723  1
  Li  Li4  1  0.250000  0.491549  0.107875  1
  Li  Li5  1  0.750000  0.508451  0.892125  1
  Dy  Dy6  1  0.250000  0.126670  0.867224  1
  Dy  Dy7  1  0.750000  0.873330  0.132776  1
  Si  Si8  1  0.750000  0.258832  0.059117  1
  Si  Si9  1  0.250000  0.741168  0.940883  1
  Si  Si10  1  0.750000  0.781288  0.418494  1
  Si  Si11  1  0.250000  0.218712  0.581506  1
  Si  Si12  1  0.750000  0.845954  0.832355  1
  Si  Si13  1  0.250000  0.154046  0.167645  1
  Si  Si14  1  0.750000  0.321947  0.689119  1
  Si  Si15  1  0.250000  0.678053  0.310881  1
