# generated using pymatgen
data_Pm2NiPdO6
_symmetry_space_group_name_H-M   'P 1'
_cell_length_a   5.43308308
_cell_length_b   5.43308221
_cell_length_c   5.43308268
_cell_angle_alpha   63.01395121
_cell_angle_beta   63.01396264
_cell_angle_gamma   63.01397734
_symmetry_Int_Tables_number   1
_chemical_formula_structural   Pm2NiPdO6
_chemical_formula_sum   'Pm2 Ni1 Pd1 O6'
_cell_volume   120.98998406
_cell_formula_units_Z   1
loop_
 _symmetry_equiv_pos_site_id
 _symmetry_equiv_pos_as_xyz
  1  'x, y, z'
loop_
 _atom_site_type_symbol
 _atom_site_label
 _atom_site_symmetry_multiplicity
 _atom_site_fract_x
 _atom_site_fract_y
 _atom_site_fract_z
 _atom_site_occupancy
  Pm  Pm0  1  0.250386  0.250386  0.250386  1
  Pm  Pm1  1  0.749615  0.749615  0.749615  1
  Ni  Ni2  1  0.500000  0.500000  0.500000  1
  Pd  Pd3  1  0.000000  0.000000  0.000000  1
  O  O4  1  0.752493  0.342816  0.155572  1
  O  O5  1  0.657185  0.844430  0.247505  1
  O  O6  1  0.155572  0.752493  0.342816  1
  O  O7  1  0.844427  0.247506  0.657186  1
  O  O8  1  0.342815  0.155571  0.752495  1
  O  O9  1  0.247506  0.657183  0.844430  1
