# generated using pymatgen
data_Ni8Mo9W3N4
_symmetry_space_group_name_H-M   'P 1'
_cell_length_a   6.66856085
_cell_length_b   6.66856085
_cell_length_c   6.67137401
_cell_angle_alpha   90.06370695
_cell_angle_beta   90.06370695
_cell_angle_gamma   90.24129470
_symmetry_Int_Tables_number   1
_chemical_formula_structural   Ni8Mo9W3N4
_chemical_formula_sum   'Ni8 Mo9 W3 N4'
_cell_volume   296.67102681
_cell_formula_units_Z   1
loop_
 _symmetry_equiv_pos_site_id
 _symmetry_equiv_pos_as_xyz
  1  'x, y, z'
loop_
 _atom_site_type_symbol
 _atom_site_label
 _atom_site_symmetry_multiplicity
 _atom_site_fract_x
 _atom_site_fract_y
 _atom_site_fract_z
 _atom_site_occupancy
  Ni  Ni0  1  0.065165  0.065692  0.064652  1
  Ni  Ni1  1  0.816702  0.316121  0.182497  1
  Ni  Ni2  1  0.183872  0.816597  0.315553  1
  Ni  Ni3  1  0.933402  0.566128  0.434447  1
  Ni  Ni4  1  0.433879  0.933297  0.567503  1
  Ni  Ni5  1  0.684309  0.684836  0.685349  1
  Ni  Ni6  1  0.316670  0.182878  0.817378  1
  Ni  Ni7  1  0.567122  0.433330  0.932621  1
  Mo  Mo8  1  0.876008  0.701263  0.050589  1
  Mo  Mo9  1  0.200967  0.450237  0.126403  1
  Mo  Mo10  1  0.449908  0.124985  0.201459  1
  Mo  Mo11  1  0.549552  0.625046  0.299155  1
  Mo  Mo12  1  0.798911  0.951090  0.374999  1
  Mo  Mo13  1  0.124955  0.200448  0.450846  1
  Mo  Mo14  1  0.625016  0.300093  0.548541  1
  Mo  Mo15  1  0.299764  0.549033  0.623598  1
  Mo  Mo16  1  0.048735  0.873992  0.699409  1
  W  W17  1  0.950911  0.376362  0.799587  1
  W  W18  1  0.700041  0.049957  0.875000  1
  W  W19  1  0.373636  0.799090  0.950414  1
  N  N20  1  0.624237  0.874846  0.123595  1
  N  N21  1  0.375152  0.374846  0.374999  1
  N  N22  1  0.875154  0.125764  0.626406  1
  N  N23  1  0.125932  0.624069  0.875000  1
