# generated using pymatgen
data_Pu2Co2P7Ru10
_symmetry_space_group_name_H-M   'P 1'
_cell_length_a   9.40956522
_cell_length_b   9.32768283
_cell_length_c   3.88097000
_cell_angle_alpha   90.00000000
_cell_angle_beta   90.00000000
_cell_angle_gamma   119.82446175
_symmetry_Int_Tables_number   1
_chemical_formula_structural   Pu2Co2P7Ru10
_chemical_formula_sum   'Pu2 Co2 P7 Ru10'
_cell_volume   295.51513424
_cell_formula_units_Z   1
loop_
 _symmetry_equiv_pos_site_id
 _symmetry_equiv_pos_as_xyz
  1  'x, y, z'
loop_
 _atom_site_type_symbol
 _atom_site_label
 _atom_site_symmetry_multiplicity
 _atom_site_fract_x
 _atom_site_fract_y
 _atom_site_fract_z
 _atom_site_occupancy
  Pu  Pu0  1  0.668893  0.334267  0.500000  1
  Pu  Pu1  1  0.333722  0.667129  0.000000  1
  Co  Co2  1  0.728840  0.889281  0.000000  1
  Co  Co3  1  0.111923  0.840859  0.000000  1
  P  P4  1  0.601626  0.716072  0.500000  1
  P  P5  1  0.992484  0.989430  0.000000  1
  P  P6  1  0.284824  0.884154  0.500000  1
  P  P7  1  0.116034  0.401483  0.500000  1
  P  P8  1  0.891530  0.591066  0.000000  1
  P  P9  1  0.420872  0.307295  0.000000  1
  P  P10  1  0.695450  0.109001  0.000000  1
  Ru  Ru11  1  0.564502  0.949560  0.500000  1
  Ru  Ru12  1  0.391076  0.436745  0.500000  1
  Ru  Ru13  1  0.908151  0.122980  0.500000  1
  Ru  Ru14  1  0.205458  0.082321  0.500000  1
  Ru  Ru15  1  0.878634  0.791004  0.500000  1
  Ru  Ru16  1  0.157273  0.267791  0.000000  1
  Ru  Ru17  1  0.425415  0.062294  0.000000  1
  Ru  Ru18  1  0.930394  0.363699  0.000000  1
  Ru  Ru19  1  0.641119  0.576982  0.000000  1
  Ru  Ru20  1  0.051782  0.616586  0.500000  1
