# generated using pymatgen
data_La2Nd3(IrO6)2
_symmetry_space_group_name_H-M   'P 1'
_cell_length_a   7.12844976
_cell_length_b   7.12844911
_cell_length_c   7.59470574
_cell_angle_alpha   74.87662128
_cell_angle_beta   74.87662005
_cell_angle_gamma   51.65733088
_symmetry_Int_Tables_number   1
_chemical_formula_structural   La2Nd3(IrO6)2
_chemical_formula_sum   'La2 Nd3 Ir2 O12'
_cell_volume   289.69126686
_cell_formula_units_Z   1
loop_
 _symmetry_equiv_pos_site_id
 _symmetry_equiv_pos_as_xyz
  1  'x, y, z'
loop_
 _atom_site_type_symbol
 _atom_site_label
 _atom_site_symmetry_multiplicity
 _atom_site_fract_x
 _atom_site_fract_y
 _atom_site_fract_z
 _atom_site_occupancy
  La  La0  1  0.305241  0.305241  0.358306  1
  La  La1  1  0.999518  0.999518  0.501636  1
  Nd  Nd2  1  0.695247  0.695247  0.642993  1
  Nd  Nd3  1  0.696019  0.696019  0.162410  1
  Nd  Nd4  1  0.303592  0.303592  0.838275  1
  Ir  Ir5  1  0.753583  0.246819  0.999270  1
  Ir  Ir6  1  0.246819  0.753583  0.999270  1
  O  O7  1  0.091810  0.599040  0.580907  1
  O  O8  1  0.000209  0.000209  0.164165  1
  O  O9  1  0.404401  0.902446  0.422991  1
  O  O10  1  0.502618  0.502618  0.169520  1
  O  O11  1  0.101469  0.573694  0.078854  1
  O  O12  1  0.902446  0.404401  0.422991  1
  O  O13  1  0.000534  0.000534  0.834908  1
  O  O14  1  0.599040  0.091809  0.580907  1
  O  O15  1  0.498759  0.498759  0.827423  1
  O  O16  1  0.573694  0.101469  0.078854  1
  O  O17  1  0.427739  0.897262  0.918161  1
  O  O18  1  0.897262  0.427739  0.918161  1
