# generated using pymatgen
data_Ce2ErCo2Si2Rh
_symmetry_space_group_name_H-M   'P 1'
_cell_length_a   5.67198700
_cell_length_b   7.34953600
_cell_length_c   14.22794400
_cell_angle_alpha   90.00000000
_cell_angle_beta   90.00000000
_cell_angle_gamma   90.00000000
_symmetry_Int_Tables_number   1
_chemical_formula_structural   Ce2ErCo2Si2Rh
_chemical_formula_sum   'Ce8 Er4 Co8 Si8 Rh4'
_cell_volume   593.11279839
_cell_formula_units_Z   4
loop_
 _symmetry_equiv_pos_site_id
 _symmetry_equiv_pos_as_xyz
  1  'x, y, z'
loop_
 _atom_site_type_symbol
 _atom_site_label
 _atom_site_symmetry_multiplicity
 _atom_site_fract_x
 _atom_site_fract_y
 _atom_site_fract_z
 _atom_site_occupancy
  Ce  Ce0  1  0.839284  0.513547  0.398872  1
  Ce  Ce1  1  0.339284  0.986453  0.601128  1
  Ce  Ce2  1  0.160716  0.486453  0.898872  1
  Ce  Ce3  1  0.660716  0.013548  0.101128  1
  Ce  Ce4  1  0.160716  0.486453  0.601128  1
  Ce  Ce5  1  0.660716  0.013548  0.398872  1
  Ce  Ce6  1  0.339284  0.986453  0.898872  1
  Ce  Ce7  1  0.839284  0.513547  0.101128  1
  Er  Er8  1  0.872183  0.852129  0.750000  1
  Er  Er9  1  0.127817  0.147871  0.250000  1
  Er  Er10  1  0.372183  0.647871  0.250000  1
  Er  Er11  1  0.627817  0.352129  0.750000  1
  Co  Co12  1  0.593194  0.348565  0.963465  1
  Co  Co13  1  0.093194  0.151435  0.463465  1
  Co  Co14  1  0.093194  0.151435  0.036535  1
  Co  Co15  1  0.906806  0.848565  0.963465  1
  Co  Co16  1  0.906806  0.848565  0.536535  1
  Co  Co17  1  0.593194  0.348565  0.536535  1
  Co  Co18  1  0.406806  0.651435  0.463465  1
  Co  Co19  1  0.406806  0.651435  0.036535  1
  Si  Si20  1  0.647905  0.640635  0.903844  1
  Si  Si21  1  0.852095  0.140635  0.596156  1
  Si  Si22  1  0.147905  0.859365  0.096156  1
  Si  Si23  1  0.147905  0.859365  0.403844  1
  Si  Si24  1  0.647905  0.640635  0.596156  1
  Si  Si25  1  0.852095  0.140635  0.903844  1
  Si  Si26  1  0.352095  0.359365  0.096156  1
  Si  Si27  1  0.352095  0.359365  0.403844  1
  Rh  Rh28  1  0.409613  0.704397  0.750000  1
  Rh  Rh29  1  0.590387  0.295603  0.250000  1
  Rh  Rh30  1  0.909613  0.795603  0.250000  1
  Rh  Rh31  1  0.090387  0.204397  0.750000  1
