# generated using pymatgen
data_Gd3Mg3Ga2Ag
_symmetry_space_group_name_H-M   'P 1'
_cell_length_a   7.48625600
_cell_length_b   7.48625474
_cell_length_c   4.42390500
_cell_angle_alpha   90.00000000
_cell_angle_beta   90.00000000
_cell_angle_gamma   119.99999672
_symmetry_Int_Tables_number   1
_chemical_formula_structural   Gd3Mg3Ga2Ag
_chemical_formula_sum   'Gd3 Mg3 Ga2 Ag1'
_cell_volume   214.71664553
_cell_formula_units_Z   1
loop_
 _symmetry_equiv_pos_site_id
 _symmetry_equiv_pos_as_xyz
  1  'x, y, z'
loop_
 _atom_site_type_symbol
 _atom_site_label
 _atom_site_symmetry_multiplicity
 _atom_site_fract_x
 _atom_site_fract_y
 _atom_site_fract_z
 _atom_site_occupancy
  Gd  Gd0  1  0.000000  0.574099  0.000000  1
  Gd  Gd1  1  0.425901  0.425901  0.000000  1
  Gd  Gd2  1  0.574099  0.000000  0.000000  1
  Mg  Mg3  1  0.000000  0.244762  0.500000  1
  Mg  Mg4  1  0.755238  0.755238  0.500000  1
  Mg  Mg5  1  0.244762  0.000000  0.500000  1
  Ga  Ga6  1  0.666667  0.333333  0.500000  1
  Ga  Ga7  1  0.333333  0.666667  0.500000  1
  Ag  Ag8  1  0.000000  0.000000  0.000000  1
