# generated using pymatgen
data_Yb7Eu8Th5Pt16
_symmetry_space_group_name_H-M   'P 1'
_cell_length_a   7.82390425
_cell_length_b   7.92672669
_cell_length_c   15.02330400
_cell_angle_alpha   89.99339345
_cell_angle_beta   90.14842617
_cell_angle_gamma   90.10231721
_symmetry_Int_Tables_number   1
_chemical_formula_structural   Yb7Eu8Th5Pt16
_chemical_formula_sum   'Yb7 Eu8 Th5 Pt16'
_cell_volume   931.70990831
_cell_formula_units_Z   1
loop_
 _symmetry_equiv_pos_site_id
 _symmetry_equiv_pos_as_xyz
  1  'x, y, z'
loop_
 _atom_site_type_symbol
 _atom_site_label
 _atom_site_symmetry_multiplicity
 _atom_site_fract_x
 _atom_site_fract_y
 _atom_site_fract_z
 _atom_site_occupancy
  Yb  Yb0  1  0.159433  0.334193  0.378298  1
  Yb  Yb1  1  0.340407  0.833527  0.621927  1
  Yb  Yb2  1  0.841441  0.665520  0.877714  1
  Yb  Yb3  1  0.180386  0.491072  0.749911  1
  Yb  Yb4  1  0.679271  0.010361  0.749589  1
  Yb  Yb5  1  0.822120  0.516514  0.252801  1
  Yb  Yb6  1  0.314308  0.984233  0.251722  1
  Eu  Eu7  1  0.498392  0.325892  0.898812  1
  Eu  Eu8  1  0.997892  0.177195  0.598112  1
  Eu  Eu9  1  0.499576  0.676457  0.405377  1
  Eu  Eu10  1  0.006885  0.818713  0.095459  1
  Eu  Eu11  1  0.507143  0.677618  0.098868  1
  Eu  Eu12  1  0.008977  0.817270  0.402967  1
  Eu  Eu13  1  0.491335  0.318999  0.599731  1
  Eu  Eu14  1  0.992208  0.183037  0.898917  1
  Th  Th15  1  0.341444  0.839596  0.876572  1
  Th  Th16  1  0.841816  0.661425  0.623401  1
  Th  Th17  1  0.657446  0.160749  0.378516  1
  Th  Th18  1  0.158131  0.340093  0.122949  1
  Th  Th19  1  0.659944  0.163349  0.121188  1
  Pt  Pt20  1  0.322208  0.046715  0.043339  1
  Pt  Pt21  1  0.814645  0.457167  0.458735  1
  Pt  Pt22  1  0.684930  0.954679  0.540295  1
  Pt  Pt23  1  0.184770  0.544677  0.959249  1
  Pt  Pt24  1  0.667093  0.966106  0.957186  1
  Pt  Pt25  1  0.157698  0.539778  0.544800  1
  Pt  Pt26  1  0.341396  0.037584  0.453835  1
  Pt  Pt27  1  0.833063  0.453430  0.045422  1
  Pt  Pt28  1  0.543213  0.636348  0.753472  1
  Pt  Pt29  1  0.042841  0.865942  0.747892  1
  Pt  Pt30  1  0.462529  0.365439  0.247939  1
  Pt  Pt31  1  0.953453  0.135252  0.245712  1
  Pt  Pt32  1  0.306557  0.124964  0.754915  1
  Pt  Pt33  1  0.804297  0.376075  0.744690  1
  Pt  Pt34  1  0.685845  0.878242  0.252292  1
  Pt  Pt35  1  0.196905  0.621789  0.247397  1
