# generated using pymatgen
data_PrErCd2(Ir2O7)2
_symmetry_space_group_name_H-M   'P 1'
_cell_length_a   7.28745670
_cell_length_b   7.28767580
_cell_length_c   7.20219100
_cell_angle_alpha   60.38727875
_cell_angle_beta   60.38629967
_cell_angle_gamma   61.19527425
_symmetry_Int_Tables_number   1
_chemical_formula_structural   PrErCd2(Ir2O7)2
_chemical_formula_sum   'Pr1 Er1 Cd2 Ir4 O14'
_cell_volume   274.43876460
_cell_formula_units_Z   1
loop_
 _symmetry_equiv_pos_site_id
 _symmetry_equiv_pos_as_xyz
  1  'x, y, z'
loop_
 _atom_site_type_symbol
 _atom_site_label
 _atom_site_symmetry_multiplicity
 _atom_site_fract_x
 _atom_site_fract_y
 _atom_site_fract_z
 _atom_site_occupancy
  Pr  Pr0  1  0.625000  0.125000  0.125000  1
  Er  Er1  1  0.125000  0.625000  0.125000  1
  Cd  Cd2  1  0.125000  0.125000  0.625000  1
  Cd  Cd3  1  0.125000  0.125000  0.125000  1
  Ir  Ir4  1  0.625000  0.625000  0.625000  1
  Ir  Ir5  1  0.125000  0.625000  0.625000  1
  Ir  Ir6  1  0.625000  0.125000  0.625000  1
  Ir  Ir7  1  0.625000  0.625000  0.125000  1
  O  O8  1  0.951147  0.560579  0.534963  1
  O  O9  1  0.299832  0.303099  0.698535  1
  O  O10  1  0.951147  0.560579  0.953310  1
  O  O11  1  0.704477  0.299112  0.294700  1
  O  O12  1  0.531229  0.548619  0.960076  1
  O  O13  1  0.545523  0.950888  0.548289  1
  O  O14  1  0.545523  0.950888  0.955300  1
  O  O15  1  0.234317  0.259121  0.253281  1
  O  O16  1  0.298853  0.689421  0.715037  1
  O  O17  1  0.704477  0.299112  0.701711  1
  O  O18  1  0.015683  0.990879  0.996719  1
  O  O19  1  0.950168  0.946901  0.551465  1
  O  O20  1  0.298853  0.689421  0.296690  1
  O  O21  1  0.718771  0.701381  0.289924  1
