# generated using pymatgen
data_TbYbLu2(B6Ru)2
_symmetry_space_group_name_H-M   'P 1'
_cell_length_a   3.61742400
_cell_length_b   9.08118147
_cell_length_c   11.47914508
_cell_angle_alpha   89.86289764
_cell_angle_beta   90.00000000
_cell_angle_gamma   90.00000000
_symmetry_Int_Tables_number   1
_chemical_formula_structural   TbYbLu2(B6Ru)2
_chemical_formula_sum   'Tb2 Yb2 Lu4 B24 Ru4'
_cell_volume   377.09439007
_cell_formula_units_Z   2
loop_
 _symmetry_equiv_pos_site_id
 _symmetry_equiv_pos_as_xyz
  1  'x, y, z'
loop_
 _atom_site_type_symbol
 _atom_site_label
 _atom_site_symmetry_multiplicity
 _atom_site_fract_x
 _atom_site_fract_y
 _atom_site_fract_z
 _atom_site_occupancy
  Tb  Tb0  1  0.000000  0.821972  0.086170  1
  Tb  Tb1  1  0.000000  0.178028  0.913830  1
  Yb  Yb2  1  0.000000  0.324540  0.414892  1
  Yb  Yb3  1  0.000000  0.675460  0.585108  1
  Lu  Lu4  1  0.000000  0.942228  0.370422  1
  Lu  Lu5  1  0.000000  0.057772  0.629578  1
  Lu  Lu6  1  0.000000  0.442951  0.130800  1
  Lu  Lu7  1  0.000000  0.557049  0.869200  1
  B  B8  1  0.500000  0.554370  0.432302  1
  B  B9  1  0.500000  0.445630  0.567698  1
  B  B10  1  0.500000  0.054403  0.067431  1
  B  B11  1  0.500000  0.945597  0.932569  1
  B  B12  1  0.500000  0.749157  0.417952  1
  B  B13  1  0.500000  0.250843  0.582048  1
  B  B14  1  0.500000  0.249967  0.081945  1
  B  B15  1  0.500000  0.750033  0.918055  1
  B  B16  1  0.500000  0.791684  0.264968  1
  B  B17  1  0.500000  0.208316  0.735032  1
  B  B18  1  0.500000  0.291204  0.234950  1
  B  B19  1  0.500000  0.708796  0.765050  1
  B  B20  1  0.500000  0.630314  0.184813  1
  B  B21  1  0.500000  0.369686  0.815187  1
  B  B22  1  0.500000  0.130426  0.315030  1
  B  B23  1  0.500000  0.869574  0.684970  1
  B  B24  1  0.500000  0.983114  0.212668  1
  B  B25  1  0.500000  0.016886  0.787332  1
  B  B26  1  0.500000  0.483163  0.287775  1
  B  B27  1  0.500000  0.516837  0.712225  1
  B  B28  1  0.500000  0.600582  0.027524  1
  B  B29  1  0.500000  0.399418  0.972476  1
  B  B30  1  0.500000  0.098356  0.473034  1
  B  B31  1  0.500000  0.901644  0.526966  1
  Ru  Ru32  1  0.000000  0.640258  0.318366  1
  Ru  Ru33  1  0.000000  0.359742  0.681634  1
  Ru  Ru34  1  0.000000  0.138129  0.179381  1
  Ru  Ru35  1  0.000000  0.861871  0.820619  1
