# generated using pymatgen
data_Zr2IBr5
_symmetry_space_group_name_H-M   'P 1'
_cell_length_a   7.70734500
_cell_length_b   7.58047597
_cell_length_c   6.41613600
_cell_angle_alpha   90.00000000
_cell_angle_beta   90.00000000
_cell_angle_gamma   120.55520683
_symmetry_Int_Tables_number   1
_chemical_formula_structural   Zr2IBr5
_chemical_formula_sum   'Zr2 I1 Br5'
_cell_volume   322.81110048
_cell_formula_units_Z   1
loop_
 _symmetry_equiv_pos_site_id
 _symmetry_equiv_pos_as_xyz
  1  'x, y, z'
loop_
 _atom_site_type_symbol
 _atom_site_label
 _atom_site_symmetry_multiplicity
 _atom_site_fract_x
 _atom_site_fract_y
 _atom_site_fract_z
 _atom_site_occupancy
  Zr  Zr0  1  0.999201  0.000000  0.513391  1
  Zr  Zr1  1  0.999201  0.000000  0.986609  1
  I  I2  1  0.680225  0.000000  0.750000  1
  Br  Br3  1  0.722949  0.706303  0.250000  1
  Br  Br4  1  0.282322  0.000000  0.250000  1
  Br  Br5  1  0.295432  0.291406  0.750000  1
  Br  Br6  1  0.004026  0.708594  0.750000  1
  Br  Br7  1  0.016645  0.293697  0.250000  1
