# generated using pymatgen
data_Zr6V(Co8Si3)2
_symmetry_space_group_name_H-M   'P 1'
_cell_length_a   8.10535582
_cell_length_b   8.10535541
_cell_length_c   8.10535500
_cell_angle_alpha   59.99999760
_cell_angle_beta   59.99999928
_cell_angle_gamma   60.00000255
_symmetry_Int_Tables_number   1
_chemical_formula_structural   Zr6V(Co8Si3)2
_chemical_formula_sum   'Zr6 V1 Co16 Si6'
_cell_volume   376.53139151
_cell_formula_units_Z   1
loop_
 _symmetry_equiv_pos_site_id
 _symmetry_equiv_pos_as_xyz
  1  'x, y, z'
loop_
 _atom_site_type_symbol
 _atom_site_label
 _atom_site_symmetry_multiplicity
 _atom_site_fract_x
 _atom_site_fract_y
 _atom_site_fract_z
 _atom_site_occupancy
  Zr  Zr0  1  0.708857  0.291143  0.291143  1
  Zr  Zr1  1  0.291143  0.291143  0.708857  1
  Zr  Zr2  1  0.291143  0.708857  0.708857  1
  Zr  Zr3  1  0.708857  0.708857  0.291143  1
  Zr  Zr4  1  0.291143  0.708857  0.291143  1
  Zr  Zr5  1  0.708857  0.291143  0.708857  1
  V  V6  1  0.000000  0.000000  0.000000  1
  Co  Co7  1  0.119997  0.119997  0.640010  1
  Co  Co8  1  0.673117  0.980648  0.673117  1
  Co  Co9  1  0.359990  0.880003  0.880003  1
  Co  Co10  1  0.019352  0.326883  0.326883  1
  Co  Co11  1  0.980648  0.673117  0.673117  1
  Co  Co12  1  0.326883  0.326883  0.019352  1
  Co  Co13  1  0.673117  0.673117  0.980648  1
  Co  Co14  1  0.640010  0.119997  0.119997  1
  Co  Co15  1  0.673117  0.673117  0.673117  1
  Co  Co16  1  0.880003  0.880003  0.359990  1
  Co  Co17  1  0.119997  0.119997  0.119997  1
  Co  Co18  1  0.880003  0.359990  0.880003  1
  Co  Co19  1  0.880003  0.880003  0.880003  1
  Co  Co20  1  0.326883  0.326883  0.326883  1
  Co  Co21  1  0.119997  0.640010  0.119997  1
  Co  Co22  1  0.326883  0.019352  0.326883  1
  Si  Si23  1  0.000000  0.500000  0.000000  1
  Si  Si24  1  0.000000  0.000000  0.500000  1
  Si  Si25  1  0.500000  0.500000  0.000000  1
  Si  Si26  1  0.500000  0.000000  0.500000  1
  Si  Si27  1  0.500000  0.000000  0.000000  1
  Si  Si28  1  0.000000  0.500000  0.500000  1
