# generated using pymatgen
data_Ca20(TlAg3)3
_symmetry_space_group_name_H-M   'P 1'
_cell_length_a   8.16412000
_cell_length_b   8.16412000
_cell_length_c   14.74205800
_cell_angle_alpha   90.00000000
_cell_angle_beta   90.00000000
_cell_angle_gamma   90.00000000
_symmetry_Int_Tables_number   1
_chemical_formula_structural   Ca20(TlAg3)3
_chemical_formula_sum   'Ca20 Tl3 Ag9'
_cell_volume   982.60025980
_cell_formula_units_Z   1
loop_
 _symmetry_equiv_pos_site_id
 _symmetry_equiv_pos_as_xyz
  1  'x, y, z'
loop_
 _atom_site_type_symbol
 _atom_site_label
 _atom_site_symmetry_multiplicity
 _atom_site_fract_x
 _atom_site_fract_y
 _atom_site_fract_z
 _atom_site_occupancy
  Ca  Ca0  1  0.670994  0.163979  0.104713  1
  Ca  Ca1  1  0.168958  0.667749  0.607693  1
  Ca  Ca2  1  0.329006  0.836021  0.104713  1
  Ca  Ca3  1  0.831042  0.332251  0.607693  1
  Ca  Ca4  1  0.836021  0.670994  0.104713  1
  Ca  Ca5  1  0.332251  0.168958  0.607693  1
  Ca  Ca6  1  0.163979  0.329006  0.104713  1
  Ca  Ca7  1  0.667749  0.831042  0.607693  1
  Ca  Ca8  1  0.836021  0.329006  0.895287  1
  Ca  Ca9  1  0.332251  0.831042  0.392307  1
  Ca  Ca10  1  0.163979  0.670994  0.895287  1
  Ca  Ca11  1  0.667749  0.168958  0.392307  1
  Ca  Ca12  1  0.670994  0.836021  0.895287  1
  Ca  Ca13  1  0.168958  0.332251  0.392307  1
  Ca  Ca14  1  0.329006  0.163979  0.895287  1
  Ca  Ca15  1  0.831042  0.667749  0.392307  1
  Ca  Ca16  1  0.500000  0.500000  0.754479  1
  Ca  Ca17  1  0.000000  0.000000  0.251314  1
  Ca  Ca18  1  0.000000  0.000000  0.748686  1
  Ca  Ca19  1  0.500000  0.500000  0.245521  1
  Tl  Tl20  1  0.500000  0.500000  0.500000  1
  Tl  Tl21  1  0.500000  0.500000  0.000000  1
  Tl  Tl22  1  0.000000  0.000000  0.500000  1
  Ag  Ag23  1  0.625860  0.126031  0.751533  1
  Ag  Ag24  1  0.126031  0.625860  0.248467  1
  Ag  Ag25  1  0.873969  0.374140  0.248467  1
  Ag  Ag26  1  0.374140  0.873969  0.751533  1
  Ag  Ag27  1  0.873969  0.625860  0.751533  1
  Ag  Ag28  1  0.374140  0.126031  0.248467  1
  Ag  Ag29  1  0.126031  0.374140  0.751533  1
  Ag  Ag30  1  0.625860  0.873969  0.248467  1
  Ag  Ag31  1  0.000000  0.000000  0.000000  1
