# generated using pymatgen
data_ErNb8AlSe16
_symmetry_space_group_name_H-M   'P 1'
_cell_length_a   7.01502900
_cell_length_b   7.01502984
_cell_length_c   13.63197600
_cell_angle_alpha   90.00000000
_cell_angle_beta   90.00000000
_cell_angle_gamma   120.00000077
_symmetry_Int_Tables_number   1
_chemical_formula_structural   ErNb8AlSe16
_chemical_formula_sum   'Er1 Nb8 Al1 Se16'
_cell_volume   580.96294680
_cell_formula_units_Z   1
loop_
 _symmetry_equiv_pos_site_id
 _symmetry_equiv_pos_as_xyz
  1  'x, y, z'
loop_
 _atom_site_type_symbol
 _atom_site_label
 _atom_site_symmetry_multiplicity
 _atom_site_fract_x
 _atom_site_fract_y
 _atom_site_fract_z
 _atom_site_occupancy
  Er  Er0  1  0.000000  0.000000  0.500000  1
  Nb  Nb1  1  0.000000  0.000000  0.238822  1
  Nb  Nb2  1  0.000000  0.000000  0.761178  1
  Nb  Nb3  1  0.506190  0.012381  0.236268  1
  Nb  Nb4  1  0.987619  0.493810  0.236268  1
  Nb  Nb5  1  0.506190  0.493810  0.236268  1
  Nb  Nb6  1  0.493810  0.987619  0.763732  1
  Nb  Nb7  1  0.012381  0.506190  0.763732  1
  Nb  Nb8  1  0.493810  0.506190  0.763732  1
  Al  Al9  1  0.000000  0.000000  0.000000  1
  Se  Se10  1  0.333333  0.666667  0.888082  1
  Se  Se11  1  0.666667  0.333333  0.111918  1
  Se  Se12  1  0.666667  0.333333  0.362668  1
  Se  Se13  1  0.333333  0.666667  0.637332  1
  Se  Se14  1  0.169698  0.830302  0.359163  1
  Se  Se15  1  0.169698  0.339395  0.359163  1
  Se  Se16  1  0.660605  0.830302  0.359163  1
  Se  Se17  1  0.830302  0.169698  0.640837  1
  Se  Se18  1  0.830302  0.660605  0.640837  1
  Se  Se19  1  0.339395  0.169698  0.640837  1
  Se  Se20  1  0.832183  0.167817  0.885239  1
  Se  Se21  1  0.832183  0.664368  0.885239  1
  Se  Se22  1  0.335632  0.167817  0.885239  1
  Se  Se23  1  0.167817  0.832183  0.114761  1
  Se  Se24  1  0.167817  0.335632  0.114761  1
  Se  Se25  1  0.664368  0.832183  0.114761  1
