# generated using pymatgen
data_Sc3Mn2AlSi2P
_symmetry_space_group_name_H-M   'P 1'
_cell_length_a   6.51804332
_cell_length_b   6.64156299
_cell_length_c   3.82372600
_cell_angle_alpha   90.00000000
_cell_angle_beta   90.00000000
_cell_angle_gamma   121.40709933
_symmetry_Int_Tables_number   1
_chemical_formula_structural   Sc3Mn2AlSi2P
_chemical_formula_sum   'Sc3 Mn2 Al1 Si2 P1'
_cell_volume   141.27679147
_cell_formula_units_Z   1
loop_
 _symmetry_equiv_pos_site_id
 _symmetry_equiv_pos_as_xyz
  1  'x, y, z'
loop_
 _atom_site_type_symbol
 _atom_site_label
 _atom_site_symmetry_multiplicity
 _atom_site_fract_x
 _atom_site_fract_y
 _atom_site_fract_z
 _atom_site_occupancy
  Sc  Sc0  1  0.417299  0.421284  0.500000  1
  Sc  Sc1  1  0.586418  0.009216  0.500000  1
  Sc  Sc2  1  0.995628  0.580488  0.500000  1
  Mn  Mn3  1  0.238493  0.998566  0.000000  1
  Mn  Mn4  1  0.763807  0.758544  0.000000  1
  Al  Al5  1  0.003650  0.231002  0.000000  1
  Si  Si6  1  0.000253  0.979280  0.500000  1
  Si  Si7  1  0.345607  0.683808  0.000000  1
  P  P8  1  0.648847  0.337814  0.000000  1
