# generated using pymatgen
data_Ce2MgZnIr2
_symmetry_space_group_name_H-M   'P 1'
_cell_length_a   7.06017700
_cell_length_b   4.05546900
_cell_length_c   8.53136900
_cell_angle_alpha   90.00000000
_cell_angle_beta   90.00000000
_cell_angle_gamma   90.00000000
_symmetry_Int_Tables_number   1
_chemical_formula_structural   Ce2MgZnIr2
_chemical_formula_sum   'Ce4 Mg2 Zn2 Ir4'
_cell_volume   244.27296367
_cell_formula_units_Z   2
loop_
 _symmetry_equiv_pos_site_id
 _symmetry_equiv_pos_as_xyz
  1  'x, y, z'
loop_
 _atom_site_type_symbol
 _atom_site_label
 _atom_site_symmetry_multiplicity
 _atom_site_fract_x
 _atom_site_fract_y
 _atom_site_fract_z
 _atom_site_occupancy
  Ce  Ce0  1  0.959650  0.250000  0.184350  1
  Ce  Ce1  1  0.459650  0.250000  0.315650  1
  Ce  Ce2  1  0.044587  0.750000  0.816346  1
  Ce  Ce3  1  0.544587  0.750000  0.683654  1
  Mg  Mg4  1  0.126121  0.750000  0.445986  1
  Mg  Mg5  1  0.626121  0.750000  0.054014  1
  Zn  Zn6  1  0.868491  0.250000  0.558563  1
  Zn  Zn7  1  0.368491  0.250000  0.941437  1
  Ir  Ir8  1  0.759889  0.250000  0.865185  1
  Ir  Ir9  1  0.259889  0.250000  0.634815  1
  Ir  Ir10  1  0.241263  0.750000  0.132931  1
  Ir  Ir11  1  0.741263  0.750000  0.367069  1
