# generated using pymatgen
data_TbFe2ReP3Rh2
_symmetry_space_group_name_H-M   'P 1'
_cell_length_a   3.82982800
_cell_length_b   10.54598700
_cell_length_c   12.22521300
_cell_angle_alpha   90.00000000
_cell_angle_beta   90.00000000
_cell_angle_gamma   90.00000000
_symmetry_Int_Tables_number   1
_chemical_formula_structural   TbFe2ReP3Rh2
_chemical_formula_sum   'Tb4 Fe8 Re4 P12 Rh8'
_cell_volume   493.76799469
_cell_formula_units_Z   4
loop_
 _symmetry_equiv_pos_site_id
 _symmetry_equiv_pos_as_xyz
  1  'x, y, z'
loop_
 _atom_site_type_symbol
 _atom_site_label
 _atom_site_symmetry_multiplicity
 _atom_site_fract_x
 _atom_site_fract_y
 _atom_site_fract_z
 _atom_site_occupancy
  Tb  Tb0  1  0.250000  0.580399  0.709216  1
  Tb  Tb1  1  0.250000  0.919601  0.209216  1
  Tb  Tb2  1  0.750000  0.419601  0.290784  1
  Tb  Tb3  1  0.750000  0.080399  0.790784  1
  Fe  Fe4  1  0.250000  0.881796  0.695842  1
  Fe  Fe5  1  0.250000  0.618204  0.195842  1
  Fe  Fe6  1  0.750000  0.118204  0.304158  1
  Fe  Fe7  1  0.750000  0.381796  0.804158  1
  Fe  Fe8  1  0.250000  0.463019  0.937749  1
  Fe  Fe9  1  0.250000  0.036981  0.437749  1
  Fe  Fe10  1  0.750000  0.536981  0.062251  1
  Fe  Fe11  1  0.750000  0.963019  0.562251  1
  Re  Re12  1  0.250000  0.704145  0.987825  1
  Re  Re13  1  0.250000  0.795855  0.487825  1
  Re  Re14  1  0.750000  0.295855  0.012175  1
  Re  Re15  1  0.750000  0.204145  0.512175  1
  P  P16  1  0.250000  0.432869  0.111985  1
  P  P17  1  0.250000  0.067131  0.611985  1
  P  P18  1  0.750000  0.567131  0.888015  1
  P  P19  1  0.750000  0.932869  0.388015  1
  P  P20  1  0.250000  0.274597  0.868690  1
  P  P21  1  0.250000  0.225403  0.368690  1
  P  P22  1  0.750000  0.725403  0.131310  1
  P  P23  1  0.750000  0.774597  0.631310  1
  P  P24  1  0.250000  0.602821  0.383483  1
  P  P25  1  0.250000  0.897179  0.883483  1
  P  P26  1  0.750000  0.397179  0.616517  1
  P  P27  1  0.750000  0.102821  0.116517  1
  Rh  Rh28  1  0.250000  0.405447  0.482651  1
  Rh  Rh29  1  0.250000  0.094553  0.982651  1
  Rh  Rh30  1  0.750000  0.594553  0.517349  1
  Rh  Rh31  1  0.750000  0.905447  0.017349  1
  Rh  Rh32  1  0.250000  0.229061  0.178801  1
  Rh  Rh33  1  0.250000  0.270939  0.678801  1
  Rh  Rh34  1  0.750000  0.770939  0.821199  1
  Rh  Rh35  1  0.750000  0.729061  0.321199  1
