# generated using pymatgen
data_SmU5O12
_symmetry_space_group_name_H-M   'P 1'
_cell_length_a   6.64590810
_cell_length_b   6.64590821
_cell_length_c   6.64747918
_cell_angle_alpha   80.38953205
_cell_angle_beta   80.38953620
_cell_angle_gamma   119.98798397
_symmetry_Int_Tables_number   1
_chemical_formula_structural   SmU5O12
_chemical_formula_sum   'Sm1 U5 O12'
_cell_volume   239.71239049
_cell_formula_units_Z   1
loop_
 _symmetry_equiv_pos_site_id
 _symmetry_equiv_pos_as_xyz
  1  'x, y, z'
loop_
 _atom_site_type_symbol
 _atom_site_label
 _atom_site_symmetry_multiplicity
 _atom_site_fract_x
 _atom_site_fract_y
 _atom_site_fract_z
 _atom_site_occupancy
  Sm  Sm0  1  0.500000  0.500000  0.500000  1
  U  U1  1  0.833368  0.166632  0.500000  1
  U  U2  1  0.166632  0.833368  0.500000  1
  U  U3  1  0.665996  0.334004  0.000000  1
  U  U4  1  0.000000  0.000000  0.000000  1
  U  U5  1  0.334004  0.665996  0.000000  1
  O  O6  1  0.114969  0.114969  0.630024  1
  O  O7  1  0.707550  0.042225  0.877060  1
  O  O8  1  0.957775  0.292450  0.122940  1
  O  O9  1  0.370285  0.370285  0.884755  1
  O  O10  1  0.042225  0.707550  0.877060  1
  O  O11  1  0.542834  0.201642  0.369868  1
  O  O12  1  0.885031  0.885031  0.369976  1
  O  O13  1  0.457166  0.798358  0.630132  1
  O  O14  1  0.629715  0.629715  0.115245  1
  O  O15  1  0.292450  0.957775  0.122940  1
  O  O16  1  0.798358  0.457166  0.630132  1
  O  O17  1  0.201642  0.542834  0.369868  1
