# generated using pymatgen
data_PrDy2Al7Cu2
_symmetry_space_group_name_H-M   'P 1'
_cell_length_a   9.13247314
_cell_length_b   9.13247417
_cell_length_c   9.13247372
_cell_angle_alpha   35.22808986
_cell_angle_beta   35.22807947
_cell_angle_gamma   35.22807918
_symmetry_Int_Tables_number   1
_chemical_formula_structural   PrDy2Al7Cu2
_chemical_formula_sum   'Pr1 Dy2 Al7 Cu2'
_cell_volume   226.37491081
_cell_formula_units_Z   1
loop_
 _symmetry_equiv_pos_site_id
 _symmetry_equiv_pos_as_xyz
  1  'x, y, z'
loop_
 _atom_site_type_symbol
 _atom_site_label
 _atom_site_symmetry_multiplicity
 _atom_site_fract_x
 _atom_site_fract_y
 _atom_site_fract_z
 _atom_site_occupancy
  Pr  Pr0  1  0.000000  0.000000  0.000000  1
  Dy  Dy1  1  0.857669  0.857669  0.857669  1
  Dy  Dy2  1  0.142331  0.142331  0.142331  1
  Al  Al3  1  0.417520  0.417520  0.926699  1
  Al  Al4  1  0.926699  0.417520  0.417520  1
  Al  Al5  1  0.417520  0.926699  0.417520  1
  Al  Al6  1  0.500000  0.500000  0.500000  1
  Al  Al7  1  0.582480  0.073301  0.582480  1
  Al  Al8  1  0.073301  0.582480  0.582480  1
  Al  Al9  1  0.582480  0.582480  0.073301  1
  Cu  Cu10  1  0.664622  0.664622  0.664622  1
  Cu  Cu11  1  0.335378  0.335378  0.335378  1
