# generated using pymatgen
data_PrAg(Te3O8)2
_symmetry_space_group_name_H-M   'P 1'
_cell_length_a   7.00579728
_cell_length_b   7.00579755
_cell_length_c   10.28430971
_cell_angle_alpha   66.29120119
_cell_angle_beta   66.29119982
_cell_angle_gamma   50.01819124
_symmetry_Int_Tables_number   1
_chemical_formula_structural   PrAg(Te3O8)2
_chemical_formula_sum   'Pr1 Ag1 Te6 O16'
_cell_volume   346.62169333
_cell_formula_units_Z   1
loop_
 _symmetry_equiv_pos_site_id
 _symmetry_equiv_pos_as_xyz
  1  'x, y, z'
loop_
 _atom_site_type_symbol
 _atom_site_label
 _atom_site_symmetry_multiplicity
 _atom_site_fract_x
 _atom_site_fract_y
 _atom_site_fract_z
 _atom_site_occupancy
  Pr  Pr0  1  0.567119  0.432881  0.250000  1
  Ag  Ag1  1  0.432916  0.567084  0.750000  1
  Te  Te2  1  0.696403  0.881529  0.853443  1
  Te  Te3  1  0.875199  0.683967  0.361908  1
  Te  Te4  1  0.999809  0.990152  0.503440  1
  Te  Te5  1  0.009848  0.000191  0.996560  1
  Te  Te6  1  0.118471  0.303597  0.646557  1
  Te  Te7  1  0.316033  0.124801  0.138092  1
  O  O8  1  0.978156  0.821137  0.908390  1
  O  O9  1  0.802853  0.980788  0.405142  1
  O  O10  1  0.342933  0.882721  0.877933  1
  O  O11  1  0.794984  0.567117  0.583896  1
  O  O12  1  0.870716  0.309339  0.840767  1
  O  O13  1  0.857110  0.329025  0.381292  1
  O  O14  1  0.578904  0.787122  0.097995  1
  O  O15  1  0.294600  0.858809  0.343085  1
  O  O16  1  0.690661  0.129284  0.659233  1
  O  O17  1  0.432883  0.205016  0.916104  1
  O  O18  1  0.117279  0.657067  0.622067  1
  O  O19  1  0.141191  0.705400  0.156915  1
  O  O20  1  0.212878  0.421096  0.402005  1
  O  O21  1  0.670975  0.142890  0.118708  1
  O  O22  1  0.178863  0.021844  0.591610  1
  O  O23  1  0.019212  0.197147  0.094858  1
