# generated using pymatgen
data_Tb8HfZr9(Si8Ag)2
_symmetry_space_group_name_H-M   'P 1'
_cell_length_a   7.36241960
_cell_length_b   7.36239569
_cell_length_c   13.32220901
_cell_angle_alpha   89.99787522
_cell_angle_beta   89.99710466
_cell_angle_gamma   89.66990670
_symmetry_Int_Tables_number   1
_chemical_formula_structural   Tb8HfZr9(Si8Ag)2
_chemical_formula_sum   'Tb8 Hf1 Zr9 Si16 Ag2'
_cell_volume   722.11896994
_cell_formula_units_Z   1
loop_
 _symmetry_equiv_pos_site_id
 _symmetry_equiv_pos_as_xyz
  1  'x, y, z'
loop_
 _atom_site_type_symbol
 _atom_site_label
 _atom_site_symmetry_multiplicity
 _atom_site_fract_x
 _atom_site_fract_y
 _atom_site_fract_z
 _atom_site_occupancy
  Tb  Tb0  1  0.997822  0.349039  0.211362  1
  Tb  Tb1  1  0.002276  0.651232  0.711470  1
  Tb  Tb2  1  0.147071  0.503148  0.465640  1
  Tb  Tb3  1  0.496867  0.852918  0.034347  1
  Tb  Tb4  1  0.852876  0.496573  0.965270  1
  Tb  Tb5  1  0.503445  0.147112  0.534744  1
  Tb  Tb6  1  0.348770  0.997720  0.788587  1
  Tb  Tb7  1  0.650960  0.002176  0.288582  1
  Hf  Hf8  1  0.680187  0.319818  0.750017  1
  Zr  Zr9  1  0.320238  0.679770  0.249983  1
  Zr  Zr10  1  0.138966  0.997896  0.379175  1
  Zr  Zr11  1  0.860903  0.001751  0.879255  1
  Zr  Zr12  1  0.509138  0.643101  0.625082  1
  Zr  Zr13  1  0.356905  0.490858  0.874950  1
  Zr  Zr14  1  0.491347  0.357209  0.124692  1
  Zr  Zr15  1  0.642796  0.508650  0.375276  1
  Zr  Zr16  1  0.998247  0.139086  0.620777  1
  Zr  Zr17  1  0.002103  0.861027  0.120793  1
  Si  Si18  1  0.356373  0.294996  0.318568  1
  Si  Si19  1  0.644004  0.703399  0.818508  1
  Si  Si20  1  0.227492  0.865501  0.573373  1
  Si  Si21  1  0.134482  0.772516  0.926624  1
  Si  Si22  1  0.772382  0.134360  0.073158  1
  Si  Si23  1  0.865621  0.227624  0.426847  1
  Si  Si24  1  0.296597  0.356003  0.681539  1
  Si  Si25  1  0.705001  0.643632  0.181385  1
  Si  Si26  1  0.293409  0.055615  0.191432  1
  Si  Si27  1  0.706146  0.946423  0.691666  1
  Si  Si28  1  0.432824  0.789380  0.437396  1
  Si  Si29  1  0.210629  0.567194  0.062596  1
  Si  Si30  1  0.568004  0.211481  0.935988  1
  Si  Si31  1  0.788527  0.432017  0.564022  1
  Si  Si32  1  0.053566  0.293852  0.808375  1
  Si  Si33  1  0.944376  0.706588  0.308525  1
  Ag  Ag34  1  0.178778  0.179119  0.000041  1
  Ag  Ag35  1  0.820874  0.821215  0.499957  1
