# generated using pymatgen
data_Sm7CoI12
_symmetry_space_group_name_H-M   'P 1'
_cell_length_a   9.88933598
_cell_length_b   9.88933619
_cell_length_c   9.88933707
_cell_angle_alpha   106.68057175
_cell_angle_beta   106.68056603
_cell_angle_gamma   106.68057717
_symmetry_Int_Tables_number   1
_chemical_formula_structural   Sm7CoI12
_chemical_formula_sum   'Sm7 Co1 I12'
_cell_volume   812.38226971
_cell_formula_units_Z   1
loop_
 _symmetry_equiv_pos_site_id
 _symmetry_equiv_pos_as_xyz
  1  'x, y, z'
loop_
 _atom_site_type_symbol
 _atom_site_label
 _atom_site_symmetry_multiplicity
 _atom_site_fract_x
 _atom_site_fract_y
 _atom_site_fract_z
 _atom_site_occupancy
  Sm  Sm0  1  0.906798  0.978814  0.708263  1
  Sm  Sm1  1  0.708263  0.906798  0.978814  1
  Sm  Sm2  1  0.978814  0.708263  0.906798  1
  Sm  Sm3  1  0.093202  0.021186  0.291737  1
  Sm  Sm4  1  0.291737  0.093202  0.021186  1
  Sm  Sm5  1  0.021186  0.291737  0.093202  1
  Sm  Sm6  1  0.500000  0.500000  0.500000  1
  Co  Co7  1  0.000000  0.000000  0.000000  1
  I  I8  1  0.927293  0.322209  0.774530  1
  I  I9  1  0.774530  0.927293  0.322209  1
  I  I10  1  0.322209  0.774530  0.927293  1
  I  I11  1  0.072707  0.677791  0.225470  1
  I  I12  1  0.225470  0.072707  0.677791  1
  I  I13  1  0.677791  0.225470  0.072707  1
  I  I14  1  0.538262  0.840797  0.615970  1
  I  I15  1  0.615970  0.538262  0.840797  1
  I  I16  1  0.840797  0.615970  0.538262  1
  I  I17  1  0.461738  0.159203  0.384030  1
  I  I18  1  0.384030  0.461738  0.159203  1
  I  I19  1  0.159203  0.384030  0.461738  1
