# generated using pymatgen
data_Sc6Al13Si11Os8
_symmetry_space_group_name_H-M   'P 1'
_cell_length_a   8.59806500
_cell_length_b   8.59806636
_cell_length_c   9.11626200
_cell_angle_alpha   90.00000000
_cell_angle_beta   90.00000000
_cell_angle_gamma   119.99999860
_symmetry_Int_Tables_number   1
_chemical_formula_structural   Sc6Al13Si11Os8
_chemical_formula_sum   'Sc6 Al13 Si11 Os8'
_cell_volume   583.64524677
_cell_formula_units_Z   1
loop_
 _symmetry_equiv_pos_site_id
 _symmetry_equiv_pos_as_xyz
  1  'x, y, z'
loop_
 _atom_site_type_symbol
 _atom_site_label
 _atom_site_symmetry_multiplicity
 _atom_site_fract_x
 _atom_site_fract_y
 _atom_site_fract_z
 _atom_site_occupancy
  Sc  Sc0  1  0.192404  0.384809  0.248465  1
  Sc  Sc1  1  0.806377  0.612755  0.750354  1
  Sc  Sc2  1  0.615191  0.807596  0.248465  1
  Sc  Sc3  1  0.387245  0.193623  0.750354  1
  Sc  Sc4  1  0.192404  0.807596  0.248465  1
  Sc  Sc5  1  0.806377  0.193623  0.750354  1
  Al  Al6  1  0.333333  0.666667  0.458852  1
  Al  Al7  1  0.164497  0.328993  0.582109  1
  Al  Al8  1  0.835052  0.670105  0.415812  1
  Al  Al9  1  0.671007  0.835503  0.582109  1
  Al  Al10  1  0.835010  0.670022  0.083713  1
  Al  Al11  1  0.329895  0.164948  0.415812  1
  Al  Al12  1  0.165403  0.330806  0.915638  1
  Al  Al13  1  0.164497  0.835503  0.582109  1
  Al  Al14  1  0.329978  0.164990  0.083713  1
  Al  Al15  1  0.835052  0.164948  0.415812  1
  Al  Al16  1  0.669194  0.834597  0.915638  1
  Al  Al17  1  0.835010  0.164990  0.083713  1
  Al  Al18  1  0.165403  0.834597  0.915638  1
  Si  Si19  1  0.333333  0.666667  0.057017  1
  Si  Si20  1  0.666667  0.333333  0.947126  1
  Si  Si21  1  0.666667  0.333333  0.552525  1
  Si  Si22  1  0.559959  0.119916  0.250266  1
  Si  Si23  1  0.439427  0.878854  0.748682  1
  Si  Si24  1  0.880084  0.440041  0.250266  1
  Si  Si25  1  0.121146  0.560573  0.748682  1
  Si  Si26  1  0.559959  0.440041  0.250266  1
  Si  Si27  1  0.439427  0.560573  0.748682  1
  Si  Si28  1  0.000000  0.000000  0.248868  1
  Si  Si29  1  0.000000  0.000000  0.748921  1
  Os  Os30  1  0.500357  0.000715  0.998676  1
  Os  Os31  1  0.999285  0.499643  0.998676  1
  Os  Os32  1  0.503872  0.007744  0.502662  1
  Os  Os33  1  0.500357  0.499643  0.998676  1
  Os  Os34  1  0.992256  0.496128  0.502662  1
  Os  Os35  1  0.503872  0.496128  0.502662  1
  Os  Os36  1  0.000000  0.000000  0.998699  1
  Os  Os37  1  0.000000  0.000000  0.498855  1
