# generated using pymatgen
data_TmMgNi3Pt
_symmetry_space_group_name_H-M   'P 1'
_cell_length_a   4.93674033
_cell_length_b   4.93674143
_cell_length_c   5.11879867
_cell_angle_alpha   61.16972687
_cell_angle_beta   61.16971327
_cell_angle_gamma   59.99999913
_symmetry_Int_Tables_number   1
_chemical_formula_structural   TmMgNi3Pt
_chemical_formula_sum   'Tm1 Mg1 Ni3 Pt1'
_cell_volume   89.74082431
_cell_formula_units_Z   1
loop_
 _symmetry_equiv_pos_site_id
 _symmetry_equiv_pos_as_xyz
  1  'x, y, z'
loop_
 _atom_site_type_symbol
 _atom_site_label
 _atom_site_symmetry_multiplicity
 _atom_site_fract_x
 _atom_site_fract_y
 _atom_site_fract_z
 _atom_site_occupancy
  Tm  Tm0  1  0.247744  0.247744  0.256768  1
  Mg  Mg1  1  0.004023  0.004023  0.987931  1
  Ni  Ni2  1  0.624979  0.122563  0.627480  1
  Ni  Ni3  1  0.122563  0.624979  0.627480  1
  Ni  Ni4  1  0.624979  0.624979  0.627480  1
  Pt  Pt5  1  0.625714  0.625714  0.122861  1
