# generated using pymatgen
data_Li4Pr3TmSi8
_symmetry_space_group_name_H-M   'P 1'
_cell_length_a   3.86089800
_cell_length_b   7.73021429
_cell_length_c   10.45303252
_cell_angle_alpha   89.84152421
_cell_angle_beta   90.00000000
_cell_angle_gamma   90.00000000
_symmetry_Int_Tables_number   1
_chemical_formula_structural   Li4Pr3TmSi8
_chemical_formula_sum   'Li4 Pr3 Tm1 Si8'
_cell_volume   311.97550912
_cell_formula_units_Z   1
loop_
 _symmetry_equiv_pos_site_id
 _symmetry_equiv_pos_as_xyz
  1  'x, y, z'
loop_
 _atom_site_type_symbol
 _atom_site_label
 _atom_site_symmetry_multiplicity
 _atom_site_fract_x
 _atom_site_fract_y
 _atom_site_fract_z
 _atom_site_occupancy
  Li  Li0  1  0.250000  0.993601  0.389604  1
  Li  Li1  1  0.750000  0.004144  0.610825  1
  Li  Li2  1  0.250000  0.494801  0.106341  1
  Li  Li3  1  0.750000  0.511298  0.890805  1
  Pr  Pr4  1  0.750000  0.862776  0.134945  1
  Pr  Pr5  1  0.250000  0.637794  0.637165  1
  Pr  Pr6  1  0.750000  0.358165  0.365068  1
  Tm  Tm7  1  0.250000  0.133613  0.864555  1
  Si  Si8  1  0.750000  0.270777  0.062119  1
  Si  Si9  1  0.250000  0.735430  0.928720  1
  Si  Si10  1  0.750000  0.772356  0.429443  1
  Si  Si11  1  0.250000  0.220460  0.578266  1
  Si  Si12  1  0.750000  0.846530  0.822946  1
  Si  Si13  1  0.250000  0.164496  0.171664  1
  Si  Si14  1  0.750000  0.330905  0.685036  1
  Si  Si15  1  0.250000  0.662851  0.322495  1
