# generated using pymatgen
data_Tb3TmU4(ReB6)4
_symmetry_space_group_name_H-M   'P 1'
_cell_length_a   3.63821000
_cell_length_b   9.30148015
_cell_length_c   11.42186718
_cell_angle_alpha   89.97953404
_cell_angle_beta   90.00000000
_cell_angle_gamma   90.00000000
_symmetry_Int_Tables_number   1
_chemical_formula_structural   Tb3TmU4(ReB6)4
_chemical_formula_sum   'Tb3 Tm1 U4 Re4 B24'
_cell_volume   386.52439116
_cell_formula_units_Z   1
loop_
 _symmetry_equiv_pos_site_id
 _symmetry_equiv_pos_as_xyz
  1  'x, y, z'
loop_
 _atom_site_type_symbol
 _atom_site_label
 _atom_site_symmetry_multiplicity
 _atom_site_fract_x
 _atom_site_fract_y
 _atom_site_fract_z
 _atom_site_occupancy
  Tb  Tb0  1  0.000000  0.663369  0.592126  1
  Tb  Tb1  1  0.000000  0.836562  0.092373  1
  Tb  Tb2  1  0.000000  0.163463  0.907696  1
  Tm  Tm3  1  0.000000  0.336480  0.407777  1
  U  U4  1  0.000000  0.956769  0.396211  1
  U  U5  1  0.000000  0.044040  0.603523  1
  U  U6  1  0.000000  0.456215  0.103992  1
  U  U7  1  0.000000  0.543608  0.896204  1
  Re  Re8  1  0.000000  0.644694  0.318547  1
  Re  Re9  1  0.000000  0.354266  0.681111  1
  Re  Re10  1  0.000000  0.146182  0.182272  1
  Re  Re11  1  0.000000  0.854358  0.818252  1
  B  B12  1  0.500000  0.550927  0.430864  1
  B  B13  1  0.500000  0.447744  0.568652  1
  B  B14  1  0.500000  0.052162  0.069395  1
  B  B15  1  0.500000  0.947934  0.930730  1
  B  B16  1  0.500000  0.742924  0.422838  1
  B  B17  1  0.500000  0.257169  0.576508  1
  B  B18  1  0.500000  0.243226  0.077328  1
  B  B19  1  0.500000  0.756824  0.922858  1
  B  B20  1  0.500000  0.801667  0.275271  1
  B  B21  1  0.500000  0.198294  0.724645  1
  B  B22  1  0.500000  0.302042  0.225325  1
  B  B23  1  0.500000  0.698253  0.775166  1
  B  B24  1  0.500000  0.643635  0.188695  1
  B  B25  1  0.500000  0.356108  0.811373  1
  B  B26  1  0.500000  0.144487  0.311800  1
  B  B27  1  0.500000  0.856189  0.688467  1
  B  B28  1  0.500000  0.989321  0.219776  1
  B  B29  1  0.500000  0.010822  0.780246  1
  B  B30  1  0.500000  0.488308  0.280777  1
  B  B31  1  0.500000  0.510658  0.719542  1
  B  B32  1  0.500000  0.639260  0.038624  1
  B  B33  1  0.500000  0.360651  0.961475  1
  B  B34  1  0.500000  0.140802  0.461018  1
  B  B35  1  0.500000  0.860588  0.538542  1
