# generated using pymatgen
data_Gd6Cd16Ag7Ge
_symmetry_space_group_name_H-M   'P 1'
_cell_length_a   9.69827653
_cell_length_b   9.69827691
_cell_length_c   9.69827700
_cell_angle_alpha   60.00000310
_cell_angle_beta   60.00000181
_cell_angle_gamma   59.99999856
_symmetry_Int_Tables_number   1
_chemical_formula_structural   Gd6Cd16Ag7Ge
_chemical_formula_sum   'Gd6 Cd16 Ag7 Ge1'
_cell_volume   645.01340564
_cell_formula_units_Z   1
loop_
 _symmetry_equiv_pos_site_id
 _symmetry_equiv_pos_as_xyz
  1  'x, y, z'
loop_
 _atom_site_type_symbol
 _atom_site_label
 _atom_site_symmetry_multiplicity
 _atom_site_fract_x
 _atom_site_fract_y
 _atom_site_fract_z
 _atom_site_occupancy
  Gd  Gd0  1  0.791353  0.791353  0.208647  1
  Gd  Gd1  1  0.208647  0.791353  0.208647  1
  Gd  Gd2  1  0.791353  0.208647  0.208647  1
  Gd  Gd3  1  0.208647  0.208647  0.791353  1
  Gd  Gd4  1  0.791353  0.208647  0.791353  1
  Gd  Gd5  1  0.208647  0.791353  0.791353  1
  Cd  Cd6  1  0.834297  0.834297  0.497108  1
  Cd  Cd7  1  0.834297  0.497108  0.834297  1
  Cd  Cd8  1  0.497108  0.834297  0.834297  1
  Cd  Cd9  1  0.834297  0.834297  0.834297  1
  Cd  Cd10  1  0.165703  0.165703  0.502892  1
  Cd  Cd11  1  0.165703  0.502892  0.165703  1
  Cd  Cd12  1  0.502892  0.165703  0.165703  1
  Cd  Cd13  1  0.165703  0.165703  0.165703  1
  Cd  Cd14  1  0.619707  0.619707  0.140879  1
  Cd  Cd15  1  0.619707  0.140879  0.619707  1
  Cd  Cd16  1  0.140879  0.619707  0.619707  1
  Cd  Cd17  1  0.619707  0.619707  0.619707  1
  Cd  Cd18  1  0.380293  0.380293  0.859121  1
  Cd  Cd19  1  0.380293  0.859121  0.380293  1
  Cd  Cd20  1  0.859121  0.380293  0.380293  1
  Cd  Cd21  1  0.380293  0.380293  0.380293  1
  Ag  Ag22  1  0.000000  0.000000  0.500000  1
  Ag  Ag23  1  0.500000  0.000000  0.500000  1
  Ag  Ag24  1  0.000000  0.500000  0.500000  1
  Ag  Ag25  1  0.500000  0.500000  0.000000  1
  Ag  Ag26  1  0.000000  0.500000  0.000000  1
  Ag  Ag27  1  0.500000  0.000000  0.000000  1
  Ag  Ag28  1  0.500000  0.500000  0.500000  1
  Ge  Ge29  1  0.000000  0.000000  0.000000  1
