# generated using pymatgen
data_Rb3AgO3
_symmetry_space_group_name_H-M   'P 1'
_cell_length_a   6.72432666
_cell_length_b   7.12343698
_cell_length_c   12.90950688
_cell_angle_alpha   89.92513422
_cell_angle_beta   89.87345231
_cell_angle_gamma   89.91216178
_symmetry_Int_Tables_number   1
_chemical_formula_structural   Rb3AgO3
_chemical_formula_sum   'Rb12 Ag4 O12'
_cell_volume   618.36671379
_cell_formula_units_Z   4
loop_
 _symmetry_equiv_pos_site_id
 _symmetry_equiv_pos_as_xyz
  1  'x, y, z'
loop_
 _atom_site_type_symbol
 _atom_site_label
 _atom_site_symmetry_multiplicity
 _atom_site_fract_x
 _atom_site_fract_y
 _atom_site_fract_z
 _atom_site_occupancy
  Rb  Rb0  1  0.053366  0.137968  0.291548  1
  Rb  Rb1  1  0.946651  0.862023  0.708459  1
  Rb  Rb2  1  0.053624  0.638205  0.208372  1
  Rb  Rb3  1  0.946392  0.361825  0.791631  1
  Rb  Rb4  1  0.462542  0.506053  0.720607  1
  Rb  Rb5  1  0.462060  0.006042  0.779450  1
  Rb  Rb6  1  0.537479  0.493978  0.279413  1
  Rb  Rb7  1  0.537945  0.993962  0.220580  1
  Rb  Rb8  1  0.331473  0.667942  0.984609  1
  Rb  Rb9  1  0.331231  0.168071  0.515433  1
  Rb  Rb10  1  0.668756  0.831933  0.484596  1
  Rb  Rb11  1  0.668543  0.332065  0.015429  1
  Ag  Ag12  1  0.834183  0.839083  0.990581  1
  Ag  Ag13  1  0.165797  0.660945  0.490461  1
  Ag  Ag14  1  0.165844  0.160935  0.009408  1
  Ag  Ag15  1  0.834116  0.339037  0.509478  1
  O  O16  1  0.301252  0.802099  0.371124  1
  O  O17  1  0.699317  0.698504  0.871395  1
  O  O18  1  0.698767  0.197880  0.628839  1
  O  O19  1  0.300714  0.301504  0.128628  1
  O  O20  1  0.020468  0.003940  0.896263  1
  O  O21  1  0.979992  0.496696  0.396285  1
  O  O22  1  0.019909  0.503304  0.603678  1
  O  O23  1  0.979589  0.996022  0.103742  1
  O  O24  1  0.317884  0.805553  0.601589  1
  O  O25  1  0.682071  0.194397  0.398406  1
  O  O26  1  0.681680  0.693754  0.101840  1
  O  O27  1  0.318357  0.306278  0.898156  1
