# generated using pymatgen
data_Y4Er8Co5Pb
_symmetry_space_group_name_H-M   'P 1'
_cell_length_a   8.23896681
_cell_length_b   8.23896504
_cell_length_c   8.23896653
_cell_angle_alpha   110.89192107
_cell_angle_beta   110.59613900
_cell_angle_gamma   106.95467709
_symmetry_Int_Tables_number   1
_chemical_formula_structural   Y4Er8Co5Pb
_chemical_formula_sum   'Y4 Er8 Co5 Pb1'
_cell_volume   429.90043947
_cell_formula_units_Z   1
loop_
 _symmetry_equiv_pos_site_id
 _symmetry_equiv_pos_as_xyz
  1  'x, y, z'
loop_
 _atom_site_type_symbol
 _atom_site_label
 _atom_site_symmetry_multiplicity
 _atom_site_fract_x
 _atom_site_fract_y
 _atom_site_fract_z
 _atom_site_occupancy
  Y  Y0  1  0.289129  0.186709  0.475838  1
  Y  Y1  1  0.710871  0.813291  0.524162  1
  Y  Y2  1  0.289129  0.813291  0.102420  1
  Y  Y3  1  0.710871  0.186709  0.897580  1
  Er  Er4  1  0.620718  0.312616  0.308102  1
  Er  Er5  1  0.379282  0.687384  0.691898  1
  Er  Er6  1  0.004514  0.312616  0.691898  1
  Er  Er7  1  0.995486  0.687384  0.308102  1
  Er  Er8  1  0.209034  0.402084  0.193049  1
  Er  Er9  1  0.790966  0.597916  0.806951  1
  Er  Er10  1  0.209034  0.015985  0.806951  1
  Er  Er11  1  0.790966  0.984015  0.193049  1
  Co  Co12  1  0.000000  0.377146  0.377146  1
  Co  Co13  1  0.000000  0.622854  0.622854  1
  Co  Co14  1  0.387499  0.887499  0.500000  1
  Co  Co15  1  0.612501  0.112501  0.500000  1
  Co  Co16  1  0.000000  0.000000  0.000000  1
  Pb  Pb17  1  0.500000  0.500000  0.000000  1
