# generated using pymatgen
data_Li2Sm6Zn2Pd13
_symmetry_space_group_name_H-M   'P 1'
_cell_length_a   8.34385350
_cell_length_b   8.34634961
_cell_length_c   8.34385406
_cell_angle_alpha   109.45832962
_cell_angle_beta   109.48488143
_cell_angle_gamma   109.45833660
_symmetry_Int_Tables_number   1
_chemical_formula_structural   Li2Sm6Zn2Pd13
_chemical_formula_sum   'Li2 Sm6 Zn2 Pd13'
_cell_volume   447.37626606
_cell_formula_units_Z   1
loop_
 _symmetry_equiv_pos_site_id
 _symmetry_equiv_pos_as_xyz
  1  'x, y, z'
loop_
 _atom_site_type_symbol
 _atom_site_label
 _atom_site_symmetry_multiplicity
 _atom_site_fract_x
 _atom_site_fract_y
 _atom_site_fract_z
 _atom_site_occupancy
  Li  Li0  1  0.000000  0.500000  0.000000  1
  Li  Li1  1  0.500000  0.500000  0.500000  1
  Sm  Sm2  1  0.695692  0.697685  0.001993  1
  Sm  Sm3  1  0.304156  0.000000  0.304156  1
  Sm  Sm4  1  0.998007  0.302315  0.304308  1
  Sm  Sm5  1  0.304308  0.302315  0.998007  1
  Sm  Sm6  1  0.695844  0.000000  0.695844  1
  Sm  Sm7  1  0.001993  0.697685  0.695692  1
  Zn  Zn8  1  0.000000  0.000000  0.500000  1
  Zn  Zn9  1  0.500000  0.000000  0.000000  1
  Pd  Pd10  1  0.333298  0.333300  0.665830  1
  Pd  Pd11  1  0.667944  0.000000  0.332056  1
  Pd  Pd12  1  0.999998  0.666700  0.332528  1
  Pd  Pd13  1  0.667472  0.333300  0.000002  1
  Pd  Pd14  1  0.334024  0.668050  0.334024  1
  Pd  Pd15  1  0.000002  0.333300  0.667472  1
  Pd  Pd16  1  0.332528  0.666700  0.999998  1
  Pd  Pd17  1  0.332056  0.000000  0.667944  1
  Pd  Pd18  1  0.665830  0.333300  0.333298  1
  Pd  Pd19  1  0.666702  0.666700  0.334170  1
  Pd  Pd20  1  0.665976  0.331950  0.665976  1
  Pd  Pd21  1  0.334170  0.666700  0.666702  1
  Pd  Pd22  1  0.000000  0.000000  0.000000  1
