# generated using pymatgen
data_Zr9VCoRe3
_symmetry_space_group_name_H-M   'P 1'
_cell_length_a   8.70631700
_cell_length_b   8.70632216
_cell_length_c   8.43285000
_cell_angle_alpha   90.00000000
_cell_angle_beta   90.00000000
_cell_angle_gamma   119.99825162
_symmetry_Int_Tables_number   1
_chemical_formula_structural   Zr9VCoRe3
_chemical_formula_sum   'Zr18 V2 Co2 Re6'
_cell_volume   553.58188162
_cell_formula_units_Z   2
loop_
 _symmetry_equiv_pos_site_id
 _symmetry_equiv_pos_as_xyz
  1  'x, y, z'
loop_
 _atom_site_type_symbol
 _atom_site_label
 _atom_site_symmetry_multiplicity
 _atom_site_fract_x
 _atom_site_fract_y
 _atom_site_fract_z
 _atom_site_occupancy
  Zr  Zr0  1  0.198606  0.801387  0.441570  1
  Zr  Zr1  1  0.198592  0.397195  0.441492  1
  Zr  Zr2  1  0.602792  0.801397  0.441493  1
  Zr  Zr3  1  0.801394  0.198613  0.558430  1
  Zr  Zr4  1  0.801408  0.602805  0.558508  1
  Zr  Zr5  1  0.397208  0.198603  0.558507  1
  Zr  Zr6  1  0.801394  0.198613  0.941570  1
  Zr  Zr7  1  0.801408  0.602805  0.941492  1
  Zr  Zr8  1  0.397208  0.198603  0.941493  1
  Zr  Zr9  1  0.198606  0.801387  0.058430  1
  Zr  Zr10  1  0.198592  0.397195  0.058508  1
  Zr  Zr11  1  0.602792  0.801397  0.058507  1
  Zr  Zr12  1  0.541886  0.458132  0.250000  1
  Zr  Zr13  1  0.541891  0.083737  0.250000  1
  Zr  Zr14  1  0.916264  0.458123  0.250000  1
  Zr  Zr15  1  0.458114  0.541868  0.750000  1
  Zr  Zr16  1  0.458109  0.916263  0.750000  1
  Zr  Zr17  1  0.083736  0.541877  0.750000  1
  V  V18  1  0.000000  0.000000  0.500000  1
  V  V19  1  0.000000  0.000000  0.000000  1
  Co  Co20  1  0.333335  0.666666  0.250000  1
  Co  Co21  1  0.666665  0.333334  0.750000  1
  Re  Re22  1  0.891756  0.108249  0.250000  1
  Re  Re23  1  0.891731  0.783474  0.250000  1
  Re  Re24  1  0.216496  0.108273  0.250000  1
  Re  Re25  1  0.108244  0.891751  0.750000  1
  Re  Re26  1  0.108269  0.216526  0.750000  1
  Re  Re27  1  0.783504  0.891727  0.750000  1
