# generated using pymatgen
data_Ta5Nb3Si2(B2Mo)2
_symmetry_space_group_name_H-M   'P 1'
_cell_length_a   7.26972023
_cell_length_b   7.27713854
_cell_length_c   7.27439950
_cell_angle_alpha   129.62190384
_cell_angle_beta   129.59250787
_cell_angle_gamma   74.05862488
_symmetry_Int_Tables_number   1
_chemical_formula_structural   Ta5Nb3Si2(B2Mo)2
_chemical_formula_sum   'Ta5 Nb3 Si2 B4 Mo2'
_cell_volume   222.72523770
_cell_formula_units_Z   1
loop_
 _symmetry_equiv_pos_site_id
 _symmetry_equiv_pos_as_xyz
  1  'x, y, z'
loop_
 _atom_site_type_symbol
 _atom_site_label
 _atom_site_symmetry_multiplicity
 _atom_site_fract_x
 _atom_site_fract_y
 _atom_site_fract_z
 _atom_site_occupancy
  Ta  Ta0  1  0.529236  0.693693  0.499709  1
  Ta  Ta1  1  0.028857  0.529491  0.835343  1
  Ta  Ta2  1  0.693554  0.194156  0.164739  1
  Ta  Ta3  1  0.970899  0.470275  0.164466  1
  Ta  Ta4  1  0.471260  0.306410  0.500336  1
  Nb  Nb5  1  0.807204  0.971561  0.500311  1
  Nb  Nb6  1  0.307283  0.806673  0.836150  1
  Nb  Nb7  1  0.192916  0.028979  0.499758  1
  Si  Si8  1  0.749903  0.749604  0.999371  1
  Si  Si9  1  0.250183  0.250460  0.000505  1
  B  B10  1  0.380734  0.880743  0.262021  1
  B  B11  1  0.880193  0.617913  0.499244  1
  B  B12  1  0.619585  0.119625  0.739278  1
  B  B13  1  0.118385  0.380637  0.499230  1
  Mo  Mo14  1  0.999839  0.999974  0.999768  1
  Mo  Mo15  1  0.499968  0.499806  0.999772  1
