# generated using pymatgen
data_Y4Ho2Al24Ir3Os5
_symmetry_space_group_name_H-M   'P 1'
_cell_length_a   8.78507485
_cell_length_b   8.79802774
_cell_length_c   9.57407184
_cell_angle_alpha   90.00422051
_cell_angle_beta   89.84227841
_cell_angle_gamma   119.52949272
_symmetry_Int_Tables_number   1
_chemical_formula_structural   Y4Ho2Al24Ir3Os5
_chemical_formula_sum   'Y4 Ho2 Al24 Ir3 Os5'
_cell_volume   643.86612740
_cell_formula_units_Z   1
loop_
 _symmetry_equiv_pos_site_id
 _symmetry_equiv_pos_as_xyz
  1  'x, y, z'
loop_
 _atom_site_type_symbol
 _atom_site_label
 _atom_site_symmetry_multiplicity
 _atom_site_fract_x
 _atom_site_fract_y
 _atom_site_fract_z
 _atom_site_occupancy
  Y  Y0  1  0.188935  0.384701  0.250889  1
  Y  Y1  1  0.811065  0.615299  0.749111  1
  Y  Y2  1  0.613943  0.811329  0.250558  1
  Y  Y3  1  0.386057  0.188671  0.749442  1
  Ho  Ho4  1  0.195227  0.808135  0.251101  1
  Ho  Ho5  1  0.804773  0.191865  0.748899  1
  Al  Al6  1  0.333727  0.668443  0.024973  1
  Al  Al7  1  0.666273  0.331557  0.975027  1
  Al  Al8  1  0.667699  0.332411  0.523911  1
  Al  Al9  1  0.332301  0.667589  0.476089  1
  Al  Al10  1  0.162378  0.326826  0.575931  1
  Al  Al11  1  0.837622  0.673174  0.424069  1
  Al  Al12  1  0.672607  0.836829  0.575749  1
  Al  Al13  1  0.836029  0.673461  0.076451  1
  Al  Al14  1  0.327393  0.163171  0.424251  1
  Al  Al15  1  0.163971  0.326539  0.923549  1
  Al  Al16  1  0.164074  0.835147  0.575071  1
  Al  Al17  1  0.327085  0.162835  0.075841  1
  Al  Al18  1  0.835926  0.164853  0.424929  1
  Al  Al19  1  0.672915  0.837165  0.924159  1
  Al  Al20  1  0.834162  0.163092  0.074773  1
  Al  Al21  1  0.165838  0.836908  0.925227  1
  Al  Al22  1  0.560850  0.124966  0.249605  1
  Al  Al23  1  0.439150  0.875034  0.750395  1
  Al  Al24  1  0.875926  0.439758  0.250532  1
  Al  Al25  1  0.124074  0.560242  0.749468  1
  Al  Al26  1  0.561728  0.438535  0.249624  1
  Al  Al27  1  0.438272  0.561465  0.750376  1
  Al  Al28  1  0.999842  0.000978  0.250012  1
  Al  Al29  1  0.000158  0.999022  0.749988  1
  Ir  Ir30  1  0.000000  0.500000  0.000000  1
  Ir  Ir31  1  0.500000  0.500000  0.000000  1
  Ir  Ir32  1  0.500000  0.500000  0.500000  1
  Os  Os33  1  0.500000  0.000000  0.000000  1
  Os  Os34  1  0.500000  0.000000  0.500000  1
  Os  Os35  1  0.000000  0.500000  0.500000  1
  Os  Os36  1  0.000000  0.000000  0.000000  1
  Os  Os37  1  0.000000  0.000000  0.500000  1
