# generated using pymatgen
data_Y4Ga2SiGe
_symmetry_space_group_name_H-M   'P 1'
_cell_length_a   3.98506300
_cell_length_b   4.32690600
_cell_length_c   10.78096700
_cell_angle_alpha   90.00000000
_cell_angle_beta   90.00000000
_cell_angle_gamma   90.00000000
_symmetry_Int_Tables_number   1
_chemical_formula_structural   Y4Ga2SiGe
_chemical_formula_sum   'Y4 Ga2 Si1 Ge1'
_cell_volume   185.89613857
_cell_formula_units_Z   1
loop_
 _symmetry_equiv_pos_site_id
 _symmetry_equiv_pos_as_xyz
  1  'x, y, z'
loop_
 _atom_site_type_symbol
 _atom_site_label
 _atom_site_symmetry_multiplicity
 _atom_site_fract_x
 _atom_site_fract_y
 _atom_site_fract_z
 _atom_site_occupancy
  Y  Y0  1  0.000000  0.000000  0.137487  1
  Y  Y1  1  0.000000  0.500000  0.641574  1
  Y  Y2  1  0.500000  0.500000  0.360127  1
  Y  Y3  1  0.500000  0.000000  0.860615  1
  Ga  Ga4  1  0.500000  0.500000  0.075853  1
  Ga  Ga5  1  0.500000  0.000000  0.579358  1
  Si  Si6  1  0.000000  0.500000  0.924363  1
  Ge  Ge7  1  0.000000  0.000000  0.420623  1
