# generated using pymatgen
data_Lu4B12MoRh
_symmetry_space_group_name_H-M   'P 1'
_cell_length_a   3.60195400
_cell_length_b   9.08122887
_cell_length_c   11.47221137
_cell_angle_alpha   90.38222613
_cell_angle_beta   90.00000000
_cell_angle_gamma   90.00000000
_symmetry_Int_Tables_number   1
_chemical_formula_structural   Lu4B12MoRh
_chemical_formula_sum   'Lu8 B24 Mo2 Rh2'
_cell_volume   375.24961882
_cell_formula_units_Z   2
loop_
 _symmetry_equiv_pos_site_id
 _symmetry_equiv_pos_as_xyz
  1  'x, y, z'
loop_
 _atom_site_type_symbol
 _atom_site_label
 _atom_site_symmetry_multiplicity
 _atom_site_fract_x
 _atom_site_fract_y
 _atom_site_fract_z
 _atom_site_occupancy
  Lu  Lu0  1  0.500000  0.317390  0.411605  1
  Lu  Lu1  1  0.500000  0.682610  0.588395  1
  Lu  Lu2  1  0.500000  0.175381  0.917176  1
  Lu  Lu3  1  0.500000  0.824619  0.082824  1
  Lu  Lu4  1  0.500000  0.443200  0.126751  1
  Lu  Lu5  1  0.500000  0.556800  0.873249  1
  Lu  Lu6  1  0.500000  0.055224  0.627949  1
  Lu  Lu7  1  0.500000  0.944776  0.372051  1
  B  B8  1  0.000000  0.105160  0.472339  1
  B  B9  1  0.000000  0.894840  0.527661  1
  B  B10  1  0.000000  0.396336  0.970506  1
  B  B11  1  0.000000  0.603664  0.029494  1
  B  B12  1  0.000000  0.131862  0.318395  1
  B  B13  1  0.000000  0.868138  0.681605  1
  B  B14  1  0.000000  0.369001  0.816412  1
  B  B15  1  0.000000  0.630999  0.183588  1
  B  B16  1  0.000000  0.051509  0.065529  1
  B  B17  1  0.000000  0.948491  0.934471  1
  B  B18  1  0.000000  0.446229  0.564798  1
  B  B19  1  0.000000  0.553771  0.435202  1
  B  B20  1  0.000000  0.482347  0.288441  1
  B  B21  1  0.000000  0.517653  0.711559  1
  B  B22  1  0.000000  0.022008  0.786230  1
  B  B23  1  0.000000  0.977992  0.213770  1
  B  B24  1  0.000000  0.251141  0.078800  1
  B  B25  1  0.000000  0.748859  0.921200  1
  B  B26  1  0.000000  0.249929  0.578663  1
  B  B27  1  0.000000  0.750071  0.421337  1
  B  B28  1  0.000000  0.296295  0.237293  1
  B  B29  1  0.000000  0.703705  0.762707  1
  B  B30  1  0.000000  0.208818  0.734621  1
  B  B31  1  0.000000  0.791182  0.265379  1
  Mo  Mo32  1  0.500000  0.139059  0.181305  1
  Mo  Mo33  1  0.500000  0.860941  0.818695  1
  Rh  Rh34  1  0.500000  0.362410  0.677998  1
  Rh  Rh35  1  0.500000  0.637590  0.322002  1
