# generated using pymatgen
data_Ho12CdInFe4
_symmetry_space_group_name_H-M   'P 1'
_cell_length_a   8.35515698
_cell_length_b   8.35514192
_cell_length_c   8.35515828
_cell_angle_alpha   111.33662235
_cell_angle_beta   110.39611890
_cell_angle_gamma   106.71706916
_symmetry_Int_Tables_number   1
_chemical_formula_structural   Ho12CdInFe4
_chemical_formula_sum   'Ho12 Cd1 In1 Fe4'
_cell_volume   448.18917280
_cell_formula_units_Z   1
loop_
 _symmetry_equiv_pos_site_id
 _symmetry_equiv_pos_as_xyz
  1  'x, y, z'
loop_
 _atom_site_type_symbol
 _atom_site_label
 _atom_site_symmetry_multiplicity
 _atom_site_fract_x
 _atom_site_fract_y
 _atom_site_fract_z
 _atom_site_occupancy
  Ho  Ho0  1  0.311246  0.609877  0.298631  1
  Ho  Ho1  1  0.688754  0.390123  0.701369  1
  Ho  Ho2  1  0.311243  0.012613  0.701370  1
  Ho  Ho3  1  0.688757  0.987387  0.298630  1
  Ho  Ho4  1  0.188505  0.289403  0.477907  1
  Ho  Ho5  1  0.811495  0.710597  0.522093  1
  Ho  Ho6  1  0.188504  0.710597  0.899102  1
  Ho  Ho7  1  0.811496  0.289403  0.100898  1
  Ho  Ho8  1  0.439978  0.228685  0.211293  1
  Ho  Ho9  1  0.560022  0.771315  0.788707  1
  Ho  Ho10  1  0.017393  0.228685  0.788708  1
  Ho  Ho11  1  0.982607  0.771315  0.211292  1
  Cd  Cd12  1  0.000000  0.000000  0.000000  1
  In  In13  1  0.500000  0.500000  0.000000  1
  Fe  Fe14  1  0.108403  0.608403  0.500000  1
  Fe  Fe15  1  0.891597  0.391597  0.500000  1
  Fe  Fe16  1  0.385165  0.000000  0.385165  1
  Fe  Fe17  1  0.614835  0.000000  0.614835  1
