# generated using pymatgen
data_Yb3SmTi4O12
_symmetry_space_group_name_H-M   'P 1'
_cell_length_a   5.36803194
_cell_length_b   5.51748800
_cell_length_c   7.67020600
_cell_angle_alpha   90.00000000
_cell_angle_beta   90.00000000
_cell_angle_gamma   89.90243699
_symmetry_Int_Tables_number   1
_chemical_formula_structural   Yb3SmTi4O12
_chemical_formula_sum   'Yb3 Sm1 Ti4 O12'
_cell_volume   227.17622960
_cell_formula_units_Z   1
loop_
 _symmetry_equiv_pos_site_id
 _symmetry_equiv_pos_as_xyz
  1  'x, y, z'
loop_
 _atom_site_type_symbol
 _atom_site_label
 _atom_site_symmetry_multiplicity
 _atom_site_fract_x
 _atom_site_fract_y
 _atom_site_fract_z
 _atom_site_occupancy
  Yb  Yb0  1  0.512862  0.946742  0.750000  1
  Yb  Yb1  1  0.487575  0.052349  0.250000  1
  Yb  Yb2  1  0.012104  0.553405  0.250000  1
  Sm  Sm3  1  0.988431  0.445958  0.750000  1
  Ti  Ti4  1  0.000987  0.998311  0.003705  1
  Ti  Ti5  1  0.000987  0.998311  0.496295  1
  Ti  Ti6  1  0.498178  0.500942  0.004447  1
  Ti  Ti7  1  0.498178  0.500942  0.495553  1
  O  O8  1  0.086667  0.021801  0.750000  1
  O  O9  1  0.202305  0.296015  0.044147  1
  O  O10  1  0.202305  0.296015  0.455853  1
  O  O11  1  0.295076  0.793568  0.454121  1
  O  O12  1  0.295076  0.793568  0.045879  1
  O  O13  1  0.414603  0.524495  0.750000  1
  O  O14  1  0.586024  0.475395  0.250000  1
  O  O15  1  0.706589  0.208308  0.952952  1
  O  O16  1  0.706589  0.208308  0.547048  1
  O  O17  1  0.796190  0.705209  0.545030  1
  O  O18  1  0.796190  0.705209  0.954970  1
  O  O19  1  0.913084  0.975150  0.250000  1
