# generated using pymatgen
data_ScTi3Fe2(Co5B2)2
_symmetry_space_group_name_H-M   'P 1'
_cell_length_a   8.45499736
_cell_length_b   8.45499736
_cell_length_c   2.99484200
_cell_angle_alpha   90.00000000
_cell_angle_beta   90.00000000
_cell_angle_gamma   89.58160083
_symmetry_Int_Tables_number   1
_chemical_formula_structural   ScTi3Fe2(Co5B2)2
_chemical_formula_sum   'Sc1 Ti3 Fe2 Co10 B4'
_cell_volume   214.08650287
_cell_formula_units_Z   1
loop_
 _symmetry_equiv_pos_site_id
 _symmetry_equiv_pos_as_xyz
  1  'x, y, z'
loop_
 _atom_site_type_symbol
 _atom_site_label
 _atom_site_symmetry_multiplicity
 _atom_site_fract_x
 _atom_site_fract_y
 _atom_site_fract_z
 _atom_site_occupancy
  Sc  Sc0  1  0.676354  0.176354  0.000000  1
  Ti  Ti1  1  0.323347  0.823347  0.000000  1
  Ti  Ti2  1  0.176473  0.324928  0.000000  1
  Ti  Ti3  1  0.824928  0.676473  0.000000  1
  Fe  Fe4  1  0.499696  0.498767  0.000000  1
  Fe  Fe5  1  0.998767  0.999696  0.000000  1
  Co  Co6  1  0.568484  0.714877  0.500000  1
  Co  Co7  1  0.421859  0.282665  0.500000  1
  Co  Co8  1  0.071206  0.783493  0.500000  1
  Co  Co9  1  0.939670  0.222151  0.500000  1
  Co  Co10  1  0.283493  0.571206  0.500000  1
  Co  Co11  1  0.722151  0.439670  0.500000  1
  Co  Co12  1  0.214877  0.068484  0.500000  1
  Co  Co13  1  0.782665  0.921859  0.500000  1
  Co  Co14  1  0.494561  0.994561  0.500000  1
  Co  Co15  1  0.003178  0.503178  0.500000  1
  B  B16  1  0.123030  0.623030  0.000000  1
  B  B17  1  0.883683  0.383683  0.000000  1
  B  B18  1  0.618086  0.873492  0.000000  1
  B  B19  1  0.373492  0.118086  0.000000  1
