# generated using pymatgen
data_Dy3HoLu16(CoSb2)4
_symmetry_space_group_name_H-M   'P 1'
_cell_length_a   7.69698804
_cell_length_b   8.70943200
_cell_length_c   11.95676607
_cell_angle_alpha   90.00000000
_cell_angle_beta   90.01235737
_cell_angle_gamma   90.00000000
_symmetry_Int_Tables_number   1
_chemical_formula_structural   Dy3HoLu16(CoSb2)4
_chemical_formula_sum   'Dy3 Ho1 Lu16 Co4 Sb8'
_cell_volume   801.53846233
_cell_formula_units_Z   1
loop_
 _symmetry_equiv_pos_site_id
 _symmetry_equiv_pos_as_xyz
  1  'x, y, z'
loop_
 _atom_site_type_symbol
 _atom_site_label
 _atom_site_symmetry_multiplicity
 _atom_site_fract_x
 _atom_site_fract_y
 _atom_site_fract_z
 _atom_site_occupancy
  Dy  Dy0  1  0.878042  0.750000  0.807760  1
  Dy  Dy1  1  0.378113  0.250000  0.692179  1
  Dy  Dy2  1  0.121944  0.250000  0.192216  1
  Ho  Ho3  1  0.621637  0.750000  0.308061  1
  Lu  Lu4  1  0.155491  0.750000  0.203946  1
  Lu  Lu5  1  0.344631  0.750000  0.703909  1
  Lu  Lu6  1  0.844627  0.250000  0.796122  1
  Lu  Lu7  1  0.655331  0.250000  0.296138  1
  Lu  Lu8  1  0.446806  0.750000  0.997786  1
  Lu  Lu9  1  0.053060  0.750000  0.497767  1
  Lu  Lu10  1  0.553133  0.250000  0.002216  1
  Lu  Lu11  1  0.946651  0.250000  0.502205  1
  Lu  Lu12  1  0.824059  0.537203  0.065332  1
  Lu  Lu13  1  0.675922  0.962520  0.565173  1
  Lu  Lu14  1  0.175923  0.037443  0.934694  1
  Lu  Lu15  1  0.324268  0.462966  0.434621  1
  Lu  Lu16  1  0.175923  0.462557  0.934694  1
  Lu  Lu17  1  0.324268  0.037034  0.434621  1
  Lu  Lu18  1  0.824059  0.962797  0.065332  1
  Lu  Lu19  1  0.675922  0.537480  0.565173  1
  Co  Co20  1  0.431982  0.750000  0.491721  1
  Co  Co21  1  0.068134  0.750000  0.991884  1
  Co  Co22  1  0.568159  0.250000  0.508088  1
  Co  Co23  1  0.931842  0.250000  0.008131  1
  Sb  Sb24  1  0.930762  0.508761  0.328941  1
  Sb  Sb25  1  0.568992  0.991438  0.828980  1
  Sb  Sb26  1  0.068948  0.008584  0.671048  1
  Sb  Sb27  1  0.431334  0.491672  0.171146  1
  Sb  Sb28  1  0.068948  0.491416  0.671048  1
  Sb  Sb29  1  0.431334  0.008328  0.171146  1
  Sb  Sb30  1  0.930762  0.991239  0.328941  1
  Sb  Sb31  1  0.568992  0.508562  0.828980  1
