# generated using pymatgen
data_HoEr7(Sc3Ge4)4
_symmetry_space_group_name_H-M   'P 1'
_cell_length_a   7.22285668
_cell_length_b   7.45058752
_cell_length_c   14.05100871
_cell_angle_alpha   89.99765687
_cell_angle_beta   90.16360492
_cell_angle_gamma   89.94671596
_symmetry_Int_Tables_number   1
_chemical_formula_structural   HoEr7(Sc3Ge4)4
_chemical_formula_sum   'Ho1 Er7 Sc12 Ge16'
_cell_volume   756.14496016
_cell_formula_units_Z   1
loop_
 _symmetry_equiv_pos_site_id
 _symmetry_equiv_pos_as_xyz
  1  'x, y, z'
loop_
 _atom_site_type_symbol
 _atom_site_label
 _atom_site_symmetry_multiplicity
 _atom_site_fract_x
 _atom_site_fract_y
 _atom_site_fract_z
 _atom_site_occupancy
  Ho  Ho0  1  0.500572  0.676905  0.596070  1
  Er  Er1  1  0.998278  0.177344  0.096108  1
  Er  Er2  1  0.001739  0.822662  0.903926  1
  Er  Er3  1  0.501928  0.677487  0.903651  1
  Er  Er4  1  0.001234  0.823319  0.596156  1
  Er  Er5  1  0.498140  0.322735  0.096054  1
  Er  Er6  1  0.998644  0.176787  0.403686  1
  Er  Er7  1  0.499140  0.322654  0.403789  1
  Sc  Sc8  1  0.176741  0.499578  0.750464  1
  Sc  Sc9  1  0.823304  0.500369  0.249749  1
  Sc  Sc10  1  0.323126  0.000035  0.249781  1
  Sc  Sc11  1  0.676706  0.000248  0.750411  1
  Sc  Sc12  1  0.342706  0.168515  0.624661  1
  Sc  Sc13  1  0.657438  0.831820  0.375599  1
  Sc  Sc14  1  0.157329  0.668911  0.375256  1
  Sc  Sc15  1  0.656284  0.832199  0.124634  1
  Sc  Sc16  1  0.842661  0.330901  0.625138  1
  Sc  Sc17  1  0.343809  0.167914  0.875923  1
  Sc  Sc18  1  0.844007  0.332020  0.875740  1
  Sc  Sc19  1  0.156247  0.667927  0.124789  1
  Ge  Ge20  1  0.042170  0.124263  0.749974  1
  Ge  Ge21  1  0.958203  0.875854  0.249871  1
  Ge  Ge22  1  0.458791  0.624732  0.250073  1
  Ge  Ge23  1  0.541873  0.375083  0.749919  1
  Ge  Ge24  1  0.306479  0.860696  0.750054  1
  Ge  Ge25  1  0.692393  0.139663  0.249858  1
  Ge  Ge26  1  0.192626  0.360639  0.249992  1
  Ge  Ge27  1  0.807367  0.639725  0.749741  1
  Ge  Ge28  1  0.178574  0.458986  0.541208  1
  Ge  Ge29  1  0.821070  0.540238  0.458455  1
  Ge  Ge30  1  0.319377  0.959384  0.458371  1
  Ge  Ge31  1  0.817806  0.540932  0.041364  1
  Ge  Ge32  1  0.680635  0.040517  0.541381  1
  Ge  Ge33  1  0.182694  0.459677  0.958355  1
  Ge  Ge34  1  0.682399  0.040488  0.958370  1
  Ge  Ge35  1  0.317507  0.958793  0.041431  1
