# generated using pymatgen
data_PuU5(Co3Sb4)2
_symmetry_space_group_name_H-M   'P 1'
_cell_length_a   8.09299215
_cell_length_b   8.09299224
_cell_length_c   8.09299392
_cell_angle_alpha   109.36042505
_cell_angle_beta   109.69303014
_cell_angle_gamma   109.36042764
_symmetry_Int_Tables_number   1
_chemical_formula_structural   PuU5(Co3Sb4)2
_chemical_formula_sum   'Pu1 U5 Co6 Sb8'
_cell_volume   408.03810302
_cell_formula_units_Z   1
loop_
 _symmetry_equiv_pos_site_id
 _symmetry_equiv_pos_as_xyz
  1  'x, y, z'
loop_
 _atom_site_type_symbol
 _atom_site_label
 _atom_site_symmetry_multiplicity
 _atom_site_fract_x
 _atom_site_fract_y
 _atom_site_fract_z
 _atom_site_occupancy
  Pu  Pu0  1  0.875000  0.250000  0.125000  1
  U  U1  1  0.625000  0.750000  0.375000  1
  U  U2  1  0.248250  0.124436  0.874591  1
  U  U3  1  0.750155  0.375564  0.623814  1
  U  U4  1  0.125409  0.873659  0.249845  1
  U  U5  1  0.376186  0.626341  0.751750  1
  Co  Co6  1  0.375000  0.250000  0.625000  1
  Co  Co7  1  0.125000  0.750000  0.875000  1
  Co  Co8  1  0.266757  0.637979  0.382796  1
  Co  Co9  1  0.744817  0.862021  0.128778  1
  Co  Co10  1  0.617204  0.383962  0.255183  1
  Co  Co11  1  0.871222  0.116038  0.733243  1
  Sb  Sb12  1  0.663834  0.496247  0.998818  1
  Sb  Sb13  1  0.502572  0.003753  0.667587  1
  Sb  Sb14  1  0.001005  0.662507  0.498412  1
  Sb  Sb15  1  0.835905  0.837493  0.838499  1
  Sb  Sb16  1  0.501588  0.002594  0.164095  1
  Sb  Sb17  1  0.161501  0.497406  0.998995  1
  Sb  Sb18  1  0.001182  0.165015  0.497428  1
  Sb  Sb19  1  0.332413  0.334985  0.336166  1
