# generated using pymatgen
data_PrTh(BRu)4
_symmetry_space_group_name_H-M   'P 1'
_cell_length_a   6.80842627
_cell_length_b   6.02235536
_cell_length_c   5.60387200
_cell_angle_alpha   71.58915954
_cell_angle_beta   57.06314365
_cell_angle_gamma   51.34769153
_symmetry_Int_Tables_number   1
_chemical_formula_structural   PrTh(BRu)4
_chemical_formula_sum   'Pr1 Th1 B4 Ru4'
_cell_volume   150.50152139
_cell_formula_units_Z   1
loop_
 _symmetry_equiv_pos_site_id
 _symmetry_equiv_pos_as_xyz
  1  'x, y, z'
loop_
 _atom_site_type_symbol
 _atom_site_label
 _atom_site_symmetry_multiplicity
 _atom_site_fract_x
 _atom_site_fract_y
 _atom_site_fract_z
 _atom_site_occupancy
  Pr  Pr0  1  0.000000  0.000000  0.000000  1
  Th  Th1  1  0.250000  0.250000  0.250000  1
  B  B2  1  0.317013  0.682987  0.317013  1
  B  B3  1  0.682987  0.317013  0.682987  1
  B  B4  1  0.568655  0.931345  0.568655  1
  B  B5  1  0.931345  0.568655  0.931345  1
  Ru  Ru6  1  0.636830  0.636830  0.363170  1
  Ru  Ru7  1  0.363170  0.363170  0.636830  1
  Ru  Ru8  1  0.613648  0.613648  0.886352  1
  Ru  Ru9  1  0.886352  0.886352  0.613648  1
