# generated using pymatgen
data_CaGdB12
_symmetry_space_group_name_H-M   'P 1'
_cell_length_a   4.12155700
_cell_length_b   4.12180700
_cell_length_c   8.25104900
_cell_angle_alpha   89.99975688
_cell_angle_beta   89.99815895
_cell_angle_gamma   90.00405911
_symmetry_Int_Tables_number   1
_chemical_formula_structural   CaGdB12
_chemical_formula_sum   'Ca1 Gd1 B12'
_cell_volume   140.17098605
_cell_formula_units_Z   1
loop_
 _symmetry_equiv_pos_site_id
 _symmetry_equiv_pos_as_xyz
  1  'x, y, z'
loop_
 _atom_site_type_symbol
 _atom_site_label
 _atom_site_symmetry_multiplicity
 _atom_site_fract_x
 _atom_site_fract_y
 _atom_site_fract_z
 _atom_site_occupancy
  Ca  Ca0  1  0.000000  0.000000  0.500000  1
  Gd  Gd1  1  0.000000  0.000000  0.000000  1
  B  B2  1  0.200118  0.499992  0.249102  1
  B  B3  1  0.200117  0.499994  0.750899  1
  B  B4  1  0.499999  0.499998  0.399365  1
  B  B5  1  0.499999  0.499998  0.900493  1
  B  B6  1  0.499994  0.200116  0.249102  1
  B  B7  1  0.499993  0.200118  0.750900  1
  B  B8  1  0.500001  0.500002  0.099507  1
  B  B9  1  0.500001  0.500002  0.600635  1
  B  B10  1  0.500007  0.799882  0.249100  1
  B  B11  1  0.500006  0.799884  0.750898  1
  B  B12  1  0.799883  0.500006  0.249101  1
  B  B13  1  0.799882  0.500008  0.750898  1
