# generated using pymatgen
data_NpScTc5B4
_symmetry_space_group_name_H-M   'P 1'
_cell_length_a   3.09660400
_cell_length_b   8.66138738
_cell_length_c   10.15155062
_cell_angle_alpha   89.75952645
_cell_angle_beta   90.00000000
_cell_angle_gamma   90.00000000
_symmetry_Int_Tables_number   1
_chemical_formula_structural   NpScTc5B4
_chemical_formula_sum   'Np2 Sc2 Tc10 B8'
_cell_volume   272.27119216
_cell_formula_units_Z   2
loop_
 _symmetry_equiv_pos_site_id
 _symmetry_equiv_pos_as_xyz
  1  'x, y, z'
loop_
 _atom_site_type_symbol
 _atom_site_label
 _atom_site_symmetry_multiplicity
 _atom_site_fract_x
 _atom_site_fract_y
 _atom_site_fract_z
 _atom_site_occupancy
  Np  Np0  1  0.500000  0.838495  0.182822  1
  Np  Np1  1  0.500000  0.161505  0.817178  1
  Sc  Sc2  1  0.500000  0.660365  0.679038  1
  Sc  Sc3  1  0.500000  0.339635  0.320962  1
  Tc  Tc4  1  0.000000  0.658337  0.951826  1
  Tc  Tc5  1  0.000000  0.341663  0.048174  1
  Tc  Tc6  1  0.000000  0.841354  0.455439  1
  Tc  Tc7  1  0.000000  0.158646  0.544561  1
  Tc  Tc8  1  0.000000  0.000000  0.000000  1
  Tc  Tc9  1  0.000000  0.400536  0.759835  1
  Tc  Tc10  1  0.000000  0.599464  0.240165  1
  Tc  Tc11  1  0.000000  0.500000  0.500000  1
  Tc  Tc12  1  0.000000  0.910511  0.739170  1
  Tc  Tc13  1  0.000000  0.089489  0.260830  1
  B  B14  1  0.500000  0.966031  0.585206  1
  B  B15  1  0.500000  0.033969  0.414794  1
  B  B16  1  0.500000  0.843874  0.895928  1
  B  B17  1  0.500000  0.156126  0.104072  1
  B  B18  1  0.500000  0.651502  0.407701  1
  B  B19  1  0.500000  0.348498  0.592299  1
  B  B20  1  0.500000  0.468630  0.913085  1
  B  B21  1  0.500000  0.531370  0.086915  1
