# generated using pymatgen
data_BaPa4TlTe10
_symmetry_space_group_name_H-M   'P 1'
_cell_length_a   9.56638222
_cell_length_b   9.56638094
_cell_length_c   9.56638200
_cell_angle_alpha   128.27453461
_cell_angle_beta   128.27453621
_cell_angle_gamma   76.18071797
_symmetry_Int_Tables_number   1
_chemical_formula_structural   BaPa4TlTe10
_chemical_formula_sum   'Ba1 Pa4 Tl1 Te10'
_cell_volume   524.44943091
_cell_formula_units_Z   1
loop_
 _symmetry_equiv_pos_site_id
 _symmetry_equiv_pos_as_xyz
  1  'x, y, z'
loop_
 _atom_site_type_symbol
 _atom_site_label
 _atom_site_symmetry_multiplicity
 _atom_site_fract_x
 _atom_site_fract_y
 _atom_site_fract_z
 _atom_site_occupancy
  Ba  Ba0  1  0.250000  0.250000  0.000000  1
  Pa  Pa1  1  0.650800  0.150800  0.801600  1
  Pa  Pa2  1  0.349200  0.849200  0.198400  1
  Pa  Pa3  1  0.150800  0.349200  0.500000  1
  Pa  Pa4  1  0.849200  0.650800  0.500000  1
  Tl  Tl5  1  0.750000  0.750000  0.000000  1
  Te  Te6  1  0.013388  0.517417  0.797951  1
  Te  Te7  1  0.719465  0.215435  0.202049  1
  Te  Te8  1  0.517417  0.719465  0.504029  1
  Te  Te9  1  0.215435  0.013388  0.495971  1
  Te  Te10  1  0.982583  0.486612  0.202049  1
  Te  Te11  1  0.284565  0.780535  0.797951  1
  Te  Te12  1  0.486612  0.284565  0.504029  1
  Te  Te13  1  0.780535  0.982583  0.495971  1
  Te  Te14  1  0.003051  0.003051  0.000000  1
  Te  Te15  1  0.496949  0.496949  0.000000  1
