# generated using pymatgen
data_Ca2ErTm3(SiRh2)6
_symmetry_space_group_name_H-M   'P 1'
_cell_length_a   5.57396400
_cell_length_b   5.57396313
_cell_length_c   14.93104000
_cell_angle_alpha   90.00000000
_cell_angle_beta   90.00000000
_cell_angle_gamma   119.99999328
_symmetry_Int_Tables_number   1
_chemical_formula_structural   Ca2ErTm3(SiRh2)6
_chemical_formula_sum   'Ca2 Er1 Tm3 Si6 Rh12'
_cell_volume   401.74360413
_cell_formula_units_Z   1
loop_
 _symmetry_equiv_pos_site_id
 _symmetry_equiv_pos_as_xyz
  1  'x, y, z'
loop_
 _atom_site_type_symbol
 _atom_site_label
 _atom_site_symmetry_multiplicity
 _atom_site_fract_x
 _atom_site_fract_y
 _atom_site_fract_z
 _atom_site_occupancy
  Ca  Ca0  1  0.333333  0.666667  0.749533  1
  Ca  Ca1  1  0.666667  0.333333  0.250328  1
  Er  Er2  1  0.333333  0.666667  0.960049  1
  Tm  Tm3  1  0.333333  0.666667  0.539618  1
  Tm  Tm4  1  0.666667  0.333333  0.460104  1
  Tm  Tm5  1  0.666667  0.333333  0.040280  1
  Si  Si6  1  0.000000  0.000000  0.250337  1
  Si  Si7  1  0.000000  0.000000  0.749642  1
  Si  Si8  1  0.333333  0.666667  0.250274  1
  Si  Si9  1  0.666667  0.333333  0.749700  1
  Si  Si10  1  0.000000  0.000000  0.000200  1
  Si  Si11  1  0.000000  0.000000  0.499872  1
  Rh  Rh12  1  0.166884  0.333768  0.129115  1
  Rh  Rh13  1  0.833050  0.666099  0.871211  1
  Rh  Rh14  1  0.666232  0.833116  0.129115  1
  Rh  Rh15  1  0.833004  0.666006  0.627918  1
  Rh  Rh16  1  0.333901  0.166950  0.871211  1
  Rh  Rh17  1  0.166982  0.333964  0.371778  1
  Rh  Rh18  1  0.166884  0.833116  0.129115  1
  Rh  Rh19  1  0.333994  0.166996  0.627918  1
  Rh  Rh20  1  0.833050  0.166950  0.871211  1
  Rh  Rh21  1  0.666036  0.833018  0.371778  1
  Rh  Rh22  1  0.833004  0.166996  0.627918  1
  Rh  Rh23  1  0.166982  0.833018  0.371778  1
