# generated using pymatgen
data_Zr6Zn21GaAu2
_symmetry_space_group_name_H-M   'P 1'
_cell_length_a   8.83053372
_cell_length_b   8.83053319
_cell_length_c   8.84842300
_cell_angle_alpha   59.93296472
_cell_angle_beta   59.93296673
_cell_angle_gamma   60.33552429
_symmetry_Int_Tables_number   1
_chemical_formula_structural   Zr6Zn21GaAu2
_chemical_formula_sum   'Zr6 Zn21 Ga1 Au2'
_cell_volume   488.61960396
_cell_formula_units_Z   1
loop_
 _symmetry_equiv_pos_site_id
 _symmetry_equiv_pos_as_xyz
  1  'x, y, z'
loop_
 _atom_site_type_symbol
 _atom_site_label
 _atom_site_symmetry_multiplicity
 _atom_site_fract_x
 _atom_site_fract_y
 _atom_site_fract_z
 _atom_site_occupancy
  Zr  Zr0  1  0.714098  0.285902  0.281263  1
  Zr  Zr1  1  0.285902  0.714098  0.718737  1
  Zr  Zr2  1  0.285902  0.714098  0.281263  1
  Zr  Zr3  1  0.714098  0.285902  0.718737  1
  Zr  Zr4  1  0.279915  0.279915  0.720085  1
  Zr  Zr5  1  0.720085  0.720085  0.279915  1
  Zn  Zn6  1  0.126543  0.126543  0.125545  1
  Zn  Zn7  1  0.873457  0.873457  0.874455  1
  Zn  Zn8  1  0.126543  0.126543  0.621372  1
  Zn  Zn9  1  0.128362  0.621275  0.125182  1
  Zn  Zn10  1  0.873457  0.873457  0.378628  1
  Zn  Zn11  1  0.871638  0.378725  0.874818  1
  Zn  Zn12  1  0.621275  0.128362  0.125182  1
  Zn  Zn13  1  0.378725  0.871638  0.874818  1
  Zn  Zn14  1  0.500000  0.000000  0.000000  1
  Zn  Zn15  1  0.000000  0.500000  0.500000  1
  Zn  Zn16  1  0.000000  0.500000  0.000000  1
  Zn  Zn17  1  0.500000  0.000000  0.500000  1
  Zn  Zn18  1  0.500000  0.500000  0.000000  1
  Zn  Zn19  1  0.341186  0.341186  0.344163  1
  Zn  Zn20  1  0.658814  0.658814  0.655837  1
  Zn  Zn21  1  0.341186  0.341186  0.973468  1
  Zn  Zn22  1  0.349587  0.968054  0.341180  1
  Zn  Zn23  1  0.658814  0.658814  0.026532  1
  Zn  Zn24  1  0.650413  0.031946  0.658820  1
  Zn  Zn25  1  0.968054  0.349587  0.341180  1
  Zn  Zn26  1  0.031946  0.650413  0.658820  1
  Ga  Ga27  1  0.500000  0.500000  0.500000  1
  Au  Au28  1  0.000000  0.000000  0.500000  1
  Au  Au29  1  0.000000  0.000000  0.000000  1
