# generated using pymatgen
data_Yb5InNi2
_symmetry_space_group_name_H-M   'P 1'
_cell_length_a   8.87330946
_cell_length_b   8.87330905
_cell_length_c   8.87330965
_cell_angle_alpha   129.14455665
_cell_angle_beta   129.14455513
_cell_angle_gamma   74.77808764
_symmetry_Int_Tables_number   1
_chemical_formula_structural   Yb5InNi2
_chemical_formula_sum   'Yb10 In2 Ni4'
_cell_volume   409.35050033
_cell_formula_units_Z   2
loop_
 _symmetry_equiv_pos_site_id
 _symmetry_equiv_pos_as_xyz
  1  'x, y, z'
loop_
 _atom_site_type_symbol
 _atom_site_label
 _atom_site_symmetry_multiplicity
 _atom_site_fract_x
 _atom_site_fract_y
 _atom_site_fract_z
 _atom_site_occupancy
  Yb  Yb0  1  0.000000  0.000000  0.000000  1
  Yb  Yb1  1  0.500000  0.500000  0.000000  1
  Yb  Yb2  1  0.800106  0.300106  0.837781  1
  Yb  Yb3  1  0.199894  0.699894  0.162219  1
  Yb  Yb4  1  0.462324  0.962324  0.162219  1
  Yb  Yb5  1  0.300106  0.462324  0.500000  1
  Yb  Yb6  1  0.037676  0.199894  0.500000  1
  Yb  Yb7  1  0.537676  0.037676  0.837781  1
  Yb  Yb8  1  0.699894  0.537676  0.500000  1
  Yb  Yb9  1  0.962324  0.800106  0.500000  1
  In  In10  1  0.250000  0.250000  0.000000  1
  In  In11  1  0.750000  0.750000  0.000000  1
  Ni  Ni12  1  0.114944  0.614944  0.729888  1
  Ni  Ni13  1  0.885056  0.385056  0.270112  1
  Ni  Ni14  1  0.614944  0.885056  0.500000  1
  Ni  Ni15  1  0.385056  0.114944  0.500000  1
