# generated using pymatgen
data_Na2Tm3Zr3(Ni4As3)4
_symmetry_space_group_name_H-M   'P 1'
_cell_length_a   12.75070600
_cell_length_b   12.75070589
_cell_length_c   3.89244400
_cell_angle_alpha   90.00000000
_cell_angle_beta   90.00000000
_cell_angle_gamma   119.99840225
_symmetry_Int_Tables_number   1
_chemical_formula_structural   Na2Tm3Zr3(Ni4As3)4
_chemical_formula_sum   'Na2 Tm3 Zr3 Ni16 As12'
_cell_volume   548.06044293
_cell_formula_units_Z   1
loop_
 _symmetry_equiv_pos_site_id
 _symmetry_equiv_pos_as_xyz
  1  'x, y, z'
loop_
 _atom_site_type_symbol
 _atom_site_label
 _atom_site_symmetry_multiplicity
 _atom_site_fract_x
 _atom_site_fract_y
 _atom_site_fract_z
 _atom_site_occupancy
  Na  Na0  1  0.666694  0.333343  0.000000  1
  Na  Na1  1  0.333344  0.666694  0.000000  1
  Tm  Tm2  1  0.181879  0.999970  0.500000  1
  Tm  Tm3  1  0.999970  0.181879  0.500000  1
  Tm  Tm4  1  0.818133  0.818133  0.500000  1
  Zr  Zr5  1  0.562213  0.999986  0.000000  1
  Zr  Zr6  1  0.437786  0.437785  0.000000  1
  Zr  Zr7  1  0.999986  0.562213  0.000000  1
  Ni  Ni8  1  0.999978  0.999978  0.000000  1
  Ni  Ni9  1  0.807687  0.182329  0.000000  1
  Ni  Ni10  1  0.374618  0.192305  0.000000  1
  Ni  Ni11  1  0.192305  0.374618  0.000000  1
  Ni  Ni12  1  0.817650  0.625349  0.000000  1
  Ni  Ni13  1  0.182329  0.807687  0.000000  1
  Ni  Ni14  1  0.625349  0.817649  0.000000  1
  Ni  Ni15  1  0.723630  0.000002  0.500000  1
  Ni  Ni16  1  0.480325  0.120273  0.500000  1
  Ni  Ni17  1  0.276370  0.276370  0.500000  1
  Ni  Ni18  1  0.879739  0.360071  0.500000  1
  Ni  Ni19  1  0.120273  0.480325  0.500000  1
  Ni  Ni20  1  0.639954  0.519686  0.500000  1
  Ni  Ni21  1  0.519686  0.639954  0.500000  1
  Ni  Ni22  1  0.000002  0.723629  0.500000  1
  Ni  Ni23  1  0.360071  0.879739  0.500000  1
  As  As24  1  0.352986  0.000036  0.000000  1
  As  As25  1  0.823166  0.000001  0.000000  1
  As  As26  1  0.176836  0.176836  0.000000  1
  As  As27  1  0.000036  0.352986  0.000000  1
  As  As28  1  0.647076  0.647076  0.000000  1
  As  As29  1  0.000001  0.823166  0.000000  1
  As  As30  1  0.692711  0.173003  0.500000  1
  As  As31  1  0.480305  0.307303  0.500000  1
  As  As32  1  0.307303  0.480305  0.500000  1
  As  As33  1  0.827009  0.519709  0.500000  1
  As  As34  1  0.173003  0.692711  0.500000  1
  As  As35  1  0.519709  0.827009  0.500000  1
