# generated using pymatgen
data_Ac3(ReO5)2
_symmetry_space_group_name_H-M   'P 1'
_cell_length_a   5.73648576
_cell_length_b   5.73647923
_cell_length_c   7.37498907
_cell_angle_alpha   72.25998007
_cell_angle_beta   72.26029403
_cell_angle_gamma   89.89054950
_symmetry_Int_Tables_number   1
_chemical_formula_structural   Ac3(ReO5)2
_chemical_formula_sum   'Ac3 Re2 O10'
_cell_volume   219.05043549
_cell_formula_units_Z   1
loop_
 _symmetry_equiv_pos_site_id
 _symmetry_equiv_pos_as_xyz
  1  'x, y, z'
loop_
 _atom_site_type_symbol
 _atom_site_label
 _atom_site_symmetry_multiplicity
 _atom_site_fract_x
 _atom_site_fract_y
 _atom_site_fract_z
 _atom_site_occupancy
  Ac  Ac0  1  0.255984  0.744009  0.500000  1
  Ac  Ac1  1  0.744016  0.255991  0.500000  1
  Ac  Ac2  1  0.000000  0.000000  0.000000  1
  Re  Re3  1  0.632771  0.632774  0.826178  1
  Re  Re4  1  0.367229  0.367226  0.173822  1
  O  O5  1  0.671496  0.671503  0.534665  1
  O  O6  1  0.328504  0.328497  0.465335  1
  O  O7  1  0.135273  0.599079  0.210386  1
  O  O8  1  0.400917  0.864727  0.789616  1
  O  O9  1  0.864727  0.400921  0.789614  1
  O  O10  1  0.355738  0.355733  0.908168  1
  O  O11  1  0.644262  0.644267  0.091832  1
  O  O12  1  0.099930  0.099930  0.278584  1
  O  O13  1  0.900070  0.900070  0.721416  1
  O  O14  1  0.599083  0.135273  0.210384  1
