# generated using pymatgen
data_Tm4Pa4Re(B8W)3
_symmetry_space_group_name_H-M   'P 1'
_cell_length_a   3.72490500
_cell_length_b   9.15993632
_cell_length_c   11.52298540
_cell_angle_alpha   89.96989295
_cell_angle_beta   90.00000000
_cell_angle_gamma   90.00000000
_symmetry_Int_Tables_number   1
_chemical_formula_structural   Tm4Pa4Re(B8W)3
_chemical_formula_sum   'Tm4 Pa4 Re1 B24 W3'
_cell_volume   393.16296973
_cell_formula_units_Z   1
loop_
 _symmetry_equiv_pos_site_id
 _symmetry_equiv_pos_as_xyz
  1  'x, y, z'
loop_
 _atom_site_type_symbol
 _atom_site_label
 _atom_site_symmetry_multiplicity
 _atom_site_fract_x
 _atom_site_fract_y
 _atom_site_fract_z
 _atom_site_occupancy
  Tm  Tm0  1  0.000000  0.945906  0.374583  1
  Tm  Tm1  1  0.000000  0.054394  0.626315  1
  Tm  Tm2  1  0.000000  0.445909  0.125606  1
  Tm  Tm3  1  0.000000  0.554859  0.873977  1
  Pa  Pa4  1  0.000000  0.321143  0.412941  1
  Pa  Pa5  1  0.000000  0.677480  0.585679  1
  Pa  Pa6  1  0.000000  0.821325  0.087598  1
  Pa  Pa7  1  0.000000  0.179607  0.913433  1
  Re  Re8  1  0.000000  0.861289  0.821614  1
  B  B9  1  0.500000  0.553318  0.433278  1
  B  B10  1  0.500000  0.446869  0.567026  1
  B  B11  1  0.500000  0.052924  0.066245  1
  B  B12  1  0.500000  0.945827  0.932206  1
  B  B13  1  0.500000  0.749595  0.420700  1
  B  B14  1  0.500000  0.250385  0.579763  1
  B  B15  1  0.500000  0.249835  0.079423  1
  B  B16  1  0.500000  0.750626  0.919445  1
  B  B17  1  0.500000  0.793911  0.264767  1
  B  B18  1  0.500000  0.205889  0.735309  1
  B  B19  1  0.500000  0.293610  0.235147  1
  B  B20  1  0.500000  0.707533  0.765631  1
  B  B21  1  0.500000  0.632409  0.184202  1
  B  B22  1  0.500000  0.367698  0.815772  1
  B  B23  1  0.500000  0.131872  0.315487  1
  B  B24  1  0.500000  0.868235  0.685231  1
  B  B25  1  0.500000  0.981243  0.213151  1
  B  B26  1  0.500000  0.016945  0.786891  1
  B  B27  1  0.500000  0.481419  0.286611  1
  B  B28  1  0.500000  0.518698  0.713464  1
  B  B29  1  0.500000  0.608828  0.029364  1
  B  B30  1  0.500000  0.391927  0.969884  1
  B  B31  1  0.500000  0.107994  0.470103  1
  B  B32  1  0.500000  0.891817  0.530829  1
  W  W33  1  0.000000  0.639103  0.321387  1
  W  W34  1  0.000000  0.361334  0.679138  1
  W  W35  1  0.000000  0.138243  0.177800  1
