# generated using pymatgen
data_Pr4AsRh3F28
_symmetry_space_group_name_H-M   'P 1'
_cell_length_a   5.71926031
_cell_length_b   9.18017747
_cell_length_c   12.29129742
_cell_angle_alpha   62.03138951
_cell_angle_beta   90.12547431
_cell_angle_gamma   89.66998181
_symmetry_Int_Tables_number   1
_chemical_formula_structural   Pr4AsRh3F28
_chemical_formula_sum   'Pr4 As1 Rh3 F28'
_cell_volume   569.94920989
_cell_formula_units_Z   1
loop_
 _symmetry_equiv_pos_site_id
 _symmetry_equiv_pos_as_xyz
  1  'x, y, z'
loop_
 _atom_site_type_symbol
 _atom_site_label
 _atom_site_symmetry_multiplicity
 _atom_site_fract_x
 _atom_site_fract_y
 _atom_site_fract_z
 _atom_site_occupancy
  Pr  Pr0  1  0.756524  0.815065  0.762588  1
  Pr  Pr1  1  0.256028  0.186748  0.729737  1
  Pr  Pr2  1  0.235548  0.189196  0.246930  1
  Pr  Pr3  1  0.738057  0.802074  0.272551  1
  As  As4  1  0.761134  0.277396  0.953716  1
  Rh  Rh5  1  0.252669  0.720388  0.548178  1
  Rh  Rh6  1  0.242560  0.728650  0.040462  1
  Rh  Rh7  1  0.740238  0.270348  0.460257  1
  F  F8  1  0.449089  0.709617  0.920307  1
  F  F9  1  0.923005  0.288106  0.589763  1
  F  F10  1  0.592444  0.296771  0.066076  1
  F  F11  1  0.056503  0.704521  0.422758  1
  F  F12  1  0.444082  0.279127  0.538928  1
  F  F13  1  0.964470  0.711489  0.953012  1
  F  F14  1  0.536688  0.711784  0.460864  1
  F  F15  1  0.025376  0.283642  0.028907  1
  F  F16  1  0.770187  0.494563  0.866678  1
  F  F17  1  0.263011  0.479056  0.646973  1
  F  F18  1  0.241894  0.483123  0.135723  1
  F  F19  1  0.732362  0.509374  0.363798  1
  F  F20  1  0.759544  0.060663  0.034902  1
  F  F21  1  0.253538  0.961312  0.454837  1
  F  F22  1  0.231270  0.973254  0.943602  1
  F  F23  1  0.734799  0.030860  0.550774  1
  F  F24  1  0.972637  0.721762  0.640050  1
  F  F25  1  0.502347  0.276859  0.873744  1
  F  F26  1  0.031201  0.267197  0.376694  1
  F  F27  1  0.516107  0.740981  0.132468  1
  F  F28  1  0.038742  0.747553  0.162181  1
  F  F29  1  0.565149  0.253750  0.327959  1
  F  F30  1  0.931304  0.266073  0.836639  1
  F  F31  1  0.448093  0.733881  0.675095  1
  F  F32  1  0.422043  0.982381  0.226689  1
  F  F33  1  0.911643  0.034902  0.262294  1
  F  F34  1  0.602006  0.041452  0.770339  1
  F  F35  1  0.097711  0.966083  0.723528  1
