# generated using pymatgen
data_Tb4SnSb5Rh7
_symmetry_space_group_name_H-M   'P 1'
_cell_length_a   7.63249028
_cell_length_b   7.63249147
_cell_length_c   7.63249113
_cell_angle_alpha   109.53349374
_cell_angle_beta   109.44009396
_cell_angle_gamma   109.44009144
_symmetry_Int_Tables_number   1
_chemical_formula_structural   Tb4SnSb5Rh7
_chemical_formula_sum   'Tb4 Sn1 Sb5 Rh7'
_cell_volume   342.27613861
_cell_formula_units_Z   1
loop_
 _symmetry_equiv_pos_site_id
 _symmetry_equiv_pos_as_xyz
  1  'x, y, z'
loop_
 _atom_site_type_symbol
 _atom_site_label
 _atom_site_symmetry_multiplicity
 _atom_site_fract_x
 _atom_site_fract_y
 _atom_site_fract_z
 _atom_site_occupancy
  Tb  Tb0  1  0.498769  0.000502  0.000502  1
  Tb  Tb1  1  0.000000  0.501733  0.000502  1
  Tb  Tb2  1  0.000000  0.000502  0.501733  1
  Tb  Tb3  1  0.501231  0.501733  0.501733  1
  Sn  Sn4  1  0.000000  0.315278  0.315278  1
  Sb  Sb5  1  0.682296  0.001486  0.683782  1
  Sb  Sb6  1  0.682296  0.683782  0.001486  1
  Sb  Sb7  1  0.000000  0.677857  0.677857  1
  Sb  Sb8  1  0.317704  0.001486  0.319189  1
  Sb  Sb9  1  0.317704  0.319189  0.001486  1
  Rh  Rh10  1  0.000000  0.994612  0.994612  1
  Rh  Rh11  1  0.500000  0.751065  0.251065  1
  Rh  Rh12  1  0.748996  0.499928  0.248924  1
  Rh  Rh13  1  0.251004  0.750931  0.499928  1
  Rh  Rh14  1  0.251004  0.499928  0.750931  1
  Rh  Rh15  1  0.500000  0.251065  0.751065  1
  Rh  Rh16  1  0.748996  0.248924  0.499928  1
