# generated using pymatgen
data_Y3TmIr3PdO14
_symmetry_space_group_name_H-M   'P 1'
_cell_length_a   7.26374688
_cell_length_b   7.23543551
_cell_length_c   7.26374700
_cell_angle_alpha   59.87047333
_cell_angle_beta   59.99999489
_cell_angle_gamma   59.87047504
_symmetry_Int_Tables_number   1
_chemical_formula_structural   Y3TmIr3PdO14
_chemical_formula_sum   'Y3 Tm1 Ir3 Pd1 O14'
_cell_volume   269.41268459
_cell_formula_units_Z   1
loop_
 _symmetry_equiv_pos_site_id
 _symmetry_equiv_pos_as_xyz
  1  'x, y, z'
loop_
 _atom_site_type_symbol
 _atom_site_label
 _atom_site_symmetry_multiplicity
 _atom_site_fract_x
 _atom_site_fract_y
 _atom_site_fract_z
 _atom_site_occupancy
  Y  Y0  1  0.625000  0.125000  0.125000  1
  Y  Y1  1  0.125000  0.125000  0.625000  1
  Y  Y2  1  0.125000  0.125000  0.125000  1
  Tm  Tm3  1  0.125000  0.625000  0.125000  1
  Ir  Ir4  1  0.125000  0.625000  0.625000  1
  Ir  Ir5  1  0.625000  0.625000  0.125000  1
  Ir  Ir6  1  0.625000  0.625000  0.625000  1
  Pd  Pd7  1  0.625000  0.125000  0.625000  1
  O  O8  1  0.718998  0.703549  0.288726  1
  O  O9  1  0.279648  0.287796  0.716278  1
  O  O10  1  0.716278  0.287796  0.716278  1
  O  O11  1  0.288726  0.703549  0.288726  1
  O  O12  1  0.288726  0.703549  0.718998  1
  O  O13  1  0.716278  0.287796  0.279648  1
  O  O14  1  0.531002  0.546451  0.961274  1
  O  O15  1  0.970352  0.962204  0.533722  1
  O  O16  1  0.533722  0.962204  0.533722  1
  O  O17  1  0.961274  0.546451  0.961274  1
  O  O18  1  0.961274  0.546451  0.531002  1
  O  O19  1  0.533722  0.962204  0.970352  1
  O  O20  1  0.248363  0.254911  0.248363  1
  O  O21  1  0.001637  0.995089  0.001637  1
