# generated using pymatgen
data_Er5V3(P3Ir4)4
_symmetry_space_group_name_H-M   'P 1'
_cell_length_a   12.68228400
_cell_length_b   12.68228303
_cell_length_c   3.94868200
_cell_angle_alpha   90.00000000
_cell_angle_beta   90.00000000
_cell_angle_gamma   120.00000253
_symmetry_Int_Tables_number   1
_chemical_formula_structural   Er5V3(P3Ir4)4
_chemical_formula_sum   'Er5 V3 P12 Ir16'
_cell_volume   550.01900485
_cell_formula_units_Z   1
loop_
 _symmetry_equiv_pos_site_id
 _symmetry_equiv_pos_as_xyz
  1  'x, y, z'
loop_
 _atom_site_type_symbol
 _atom_site_label
 _atom_site_symmetry_multiplicity
 _atom_site_fract_x
 _atom_site_fract_y
 _atom_site_fract_z
 _atom_site_occupancy
  Er  Er0  1  0.333333  0.666667  0.000000  1
  Er  Er1  1  0.666667  0.333333  0.000000  1
  Er  Er2  1  0.812273  0.000000  0.500000  1
  Er  Er3  1  0.000000  0.812273  0.500000  1
  Er  Er4  1  0.187727  0.187727  0.500000  1
  V  V5  1  0.450856  0.000000  0.000000  1
  V  V6  1  0.000000  0.450856  0.000000  1
  V  V7  1  0.549144  0.549144  0.000000  1
  P  P8  1  0.176604  0.000000  0.000000  1
  P  P9  1  0.000000  0.176604  0.000000  1
  P  P10  1  0.823396  0.823396  0.000000  1
  P  P11  1  0.167238  0.483331  0.500000  1
  P  P12  1  0.516669  0.683906  0.500000  1
  P  P13  1  0.316094  0.832762  0.500000  1
  P  P14  1  0.683906  0.516669  0.500000  1
  P  P15  1  0.832762  0.316094  0.500000  1
  P  P16  1  0.483331  0.167238  0.500000  1
  P  P17  1  0.636707  0.000000  0.000000  1
  P  P18  1  0.000000  0.636707  0.000000  1
  P  P19  1  0.363293  0.363293  0.000000  1
  Ir  Ir20  1  0.357992  0.491209  0.500000  1
  Ir  Ir21  1  0.508791  0.866783  0.500000  1
  Ir  Ir22  1  0.133217  0.642008  0.500000  1
  Ir  Ir23  1  0.866783  0.508791  0.500000  1
  Ir  Ir24  1  0.642008  0.133217  0.500000  1
  Ir  Ir25  1  0.491209  0.357992  0.500000  1
  Ir  Ir26  1  0.178857  0.372903  0.000000  1
  Ir  Ir27  1  0.627097  0.805955  0.000000  1
  Ir  Ir28  1  0.194045  0.821143  0.000000  1
  Ir  Ir29  1  0.805955  0.627097  0.000000  1
  Ir  Ir30  1  0.821143  0.194045  0.000000  1
  Ir  Ir31  1  0.372903  0.178857  0.000000  1
  Ir  Ir32  1  0.285237  0.000000  0.500000  1
  Ir  Ir33  1  0.000000  0.285237  0.500000  1
  Ir  Ir34  1  0.714763  0.714763  0.500000  1
  Ir  Ir35  1  0.000000  0.000000  0.000000  1
