# generated using pymatgen
data_Pr5Y3(Si3Rh)4
_symmetry_space_group_name_H-M   'P 1'
_cell_length_a   8.26070700
_cell_length_b   8.26070615
_cell_length_c   8.26194000
_cell_angle_alpha   90.00000000
_cell_angle_beta   90.00000000
_cell_angle_gamma   119.99999139
_symmetry_Int_Tables_number   1
_chemical_formula_structural   Pr5Y3(Si3Rh)4
_chemical_formula_sum   'Pr5 Y3 Si12 Rh4'
_cell_volume   488.25544835
_cell_formula_units_Z   1
loop_
 _symmetry_equiv_pos_site_id
 _symmetry_equiv_pos_as_xyz
  1  'x, y, z'
loop_
 _atom_site_type_symbol
 _atom_site_label
 _atom_site_symmetry_multiplicity
 _atom_site_fract_x
 _atom_site_fract_y
 _atom_site_fract_z
 _atom_site_occupancy
  Pr  Pr0  1  0.000000  0.000000  0.250000  1
  Pr  Pr1  1  0.000000  0.000000  0.750000  1
  Pr  Pr2  1  0.504160  0.495840  0.250000  1
  Pr  Pr3  1  0.504160  0.008319  0.250000  1
  Pr  Pr4  1  0.991681  0.495840  0.250000  1
  Y  Y5  1  0.492816  0.507184  0.750000  1
  Y  Y6  1  0.492816  0.985631  0.750000  1
  Y  Y7  1  0.014369  0.507184  0.750000  1
  Si  Si8  1  0.167000  0.833000  0.507409  1
  Si  Si9  1  0.167000  0.334001  0.507409  1
  Si  Si10  1  0.665999  0.833000  0.507409  1
  Si  Si11  1  0.831562  0.168438  0.504062  1
  Si  Si12  1  0.831562  0.663123  0.504062  1
  Si  Si13  1  0.336877  0.168438  0.504062  1
  Si  Si14  1  0.831562  0.168438  0.995938  1
  Si  Si15  1  0.831562  0.663123  0.995938  1
  Si  Si16  1  0.336877  0.168438  0.995938  1
  Si  Si17  1  0.167000  0.833000  0.992591  1
  Si  Si18  1  0.167000  0.334001  0.992591  1
  Si  Si19  1  0.665999  0.833000  0.992591  1
  Rh  Rh20  1  0.333333  0.666667  0.491901  1
  Rh  Rh21  1  0.666667  0.333333  0.543258  1
  Rh  Rh22  1  0.666667  0.333333  0.956742  1
  Rh  Rh23  1  0.333333  0.666667  0.008099  1
