# generated using pymatgen
data_YHo9Hg3Ru
_symmetry_space_group_name_H-M   'P 1'
_cell_length_a   9.56950801
_cell_length_b   9.56943206
_cell_length_c   9.66512600
_cell_angle_alpha   90.00000000
_cell_angle_beta   90.00000000
_cell_angle_gamma   120.00588854
_symmetry_Int_Tables_number   1
_chemical_formula_structural   YHo9Hg3Ru
_chemical_formula_sum   'Y2 Ho18 Hg6 Ru2'
_cell_volume   766.45763134
_cell_formula_units_Z   2
loop_
 _symmetry_equiv_pos_site_id
 _symmetry_equiv_pos_as_xyz
  1  'x, y, z'
loop_
 _atom_site_type_symbol
 _atom_site_label
 _atom_site_symmetry_multiplicity
 _atom_site_fract_x
 _atom_site_fract_y
 _atom_site_fract_z
 _atom_site_occupancy
  Y  Y0  1  0.458947  0.917735  0.750000  1
  Y  Y1  1  0.082291  0.541074  0.750000  1
  Ho  Ho2  1  0.999977  0.000021  0.500055  1
  Ho  Ho3  1  0.999977  0.000021  0.999945  1
  Ho  Ho4  1  0.209462  0.790522  0.439490  1
  Ho  Ho5  1  0.209644  0.419009  0.439645  1
  Ho  Ho6  1  0.581013  0.790378  0.439618  1
  Ho  Ho7  1  0.790439  0.209577  0.560108  1
  Ho  Ho8  1  0.790244  0.580889  0.560201  1
  Ho  Ho9  1  0.419095  0.209738  0.560221  1
  Ho  Ho10  1  0.790439  0.209577  0.939892  1
  Ho  Ho11  1  0.790244  0.580889  0.939799  1
  Ho  Ho12  1  0.419095  0.209738  0.939779  1
  Ho  Ho13  1  0.209462  0.790522  0.060510  1
  Ho  Ho14  1  0.209644  0.419009  0.060355  1
  Ho  Ho15  1  0.581013  0.790378  0.060382  1
  Ho  Ho16  1  0.541167  0.458837  0.250000  1
  Ho  Ho17  1  0.541144  0.082299  0.250000  1
  Ho  Ho18  1  0.917680  0.458834  0.250000  1
  Ho  Ho19  1  0.459080  0.540917  0.750000  1
  Hg  Hg20  1  0.881398  0.118558  0.250000  1
  Hg  Hg21  1  0.881370  0.762834  0.250000  1
  Hg  Hg22  1  0.237185  0.118604  0.250000  1
  Hg  Hg23  1  0.118353  0.881672  0.750000  1
  Hg  Hg24  1  0.118697  0.236962  0.750000  1
  Hg  Hg25  1  0.763026  0.881324  0.750000  1
  Ru  Ru26  1  0.333323  0.666677  0.250000  1
  Ru  Ru27  1  0.666589  0.333404  0.750000  1
