# generated using pymatgen
data_Y3Er7In8(PdRh)2
_symmetry_space_group_name_H-M   'P 1'
_cell_length_a   3.61331500
_cell_length_b   8.12157005
_cell_length_c   18.21860000
_cell_angle_alpha   90.02910797
_cell_angle_beta   90.00000000
_cell_angle_gamma   90.00000000
_symmetry_Int_Tables_number   1
_chemical_formula_structural   Y3Er7In8(PdRh)2
_chemical_formula_sum   'Y3 Er7 In8 Pd2 Rh2'
_cell_volume   534.63915670
_cell_formula_units_Z   1
loop_
 _symmetry_equiv_pos_site_id
 _symmetry_equiv_pos_as_xyz
  1  'x, y, z'
loop_
 _atom_site_type_symbol
 _atom_site_label
 _atom_site_symmetry_multiplicity
 _atom_site_fract_x
 _atom_site_fract_y
 _atom_site_fract_z
 _atom_site_occupancy
  Y  Y0  1  0.000000  0.500582  0.499967  1
  Y  Y1  1  0.000000  0.999303  0.999777  1
  Y  Y2  1  0.000000  0.732311  0.279116  1
  Er  Er3  1  0.000000  0.268295  0.721777  1
  Er  Er4  1  0.000000  0.746310  0.780120  1
  Er  Er5  1  0.000000  0.252737  0.219349  1
  Er  Er6  1  0.000000  0.614874  0.087514  1
  Er  Er7  1  0.000000  0.383753  0.912118  1
  Er  Er8  1  0.000000  0.883174  0.585670  1
  Er  Er9  1  0.000000  0.118133  0.415112  1
  In  In10  1  0.500000  0.705167  0.932100  1
  In  In11  1  0.500000  0.293520  0.067307  1
  In  In12  1  0.500000  0.795713  0.433421  1
  In  In13  1  0.500000  0.206377  0.567611  1
  In  In14  1  0.500000  0.576235  0.649787  1
  In  In15  1  0.500000  0.422151  0.350088  1
  In  In16  1  0.500000  0.923508  0.150433  1
  In  In17  1  0.500000  0.076166  0.849491  1
  Pd  Pd18  1  0.500000  0.979395  0.696399  1
  Pd  Pd19  1  0.500000  0.025676  0.304068  1
  Rh  Rh20  1  0.500000  0.518072  0.194140  1
  Rh  Rh21  1  0.500000  0.478550  0.804631  1
