# generated using pymatgen
data_TbYLu4(SiIr2)6
_symmetry_space_group_name_H-M   'P 1'
_cell_length_a   5.54989500
_cell_length_b   5.54989607
_cell_length_c   15.06349000
_cell_angle_alpha   90.00000000
_cell_angle_beta   90.00000000
_cell_angle_gamma   119.99999961
_symmetry_Int_Tables_number   1
_chemical_formula_structural   TbYLu4(SiIr2)6
_chemical_formula_sum   'Tb1 Y1 Lu4 Si6 Ir12'
_cell_volume   401.81473020
_cell_formula_units_Z   1
loop_
 _symmetry_equiv_pos_site_id
 _symmetry_equiv_pos_as_xyz
  1  'x, y, z'
loop_
 _atom_site_type_symbol
 _atom_site_label
 _atom_site_symmetry_multiplicity
 _atom_site_fract_x
 _atom_site_fract_y
 _atom_site_fract_z
 _atom_site_occupancy
  Tb  Tb0  1  0.333333  0.666667  0.750000  1
  Y  Y1  1  0.666667  0.333333  0.250000  1
  Lu  Lu2  1  0.333333  0.666667  0.538638  1
  Lu  Lu3  1  0.666667  0.333333  0.461345  1
  Lu  Lu4  1  0.666667  0.333333  0.038655  1
  Lu  Lu5  1  0.333333  0.666667  0.961362  1
  Si  Si6  1  0.000000  0.000000  0.250000  1
  Si  Si7  1  0.000000  0.000000  0.750000  1
  Si  Si8  1  0.333333  0.666667  0.250000  1
  Si  Si9  1  0.666667  0.333333  0.750000  1
  Si  Si10  1  0.000000  0.000000  0.000015  1
  Si  Si11  1  0.000000  0.000000  0.499985  1
  Ir  Ir12  1  0.167811  0.335623  0.128722  1
  Ir  Ir13  1  0.832191  0.664383  0.871277  1
  Ir  Ir14  1  0.664377  0.832189  0.128722  1
  Ir  Ir15  1  0.832191  0.664383  0.628723  1
  Ir  Ir16  1  0.335617  0.167809  0.871277  1
  Ir  Ir17  1  0.167811  0.335623  0.371278  1
  Ir  Ir18  1  0.167811  0.832189  0.128722  1
  Ir  Ir19  1  0.335617  0.167809  0.628723  1
  Ir  Ir20  1  0.832191  0.167809  0.871277  1
  Ir  Ir21  1  0.664377  0.832189  0.371278  1
  Ir  Ir22  1  0.832191  0.167809  0.628723  1
  Ir  Ir23  1  0.167811  0.832189  0.371278  1
