# generated using pymatgen
data_Dy5Co16Si6(MoP2)3
_symmetry_space_group_name_H-M   'P 1'
_cell_length_a   12.19513700
_cell_length_b   12.19513673
_cell_length_c   3.72232000
_cell_angle_alpha   90.00000000
_cell_angle_beta   90.00000000
_cell_angle_gamma   119.99999259
_symmetry_Int_Tables_number   1
_chemical_formula_structural   Dy5Co16Si6(MoP2)3
_chemical_formula_sum   'Dy5 Co16 Si6 Mo3 P6'
_cell_volume   479.42174397
_cell_formula_units_Z   1
loop_
 _symmetry_equiv_pos_site_id
 _symmetry_equiv_pos_as_xyz
  1  'x, y, z'
loop_
 _atom_site_type_symbol
 _atom_site_label
 _atom_site_symmetry_multiplicity
 _atom_site_fract_x
 _atom_site_fract_y
 _atom_site_fract_z
 _atom_site_occupancy
  Dy  Dy0  1  0.666667  0.333333  0.000000  1
  Dy  Dy1  1  0.333333  0.666667  0.000000  1
  Dy  Dy2  1  0.184284  0.184284  0.500000  1
  Dy  Dy3  1  0.815716  0.000000  0.500000  1
  Dy  Dy4  1  0.000000  0.815716  0.500000  1
  Co  Co5  1  0.822152  0.193234  0.000000  1
  Co  Co6  1  0.806766  0.628918  0.000000  1
  Co  Co7  1  0.371082  0.177848  0.000000  1
  Co  Co8  1  0.193234  0.822152  0.000000  1
  Co  Co9  1  0.628918  0.806766  0.000000  1
  Co  Co10  1  0.177848  0.371082  0.000000  1
  Co  Co11  1  0.646347  0.121693  0.500000  1
  Co  Co12  1  0.878307  0.524656  0.500000  1
  Co  Co13  1  0.475344  0.353653  0.500000  1
  Co  Co14  1  0.121693  0.646347  0.500000  1
  Co  Co15  1  0.524656  0.878307  0.500000  1
  Co  Co16  1  0.353653  0.475344  0.500000  1
  Co  Co17  1  0.723591  0.723591  0.500000  1
  Co  Co18  1  0.276409  0.000000  0.500000  1
  Co  Co19  1  0.000000  0.276409  0.500000  1
  Co  Co20  1  0.000000  0.000000  0.000000  1
  Si  Si21  1  0.834850  0.313738  0.500000  1
  Si  Si22  1  0.686262  0.521113  0.500000  1
  Si  Si23  1  0.478887  0.165150  0.500000  1
  Si  Si24  1  0.313738  0.834850  0.500000  1
  Si  Si25  1  0.521113  0.686262  0.500000  1
  Si  Si26  1  0.165150  0.478887  0.500000  1
  Mo  Mo27  1  0.558031  0.558031  0.000000  1
  Mo  Mo28  1  0.441969  0.000000  0.000000  1
  Mo  Mo29  1  0.000000  0.441969  0.000000  1
  P  P30  1  0.361971  0.361971  0.000000  1
  P  P31  1  0.638029  0.000000  0.000000  1
  P  P32  1  0.000000  0.638029  0.000000  1
  P  P33  1  0.819319  0.819319  0.000000  1
  P  P34  1  0.180681  0.000000  0.000000  1
  P  P35  1  0.000000  0.180681  0.000000  1
