# generated using pymatgen
data_K6SnI8
_symmetry_space_group_name_H-M   'P 1'
_cell_length_a   10.09931085
_cell_length_b   10.09931137
_cell_length_c   10.09931200
_cell_angle_alpha   60.00000449
_cell_angle_beta   60.00000278
_cell_angle_gamma   60.00000923
_symmetry_Int_Tables_number   1
_chemical_formula_structural   K6SnI8
_chemical_formula_sum   'K6 Sn1 I8'
_cell_volume   728.38391578
_cell_formula_units_Z   1
loop_
 _symmetry_equiv_pos_site_id
 _symmetry_equiv_pos_as_xyz
  1  'x, y, z'
loop_
 _atom_site_type_symbol
 _atom_site_label
 _atom_site_symmetry_multiplicity
 _atom_site_fract_x
 _atom_site_fract_y
 _atom_site_fract_z
 _atom_site_occupancy
  K  K0  1  0.000000  0.500000  0.000000  1
  K  K1  1  0.500000  0.000000  0.000000  1
  K  K2  1  0.000000  0.500000  0.500000  1
  K  K3  1  0.500000  0.000000  0.500000  1
  K  K4  1  0.000000  0.000000  0.500000  1
  K  K5  1  0.500000  0.500000  0.000000  1
  Sn  Sn6  1  0.000000  0.000000  0.000000  1
  I  I7  1  0.250000  0.250000  0.250000  1
  I  I8  1  0.771731  0.228269  0.228269  1
  I  I9  1  0.750000  0.750000  0.750000  1
  I  I10  1  0.228269  0.771731  0.228269  1
  I  I11  1  0.228269  0.771731  0.771731  1
  I  I12  1  0.228269  0.228269  0.771731  1
  I  I13  1  0.771731  0.771731  0.228269  1
  I  I14  1  0.771731  0.228269  0.771731  1
