# generated using pymatgen
data_Dy4Tm12Cd4Ru3Pt
_symmetry_space_group_name_H-M   'P 1'
_cell_length_a   9.56605053
_cell_length_b   9.59055581
_cell_length_c   9.59055471
_cell_angle_alpha   59.60320189
_cell_angle_beta   59.41631585
_cell_angle_gamma   59.41631927
_symmetry_Int_Tables_number   1
_chemical_formula_structural   Dy4Tm12Cd4Ru3Pt
_chemical_formula_sum   'Dy4 Tm12 Cd4 Ru3 Pt1'
_cell_volume   614.78156262
_cell_formula_units_Z   1
loop_
 _symmetry_equiv_pos_site_id
 _symmetry_equiv_pos_as_xyz
  1  'x, y, z'
loop_
 _atom_site_type_symbol
 _atom_site_label
 _atom_site_symmetry_multiplicity
 _atom_site_fract_x
 _atom_site_fract_y
 _atom_site_fract_z
 _atom_site_occupancy
  Dy  Dy0  1  0.557120  0.939156  0.565432  1
  Dy  Dy1  1  0.937950  0.560365  0.938985  1
  Dy  Dy2  1  0.557120  0.565432  0.939156  1
  Dy  Dy3  1  0.937950  0.938985  0.560365  1
  Tm  Tm4  1  0.345912  0.350882  0.350882  1
  Tm  Tm5  1  0.346413  0.350357  0.955538  1
  Tm  Tm6  1  0.346413  0.955538  0.350357  1
  Tm  Tm7  1  0.963797  0.345563  0.345563  1
  Tm  Tm8  1  0.815536  0.188356  0.188356  1
  Tm  Tm9  1  0.184339  0.812026  0.812026  1
  Tm  Tm10  1  0.187236  0.811441  0.188332  1
  Tm  Tm11  1  0.814318  0.189137  0.805370  1
  Tm  Tm12  1  0.187236  0.188332  0.811441  1
  Tm  Tm13  1  0.814318  0.805370  0.189137  1
  Tm  Tm14  1  0.938447  0.559979  0.559979  1
  Tm  Tm15  1  0.556315  0.939252  0.939252  1
  Cd  Cd16  1  0.580920  0.579635  0.579635  1
  Cd  Cd17  1  0.580414  0.580691  0.258186  1
  Cd  Cd18  1  0.580414  0.258186  0.580691  1
  Cd  Cd19  1  0.256634  0.580566  0.580566  1
  Ru  Ru20  1  0.145470  0.138182  0.138182  1
  Ru  Ru21  1  0.145148  0.142298  0.577451  1
  Ru  Ru22  1  0.145148  0.577451  0.142298  1
  Pt  Pt23  1  0.575436  0.142818  0.142818  1
