# generated using pymatgen
data_Tm5In4IrAu
_symmetry_space_group_name_H-M   'P 1'
_cell_length_a   3.60409500
_cell_length_b   8.15635764
_cell_length_c   18.30118100
_cell_angle_alpha   90.25478588
_cell_angle_beta   90.00000000
_cell_angle_gamma   90.00000000
_symmetry_Int_Tables_number   1
_chemical_formula_structural   Tm5In4IrAu
_chemical_formula_sum   'Tm10 In8 Ir2 Au2'
_cell_volume   537.98146460
_cell_formula_units_Z   2
loop_
 _symmetry_equiv_pos_site_id
 _symmetry_equiv_pos_as_xyz
  1  'x, y, z'
loop_
 _atom_site_type_symbol
 _atom_site_label
 _atom_site_symmetry_multiplicity
 _atom_site_fract_x
 _atom_site_fract_y
 _atom_site_fract_z
 _atom_site_occupancy
  Tm  Tm0  1  0.000000  0.500000  0.500000  1
  Tm  Tm1  1  0.000000  0.000000  0.000000  1
  Tm  Tm2  1  0.000000  0.768040  0.281774  1
  Tm  Tm3  1  0.000000  0.231960  0.718226  1
  Tm  Tm4  1  0.000000  0.772328  0.776315  1
  Tm  Tm5  1  0.000000  0.227672  0.223685  1
  Tm  Tm6  1  0.000000  0.621925  0.081658  1
  Tm  Tm7  1  0.000000  0.378075  0.918342  1
  Tm  Tm8  1  0.000000  0.881018  0.586672  1
  Tm  Tm9  1  0.000000  0.118982  0.413328  1
  In  In10  1  0.500000  0.707353  0.932980  1
  In  In11  1  0.500000  0.292647  0.067020  1
  In  In12  1  0.500000  0.795435  0.433536  1
  In  In13  1  0.500000  0.204565  0.566464  1
  In  In14  1  0.500000  0.574044  0.647799  1
  In  In15  1  0.500000  0.425956  0.352201  1
  In  In16  1  0.500000  0.928375  0.147538  1
  In  In17  1  0.500000  0.071625  0.852462  1
  Ir  Ir18  1  0.500000  0.970853  0.695201  1
  Ir  Ir19  1  0.500000  0.029147  0.304799  1
  Au  Au20  1  0.500000  0.530241  0.198287  1
  Au  Au21  1  0.500000  0.469759  0.801713  1
