# generated using pymatgen
data_CsDy6(CBr6)2
_symmetry_space_group_name_H-M   'P 1'
_cell_length_a   8.90685235
_cell_length_b   8.88752502
_cell_length_c   9.40337134
_cell_angle_alpha   72.38791151
_cell_angle_beta   71.07391895
_cell_angle_gamma   72.81772931
_symmetry_Int_Tables_number   1
_chemical_formula_structural   CsDy6(CBr6)2
_chemical_formula_sum   'Cs1 Dy6 C2 Br12'
_cell_volume   654.86054972
_cell_formula_units_Z   1
loop_
 _symmetry_equiv_pos_site_id
 _symmetry_equiv_pos_as_xyz
  1  'x, y, z'
loop_
 _atom_site_type_symbol
 _atom_site_label
 _atom_site_symmetry_multiplicity
 _atom_site_fract_x
 _atom_site_fract_y
 _atom_site_fract_z
 _atom_site_occupancy
  Cs  Cs0  1  0.999992  0.500002  0.000001  1
  Dy  Dy1  1  0.474423  0.115802  0.182757  1
  Dy  Dy2  1  0.776711  0.032662  0.407141  1
  Dy  Dy3  1  0.592908  0.725608  0.475958  1
  Dy  Dy4  1  0.407096  0.274387  0.524046  1
  Dy  Dy5  1  0.223290  0.967335  0.592858  1
  Dy  Dy6  1  0.525576  0.884200  0.817244  1
  C  C7  1  0.492890  0.026297  0.422462  1
  C  C8  1  0.507111  0.973697  0.577538  1
  Br  Br9  1  0.796918  0.157040  0.083377  1
  Br  Br10  1  0.583390  0.785604  0.141016  1
  Br  Br11  1  0.351994  0.432168  0.223990  1
  Br  Br12  1  0.135853  0.069410  0.296565  1
  Br  Br13  1  0.921843  0.722424  0.355456  1
  Br  Br14  1  0.712834  0.364379  0.431767  1
  Br  Br15  1  0.287169  0.635619  0.568233  1
  Br  Br16  1  0.078162  0.277574  0.644543  1
  Br  Br17  1  0.864149  0.930592  0.703431  1
  Br  Br18  1  0.648013  0.567833  0.776013  1
  Br  Br19  1  0.416594  0.214407  0.858984  1
  Br  Br20  1  0.203084  0.842958  0.916622  1
