# generated using pymatgen
data_Sr7TiRu3O19
_symmetry_space_group_name_H-M   'P 1'
_cell_length_a   7.45661364
_cell_length_b   7.45661290
_cell_length_c   10.49998600
_cell_angle_alpha   81.89646039
_cell_angle_beta   81.89646119
_cell_angle_gamma   44.28830661
_symmetry_Int_Tables_number   1
_chemical_formula_structural   Sr7TiRu3O19
_chemical_formula_sum   'Sr7 Ti1 Ru3 O19'
_cell_volume   402.90838103
_cell_formula_units_Z   1
loop_
 _symmetry_equiv_pos_site_id
 _symmetry_equiv_pos_as_xyz
  1  'x, y, z'
loop_
 _atom_site_type_symbol
 _atom_site_label
 _atom_site_symmetry_multiplicity
 _atom_site_fract_x
 _atom_site_fract_y
 _atom_site_fract_z
 _atom_site_occupancy
  Sr  Sr0  1  0.861549  0.861549  0.954536  1
  Sr  Sr1  1  0.419085  0.419085  0.170051  1
  Sr  Sr2  1  0.802686  0.802686  0.582087  1
  Sr  Sr3  1  0.206468  0.206468  0.406237  1
  Sr  Sr4  1  0.581014  0.581014  0.831895  1
  Sr  Sr5  1  0.134804  0.134804  0.053060  1
  Sr  Sr6  1  0.493928  0.493928  0.495411  1
  Ti  Ti7  1  0.955846  0.955846  0.314396  1
  Ru  Ru8  1  0.327477  0.327477  0.786552  1
  Ru  Ru9  1  0.667977  0.667977  0.220528  1
  Ru  Ru10  1  0.037753  0.037753  0.672943  1
  O  O11  1  0.683687  0.175462  0.712106  1
  O  O12  1  0.175462  0.683687  0.712106  1
  O  O13  1  0.397936  0.397936  0.931829  1
  O  O14  1  0.952955  0.952955  0.139178  1
  O  O15  1  0.625343  0.123405  0.377968  1
  O  O16  1  0.123405  0.625343  0.377968  1
  O  O17  1  0.296574  0.296574  0.623771  1
  O  O18  1  0.002039  0.480142  0.851294  1
  O  O19  1  0.480142  0.002039  0.851294  1
  O  O20  1  0.518340  0.994201  0.153303  1
  O  O21  1  0.994201  0.518340  0.153303  1
  O  O22  1  0.701181  0.701181  0.383289  1
  O  O23  1  0.372559  0.886717  0.627576  1
  O  O24  1  0.886717  0.372559  0.627576  1
  O  O25  1  0.048313  0.048313  0.850368  1
  O  O26  1  0.602213  0.602213  0.067306  1
  O  O27  1  0.824384  0.320433  0.284814  1
  O  O28  1  0.320433  0.824384  0.284814  1
  O  O29  1  0.005529  0.005529  0.502439  1
