# generated using pymatgen
data_YNpSc2(ReB6)2
_symmetry_space_group_name_H-M   'P 1'
_cell_length_a   3.59133700
_cell_length_b   9.00229620
_cell_length_c   11.36813472
_cell_angle_alpha   90.09571790
_cell_angle_beta   90.00000000
_cell_angle_gamma   90.00000000
_symmetry_Int_Tables_number   1
_chemical_formula_structural   YNpSc2(ReB6)2
_chemical_formula_sum   'Y2 Np2 Sc4 Re4 B24'
_cell_volume   367.53445940
_cell_formula_units_Z   2
loop_
 _symmetry_equiv_pos_site_id
 _symmetry_equiv_pos_as_xyz
  1  'x, y, z'
loop_
 _atom_site_type_symbol
 _atom_site_label
 _atom_site_symmetry_multiplicity
 _atom_site_fract_x
 _atom_site_fract_y
 _atom_site_fract_z
 _atom_site_occupancy
  Y  Y0  1  0.000000  0.820928  0.085806  1
  Y  Y1  1  0.000000  0.179072  0.914194  1
  Np  Np2  1  0.000000  0.320144  0.414016  1
  Np  Np3  1  0.000000  0.679856  0.585984  1
  Sc  Sc4  1  0.000000  0.945324  0.373045  1
  Sc  Sc5  1  0.000000  0.054676  0.626955  1
  Sc  Sc6  1  0.000000  0.444146  0.127344  1
  Sc  Sc7  1  0.000000  0.555854  0.872656  1
  Re  Re8  1  0.000000  0.637290  0.322350  1
  Re  Re9  1  0.000000  0.362710  0.677650  1
  Re  Re10  1  0.000000  0.142931  0.184343  1
  Re  Re11  1  0.000000  0.857069  0.815657  1
  B  B12  1  0.500000  0.553088  0.433594  1
  B  B13  1  0.500000  0.446912  0.566406  1
  B  B14  1  0.500000  0.054403  0.067426  1
  B  B15  1  0.500000  0.945597  0.932574  1
  B  B16  1  0.500000  0.753501  0.419877  1
  B  B17  1  0.500000  0.246499  0.580123  1
  B  B18  1  0.500000  0.253711  0.081190  1
  B  B19  1  0.500000  0.746289  0.918810  1
  B  B20  1  0.500000  0.794314  0.265400  1
  B  B21  1  0.500000  0.205686  0.734600  1
  B  B22  1  0.500000  0.295265  0.235224  1
  B  B23  1  0.500000  0.704735  0.764776  1
  B  B24  1  0.500000  0.628719  0.183352  1
  B  B25  1  0.500000  0.371281  0.816648  1
  B  B26  1  0.500000  0.130573  0.317555  1
  B  B27  1  0.500000  0.869427  0.682445  1
  B  B28  1  0.500000  0.981107  0.214098  1
  B  B29  1  0.500000  0.018893  0.785902  1
  B  B30  1  0.500000  0.480350  0.286139  1
  B  B31  1  0.500000  0.519650  0.713861  1
  B  B32  1  0.500000  0.596763  0.026771  1
  B  B33  1  0.500000  0.403237  0.973229  1
  B  B34  1  0.500000  0.100325  0.472817  1
  B  B35  1  0.500000  0.899675  0.527183  1
