# generated using pymatgen
data_Ac3Nd(ZnIr)4
_symmetry_space_group_name_H-M   'P 1'
_cell_length_a   4.26725800
_cell_length_b   7.35181067
_cell_length_c   8.49593827
_cell_angle_alpha   89.95982164
_cell_angle_beta   90.00000000
_cell_angle_gamma   90.00000000
_symmetry_Int_Tables_number   1
_chemical_formula_structural   Ac3Nd(ZnIr)4
_chemical_formula_sum   'Ac3 Nd1 Zn4 Ir4'
_cell_volume   266.53512911
_cell_formula_units_Z   1
loop_
 _symmetry_equiv_pos_site_id
 _symmetry_equiv_pos_as_xyz
  1  'x, y, z'
loop_
 _atom_site_type_symbol
 _atom_site_label
 _atom_site_symmetry_multiplicity
 _atom_site_fract_x
 _atom_site_fract_y
 _atom_site_fract_z
 _atom_site_occupancy
  Ac  Ac0  1  0.750000  0.470642  0.812902  1
  Ac  Ac1  1  0.750000  0.966782  0.691584  1
  Ac  Ac2  1  0.250000  0.032175  0.310577  1
  Nd  Nd3  1  0.250000  0.532294  0.185932  1
  Zn  Zn4  1  0.250000  0.632495  0.548285  1
  Zn  Zn5  1  0.750000  0.364236  0.430202  1
  Zn  Zn6  1  0.750000  0.850559  0.069235  1
  Zn  Zn7  1  0.250000  0.146263  0.941768  1
  Ir  Ir8  1  0.250000  0.769237  0.899086  1
  Ir  Ir9  1  0.750000  0.236822  0.115980  1
  Ir  Ir10  1  0.750000  0.728099  0.381194  1
  Ir  Ir11  1  0.250000  0.270395  0.613255  1
