# generated using pymatgen
data_Zr6GaSi3
_symmetry_space_group_name_H-M   'P 1'
_cell_length_a   7.20150709
_cell_length_b   7.20150709
_cell_length_c   3.69348200
_cell_angle_alpha   90.00000000
_cell_angle_beta   90.00000000
_cell_angle_gamma   90.08721458
_symmetry_Int_Tables_number   1
_chemical_formula_structural   Zr6GaSi3
_chemical_formula_sum   'Zr6 Ga1 Si3'
_cell_volume   191.55004943
_cell_formula_units_Z   1
loop_
 _symmetry_equiv_pos_site_id
 _symmetry_equiv_pos_as_xyz
  1  'x, y, z'
loop_
 _atom_site_type_symbol
 _atom_site_label
 _atom_site_symmetry_multiplicity
 _atom_site_fract_x
 _atom_site_fract_y
 _atom_site_fract_z
 _atom_site_occupancy
  Zr  Zr0  1  0.674572  0.174572  0.500000  1
  Zr  Zr1  1  0.330190  0.830190  0.500000  1
  Zr  Zr2  1  0.174395  0.318315  0.500000  1
  Zr  Zr3  1  0.818315  0.674395  0.500000  1
  Zr  Zr4  1  0.998913  0.002692  0.000000  1
  Zr  Zr5  1  0.502692  0.498913  0.000000  1
  Ga  Ga6  1  0.123702  0.623702  0.000000  1
  Si  Si7  1  0.876917  0.376917  0.000000  1
  Si  Si8  1  0.621988  0.878315  0.000000  1
  Si  Si9  1  0.378315  0.121988  0.000000  1
