# generated using pymatgen
data_NaNdY2(ReN3)4
_symmetry_space_group_name_H-M   'P 1'
_cell_length_a   7.37930314
_cell_length_b   7.37930185
_cell_length_c   6.24814119
_cell_angle_alpha   75.00912220
_cell_angle_beta   75.00913042
_cell_angle_gamma   84.51027939
_symmetry_Int_Tables_number   1
_chemical_formula_structural   NaNdY2(ReN3)4
_chemical_formula_sum   'Na1 Nd1 Y2 Re4 N12'
_cell_volume   317.32164350
_cell_formula_units_Z   1
loop_
 _symmetry_equiv_pos_site_id
 _symmetry_equiv_pos_as_xyz
  1  'x, y, z'
loop_
 _atom_site_type_symbol
 _atom_site_label
 _atom_site_symmetry_multiplicity
 _atom_site_fract_x
 _atom_site_fract_y
 _atom_site_fract_z
 _atom_site_occupancy
  Na  Na0  1  0.297329  0.702671  0.250000  1
  Nd  Nd1  1  0.697054  0.302946  0.750000  1
  Y  Y2  1  0.093627  0.906373  0.750000  1
  Y  Y3  1  0.913443  0.086557  0.250000  1
  Re  Re4  1  0.378552  0.207240  0.244651  1
  Re  Re5  1  0.622182  0.799886  0.756421  1
  Re  Re6  1  0.792760  0.621448  0.255349  1
  Re  Re7  1  0.200114  0.377818  0.743579  1
  N  N8  1  0.621418  0.128416  0.170666  1
  N  N9  1  0.359702  0.340938  0.467806  1
  N  N10  1  0.007481  0.213350  0.846497  1
  N  N11  1  0.389292  0.887270  0.816617  1
  N  N12  1  0.786650  0.992519  0.653503  1
  N  N13  1  0.112730  0.610708  0.683383  1
  N  N14  1  0.871584  0.378582  0.329334  1
  N  N15  1  0.649243  0.648251  0.543596  1
  N  N16  1  0.659062  0.640298  0.032194  1
  N  N17  1  0.351749  0.350757  0.956404  1
  N  N18  1  0.980716  0.784687  0.146984  1
  N  N19  1  0.215313  0.019284  0.353016  1
