# generated using pymatgen
data_Tm8Zr12Si15Au
_symmetry_space_group_name_H-M   'P 1'
_cell_length_a   7.13246618
_cell_length_b   7.26773329
_cell_length_c   13.93354984
_cell_angle_alpha   89.94015764
_cell_angle_beta   89.61698499
_cell_angle_gamma   90.15903613
_symmetry_Int_Tables_number   1
_chemical_formula_structural   Tm8Zr12Si15Au
_chemical_formula_sum   'Tm8 Zr12 Si15 Au1'
_cell_volume   722.25217066
_cell_formula_units_Z   1
loop_
 _symmetry_equiv_pos_site_id
 _symmetry_equiv_pos_as_xyz
  1  'x, y, z'
loop_
 _atom_site_type_symbol
 _atom_site_label
 _atom_site_symmetry_multiplicity
 _atom_site_fract_x
 _atom_site_fract_y
 _atom_site_fract_z
 _atom_site_occupancy
  Tm  Tm0  1  0.014971  0.176866  0.096910  1
  Tm  Tm1  1  0.985208  0.824187  0.904216  1
  Tm  Tm2  1  0.487853  0.676924  0.904114  1
  Tm  Tm3  1  0.985988  0.829755  0.597826  1
  Tm  Tm4  1  0.513588  0.322756  0.096448  1
  Tm  Tm5  1  0.009305  0.174703  0.399371  1
  Tm  Tm6  1  0.512773  0.323007  0.400902  1
  Tm  Tm7  1  0.492254  0.678993  0.598696  1
  Zr  Zr8  1  0.159855  0.501278  0.754874  1
  Zr  Zr9  1  0.842092  0.500278  0.248776  1
  Zr  Zr10  1  0.342167  0.999238  0.249026  1
  Zr  Zr11  1  0.657196  0.001442  0.749988  1
  Zr  Zr12  1  0.342777  0.172282  0.627834  1
  Zr  Zr13  1  0.667497  0.823619  0.373464  1
  Zr  Zr14  1  0.166415  0.676070  0.373985  1
  Zr  Zr15  1  0.670183  0.822472  0.124278  1
  Zr  Zr16  1  0.824516  0.323202  0.624609  1
  Zr  Zr17  1  0.328942  0.175315  0.875648  1
  Zr  Zr18  1  0.830429  0.321991  0.876353  1
  Zr  Zr19  1  0.169635  0.677681  0.123971  1
  Si  Si20  1  0.034271  0.117635  0.750375  1
  Si  Si21  1  0.965342  0.885558  0.248326  1
  Si  Si22  1  0.464770  0.614397  0.249416  1
  Si  Si23  1  0.535534  0.386544  0.752596  1
  Si  Si24  1  0.282749  0.869323  0.751625  1
  Si  Si25  1  0.714996  0.129566  0.248528  1
  Si  Si26  1  0.215224  0.369169  0.248354  1
  Si  Si27  1  0.787152  0.630713  0.751625  1
  Si  Si28  1  0.832171  0.534170  0.458544  1
  Si  Si29  1  0.341303  0.968002  0.458634  1
  Si  Si30  1  0.842267  0.530455  0.040573  1
  Si  Si31  1  0.660070  0.033368  0.537292  1
  Si  Si32  1  0.156840  0.467524  0.960777  1
  Si  Si33  1  0.655314  0.031001  0.960178  1
  Si  Si34  1  0.345316  0.968938  0.040738  1
  Au  Au35  1  0.163038  0.461580  0.541129  1
