# generated using pymatgen
data_Er2Pa2PdPt3
_symmetry_space_group_name_H-M   'P 1'
_cell_length_a   4.51189400
_cell_length_b   5.65562336
_cell_length_c   6.90737241
_cell_angle_alpha   89.59227437
_cell_angle_beta   89.99956781
_cell_angle_gamma   90.00043735
_symmetry_Int_Tables_number   1
_chemical_formula_structural   Er2Pa2PdPt3
_chemical_formula_sum   'Er2 Pa2 Pd1 Pt3'
_cell_volume   176.25491788
_cell_formula_units_Z   1
loop_
 _symmetry_equiv_pos_site_id
 _symmetry_equiv_pos_as_xyz
  1  'x, y, z'
loop_
 _atom_site_type_symbol
 _atom_site_label
 _atom_site_symmetry_multiplicity
 _atom_site_fract_x
 _atom_site_fract_y
 _atom_site_fract_z
 _atom_site_occupancy
  Er  Er0  1  0.750043  0.352668  0.816317  1
  Er  Er1  1  0.749995  0.149303  0.321735  1
  Pa  Pa2  1  0.250000  0.647971  0.185048  1
  Pa  Pa3  1  0.249996  0.851593  0.682466  1
  Pd  Pd4  1  0.249970  0.156729  0.045303  1
  Pt  Pt5  1  0.749983  0.835654  0.953716  1
  Pt  Pt6  1  0.750006  0.667815  0.450334  1
  Pt  Pt7  1  0.250008  0.338267  0.545082  1
