# generated using pymatgen
data_Lu12TlFeCo3Rh
_symmetry_space_group_name_H-M   'P 1'
_cell_length_a   8.11236007
_cell_length_b   8.11236035
_cell_length_c   8.11235945
_cell_angle_alpha   111.25085735
_cell_angle_beta   111.32207315
_cell_angle_gamma   105.89872630
_symmetry_Int_Tables_number   1
_chemical_formula_structural   Lu12TlFeCo3Rh
_chemical_formula_sum   'Lu12 Tl1 Fe1 Co3 Rh1'
_cell_volume   409.79024341
_cell_formula_units_Z   1
loop_
 _symmetry_equiv_pos_site_id
 _symmetry_equiv_pos_as_xyz
  1  'x, y, z'
loop_
 _atom_site_type_symbol
 _atom_site_label
 _atom_site_symmetry_multiplicity
 _atom_site_fract_x
 _atom_site_fract_y
 _atom_site_fract_z
 _atom_site_occupancy
  Lu  Lu0  1  0.414077  0.217025  0.197051  1
  Lu  Lu1  1  0.585939  0.782401  0.803539  1
  Lu  Lu2  1  0.021137  0.217599  0.803539  1
  Lu  Lu3  1  0.980028  0.782975  0.197051  1
  Lu  Lu4  1  0.186226  0.285169  0.471396  1
  Lu  Lu5  1  0.812772  0.713262  0.526033  1
  Lu  Lu6  1  0.186226  0.714831  0.901058  1
  Lu  Lu7  1  0.812772  0.286738  0.099511  1
  Lu  Lu8  1  0.311848  0.618368  0.303232  1
  Lu  Lu9  1  0.684865  0.381632  0.693480  1
  Lu  Lu10  1  0.311848  0.008615  0.693480  1
  Lu  Lu11  1  0.684865  0.991385  0.303232  1
  Tl  Tl12  1  0.499555  0.500000  0.999555  1
  Fe  Fe13  1  0.384941  0.000000  0.384941  1
  Co  Co14  1  0.627153  0.000000  0.627153  1
  Co  Co15  1  0.110495  0.612450  0.498046  1
  Co  Co16  1  0.885595  0.387550  0.498046  1
  Rh  Rh17  1  0.999658  0.000000  0.999658  1
