# generated using pymatgen
data_ErLu3Cr4(Fe4P3)4
_symmetry_space_group_name_H-M   'P 1'
_cell_length_a   3.63984000
_cell_length_b   10.32310528
_cell_length_c   11.80103390
_cell_angle_alpha   89.89557863
_cell_angle_beta   90.00000000
_cell_angle_gamma   90.00000000
_symmetry_Int_Tables_number   1
_chemical_formula_structural   ErLu3Cr4(Fe4P3)4
_chemical_formula_sum   'Er1 Lu3 Cr4 Fe16 P12'
_cell_volume   443.41664003
_cell_formula_units_Z   1
loop_
 _symmetry_equiv_pos_site_id
 _symmetry_equiv_pos_as_xyz
  1  'x, y, z'
loop_
 _atom_site_type_symbol
 _atom_site_label
 _atom_site_symmetry_multiplicity
 _atom_site_fract_x
 _atom_site_fract_y
 _atom_site_fract_z
 _atom_site_occupancy
  Er  Er0  1  0.750000  0.081264  0.794873  1
  Lu  Lu1  1  0.250000  0.580466  0.704485  1
  Lu  Lu2  1  0.250000  0.918881  0.204602  1
  Lu  Lu3  1  0.750000  0.419299  0.295572  1
  Cr  Cr4  1  0.250000  0.702992  0.989120  1
  Cr  Cr5  1  0.250000  0.796690  0.488562  1
  Cr  Cr6  1  0.750000  0.297079  0.011691  1
  Cr  Cr7  1  0.750000  0.203203  0.511229  1
  Fe  Fe8  1  0.250000  0.405709  0.490021  1
  Fe  Fe9  1  0.250000  0.094642  0.990938  1
  Fe  Fe10  1  0.750000  0.594233  0.510030  1
  Fe  Fe11  1  0.750000  0.905272  0.010339  1
  Fe  Fe12  1  0.250000  0.218776  0.176310  1
  Fe  Fe13  1  0.250000  0.281781  0.675476  1
  Fe  Fe14  1  0.750000  0.781010  0.824030  1
  Fe  Fe15  1  0.750000  0.718479  0.324126  1
  Fe  Fe16  1  0.250000  0.873716  0.701980  1
  Fe  Fe17  1  0.250000  0.625379  0.202482  1
  Fe  Fe18  1  0.750000  0.125758  0.297253  1
  Fe  Fe19  1  0.750000  0.375353  0.797779  1
  Fe  Fe20  1  0.250000  0.463733  0.932342  1
  Fe  Fe21  1  0.250000  0.036865  0.431164  1
  Fe  Fe22  1  0.750000  0.536845  0.068318  1
  Fe  Fe23  1  0.750000  0.962644  0.567208  1
  P  P24  1  0.250000  0.423820  0.114178  1
  P  P25  1  0.250000  0.076485  0.612685  1
  P  P26  1  0.750000  0.576467  0.886284  1
  P  P27  1  0.750000  0.923255  0.385655  1
  P  P28  1  0.250000  0.264769  0.870517  1
  P  P29  1  0.250000  0.237107  0.370696  1
  P  P30  1  0.750000  0.736372  0.130013  1
  P  P31  1  0.750000  0.763078  0.629454  1
  P  P32  1  0.250000  0.595715  0.394009  1
  P  P33  1  0.250000  0.903607  0.894581  1
  P  P34  1  0.750000  0.404006  0.606170  1
  P  P35  1  0.750000  0.095249  0.105826  1
