# generated using pymatgen
data_La4NdIrRh2
_symmetry_space_group_name_H-M   'P 1'
_cell_length_a   11.40215100
_cell_length_b   11.40215100
_cell_length_c   6.65447600
_cell_angle_alpha   90.00000000
_cell_angle_beta   90.00000000
_cell_angle_gamma   90.00000000
_symmetry_Int_Tables_number   1
_chemical_formula_structural   La4NdIrRh2
_chemical_formula_sum   'La16 Nd4 Ir4 Rh8'
_cell_volume   865.14208588
_cell_formula_units_Z   4
loop_
 _symmetry_equiv_pos_site_id
 _symmetry_equiv_pos_as_xyz
  1  'x, y, z'
loop_
 _atom_site_type_symbol
 _atom_site_label
 _atom_site_symmetry_multiplicity
 _atom_site_fract_x
 _atom_site_fract_y
 _atom_site_fract_z
 _atom_site_occupancy
  La  La0  1  0.091582  0.290015  0.113220  1
  La  La1  1  0.790015  0.408418  0.113220  1
  La  La2  1  0.209985  0.591582  0.113220  1
  La  La3  1  0.908418  0.709985  0.113220  1
  La  La4  1  0.408418  0.790015  0.386780  1
  La  La5  1  0.591582  0.209985  0.386780  1
  La  La6  1  0.290015  0.091582  0.386780  1
  La  La7  1  0.709985  0.908418  0.386780  1
  La  La8  1  0.409262  0.209057  0.884539  1
  La  La9  1  0.709057  0.090738  0.884539  1
  La  La10  1  0.290943  0.909262  0.884539  1
  La  La11  1  0.590738  0.790943  0.884539  1
  La  La12  1  0.090738  0.709057  0.615461  1
  La  La13  1  0.909262  0.290943  0.615461  1
  La  La14  1  0.209057  0.409262  0.615461  1
  La  La15  1  0.790943  0.590738  0.615461  1
  Nd  Nd16  1  0.000000  0.000000  0.000146  1
  Nd  Nd17  1  0.500000  0.500000  0.000146  1
  Nd  Nd18  1  0.500000  0.500000  0.499854  1
  Nd  Nd19  1  0.000000  0.000000  0.499854  1
  Ir  Ir20  1  0.346122  0.653878  0.750000  1
  Ir  Ir21  1  0.153878  0.153878  0.750000  1
  Ir  Ir22  1  0.846122  0.846122  0.750000  1
  Ir  Ir23  1  0.653878  0.346122  0.750000  1
  Rh  Rh24  1  0.154634  0.845366  0.250000  1
  Rh  Rh25  1  0.345366  0.345366  0.250000  1
  Rh  Rh26  1  0.654634  0.654634  0.250000  1
  Rh  Rh27  1  0.845366  0.154634  0.250000  1
  Rh  Rh28  1  0.000000  0.500000  0.378538  1
  Rh  Rh29  1  0.500000  0.000000  0.121462  1
  Rh  Rh30  1  0.500000  0.000000  0.620041  1
  Rh  Rh31  1  0.000000  0.500000  0.879959  1
