# generated using pymatgen
data_Sr5Yb3(Al4Au3)4
_symmetry_space_group_name_H-M   'P 1'
_cell_length_a   14.21349600
_cell_length_b   14.21349684
_cell_length_c   4.43700100
_cell_angle_alpha   90.00000000
_cell_angle_beta   90.00000000
_cell_angle_gamma   120.00000271
_symmetry_Int_Tables_number   1
_chemical_formula_structural   Sr5Yb3(Al4Au3)4
_chemical_formula_sum   'Sr5 Yb3 Al16 Au12'
_cell_volume   776.28643130
_cell_formula_units_Z   1
loop_
 _symmetry_equiv_pos_site_id
 _symmetry_equiv_pos_as_xyz
  1  'x, y, z'
loop_
 _atom_site_type_symbol
 _atom_site_label
 _atom_site_symmetry_multiplicity
 _atom_site_fract_x
 _atom_site_fract_y
 _atom_site_fract_z
 _atom_site_occupancy
  Sr  Sr0  1  0.333333  0.666667  0.000000  1
  Sr  Sr1  1  0.666667  0.333333  0.000000  1
  Sr  Sr2  1  0.819500  0.000000  0.500000  1
  Sr  Sr3  1  0.000000  0.819500  0.500000  1
  Sr  Sr4  1  0.180500  0.180500  0.500000  1
  Yb  Yb5  1  0.445978  0.000000  0.000000  1
  Yb  Yb6  1  0.000000  0.445978  0.000000  1
  Yb  Yb7  1  0.554022  0.554022  0.000000  1
  Al  Al8  1  0.186580  0.382430  0.000000  1
  Al  Al9  1  0.617570  0.804151  0.000000  1
  Al  Al10  1  0.382430  0.186580  0.000000  1
  Al  Al11  1  0.195849  0.813420  0.000000  1
  Al  Al12  1  0.804151  0.617570  0.000000  1
  Al  Al13  1  0.813420  0.195849  0.000000  1
  Al  Al14  1  0.279309  0.000000  0.500000  1
  Al  Al15  1  0.000000  0.279309  0.500000  1
  Al  Al16  1  0.720691  0.720691  0.500000  1
  Al  Al17  1  0.352989  0.471163  0.500000  1
  Al  Al18  1  0.528837  0.881826  0.500000  1
  Al  Al19  1  0.471163  0.352989  0.500000  1
  Al  Al20  1  0.118174  0.647011  0.500000  1
  Al  Al21  1  0.881826  0.528837  0.500000  1
  Al  Al22  1  0.647011  0.118174  0.500000  1
  Al  Al23  1  0.000000  0.000000  0.000000  1
  Au  Au24  1  0.169955  0.481284  0.500000  1
  Au  Au25  1  0.518716  0.688672  0.500000  1
  Au  Au26  1  0.481284  0.169955  0.500000  1
  Au  Au27  1  0.311328  0.830045  0.500000  1
  Au  Au28  1  0.688672  0.518716  0.500000  1
  Au  Au29  1  0.830045  0.311328  0.500000  1
  Au  Au30  1  0.184725  0.000000  0.000000  1
  Au  Au31  1  0.000000  0.184725  0.000000  1
  Au  Au32  1  0.815275  0.815275  0.000000  1
  Au  Au33  1  0.646980  0.000000  0.000000  1
  Au  Au34  1  0.000000  0.646980  0.000000  1
  Au  Au35  1  0.353020  0.353020  0.000000  1
