# generated using pymatgen
data_Er2Tm10InCo5
_symmetry_space_group_name_H-M   'P 1'
_cell_length_a   8.17275428
_cell_length_b   8.17275450
_cell_length_c   8.17064108
_cell_angle_alpha   111.03204597
_cell_angle_beta   110.84926081
_cell_angle_gamma   106.58182098
_symmetry_Int_Tables_number   1
_chemical_formula_structural   Er2Tm10InCo5
_chemical_formula_sum   'Er2 Tm10 In1 Co5'
_cell_volume   419.26020246
_cell_formula_units_Z   1
loop_
 _symmetry_equiv_pos_site_id
 _symmetry_equiv_pos_as_xyz
  1  'x, y, z'
loop_
 _atom_site_type_symbol
 _atom_site_label
 _atom_site_symmetry_multiplicity
 _atom_site_fract_x
 _atom_site_fract_y
 _atom_site_fract_z
 _atom_site_occupancy
  Er  Er0  1  0.288224  0.185729  0.473952  1
  Er  Er1  1  0.711776  0.814271  0.526048  1
  Tm  Tm2  1  0.288028  0.814436  0.102464  1
  Tm  Tm3  1  0.711972  0.185564  0.897536  1
  Tm  Tm4  1  0.619246  0.314071  0.304804  1
  Tm  Tm5  1  0.380754  0.685929  0.695196  1
  Tm  Tm6  1  0.009267  0.314442  0.695196  1
  Tm  Tm7  1  0.990733  0.685558  0.304804  1
  Tm  Tm8  1  0.212829  0.405334  0.192007  1
  Tm  Tm9  1  0.787171  0.594666  0.807993  1
  Tm  Tm10  1  0.213328  0.020823  0.807993  1
  Tm  Tm11  1  0.786672  0.979177  0.192007  1
  In  In12  1  0.500000  0.500000  0.000000  1
  Co  Co13  1  0.999883  0.376662  0.376545  1
  Co  Co14  1  0.000117  0.623338  0.623455  1
  Co  Co15  1  0.386941  0.886941  0.500000  1
  Co  Co16  1  0.613059  0.113059  0.500000  1
  Co  Co17  1  0.000000  0.000000  0.000000  1
