# generated using pymatgen
data_Ac5Nd(Ga4Cl)2
_symmetry_space_group_name_H-M   'P 1'
_cell_length_a   8.35964178
_cell_length_b   8.35964416
_cell_length_c   8.35964086
_cell_angle_alpha   119.69192821
_cell_angle_beta   119.69285439
_cell_angle_gamma   90.53361971
_symmetry_Int_Tables_number   1
_chemical_formula_structural   Ac5Nd(Ga4Cl)2
_chemical_formula_sum   'Ac5 Nd1 Ga8 Cl2'
_cell_volume   414.99444107
_cell_formula_units_Z   1
loop_
 _symmetry_equiv_pos_site_id
 _symmetry_equiv_pos_as_xyz
  1  'x, y, z'
loop_
 _atom_site_type_symbol
 _atom_site_label
 _atom_site_symmetry_multiplicity
 _atom_site_fract_x
 _atom_site_fract_y
 _atom_site_fract_z
 _atom_site_occupancy
  Ac  Ac0  1  0.839518  0.660481  0.499999  1
  Ac  Ac1  1  0.660484  0.160480  0.820967  1
  Ac  Ac2  1  0.339518  0.839519  0.179038  1
  Ac  Ac3  1  0.160487  0.339520  0.500003  1
  Ac  Ac4  1  0.249997  0.250000  0.999997  1
  Nd  Nd5  1  0.750000  0.750000  0.000000  1
  Ga  Ga6  1  0.156856  0.941233  0.495621  1
  Ga  Ga7  1  0.445611  0.661234  0.504379  1
  Ga  Ga8  1  0.558768  0.343145  0.504379  1
  Ga  Ga9  1  0.661234  0.156855  0.215622  1
  Ga  Ga10  1  0.838763  0.054387  0.495619  1
  Ga  Ga11  1  0.054388  0.558767  0.215622  1
  Ga  Ga12  1  0.343145  0.838766  0.784378  1
  Ga  Ga13  1  0.941232  0.445613  0.784377  1
  Cl  Cl14  1  0.995163  0.995164  0.999999  1
  Cl  Cl15  1  0.504835  0.504836  0.000000  1
