# generated using pymatgen
data_Ta4BeVGa3
_symmetry_space_group_name_H-M   'P 1'
_cell_length_a   7.78143200
_cell_length_b   7.78143268
_cell_length_c   5.26398500
_cell_angle_alpha   90.00000000
_cell_angle_beta   90.00000000
_cell_angle_gamma   120.00000560
_symmetry_Int_Tables_number   1
_chemical_formula_structural   Ta4BeVGa3
_chemical_formula_sum   'Ta8 Be2 V2 Ga6'
_cell_volume   276.03512037
_cell_formula_units_Z   2
loop_
 _symmetry_equiv_pos_site_id
 _symmetry_equiv_pos_as_xyz
  1  'x, y, z'
loop_
 _atom_site_type_symbol
 _atom_site_label
 _atom_site_symmetry_multiplicity
 _atom_site_fract_x
 _atom_site_fract_y
 _atom_site_fract_z
 _atom_site_occupancy
  Ta  Ta0  1  0.259293  0.000000  0.259078  1
  Ta  Ta1  1  0.740707  0.000000  0.740922  1
  Ta  Ta2  1  0.000000  0.259293  0.259078  1
  Ta  Ta3  1  0.000000  0.740707  0.740922  1
  Ta  Ta4  1  0.740707  0.740707  0.259078  1
  Ta  Ta5  1  0.259293  0.259293  0.740922  1
  Ta  Ta6  1  0.666667  0.333333  0.500000  1
  Ta  Ta7  1  0.333333  0.666667  0.500000  1
  Be  Be8  1  0.000000  0.000000  0.000000  1
  Be  Be9  1  0.000000  0.000000  0.500000  1
  V  V10  1  0.333333  0.666667  0.000000  1
  V  V11  1  0.666667  0.333333  0.000000  1
  Ga  Ga12  1  0.605745  0.000000  0.234192  1
  Ga  Ga13  1  0.394255  0.000000  0.765808  1
  Ga  Ga14  1  0.000000  0.605745  0.234192  1
  Ga  Ga15  1  0.000000  0.394255  0.765808  1
  Ga  Ga16  1  0.394255  0.394255  0.234192  1
  Ga  Ga17  1  0.605745  0.605745  0.765808  1
