# generated using pymatgen
data_Mn4SbPd9Pt2
_symmetry_space_group_name_H-M   'P 1'
_cell_length_a   6.86516867
_cell_length_b   6.86515211
_cell_length_c   6.86517058
_cell_angle_alpha   108.25548944
_cell_angle_beta   108.23732080
_cell_angle_gamma   111.94975797
_symmetry_Int_Tables_number   1
_chemical_formula_structural   Mn4SbPd9Pt2
_chemical_formula_sum   'Mn4 Sb1 Pd9 Pt2'
_cell_volume   248.72381094
_cell_formula_units_Z   1
loop_
 _symmetry_equiv_pos_site_id
 _symmetry_equiv_pos_as_xyz
  1  'x, y, z'
loop_
 _atom_site_type_symbol
 _atom_site_label
 _atom_site_symmetry_multiplicity
 _atom_site_fract_x
 _atom_site_fract_y
 _atom_site_fract_z
 _atom_site_occupancy
  Mn  Mn0  1  0.264839  0.238331  0.503178  1
  Mn  Mn1  1  0.735161  0.761669  0.496822  1
  Mn  Mn2  1  0.264846  0.761669  0.026507  1
  Mn  Mn3  1  0.735154  0.238331  0.973493  1
  Sb  Sb4  1  0.000000  0.500000  0.500000  1
  Pd  Pd5  1  0.505466  0.255606  0.249860  1
  Pd  Pd6  1  0.494534  0.744394  0.750140  1
  Pd  Pd7  1  0.005747  0.255606  0.750141  1
  Pd  Pd8  1  0.242817  0.992796  0.749979  1
  Pd  Pd9  1  0.994253  0.744394  0.249859  1
  Pd  Pd10  1  0.757183  0.007204  0.250021  1
  Pd  Pd11  1  0.242817  0.492838  0.250020  1
  Pd  Pd12  1  0.757183  0.507162  0.749980  1
  Pd  Pd13  1  0.000000  0.000000  0.000000  1
  Pt  Pt14  1  0.500000  0.000000  0.500000  1
  Pt  Pt15  1  0.500000  0.500000  0.000000  1
