# generated using pymatgen
data_Eu2Fe2Si2N
_symmetry_space_group_name_H-M   'P 1'
_cell_length_a   5.76092960
_cell_length_b   5.76092860
_cell_length_c   6.97461705
_cell_angle_alpha   125.51808232
_cell_angle_beta   125.51807669
_cell_angle_gamma   39.77498752
_symmetry_Int_Tables_number   1
_chemical_formula_structural   Eu2Fe2Si2N
_chemical_formula_sum   'Eu2 Fe2 Si2 N1'
_cell_volume   116.44963317
_cell_formula_units_Z   1
loop_
 _symmetry_equiv_pos_site_id
 _symmetry_equiv_pos_as_xyz
  1  'x, y, z'
loop_
 _atom_site_type_symbol
 _atom_site_label
 _atom_site_symmetry_multiplicity
 _atom_site_fract_x
 _atom_site_fract_y
 _atom_site_fract_z
 _atom_site_occupancy
  Eu  Eu0  1  0.558761  0.558761  0.297589  1
  Eu  Eu1  1  0.441239  0.441239  0.702411  1
  Fe  Fe2  1  0.190894  0.190894  0.083359  1
  Fe  Fe3  1  0.809106  0.809106  0.916641  1
  Si  Si4  1  0.822309  0.822309  0.258527  1
  Si  Si5  1  0.177691  0.177691  0.741472  1
  N  N6  1  0.000000  0.000000  0.000000  1
