# generated using pymatgen
data_La3SmDySn3Cl
_symmetry_space_group_name_H-M   'P 1'
_cell_length_a   9.54249300
_cell_length_b   9.54249244
_cell_length_c   6.78597600
_cell_angle_alpha   90.00000000
_cell_angle_beta   90.00000000
_cell_angle_gamma   119.99999846
_symmetry_Int_Tables_number   1
_chemical_formula_structural   La3SmDySn3Cl
_chemical_formula_sum   'La6 Sm2 Dy2 Sn6 Cl2'
_cell_volume   535.13903670
_cell_formula_units_Z   2
loop_
 _symmetry_equiv_pos_site_id
 _symmetry_equiv_pos_as_xyz
  1  'x, y, z'
loop_
 _atom_site_type_symbol
 _atom_site_label
 _atom_site_symmetry_multiplicity
 _atom_site_fract_x
 _atom_site_fract_y
 _atom_site_fract_z
 _atom_site_occupancy
  La  La0  1  0.738140  0.000000  0.750000  1
  La  La1  1  0.738140  0.738140  0.250000  1
  La  La2  1  0.000000  0.261860  0.250000  1
  La  La3  1  0.000000  0.738140  0.750000  1
  La  La4  1  0.261860  0.261860  0.750000  1
  La  La5  1  0.261860  0.000000  0.250000  1
  Sm  Sm6  1  0.666667  0.333333  0.500000  1
  Sm  Sm7  1  0.333333  0.666667  0.000000  1
  Dy  Dy8  1  0.666667  0.333333  0.000000  1
  Dy  Dy9  1  0.333333  0.666667  0.500000  1
  Sn  Sn10  1  0.609416  0.609416  0.750000  1
  Sn  Sn11  1  0.000000  0.609416  0.250000  1
  Sn  Sn12  1  0.609416  0.000000  0.250000  1
  Sn  Sn13  1  0.390584  0.000000  0.750000  1
  Sn  Sn14  1  0.000000  0.390584  0.750000  1
  Sn  Sn15  1  0.390584  0.390584  0.250000  1
  Cl  Cl16  1  0.000000  0.000000  0.500000  1
  Cl  Cl17  1  0.000000  0.000000  0.000000  1
