# generated using pymatgen
data_Cs2Pt3O8
_symmetry_space_group_name_H-M   'P 1'
_cell_length_a   7.81070622
_cell_length_b   7.81074022
_cell_length_c   5.41060341
_cell_angle_alpha   106.23972011
_cell_angle_beta   106.23961676
_cell_angle_gamma   48.05732743
_symmetry_Int_Tables_number   1
_chemical_formula_structural   Cs2Pt3O8
_chemical_formula_sum   'Cs2 Pt3 O8'
_cell_volume   233.73083775
_cell_formula_units_Z   1
loop_
 _symmetry_equiv_pos_site_id
 _symmetry_equiv_pos_as_xyz
  1  'x, y, z'
loop_
 _atom_site_type_symbol
 _atom_site_label
 _atom_site_symmetry_multiplicity
 _atom_site_fract_x
 _atom_site_fract_y
 _atom_site_fract_z
 _atom_site_occupancy
  Cs  Cs0  1  0.725978  0.725984  0.183375  1
  Cs  Cs1  1  0.274015  0.274017  0.816624  1
  Pt  Pt2  1  0.000001  0.999998  0.999993  1
  Pt  Pt3  1  0.745020  0.254982  0.500003  1
  Pt  Pt4  1  0.254965  0.745036  0.500001  1
  O  O5  1  0.703477  0.145194  0.123109  1
  O  O6  1  0.145195  0.703471  0.123113  1
  O  O7  1  0.074196  0.074186  0.395288  1
  O  O8  1  0.579672  0.579664  0.449425  1
  O  O9  1  0.420337  0.420333  0.550574  1
  O  O10  1  0.925812  0.925809  0.604712  1
  O  O11  1  0.854805  0.296525  0.876897  1
  O  O12  1  0.296527  0.854802  0.876889  1
