# generated using pymatgen
data_HoLu(CuSn)2
_symmetry_space_group_name_H-M   'P 1'
_cell_length_a   4.51240500
_cell_length_b   4.51240444
_cell_length_c   7.17738300
_cell_angle_alpha   90.00000000
_cell_angle_beta   90.00000000
_cell_angle_gamma   119.99999680
_symmetry_Int_Tables_number   1
_chemical_formula_structural   HoLu(CuSn)2
_chemical_formula_sum   'Ho1 Lu1 Cu2 Sn2'
_cell_volume   126.56477654
_cell_formula_units_Z   1
loop_
 _symmetry_equiv_pos_site_id
 _symmetry_equiv_pos_as_xyz
  1  'x, y, z'
loop_
 _atom_site_type_symbol
 _atom_site_label
 _atom_site_symmetry_multiplicity
 _atom_site_fract_x
 _atom_site_fract_y
 _atom_site_fract_z
 _atom_site_occupancy
  Ho  Ho0  1  0.000000  0.000000  0.498937  1
  Lu  Lu1  1  0.000000  0.000000  0.998275  1
  Cu  Cu2  1  0.333333  0.666667  0.320526  1
  Cu  Cu3  1  0.666667  0.333333  0.827129  1
  Sn  Sn4  1  0.666667  0.333333  0.227429  1
  Sn  Sn5  1  0.333333  0.666667  0.732824  1
