# generated using pymatgen
data_Ce2Nd4Al24Os5Au3
_symmetry_space_group_name_H-M   'P 1'
_cell_length_a   8.97775934
_cell_length_b   9.01313854
_cell_length_c   9.64349445
_cell_angle_alpha   90.07819410
_cell_angle_beta   90.03161446
_cell_angle_gamma   119.60465446
_symmetry_Int_Tables_number   1
_chemical_formula_structural   Ce2Nd4Al24Os5Au3
_chemical_formula_sum   'Ce2 Nd4 Al24 Os5 Au3'
_cell_volume   678.46057283
_cell_formula_units_Z   1
loop_
 _symmetry_equiv_pos_site_id
 _symmetry_equiv_pos_as_xyz
  1  'x, y, z'
loop_
 _atom_site_type_symbol
 _atom_site_label
 _atom_site_symmetry_multiplicity
 _atom_site_fract_x
 _atom_site_fract_y
 _atom_site_fract_z
 _atom_site_occupancy
  Ce  Ce0  1  0.187531  0.378082  0.249766  1
  Ce  Ce1  1  0.812469  0.621918  0.750234  1
  Nd  Nd2  1  0.618263  0.810437  0.254116  1
  Nd  Nd3  1  0.381737  0.189563  0.745884  1
  Nd  Nd4  1  0.191969  0.808448  0.249148  1
  Nd  Nd5  1  0.808031  0.191552  0.750852  1
  Al  Al6  1  0.339001  0.677350  0.027327  1
  Al  Al7  1  0.660999  0.322650  0.972673  1
  Al  Al8  1  0.671671  0.327961  0.525117  1
  Al  Al9  1  0.328329  0.672039  0.474883  1
  Al  Al10  1  0.150148  0.322260  0.572349  1
  Al  Al11  1  0.849852  0.677740  0.427651  1
  Al  Al12  1  0.676976  0.849303  0.576747  1
  Al  Al13  1  0.840285  0.682026  0.078898  1
  Al  Al14  1  0.323024  0.150697  0.423253  1
  Al  Al15  1  0.159715  0.317974  0.921102  1
  Al  Al16  1  0.164476  0.836753  0.575062  1
  Al  Al17  1  0.322797  0.150491  0.077242  1
  Al  Al18  1  0.835524  0.163247  0.424938  1
  Al  Al19  1  0.677203  0.849509  0.922758  1
  Al  Al20  1  0.827751  0.151518  0.080958  1
  Al  Al21  1  0.172249  0.848482  0.919042  1
  Al  Al22  1  0.561780  0.122263  0.250327  1
  Al  Al23  1  0.438220  0.877737  0.749673  1
  Al  Al24  1  0.871062  0.433868  0.257112  1
  Al  Al25  1  0.128938  0.566132  0.742888  1
  Al  Al26  1  0.565023  0.432021  0.250134  1
  Al  Al27  1  0.434977  0.567979  0.749866  1
  Al  Al28  1  0.000179  0.003164  0.250513  1
  Al  Al29  1  0.999821  0.996836  0.749487  1
  Os  Os30  1  0.500000  0.000000  0.000000  1
  Os  Os31  1  0.500000  0.000000  0.500000  1
  Os  Os32  1  0.000000  0.500000  0.500000  1
  Os  Os33  1  0.000000  0.000000  0.000000  1
  Os  Os34  1  0.000000  0.000000  0.500000  1
  Au  Au35  1  0.000000  0.500000  0.000000  1
  Au  Au36  1  0.500000  0.500000  0.000000  1
  Au  Au37  1  0.500000  0.500000  0.500000  1
