# generated using pymatgen
data_TbSmAl3Cu7
_symmetry_space_group_name_H-M   'P 1'
_cell_length_a   4.18267700
_cell_length_b   5.10551740
_cell_length_c   8.86768325
_cell_angle_alpha   90.60797314
_cell_angle_beta   90.00000000
_cell_angle_gamma   90.00000000
_symmetry_Int_Tables_number   1
_chemical_formula_structural   TbSmAl3Cu7
_chemical_formula_sum   'Tb1 Sm1 Al3 Cu7'
_cell_volume   189.35632229
_cell_formula_units_Z   1
loop_
 _symmetry_equiv_pos_site_id
 _symmetry_equiv_pos_as_xyz
  1  'x, y, z'
loop_
 _atom_site_type_symbol
 _atom_site_label
 _atom_site_symmetry_multiplicity
 _atom_site_fract_x
 _atom_site_fract_y
 _atom_site_fract_z
 _atom_site_occupancy
  Tb  Tb0  1  0.000000  0.002000  0.000028  1
  Sm  Sm1  1  0.000000  0.497713  0.500829  1
  Al  Al2  1  0.500000  0.514195  0.994550  1
  Al  Al3  1  0.500000  0.986919  0.504764  1
  Al  Al4  1  0.500000  0.248838  0.248899  1
  Cu  Cu5  1  0.000000  0.997814  0.332495  1
  Cu  Cu6  1  0.000000  0.500187  0.835105  1
  Cu  Cu7  1  0.000000  0.501133  0.162976  1
  Cu  Cu8  1  0.000000  0.999968  0.669478  1
  Cu  Cu9  1  0.500000  0.751686  0.750943  1
  Cu  Cu10  1  0.500000  0.750333  0.248482  1
  Cu  Cu11  1  0.500000  0.249012  0.751451  1
