# generated using pymatgen
data_Dy4Rh3AuO14
_symmetry_space_group_name_H-M   'P 1'
_cell_length_a   7.28044944
_cell_length_b   7.24344734
_cell_length_c   7.28045000
_cell_angle_alpha   59.83087004
_cell_angle_beta   59.99999744
_cell_angle_gamma   59.83087618
_symmetry_Int_Tables_number   1
_chemical_formula_structural   Dy4Rh3AuO14
_chemical_formula_sum   'Dy4 Rh3 Au1 O14'
_cell_volume   270.78946341
_cell_formula_units_Z   1
loop_
 _symmetry_equiv_pos_site_id
 _symmetry_equiv_pos_as_xyz
  1  'x, y, z'
loop_
 _atom_site_type_symbol
 _atom_site_label
 _atom_site_symmetry_multiplicity
 _atom_site_fract_x
 _atom_site_fract_y
 _atom_site_fract_z
 _atom_site_occupancy
  Dy  Dy0  1  0.125000  0.625000  0.125000  1
  Dy  Dy1  1  0.125000  0.125000  0.625000  1
  Dy  Dy2  1  0.625000  0.125000  0.125000  1
  Dy  Dy3  1  0.125000  0.125000  0.125000  1
  Rh  Rh4  1  0.625000  0.625000  0.625000  1
  Rh  Rh5  1  0.125000  0.625000  0.625000  1
  Rh  Rh6  1  0.625000  0.625000  0.125000  1
  Au  Au7  1  0.625000  0.125000  0.625000  1
  O  O8  1  0.287932  0.711451  0.712686  1
  O  O9  1  0.533151  0.964391  0.969305  1
  O  O10  1  0.716849  0.285609  0.716849  1
  O  O11  1  0.280695  0.285609  0.716849  1
  O  O12  1  0.712686  0.711451  0.287932  1
  O  O13  1  0.999476  0.001572  0.999476  1
  O  O14  1  0.287932  0.711451  0.287932  1
  O  O15  1  0.962068  0.538549  0.962068  1
  O  O16  1  0.969305  0.964391  0.533151  1
  O  O17  1  0.537314  0.538549  0.962068  1
  O  O18  1  0.250524  0.248428  0.250524  1
  O  O19  1  0.533151  0.964391  0.533151  1
  O  O20  1  0.716849  0.285609  0.280695  1
  O  O21  1  0.962068  0.538549  0.537314  1
