# generated using pymatgen
data_Dy3Tm2CoSb2
_symmetry_space_group_name_H-M   'P 1'
_cell_length_a   7.79947800
_cell_length_b   8.76313000
_cell_length_c   12.14856200
_cell_angle_alpha   90.00000000
_cell_angle_beta   90.00000000
_cell_angle_gamma   90.00000000
_symmetry_Int_Tables_number   1
_chemical_formula_structural   Dy3Tm2CoSb2
_chemical_formula_sum   'Dy12 Tm8 Co4 Sb8'
_cell_volume   830.32796751
_cell_formula_units_Z   4
loop_
 _symmetry_equiv_pos_site_id
 _symmetry_equiv_pos_as_xyz
  1  'x, y, z'
loop_
 _atom_site_type_symbol
 _atom_site_label
 _atom_site_symmetry_multiplicity
 _atom_site_fract_x
 _atom_site_fract_y
 _atom_site_fract_z
 _atom_site_occupancy
  Dy  Dy0  1  0.153754  0.750000  0.203291  1
  Dy  Dy1  1  0.346246  0.750000  0.703291  1
  Dy  Dy2  1  0.846246  0.250000  0.796709  1
  Dy  Dy3  1  0.653754  0.250000  0.296709  1
  Dy  Dy4  1  0.452833  0.750000  0.998001  1
  Dy  Dy5  1  0.047167  0.750000  0.498001  1
  Dy  Dy6  1  0.547167  0.250000  0.001999  1
  Dy  Dy7  1  0.952833  0.250000  0.501999  1
  Dy  Dy8  1  0.621590  0.750000  0.308007  1
  Dy  Dy9  1  0.878410  0.750000  0.808007  1
  Dy  Dy10  1  0.378410  0.250000  0.691993  1
  Dy  Dy11  1  0.121590  0.250000  0.191993  1
  Tm  Tm12  1  0.823983  0.536022  0.064856  1
  Tm  Tm13  1  0.676017  0.963978  0.564856  1
  Tm  Tm14  1  0.176017  0.036022  0.935144  1
  Tm  Tm15  1  0.323983  0.463978  0.435144  1
  Tm  Tm16  1  0.176017  0.463978  0.935144  1
  Tm  Tm17  1  0.323983  0.036022  0.435144  1
  Tm  Tm18  1  0.823983  0.963978  0.064856  1
  Tm  Tm19  1  0.676017  0.536022  0.564856  1
  Co  Co20  1  0.435072  0.750000  0.491333  1
  Co  Co21  1  0.064928  0.750000  0.991333  1
  Co  Co22  1  0.564928  0.250000  0.508667  1
  Co  Co23  1  0.935072  0.250000  0.008667  1
  Sb  Sb24  1  0.929441  0.508408  0.327042  1
  Sb  Sb25  1  0.570559  0.991592  0.827042  1
  Sb  Sb26  1  0.070559  0.008408  0.672958  1
  Sb  Sb27  1  0.429441  0.491592  0.172958  1
  Sb  Sb28  1  0.070559  0.491592  0.672958  1
  Sb  Sb29  1  0.429441  0.008408  0.172958  1
  Sb  Sb30  1  0.929441  0.991592  0.327042  1
  Sb  Sb31  1  0.570559  0.508408  0.827042  1
