# generated using pymatgen
data_LuHf7(OsRu)4
_symmetry_space_group_name_H-M   'P 1'
_cell_length_a   6.50472200
_cell_length_b   4.62199000
_cell_length_c   9.23114200
_cell_angle_alpha   90.00000000
_cell_angle_beta   89.99832269
_cell_angle_gamma   90.00000000
_symmetry_Int_Tables_number   1
_chemical_formula_structural   LuHf7(OsRu)4
_chemical_formula_sum   'Lu1 Hf7 Os4 Ru4'
_cell_volume   277.53206904
_cell_formula_units_Z   1
loop_
 _symmetry_equiv_pos_site_id
 _symmetry_equiv_pos_as_xyz
  1  'x, y, z'
loop_
 _atom_site_type_symbol
 _atom_site_label
 _atom_site_symmetry_multiplicity
 _atom_site_fract_x
 _atom_site_fract_y
 _atom_site_fract_z
 _atom_site_occupancy
  Lu  Lu0  1  0.499966  0.750000  0.125001  1
  Hf  Hf1  1  0.000148  0.750000  0.125027  1
  Hf  Hf2  1  0.500077  0.250001  0.375043  1
  Hf  Hf3  1  0.000033  0.250001  0.374655  1
  Hf  Hf4  1  0.999829  0.750000  0.625014  1
  Hf  Hf5  1  0.499895  0.750000  0.625025  1
  Hf  Hf6  1  0.999965  0.250001  0.875341  1
  Hf  Hf7  1  0.499996  0.250001  0.874916  1
  Os  Os8  1  0.756666  0.250001  0.125005  1
  Os  Os9  1  0.246916  0.750000  0.379063  1
  Os  Os10  1  0.749539  0.250001  0.625027  1
  Os  Os11  1  0.246867  0.750000  0.870933  1
  Ru  Ru12  1  0.245502  0.250001  0.124941  1
  Ru  Ru13  1  0.752103  0.750000  0.378535  1
  Ru  Ru14  1  0.250408  0.250001  0.624978  1
  Ru  Ru15  1  0.752090  0.750000  0.871495  1
