# generated using pymatgen
data_Ca2Pa(SnIr)3
_symmetry_space_group_name_H-M   'P 1'
_cell_length_a   7.47840250
_cell_length_b   7.70857674
_cell_length_c   3.99338200
_cell_angle_alpha   90.00000000
_cell_angle_beta   90.00000000
_cell_angle_gamma   121.02349088
_symmetry_Int_Tables_number   1
_chemical_formula_structural   Ca2Pa(SnIr)3
_chemical_formula_sum   'Ca2 Pa1 Sn3 Ir3'
_cell_volume   197.27972311
_cell_formula_units_Z   1
loop_
 _symmetry_equiv_pos_site_id
 _symmetry_equiv_pos_as_xyz
  1  'x, y, z'
loop_
 _atom_site_type_symbol
 _atom_site_label
 _atom_site_symmetry_multiplicity
 _atom_site_fract_x
 _atom_site_fract_y
 _atom_site_fract_z
 _atom_site_occupancy
  Ca  Ca0  1  0.404099  0.406362  0.500000  1
  Ca  Ca1  1  0.595901  0.002262  0.500000  1
  Pa  Pa2  1  0.000000  0.588463  0.500000  1
  Sn  Sn3  1  0.727389  0.741957  0.000000  1
  Sn  Sn4  1  0.272611  0.014569  0.000000  1
  Sn  Sn5  1  0.000000  0.239537  0.000000  1
  Ir  Ir6  1  0.710953  0.370280  0.000000  1
  Ir  Ir7  1  0.289047  0.659328  0.000000  1
  Ir  Ir8  1  0.000000  0.977239  0.500000  1
