# generated using pymatgen
data_LuSi4(IrRh2)2
_symmetry_space_group_name_H-M   'P 1'
_cell_length_a   7.03023689
_cell_length_b   7.03023700
_cell_length_c   3.78907800
_cell_angle_alpha   90.00000000
_cell_angle_beta   90.00000000
_cell_angle_gamma   120.35581716
_symmetry_Int_Tables_number   1
_chemical_formula_structural   LuSi4(IrRh2)2
_chemical_formula_sum   'Lu1 Si4 Ir2 Rh4'
_cell_volume   161.59792080
_cell_formula_units_Z   1
loop_
 _symmetry_equiv_pos_site_id
 _symmetry_equiv_pos_as_xyz
  1  'x, y, z'
loop_
 _atom_site_type_symbol
 _atom_site_label
 _atom_site_symmetry_multiplicity
 _atom_site_fract_x
 _atom_site_fract_y
 _atom_site_fract_z
 _atom_site_occupancy
  Lu  Lu0  1  0.000757  0.999243  0.000000  1
  Si  Si1  1  0.802145  0.197855  0.500000  1
  Si  Si2  1  0.800766  0.603948  0.500000  1
  Si  Si3  1  0.396052  0.199234  0.500000  1
  Si  Si4  1  0.332658  0.667342  0.000000  1
  Ir  Ir5  1  0.533253  0.466747  0.000000  1
  Ir  Ir6  1  0.195840  0.804160  0.500000  1
  Rh  Rh7  1  0.535744  0.066175  0.000000  1
  Rh  Rh8  1  0.933825  0.464256  0.000000  1
  Rh  Rh9  1  0.196815  0.394524  0.500000  1
  Rh  Rh10  1  0.605476  0.803185  0.500000  1
