# generated using pymatgen
data_NdSmAl2Co5NiB2
_symmetry_space_group_name_H-M   'P 1'
_cell_length_a   5.22722900
_cell_length_b   5.22725636
_cell_length_c   6.68056900
_cell_angle_alpha   90.00000000
_cell_angle_beta   90.00000000
_cell_angle_gamma   120.00071912
_symmetry_Int_Tables_number   1
_chemical_formula_structural   NdSmAl2Co5NiB2
_chemical_formula_sum   'Nd1 Sm1 Al2 Co5 Ni1 B2'
_cell_volume   158.08339899
_cell_formula_units_Z   1
loop_
 _symmetry_equiv_pos_site_id
 _symmetry_equiv_pos_as_xyz
  1  'x, y, z'
loop_
 _atom_site_type_symbol
 _atom_site_label
 _atom_site_symmetry_multiplicity
 _atom_site_fract_x
 _atom_site_fract_y
 _atom_site_fract_z
 _atom_site_occupancy
  Nd  Nd0  1  0.999980  0.000002  0.996783  1
  Sm  Sm1  1  0.999990  0.999996  0.500476  1
  Al  Al2  1  0.331491  0.668469  0.999258  1
  Al  Al3  1  0.668471  0.331531  0.999252  1
  Co  Co4  1  0.499976  0.000008  0.296621  1
  Co  Co5  1  0.999976  0.500009  0.296627  1
  Co  Co6  1  0.500000  0.999991  0.703932  1
  Co  Co7  1  0.499986  0.499999  0.704109  1
  Co  Co8  1  0.999992  0.499984  0.703925  1
  Ni  Ni9  1  0.499979  0.500003  0.294864  1
  B  B10  1  0.330566  0.669426  0.502069  1
  B  B11  1  0.669394  0.330582  0.502080  1
