# generated using pymatgen
data_Cs7NbTl2InP5
_symmetry_space_group_name_H-M   'P 1'
_cell_length_a   8.92881128
_cell_length_b   9.75505645
_cell_length_c   14.89655818
_cell_angle_alpha   85.98448983
_cell_angle_beta   84.53074631
_cell_angle_gamma   84.88057666
_symmetry_Int_Tables_number   1
_chemical_formula_structural   Cs7NbTl2InP5
_chemical_formula_sum   'Cs14 Nb2 Tl4 In2 P10'
_cell_volume   1283.96774183
_cell_formula_units_Z   2
loop_
 _symmetry_equiv_pos_site_id
 _symmetry_equiv_pos_as_xyz
  1  'x, y, z'
loop_
 _atom_site_type_symbol
 _atom_site_label
 _atom_site_symmetry_multiplicity
 _atom_site_fract_x
 _atom_site_fract_y
 _atom_site_fract_z
 _atom_site_occupancy
  Cs  Cs0  1  0.849814  0.355018  0.655624  1
  Cs  Cs1  1  0.816783  0.803252  0.139505  1
  Cs  Cs2  1  0.231265  0.008906  0.471055  1
  Cs  Cs3  1  0.272105  0.251232  0.254569  1
  Cs  Cs4  1  0.732568  0.503351  0.972652  1
  Cs  Cs5  1  0.263067  0.496289  0.026311  1
  Cs  Cs6  1  0.675865  0.081372  0.887793  1
  Cs  Cs7  1  0.763182  0.995922  0.529299  1
  Cs  Cs8  1  0.730397  0.747198  0.745600  1
  Cs  Cs9  1  0.339285  0.346169  0.596115  1
  Cs  Cs10  1  0.151561  0.640036  0.344809  1
  Cs  Cs11  1  0.180197  0.196063  0.864021  1
  Cs  Cs12  1  0.332994  0.917086  0.111645  1
  Cs  Cs13  1  0.656539  0.654745  0.404332  1
  Nb  Nb14  1  0.354383  0.605138  0.773597  1
  Nb  Nb15  1  0.647472  0.393462  0.225580  1
  Tl  Tl16  1  0.058668  0.818520  0.871340  1
  Tl  Tl17  1  0.944513  0.181608  0.128005  1
  Tl  Tl18  1  0.362576  0.952323  0.704472  1
  Tl  Tl19  1  0.096145  0.721481  0.622177  1
  In  In20  1  0.900234  0.278895  0.372016  1
  In  In21  1  0.642410  0.056372  0.293659  1
  P  P22  1  0.910386  0.445065  0.213115  1
  P  P23  1  0.623739  0.205583  0.127894  1
  P  P24  1  0.091129  0.554326  0.788627  1
  P  P25  1  0.591409  0.297861  0.380778  1
  P  P26  1  0.414912  0.697814  0.618262  1
  P  P27  1  0.031413  0.997416  0.702493  1
  P  P28  1  0.509372  0.403881  0.807146  1
  P  P29  1  0.488373  0.591882  0.192790  1
  P  P30  1  0.379453  0.789203  0.873993  1
  P  P31  1  0.957790  0.012529  0.300724  1
