# generated using pymatgen
data_La20CoGe3Bi8
_symmetry_space_group_name_H-M   'P 1'
_cell_length_a   8.41590198
_cell_length_b   9.58100800
_cell_length_c   13.00100401
_cell_angle_alpha   90.00000000
_cell_angle_beta   90.32858321
_cell_angle_gamma   90.00000000
_symmetry_Int_Tables_number   1
_chemical_formula_structural   La20CoGe3Bi8
_chemical_formula_sum   'La20 Co1 Ge3 Bi8'
_cell_volume   1048.29043195
_cell_formula_units_Z   1
loop_
 _symmetry_equiv_pos_site_id
 _symmetry_equiv_pos_as_xyz
  1  'x, y, z'
loop_
 _atom_site_type_symbol
 _atom_site_label
 _atom_site_symmetry_multiplicity
 _atom_site_fract_x
 _atom_site_fract_y
 _atom_site_fract_z
 _atom_site_occupancy
  La  La0  1  0.357407  0.750000  0.694969  1
  La  La1  1  0.656841  0.250000  0.286140  1
  La  La2  1  0.850092  0.250000  0.791764  1
  La  La3  1  0.156525  0.750000  0.215321  1
  La  La4  1  0.872811  0.750000  0.793201  1
  La  La5  1  0.138004  0.250000  0.210008  1
  La  La6  1  0.369184  0.250000  0.705694  1
  La  La7  1  0.625345  0.750000  0.301487  1
  La  La8  1  0.682577  0.546629  0.556450  1
  La  La9  1  0.317609  0.482796  0.441863  1
  La  La10  1  0.197308  0.456859  0.938135  1
  La  La11  1  0.317609  0.017204  0.441863  1
  La  La12  1  0.800787  0.538048  0.063359  1
  La  La13  1  0.682577  0.953371  0.556450  1
  La  La14  1  0.800787  0.961952  0.063359  1
  La  La15  1  0.197308  0.043141  0.938135  1
  La  La16  1  0.034949  0.750000  0.501757  1
  La  La17  1  0.964062  0.250000  0.501743  1
  La  La18  1  0.524276  0.250000  0.997021  1
  La  La19  1  0.452847  0.750000  0.997955  1
  Co  Co20  1  0.419264  0.750000  0.479142  1
  Ge  Ge21  1  0.060718  0.750000  0.990890  1
  Ge  Ge22  1  0.933664  0.250000  0.019299  1
  Ge  Ge23  1  0.569199  0.250000  0.512842  1
  Bi  Bi24  1  0.582659  0.509230  0.824557  1
  Bi  Bi25  1  0.423336  0.492472  0.174179  1
  Bi  Bi26  1  0.079662  0.492318  0.675293  1
  Bi  Bi27  1  0.423336  0.007528  0.174179  1
  Bi  Bi28  1  0.923468  0.506782  0.326546  1
  Bi  Bi29  1  0.582659  0.990770  0.824557  1
  Bi  Bi30  1  0.923468  0.993218  0.326546  1
  Bi  Bi31  1  0.079662  0.007682  0.675293  1
