# generated using pymatgen
data_HfZr3I16
_symmetry_space_group_name_H-M   'P 1'
_cell_length_a   8.99739867
_cell_length_b   9.00436279
_cell_length_c   13.39974524
_cell_angle_alpha   72.63835068
_cell_angle_beta   72.44454748
_cell_angle_gamma   89.47299558
_symmetry_Int_Tables_number   1
_chemical_formula_structural   HfZr3I16
_chemical_formula_sum   'Hf1 Zr3 I16'
_cell_volume   983.97220475
_cell_formula_units_Z   1
loop_
 _symmetry_equiv_pos_site_id
 _symmetry_equiv_pos_as_xyz
  1  'x, y, z'
loop_
 _atom_site_type_symbol
 _atom_site_label
 _atom_site_symmetry_multiplicity
 _atom_site_fract_x
 _atom_site_fract_y
 _atom_site_fract_z
 _atom_site_occupancy
  Hf  Hf0  1  0.205373  0.939588  0.376532  1
  Zr  Zr1  1  0.061048  0.792342  0.123059  1
  Zr  Zr2  1  0.792400  0.060196  0.623318  1
  Zr  Zr3  1  0.939474  0.208283  0.876916  1
  I  I4  1  0.049485  0.832471  0.610195  1
  I  I5  1  0.047135  0.266919  0.640479  1
  I  I6  1  0.733639  0.952553  0.859411  1
  I  I7  1  0.587246  0.828471  0.636220  1
  I  I8  1  0.171877  0.413083  0.863826  1
  I  I9  1  0.953972  0.733696  0.360148  1
  I  I10  1  0.698568  0.395647  0.890538  1
  I  I11  1  0.169336  0.951917  0.888768  1
  I  I12  1  0.409951  0.168087  0.364843  1
  I  I13  1  0.828296  0.587021  0.137350  1
  I  I14  1  0.393456  0.702422  0.389371  1
  I  I15  1  0.605454  0.301127  0.608603  1
  I  I16  1  0.953083  0.167192  0.388024  1
  I  I17  1  0.301175  0.604307  0.109473  1
  I  I18  1  0.831503  0.048386  0.111538  1
  I  I19  1  0.267529  0.046292  0.141387  1
