# generated using pymatgen
data_Lu12InFe2SnRu
_symmetry_space_group_name_H-M   'P 1'
_cell_length_a   8.19283447
_cell_length_b   8.19725825
_cell_length_c   8.19283479
_cell_angle_alpha   108.66078045
_cell_angle_beta   108.68485970
_cell_angle_gamma   111.05757363
_symmetry_Int_Tables_number   1
_chemical_formula_structural   Lu12InFe2SnRu
_chemical_formula_sum   'Lu12 In1 Fe2 Sn1 Ru1'
_cell_volume   423.43007618
_cell_formula_units_Z   1
loop_
 _symmetry_equiv_pos_site_id
 _symmetry_equiv_pos_as_xyz
  1  'x, y, z'
loop_
 _atom_site_type_symbol
 _atom_site_label
 _atom_site_symmetry_multiplicity
 _atom_site_fract_x
 _atom_site_fract_y
 _atom_site_fract_z
 _atom_site_occupancy
  Lu  Lu0  1  0.306299  0.308543  0.615099  1
  Lu  Lu1  1  0.693701  0.691457  0.384901  1
  Lu  Lu2  1  0.693444  0.308543  0.002244  1
  Lu  Lu3  1  0.306556  0.691457  0.997756  1
  Lu  Lu4  1  0.193137  0.430843  0.237706  1
  Lu  Lu5  1  0.806863  0.569157  0.762294  1
  Lu  Lu6  1  0.193267  0.955351  0.762086  1
  Lu  Lu7  1  0.957902  0.194756  0.763128  1
  Lu  Lu8  1  0.806733  0.044649  0.237914  1
  Lu  Lu9  1  0.042098  0.805244  0.236872  1
  Lu  Lu10  1  0.431629  0.194756  0.236852  1
  Lu  Lu11  1  0.568371  0.805244  0.763148  1
  In  In12  1  0.000000  0.500000  0.500000  1
  Fe  Fe13  1  0.384428  0.383813  0.999384  1
  Fe  Fe14  1  0.615572  0.616187  0.000616  1
  Sn  Sn15  1  0.500000  0.000000  0.500000  1
  Ru  Ru16  1  0.000000  0.000000  0.000000  1
