# generated using pymatgen
data_Ta18V8CuGe
_symmetry_space_group_name_H-M   'P 1'
_cell_length_a   9.92376191
_cell_length_b   9.92376436
_cell_length_c   9.92376200
_cell_angle_alpha   93.85909436
_cell_angle_beta   93.85906060
_cell_angle_gamma   149.92776099
_symmetry_Int_Tables_number   1
_chemical_formula_structural   Ta18V8CuGe
_chemical_formula_sum   'Ta18 V8 Cu1 Ge1'
_cell_volume   472.95143430
_cell_formula_units_Z   1
loop_
 _symmetry_equiv_pos_site_id
 _symmetry_equiv_pos_as_xyz
  1  'x, y, z'
loop_
 _atom_site_type_symbol
 _atom_site_label
 _atom_site_symmetry_multiplicity
 _atom_site_fract_x
 _atom_site_fract_y
 _atom_site_fract_z
 _atom_site_occupancy
  Ta  Ta0  1  0.565268  0.793569  0.358769  1
  Ta  Ta1  1  0.083314  0.155765  0.244573  1
  Ta  Ta2  1  0.588809  0.344235  0.927548  1
  Ta  Ta3  1  0.661258  0.588809  0.244573  1
  Ta  Ta4  1  0.344237  0.416686  0.755427  1
  Ta  Ta5  1  0.793569  0.434801  0.228301  1
  Ta  Ta6  1  0.416686  0.661260  0.072452  1
  Ta  Ta7  1  0.155766  0.911191  0.072450  1
  Ta  Ta8  1  0.706432  0.934733  0.641231  1
  Ta  Ta9  1  0.434800  0.206499  0.641231  1
  Ta  Ta10  1  0.911191  0.838740  0.755427  1
  Ta  Ta11  1  0.065199  0.706431  0.771699  1
  Ta  Ta12  1  0.206499  0.565267  0.771699  1
  Ta  Ta13  1  0.250000  0.750000  0.500000  1
  Ta  Ta14  1  0.293500  0.065199  0.358769  1
  Ta  Ta15  1  0.750000  0.250000  0.500000  1
  Ta  Ta16  1  0.838739  0.083314  0.927550  1
  Ta  Ta17  1  0.934733  0.293501  0.228301  1
  V  V18  1  0.366405  0.866405  0.232812  1
  V  V19  1  0.866405  0.633595  0.500000  1
  V  V20  1  0.499755  0.000245  0.000000  1
  V  V21  1  0.133595  0.366405  0.500000  1
  V  V22  1  0.633595  0.133595  0.767188  1
  V  V23  1  0.000245  0.499755  0.000000  1
  V  V24  1  0.499755  0.499755  0.499511  1
  V  V25  1  0.000245  0.000245  0.500489  1
  Cu  Cu26  1  0.749999  0.750000  0.999999  1
  Ge  Ge27  1  0.250001  0.250000  0.000001  1
