# generated using pymatgen
data_SiNiAs2Pd4Ru
_symmetry_space_group_name_H-M   'P 1'
_cell_length_a   3.68144400
_cell_length_b   6.45199861
_cell_length_c   6.46921901
_cell_angle_alpha   120.72960550
_cell_angle_beta   90.00000000
_cell_angle_gamma   90.00000000
_symmetry_Int_Tables_number   1
_chemical_formula_structural   SiNiAs2Pd4Ru
_chemical_formula_sum   'Si1 Ni1 As2 Pd4 Ru1'
_cell_volume   132.08540742
_cell_formula_units_Z   1
loop_
 _symmetry_equiv_pos_site_id
 _symmetry_equiv_pos_as_xyz
  1  'x, y, z'
loop_
 _atom_site_type_symbol
 _atom_site_label
 _atom_site_symmetry_multiplicity
 _atom_site_fract_x
 _atom_site_fract_y
 _atom_site_fract_z
 _atom_site_occupancy
  Si  Si0  1  0.500000  0.010048  0.993929  1
  Ni  Ni1  1  0.000000  0.749864  0.749480  1
  As  As2  1  0.000000  0.345407  0.678036  1
  As  As3  1  0.000000  0.658227  0.341112  1
  Pd  Pd4  1  0.000000  0.998228  0.256150  1
  Pd  Pd5  1  0.500000  0.618621  0.980987  1
  Pd  Pd6  1  0.500000  0.395232  0.407613  1
  Pd  Pd7  1  0.500000  0.967779  0.595493  1
  Ru  Ru8  1  0.000000  0.256496  0.997200  1
