# generated using pymatgen
data_Tb11In9PdAu3
_symmetry_space_group_name_H-M   'P 1'
_cell_length_a   13.39048441
_cell_length_b   13.42504153
_cell_length_c   3.71524400
_cell_angle_alpha   90.00000000
_cell_angle_beta   90.00000000
_cell_angle_gamma   112.91437480
_symmetry_Int_Tables_number   1
_chemical_formula_structural   Tb11In9PdAu3
_chemical_formula_sum   'Tb11 In9 Pd1 Au3'
_cell_volume   615.17726086
_cell_formula_units_Z   1
loop_
 _symmetry_equiv_pos_site_id
 _symmetry_equiv_pos_as_xyz
  1  'x, y, z'
loop_
 _atom_site_type_symbol
 _atom_site_label
 _atom_site_symmetry_multiplicity
 _atom_site_fract_x
 _atom_site_fract_y
 _atom_site_fract_z
 _atom_site_occupancy
  Tb  Tb0  1  0.413942  0.066852  0.000000  1
  Tb  Tb1  1  0.586760  0.933240  0.000000  1
  Tb  Tb2  1  0.066238  0.413546  0.000000  1
  Tb  Tb3  1  0.928152  0.585052  0.000000  1
  Tb  Tb4  1  0.159307  0.839976  0.000000  1
  Tb  Tb5  1  0.840325  0.160708  0.000000  1
  Tb  Tb6  1  0.369844  0.630747  0.000000  1
  Tb  Tb7  1  0.633627  0.375114  0.000000  1
  Tb  Tb8  1  0.305510  0.305333  0.000000  1
  Tb  Tb9  1  0.696055  0.689806  0.000000  1
  Tb  Tb10  1  0.999900  0.999304  0.000000  1
  In  In11  1  0.364438  0.844212  0.500000  1
  In  In12  1  0.635363  0.156485  0.500000  1
  In  In13  1  0.842200  0.366735  0.500000  1
  In  In14  1  0.154474  0.635333  0.500000  1
  In  In15  1  0.215030  0.070380  0.500000  1
  In  In16  1  0.784582  0.928868  0.500000  1
  In  In17  1  0.069997  0.214421  0.500000  1
  In  In18  1  0.926639  0.782227  0.500000  1
  In  In19  1  0.503087  0.500536  0.500000  1
  Pd  Pd20  1  0.753782  0.551002  0.500000  1
  Au  Au21  1  0.450635  0.248300  0.500000  1
  Au  Au22  1  0.551480  0.751995  0.500000  1
  Au  Au23  1  0.248632  0.449828  0.500000  1
