# generated using pymatgen
data_Tb3Y4Co4Sn23Os2
_symmetry_space_group_name_H-M   'P 1'
_cell_length_a   9.75950927
_cell_length_b   9.76144185
_cell_length_c   10.04394307
_cell_angle_alpha   90.46437988
_cell_angle_beta   89.54939307
_cell_angle_gamma   119.84923970
_symmetry_Int_Tables_number   1
_chemical_formula_structural   Tb3Y4Co4Sn23Os2
_chemical_formula_sum   'Tb3 Y4 Co4 Sn23 Os2'
_cell_volume   829.88150641
_cell_formula_units_Z   1
loop_
 _symmetry_equiv_pos_site_id
 _symmetry_equiv_pos_as_xyz
  1  'x, y, z'
loop_
 _atom_site_type_symbol
 _atom_site_label
 _atom_site_symmetry_multiplicity
 _atom_site_fract_x
 _atom_site_fract_y
 _atom_site_fract_z
 _atom_site_occupancy
  Tb  Tb0  1  0.000000  0.000000  0.000000  1
  Tb  Tb1  1  0.040659  0.518765  0.304952  1
  Tb  Tb2  1  0.959341  0.481235  0.695048  1
  Y  Y3  1  0.480020  0.519990  0.306663  1
  Y  Y4  1  0.519980  0.480010  0.693337  1
  Y  Y5  1  0.481165  0.959200  0.305009  1
  Y  Y6  1  0.518835  0.040800  0.694991  1
  Co  Co7  1  0.830800  0.662822  0.198089  1
  Co  Co8  1  0.169200  0.337178  0.801911  1
  Co  Co9  1  0.337253  0.169300  0.198095  1
  Co  Co10  1  0.662747  0.830700  0.801905  1
  Sn  Sn11  1  0.349388  0.003337  0.004223  1
  Sn  Sn12  1  0.650612  0.996663  0.995777  1
  Sn  Sn13  1  0.003329  0.349411  0.995771  1
  Sn  Sn14  1  0.996671  0.650589  0.004229  1
  Sn  Sn15  1  0.654176  0.654160  0.000028  1
  Sn  Sn16  1  0.345824  0.345840  0.999972  1
  Sn  Sn17  1  0.334466  0.665554  0.818875  1
  Sn  Sn18  1  0.665534  0.334446  0.181125  1
  Sn  Sn19  1  0.000000  0.000000  0.500000  1
  Sn  Sn20  1  0.780488  0.219386  0.458019  1
  Sn  Sn21  1  0.219512  0.780614  0.541981  1
  Sn  Sn22  1  0.782227  0.564371  0.451493  1
  Sn  Sn23  1  0.217773  0.435629  0.548507  1
  Sn  Sn24  1  0.435631  0.217746  0.451471  1
  Sn  Sn25  1  0.564369  0.782254  0.548529  1
  Sn  Sn26  1  0.334075  0.666032  0.116496  1
  Sn  Sn27  1  0.665925  0.333968  0.883504  1
  Sn  Sn28  1  0.116988  0.883111  0.271147  1
  Sn  Sn29  1  0.883012  0.116889  0.728853  1
  Sn  Sn30  1  0.123548  0.235742  0.275893  1
  Sn  Sn31  1  0.876452  0.764258  0.724107  1
  Sn  Sn32  1  0.764223  0.876508  0.275810  1
  Sn  Sn33  1  0.235777  0.123492  0.724190  1
  Os  Os34  1  0.832390  0.167692  0.198670  1
  Os  Os35  1  0.167610  0.832308  0.801330  1
