# generated using pymatgen
data_Tb12Nd8CuRh15
_symmetry_space_group_name_H-M   'P 1'
_cell_length_a   7.51166819
_cell_length_b   7.60435481
_cell_length_c   14.69735600
_cell_angle_alpha   90.00000000
_cell_angle_beta   90.00000000
_cell_angle_gamma   90.21711565
_symmetry_Int_Tables_number   1
_chemical_formula_structural   Tb12Nd8CuRh15
_chemical_formula_sum   'Tb12 Nd8 Cu1 Rh15'
_cell_volume   839.52737839
_cell_formula_units_Z   1
loop_
 _symmetry_equiv_pos_site_id
 _symmetry_equiv_pos_as_xyz
  1  'x, y, z'
loop_
 _atom_site_type_symbol
 _atom_site_label
 _atom_site_symmetry_multiplicity
 _atom_site_fract_x
 _atom_site_fract_y
 _atom_site_fract_z
 _atom_site_occupancy
  Tb  Tb0  1  0.668423  0.161553  0.621858  1
  Tb  Tb1  1  0.156954  0.334554  0.879501  1
  Tb  Tb2  1  0.336021  0.834405  0.123053  1
  Tb  Tb3  1  0.836437  0.666124  0.376831  1
  Tb  Tb4  1  0.336021  0.834405  0.376947  1
  Tb  Tb5  1  0.836437  0.666124  0.123169  1
  Tb  Tb6  1  0.668423  0.161553  0.878142  1
  Tb  Tb7  1  0.156954  0.334554  0.620499  1
  Tb  Tb8  1  0.831124  0.509764  0.750000  1
  Tb  Tb9  1  0.321756  0.990116  0.750000  1
  Tb  Tb10  1  0.174334  0.493314  0.250000  1
  Tb  Tb11  1  0.674516  0.006206  0.250000  1
  Nd  Nd12  1  0.511017  0.685476  0.590892  1
  Nd  Nd13  1  0.012490  0.819385  0.907421  1
  Nd  Nd14  1  0.489096  0.320852  0.092517  1
  Nd  Nd15  1  0.989529  0.179067  0.404930  1
  Nd  Nd16  1  0.489096  0.320852  0.407483  1
  Nd  Nd17  1  0.989529  0.179067  0.095070  1
  Nd  Nd18  1  0.511017  0.685476  0.909108  1
  Nd  Nd19  1  0.012490  0.819385  0.592579  1
  Cu  Cu20  1  0.457105  0.393229  0.750000  1
  Rh  Rh21  1  0.676607  0.965330  0.457603  1
  Rh  Rh22  1  0.172397  0.534347  0.043233  1
  Rh  Rh23  1  0.325343  0.036573  0.955902  1
  Rh  Rh24  1  0.822349  0.466351  0.544297  1
  Rh  Rh25  1  0.325343  0.036573  0.544098  1
  Rh  Rh26  1  0.822349  0.466351  0.955703  1
  Rh  Rh27  1  0.676607  0.965330  0.042397  1
  Rh  Rh28  1  0.172397  0.534347  0.456767  1
  Rh  Rh29  1  0.959386  0.112741  0.750000  1
  Rh  Rh30  1  0.538595  0.610543  0.250000  1
  Rh  Rh31  1  0.041218  0.889278  0.250000  1
  Rh  Rh32  1  0.690196  0.857067  0.750000  1
  Rh  Rh33  1  0.212144  0.628976  0.750000  1
  Rh  Rh34  1  0.306438  0.142304  0.250000  1
  Rh  Rh35  1  0.799858  0.358428  0.250000  1
