# generated using pymatgen
data_LaYb3YRh2
_symmetry_space_group_name_H-M   'P 1'
_cell_length_a   6.57754720
_cell_length_b   7.41179235
_cell_length_c   8.68342400
_cell_angle_alpha   97.13870685
_cell_angle_beta   112.25575858
_cell_angle_gamma   89.99999555
_symmetry_Int_Tables_number   1
_chemical_formula_structural   LaYb3YRh2
_chemical_formula_sum   'La2 Yb6 Y2 Rh4'
_cell_volume   388.24418152
_cell_formula_units_Z   2
loop_
 _symmetry_equiv_pos_site_id
 _symmetry_equiv_pos_as_xyz
  1  'x, y, z'
loop_
 _atom_site_type_symbol
 _atom_site_label
 _atom_site_symmetry_multiplicity
 _atom_site_fract_x
 _atom_site_fract_y
 _atom_site_fract_z
 _atom_site_occupancy
  La  La0  1  0.987611  0.917145  0.183193  1
  La  La1  1  0.804419  0.582855  0.816807  1
  Yb  Yb2  1  0.015833  0.082405  0.819484  1
  Yb  Yb3  1  0.196349  0.417595  0.180516  1
  Yb  Yb4  1  0.634312  0.819159  0.428847  1
  Yb  Yb5  1  0.205464  0.680841  0.571153  1
  Yb  Yb6  1  0.368894  0.184619  0.571625  1
  Yb  Yb7  1  0.797270  0.315381  0.428375  1
  Y  Y8  1  0.424605  0.750000  0.000000  1
  Y  Y9  1  0.563935  0.250000  0.000000  1
  Rh  Rh10  1  0.817516  0.583179  0.206794  1
  Rh  Rh11  1  0.610721  0.916821  0.793206  1
  Rh  Rh12  1  0.177342  0.422882  0.781618  1
  Rh  Rh13  1  0.395725  0.077118  0.218382  1
