# generated using pymatgen
data_Ho7ErSc12(GaSi3)4
_symmetry_space_group_name_H-M   'P 1'
_cell_length_a   7.11531878
_cell_length_b   7.39696309
_cell_length_c   14.13052200
_cell_angle_alpha   89.98674143
_cell_angle_beta   89.82452828
_cell_angle_gamma   90.14670762
_symmetry_Int_Tables_number   1
_chemical_formula_structural   Ho7ErSc12(GaSi3)4
_chemical_formula_sum   'Ho7 Er1 Sc12 Ga4 Si12'
_cell_volume   743.70816054
_cell_formula_units_Z   1
loop_
 _symmetry_equiv_pos_site_id
 _symmetry_equiv_pos_as_xyz
  1  'x, y, z'
loop_
 _atom_site_type_symbol
 _atom_site_label
 _atom_site_symmetry_multiplicity
 _atom_site_fract_x
 _atom_site_fract_y
 _atom_site_fract_z
 _atom_site_occupancy
  Ho  Ho0  1  0.013130  0.175173  0.096649  1
  Ho  Ho1  1  0.988616  0.824767  0.902046  1
  Ho  Ho2  1  0.487479  0.677475  0.901777  1
  Ho  Ho3  1  0.988707  0.827559  0.600660  1
  Ho  Ho4  1  0.510362  0.320769  0.096852  1
  Ho  Ho5  1  0.008751  0.174922  0.400124  1
  Ho  Ho6  1  0.510291  0.323927  0.400152  1
  Er  Er7  1  0.491276  0.676189  0.601152  1
  Sc  Sc8  1  0.163638  0.500931  0.751803  1
  Sc  Sc9  1  0.835913  0.498572  0.249766  1
  Sc  Sc10  1  0.335513  0.001723  0.248175  1
  Sc  Sc11  1  0.664108  0.998471  0.750212  1
  Sc  Sc12  1  0.334798  0.174416  0.628456  1
  Sc  Sc13  1  0.668119  0.826861  0.373281  1
  Sc  Sc14  1  0.169308  0.673009  0.372503  1
  Sc  Sc15  1  0.668130  0.826599  0.125397  1
  Sc  Sc16  1  0.829674  0.325071  0.627093  1
  Sc  Sc17  1  0.331030  0.175540  0.874623  1
  Sc  Sc18  1  0.829511  0.323702  0.874530  1
  Sc  Sc19  1  0.172713  0.674869  0.124224  1
  Ga  Ga20  1  0.163200  0.460812  0.539682  1
  Ga  Ga21  1  0.838185  0.538986  0.461984  1
  Ga  Ga22  1  0.337830  0.960614  0.462297  1
  Ga  Ga23  1  0.838511  0.538708  0.038305  1
  Si  Si24  1  0.033692  0.115577  0.751639  1
  Si  Si25  1  0.966620  0.884584  0.248618  1
  Si  Si26  1  0.466979  0.613331  0.248036  1
  Si  Si27  1  0.533967  0.386709  0.751685  1
  Si  Si28  1  0.286721  0.870976  0.751517  1
  Si  Si29  1  0.713961  0.128976  0.248123  1
  Si  Si30  1  0.213017  0.370454  0.248157  1
  Si  Si31  1  0.787558  0.629933  0.751946  1
  Si  Si32  1  0.659097  0.036609  0.539011  1
  Si  Si33  1  0.158768  0.463540  0.960810  1
  Si  Si34  1  0.657402  0.035945  0.961273  1
  Si  Si35  1  0.343427  0.963698  0.037442  1
