# generated using pymatgen
data_Ba6ScTl(BO3)6
_symmetry_space_group_name_H-M   'P 1'
_cell_length_a   8.14387938
_cell_length_b   8.14387933
_cell_length_c   8.14387902
_cell_angle_alpha   105.65333268
_cell_angle_beta   105.65332768
_cell_angle_gamma   105.65332373
_symmetry_Int_Tables_number   1
_chemical_formula_structural   Ba6ScTl(BO3)6
_chemical_formula_sum   'Ba6 Sc1 Tl1 B6 O18'
_cell_volume   465.35805389
_cell_formula_units_Z   1
loop_
 _symmetry_equiv_pos_site_id
 _symmetry_equiv_pos_as_xyz
  1  'x, y, z'
loop_
 _atom_site_type_symbol
 _atom_site_label
 _atom_site_symmetry_multiplicity
 _atom_site_fract_x
 _atom_site_fract_y
 _atom_site_fract_z
 _atom_site_occupancy
  Ba  Ba0  1  0.653848  0.264412  0.164433  1
  Ba  Ba1  1  0.164433  0.653848  0.264412  1
  Ba  Ba2  1  0.735587  0.835568  0.346152  1
  Ba  Ba3  1  0.264413  0.164432  0.653848  1
  Ba  Ba4  1  0.835568  0.346152  0.735588  1
  Ba  Ba5  1  0.346152  0.735588  0.835567  1
  Sc  Sc6  1  0.500000  0.500000  0.500000  1
  Tl  Tl7  1  0.000000  0.000000  0.000000  1
  B  B8  1  0.294038  0.373185  0.051922  1
  B  B9  1  0.373184  0.051922  0.294038  1
  B  B10  1  0.051922  0.294038  0.373184  1
  B  B11  1  0.948078  0.705963  0.626816  1
  B  B12  1  0.626816  0.948079  0.705962  1
  B  B13  1  0.705963  0.626816  0.948079  1
  O  O14  1  0.730710  0.814118  0.008137  1
  O  O15  1  0.797113  0.555672  0.062041  1
  O  O16  1  0.991863  0.269290  0.185880  1
  O  O17  1  0.444327  0.937959  0.202886  1
  O  O18  1  0.426420  0.488875  0.225646  1
  O  O19  1  0.185881  0.991863  0.269289  1
  O  O20  1  0.488874  0.225646  0.426420  1
  O  O21  1  0.937959  0.202886  0.444328  1
  O  O22  1  0.225646  0.426420  0.488875  1
  O  O23  1  0.774354  0.573580  0.511126  1
  O  O24  1  0.062041  0.797113  0.555672  1
  O  O25  1  0.511126  0.774354  0.573580  1
  O  O26  1  0.814118  0.008136  0.730710  1
  O  O27  1  0.573580  0.511126  0.774355  1
  O  O28  1  0.555672  0.062041  0.797114  1
  O  O29  1  0.008136  0.730709  0.814119  1
  O  O30  1  0.202886  0.444327  0.937959  1
  O  O31  1  0.269290  0.185881  0.991863  1
