# generated using pymatgen
data_DyY3V2(CoB8)2
_symmetry_space_group_name_H-M   'P 1'
_cell_length_a   3.41906600
_cell_length_b   5.94882981
_cell_length_c   11.50010001
_cell_angle_alpha   90.06237333
_cell_angle_beta   90.00000000
_cell_angle_gamma   90.00000000
_symmetry_Int_Tables_number   1
_chemical_formula_structural   DyY3V2(CoB8)2
_chemical_formula_sum   'Dy1 Y3 V2 Co2 B16'
_cell_volume   233.90547548
_cell_formula_units_Z   1
loop_
 _symmetry_equiv_pos_site_id
 _symmetry_equiv_pos_as_xyz
  1  'x, y, z'
loop_
 _atom_site_type_symbol
 _atom_site_label
 _atom_site_symmetry_multiplicity
 _atom_site_fract_x
 _atom_site_fract_y
 _atom_site_fract_z
 _atom_site_occupancy
  Dy  Dy0  1  0.500000  0.372102  0.148247  1
  Y  Y1  1  0.500000  0.627871  0.851725  1
  Y  Y2  1  0.500000  0.124223  0.652622  1
  Y  Y3  1  0.500000  0.875781  0.347374  1
  V  V4  1  0.500000  0.373397  0.414638  1
  V  V5  1  0.500000  0.626607  0.585339  1
  Co  Co6  1  0.500000  0.134858  0.912596  1
  Co  Co7  1  0.500000  0.865157  0.087444  1
  B  B8  1  0.000000  0.111136  0.045782  1
  B  B9  1  0.000000  0.888940  0.954246  1
  B  B10  1  0.000000  0.385423  0.546980  1
  B  B11  1  0.000000  0.614581  0.453019  1
  B  B12  1  0.000000  0.134728  0.466853  1
  B  B13  1  0.000000  0.865264  0.533145  1
  B  B14  1  0.000000  0.360368  0.968621  1
  B  B15  1  0.000000  0.639557  0.031462  1
  B  B16  1  0.000000  0.021379  0.189177  1
  B  B17  1  0.000000  0.978689  0.810803  1
  B  B18  1  0.000000  0.473937  0.694237  1
  B  B19  1  0.000000  0.526011  0.305739  1
  B  B20  1  0.000000  0.213338  0.311864  1
  B  B21  1  0.000000  0.786730  0.688102  1
  B  B22  1  0.000000  0.280588  0.817448  1
  B  B23  1  0.000000  0.719334  0.182537  1
