# generated using pymatgen
data_PrZn2CdPt2
_symmetry_space_group_name_H-M   'P 1'
_cell_length_a   5.34242508
_cell_length_b   5.38303358
_cell_length_c   5.38303164
_cell_angle_alpha   62.90199745
_cell_angle_beta   60.24923595
_cell_angle_gamma   60.24924571
_symmetry_Int_Tables_number   1
_chemical_formula_structural   PrZn2CdPt2
_chemical_formula_sum   'Pr1 Zn2 Cd1 Pt2'
_cell_volume   112.10000845
_cell_formula_units_Z   1
loop_
 _symmetry_equiv_pos_site_id
 _symmetry_equiv_pos_as_xyz
  1  'x, y, z'
loop_
 _atom_site_type_symbol
 _atom_site_label
 _atom_site_symmetry_multiplicity
 _atom_site_fract_x
 _atom_site_fract_y
 _atom_site_fract_z
 _atom_site_occupancy
  Pr  Pr0  1  0.255501  0.244499  0.244499  1
  Zn  Zn1  1  0.121213  0.629233  0.629233  1
  Zn  Zn2  1  0.620320  0.629233  0.629233  1
  Cd  Cd3  1  0.004211  0.995789  0.995789  1
  Pt  Pt4  1  0.624377  0.627447  0.123800  1
  Pt  Pt5  1  0.624377  0.123800  0.627447  1
