# generated using pymatgen
data_Hf2Zn4Fe3
_symmetry_space_group_name_H-M   'P 1'
_cell_length_a   4.92387461
_cell_length_b   4.89422579
_cell_length_c   6.60860030
_cell_angle_alpha   82.42888750
_cell_angle_beta   74.81560677
_cell_angle_gamma   59.79939424
_symmetry_Int_Tables_number   1
_chemical_formula_structural   Hf2Zn4Fe3
_chemical_formula_sum   'Hf2 Zn4 Fe3'
_cell_volume   132.83622066
_cell_formula_units_Z   1
loop_
 _symmetry_equiv_pos_site_id
 _symmetry_equiv_pos_as_xyz
  1  'x, y, z'
loop_
 _atom_site_type_symbol
 _atom_site_label
 _atom_site_symmetry_multiplicity
 _atom_site_fract_x
 _atom_site_fract_y
 _atom_site_fract_z
 _atom_site_occupancy
  Hf  Hf0  1  0.081288  0.000000  0.270340  1
  Hf  Hf1  1  0.918712  0.000000  0.729660  1
  Zn  Zn2  1  0.540140  0.675054  0.840533  1
  Zn  Zn3  1  0.215193  0.324946  0.840533  1
  Zn  Zn4  1  0.459860  0.324946  0.159467  1
  Zn  Zn5  1  0.784807  0.675054  0.159467  1
  Fe  Fe6  1  0.500000  0.500000  0.500000  1
  Fe  Fe7  1  0.000000  0.500000  0.500000  1
  Fe  Fe8  1  0.500000  0.000000  0.500000  1
