# generated using pymatgen
data_YbTh(NbS2)6
_symmetry_space_group_name_H-M   'P 1'
_cell_length_a   5.83752100
_cell_length_b   5.83752220
_cell_length_c   14.24118100
_cell_angle_alpha   90.00000000
_cell_angle_beta   90.00000000
_cell_angle_gamma   120.00001020
_symmetry_Int_Tables_number   1
_chemical_formula_structural   YbTh(NbS2)6
_chemical_formula_sum   'Yb1 Th1 Nb6 S12'
_cell_volume   420.27503626
_cell_formula_units_Z   1
loop_
 _symmetry_equiv_pos_site_id
 _symmetry_equiv_pos_as_xyz
  1  'x, y, z'
loop_
 _atom_site_type_symbol
 _atom_site_label
 _atom_site_symmetry_multiplicity
 _atom_site_fract_x
 _atom_site_fract_y
 _atom_site_fract_z
 _atom_site_occupancy
  Yb  Yb0  1  0.000000  0.000000  0.500000  1
  Th  Th1  1  0.000000  0.000000  0.000000  1
  Nb  Nb2  1  0.333333  0.666667  0.250062  1
  Nb  Nb3  1  0.000000  0.000000  0.249589  1
  Nb  Nb4  1  0.000000  0.000000  0.750411  1
  Nb  Nb5  1  0.333333  0.666667  0.749938  1
  Nb  Nb6  1  0.666667  0.333333  0.749938  1
  Nb  Nb7  1  0.666667  0.333333  0.250062  1
  S  S8  1  0.000000  0.663760  0.639408  1
  S  S9  1  0.000000  0.662862  0.861577  1
  S  S10  1  0.000000  0.337138  0.138423  1
  S  S11  1  0.000000  0.336240  0.360592  1
  S  S12  1  0.336240  0.336240  0.639408  1
  S  S13  1  0.337138  0.337138  0.861577  1
  S  S14  1  0.662862  0.662862  0.138423  1
  S  S15  1  0.663760  0.663760  0.360592  1
  S  S16  1  0.337138  0.000000  0.138423  1
  S  S17  1  0.336240  0.000000  0.360592  1
  S  S18  1  0.663760  0.000000  0.639408  1
  S  S19  1  0.662862  0.000000  0.861577  1
