# generated using pymatgen
data_Ac2Dy(SnPt)3
_symmetry_space_group_name_H-M   'P 1'
_cell_length_a   7.82056222
_cell_length_b   7.74018302
_cell_length_c   4.22613900
_cell_angle_alpha   90.00000000
_cell_angle_beta   90.00000000
_cell_angle_gamma   119.66057230
_symmetry_Int_Tables_number   1
_chemical_formula_structural   Ac2Dy(SnPt)3
_chemical_formula_sum   'Ac2 Dy1 Sn3 Pt3'
_cell_volume   222.29970852
_cell_formula_units_Z   1
loop_
 _symmetry_equiv_pos_site_id
 _symmetry_equiv_pos_as_xyz
  1  'x, y, z'
loop_
 _atom_site_type_symbol
 _atom_site_label
 _atom_site_symmetry_multiplicity
 _atom_site_fract_x
 _atom_site_fract_y
 _atom_site_fract_z
 _atom_site_occupancy
  Ac  Ac0  1  0.414461  0.415877  0.500000  1
  Ac  Ac1  1  0.585539  0.001416  0.500000  1
  Dy  Dy2  1  0.000000  0.591713  0.500000  1
  Sn  Sn3  1  0.761211  0.750980  0.000000  1
  Sn  Sn4  1  0.238789  0.989769  0.000000  1
  Sn  Sn5  1  0.000000  0.251210  0.000000  1
  Pt  Pt6  1  0.691254  0.351095  0.000000  1
  Pt  Pt7  1  0.308746  0.659842  0.000000  1
  Pt  Pt8  1  0.000000  0.988098  0.500000  1
