# generated using pymatgen
data_Th3AlZnGaPd3
_symmetry_space_group_name_H-M   'P 1'
_cell_length_a   7.33318089
_cell_length_b   7.26712285
_cell_length_c   4.18317200
_cell_angle_alpha   90.00000000
_cell_angle_beta   90.00000000
_cell_angle_gamma   119.48818412
_symmetry_Int_Tables_number   1
_chemical_formula_structural   Th3AlZnGaPd3
_chemical_formula_sum   'Th3 Al1 Zn1 Ga1 Pd3'
_cell_volume   194.04750265
_cell_formula_units_Z   1
loop_
 _symmetry_equiv_pos_site_id
 _symmetry_equiv_pos_as_xyz
  1  'x, y, z'
loop_
 _atom_site_type_symbol
 _atom_site_label
 _atom_site_symmetry_multiplicity
 _atom_site_fract_x
 _atom_site_fract_y
 _atom_site_fract_z
 _atom_site_occupancy
  Th  Th0  1  0.420071  0.418904  0.500000  1
  Th  Th1  1  0.580546  0.997457  0.500000  1
  Th  Th2  1  0.998331  0.586797  0.500000  1
  Al  Al3  1  0.999825  0.230255  0.000000  1
  Zn  Zn4  1  0.759328  0.761486  0.000000  1
  Ga  Ga5  1  0.239380  0.002049  0.000000  1
  Pd  Pd6  1  0.672668  0.330488  0.000000  1
  Pd  Pd7  1  0.326521  0.661276  0.000000  1
  Pd  Pd8  1  0.003331  0.011287  0.500000  1
