# generated using pymatgen
data_RbTiCr9Se16
_symmetry_space_group_name_H-M   'P 1'
_cell_length_a   7.28352917
_cell_length_b   9.69236217
_cell_length_c   9.87328449
_cell_angle_alpha   72.77223447
_cell_angle_beta   68.34692275
_cell_angle_gamma   79.19037632
_symmetry_Int_Tables_number   1
_chemical_formula_structural   RbTiCr9Se16
_chemical_formula_sum   'Rb1 Ti1 Cr9 Se16'
_cell_volume   616.34320047
_cell_formula_units_Z   1
loop_
 _symmetry_equiv_pos_site_id
 _symmetry_equiv_pos_as_xyz
  1  'x, y, z'
loop_
 _atom_site_type_symbol
 _atom_site_label
 _atom_site_symmetry_multiplicity
 _atom_site_fract_x
 _atom_site_fract_y
 _atom_site_fract_z
 _atom_site_occupancy
  Rb  Rb0  1  0.002302  0.003289  0.994116  1
  Ti  Ti1  1  0.833923  0.707085  0.479459  1
  Cr  Cr2  1  0.338550  0.678801  0.482662  1
  Cr  Cr3  1  0.660844  0.317014  0.520088  1
  Cr  Cr4  1  0.161315  0.315567  0.519164  1
  Cr  Cr5  1  0.816429  0.409081  0.165460  1
  Cr  Cr6  1  0.314151  0.406023  0.166696  1
  Cr  Cr7  1  0.684995  0.589198  0.835362  1
  Cr  Cr8  1  0.183675  0.587845  0.838239  1
  Cr  Cr9  1  0.503147  0.997248  0.499211  1
  Cr  Cr10  1  0.998632  0.997497  0.499560  1
  Se  Se11  1  0.789869  0.150664  0.345580  1
  Se  Se12  1  0.288957  0.147382  0.348193  1
  Se  Se13  1  0.701244  0.855787  0.669550  1
  Se  Se14  1  0.211727  0.846911  0.653116  1
  Se  Se15  1  0.957088  0.479939  0.346003  1
  Se  Se16  1  0.459581  0.476566  0.343105  1
  Se  Se17  1  0.540088  0.522013  0.656664  1
  Se  Se18  1  0.041442  0.521702  0.656778  1
  Se  Se19  1  0.627329  0.827138  0.320983  1
  Se  Se20  1  0.138332  0.827717  0.320926  1
  Se  Se21  1  0.872775  0.171362  0.667368  1
  Se  Se22  1  0.374046  0.171201  0.666910  1
  Se  Se23  1  0.340706  0.652891  0.992869  1
  Se  Se24  1  0.840050  0.655075  0.991684  1
  Se  Se25  1  0.159593  0.341161  0.010448  1
  Se  Se26  1  0.659208  0.343844  0.009808  1
