# generated using pymatgen
data_Al4Hg11(PCl4)4
_symmetry_space_group_name_H-M   'P 1'
_cell_length_a   7.63380836
_cell_length_b   7.63380848
_cell_length_c   22.58435594
_cell_angle_alpha   80.74423450
_cell_angle_beta   80.74423383
_cell_angle_gamma   59.93904767
_symmetry_Int_Tables_number   1
_chemical_formula_structural   Al4Hg11(PCl4)4
_chemical_formula_sum   'Al4 Hg11 P4 Cl16'
_cell_volume   1119.27331622
_cell_formula_units_Z   1
loop_
 _symmetry_equiv_pos_site_id
 _symmetry_equiv_pos_as_xyz
  1  'x, y, z'
loop_
 _atom_site_type_symbol
 _atom_site_label
 _atom_site_symmetry_multiplicity
 _atom_site_fract_x
 _atom_site_fract_y
 _atom_site_fract_z
 _atom_site_occupancy
  Al  Al0  1  0.630451  0.630451  0.613911  1
  Al  Al1  1  0.369549  0.369549  0.386089  1
  Al  Al2  1  0.212097  0.212097  0.883984  1
  Al  Al3  1  0.787903  0.787903  0.116016  1
  Hg  Hg4  1  0.521712  0.521712  0.940045  1
  Hg  Hg5  1  0.478288  0.478288  0.059955  1
  Hg  Hg6  1  0.961081  0.961081  0.620062  1
  Hg  Hg7  1  0.038919  0.038919  0.379938  1
  Hg  Hg8  1  0.000000  0.000000  0.500000  1
  Hg  Hg9  1  0.744248  0.744248  0.781040  1
  Hg  Hg10  1  0.255752  0.255752  0.218960  1
  Hg  Hg11  1  0.244075  0.744197  0.780298  1
  Hg  Hg12  1  0.744197  0.244075  0.780298  1
  Hg  Hg13  1  0.755925  0.255803  0.219702  1
  Hg  Hg14  1  0.255803  0.755925  0.219702  1
  P  P15  1  0.562574  0.562574  0.827005  1
  P  P16  1  0.437426  0.437426  0.172995  1
  P  P17  1  0.925024  0.925024  0.734693  1
  P  P18  1  0.074976  0.074976  0.265307  1
  Cl  Cl19  1  0.242681  0.242681  0.786130  1
  Cl  Cl20  1  0.757319  0.757319  0.213870  1
  Cl  Cl21  1  0.047429  0.047429  0.913885  1
  Cl  Cl22  1  0.952571  0.952571  0.086115  1
  Cl  Cl23  1  0.466326  0.923646  0.650859  1
  Cl  Cl24  1  0.923646  0.466326  0.650859  1
  Cl  Cl25  1  0.533674  0.076354  0.349141  1
  Cl  Cl26  1  0.076354  0.533674  0.349141  1
  Cl  Cl27  1  0.466409  0.466409  0.651000  1
  Cl  Cl28  1  0.533591  0.533591  0.349000  1
  Cl  Cl29  1  0.047597  0.514114  0.913370  1
  Cl  Cl30  1  0.514114  0.047597  0.913370  1
  Cl  Cl31  1  0.952403  0.485886  0.086630  1
  Cl  Cl32  1  0.485886  0.952403  0.086630  1
  Cl  Cl33  1  0.660134  0.660134  0.518172  1
  Cl  Cl34  1  0.339866  0.339866  0.481828  1
