# generated using pymatgen
data_LuSc4In4GaRh
_symmetry_space_group_name_H-M   'P 1'
_cell_length_a   3.41949300
_cell_length_b   7.86038909
_cell_length_c   17.70981536
_cell_angle_alpha   89.23637172
_cell_angle_beta   90.00000000
_cell_angle_gamma   90.00000000
_symmetry_Int_Tables_number   1
_chemical_formula_structural   LuSc4In4GaRh
_chemical_formula_sum   'Lu2 Sc8 In8 Ga2 Rh2'
_cell_volume   475.97180100
_cell_formula_units_Z   2
loop_
 _symmetry_equiv_pos_site_id
 _symmetry_equiv_pos_as_xyz
  1  'x, y, z'
loop_
 _atom_site_type_symbol
 _atom_site_label
 _atom_site_symmetry_multiplicity
 _atom_site_fract_x
 _atom_site_fract_y
 _atom_site_fract_z
 _atom_site_occupancy
  Lu  Lu0  1  0.000000  0.737982  0.783913  1
  Lu  Lu1  1  0.000000  0.262018  0.216087  1
  Sc  Sc2  1  0.000000  0.000000  0.000000  1
  Sc  Sc3  1  0.000000  0.500000  0.500000  1
  Sc  Sc4  1  0.000000  0.275997  0.723327  1
  Sc  Sc5  1  0.000000  0.724003  0.276673  1
  Sc  Sc6  1  0.000000  0.873976  0.576836  1
  Sc  Sc7  1  0.000000  0.126024  0.423164  1
  Sc  Sc8  1  0.000000  0.375602  0.917158  1
  Sc  Sc9  1  0.000000  0.624398  0.082842  1
  In  In10  1  0.500000  0.793538  0.431724  1
  In  In11  1  0.500000  0.206462  0.568276  1
  In  In12  1  0.500000  0.299105  0.062999  1
  In  In13  1  0.500000  0.700895  0.937001  1
  In  In14  1  0.500000  0.919023  0.147838  1
  In  In15  1  0.500000  0.080977  0.852162  1
  In  In16  1  0.500000  0.427878  0.354022  1
  In  In17  1  0.500000  0.572122  0.645978  1
  Ga  Ga18  1  0.500000  0.975435  0.694355  1
  Ga  Ga19  1  0.500000  0.024565  0.305645  1
  Rh  Rh20  1  0.500000  0.461609  0.805927  1
  Rh  Rh21  1  0.500000  0.538391  0.194073  1
