# generated using pymatgen
data_Sm2LuGa6Cu2Ni7
_symmetry_space_group_name_H-M   'P 1'
_cell_length_a   8.88795573
_cell_length_b   8.85389526
_cell_length_c   4.08013500
_cell_angle_alpha   90.00000000
_cell_angle_beta   90.00000000
_cell_angle_gamma   119.87331055
_symmetry_Int_Tables_number   1
_chemical_formula_structural   Sm2LuGa6Cu2Ni7
_chemical_formula_sum   'Sm2 Lu1 Ga6 Cu2 Ni7'
_cell_volume   278.41615798
_cell_formula_units_Z   1
loop_
 _symmetry_equiv_pos_site_id
 _symmetry_equiv_pos_as_xyz
  1  'x, y, z'
loop_
 _atom_site_type_symbol
 _atom_site_label
 _atom_site_symmetry_multiplicity
 _atom_site_fract_x
 _atom_site_fract_y
 _atom_site_fract_z
 _atom_site_occupancy
  Sm  Sm0  1  0.667892  0.332842  0.500000  1
  Sm  Sm1  1  0.332108  0.664952  0.500000  1
  Lu  Lu2  1  0.000000  0.003882  0.000000  1
  Ga  Ga3  1  0.270565  0.274140  0.500000  1
  Ga  Ga4  1  0.729435  0.003576  0.500000  1
  Ga  Ga5  1  0.000000  0.728346  0.500000  1
  Ga  Ga6  1  0.515987  0.514158  0.000000  1
  Ga  Ga7  1  0.484013  0.998171  0.000000  1
  Ga  Ga8  1  0.000000  0.481922  0.000000  1
  Cu  Cu9  1  0.708717  0.709655  0.500000  1
  Cu  Cu10  1  0.291283  0.000938  0.500000  1
  Ni  Ni11  1  0.806483  0.171714  0.000000  1
  Ni  Ni12  1  0.827979  0.635331  0.000000  1
  Ni  Ni13  1  0.363891  0.191190  0.000000  1
  Ni  Ni14  1  0.172021  0.807353  0.000000  1
  Ni  Ni15  1  0.636109  0.827300  0.000000  1
  Ni  Ni16  1  0.193517  0.365232  0.000000  1
  Ni  Ni17  1  0.000000  0.289297  0.500000  1
