# generated using pymatgen
data_SrMn7CrO16
_symmetry_space_group_name_H-M   'P 1'
_cell_length_a   5.91671926
_cell_length_b   7.06800747
_cell_length_c   7.21765288
_cell_angle_alpha   88.85642679
_cell_angle_beta   78.19740771
_cell_angle_gamma   77.82960214
_symmetry_Int_Tables_number   1
_chemical_formula_structural   SrMn7CrO16
_chemical_formula_sum   'Sr1 Mn7 Cr1 O16'
_cell_volume   288.73156831
_cell_formula_units_Z   1
loop_
 _symmetry_equiv_pos_site_id
 _symmetry_equiv_pos_as_xyz
  1  'x, y, z'
loop_
 _atom_site_type_symbol
 _atom_site_label
 _atom_site_symmetry_multiplicity
 _atom_site_fract_x
 _atom_site_fract_y
 _atom_site_fract_z
 _atom_site_occupancy
  Sr  Sr0  1  0.002057  0.986035  0.019780  1
  Mn  Mn1  1  0.081731  0.507681  0.180799  1
  Mn  Mn2  1  0.170381  0.817072  0.516991  1
  Mn  Mn3  1  0.668502  0.819272  0.523483  1
  Mn  Mn4  1  0.338892  0.184701  0.470027  1
  Mn  Mn5  1  0.838400  0.184573  0.483518  1
  Mn  Mn6  1  0.430864  0.486244  0.817584  1
  Mn  Mn7  1  0.926121  0.491730  0.817474  1
  Cr  Cr8  1  0.580378  0.517475  0.181568  1
  O  O9  1  0.841567  0.652018  0.053429  1
  O  O10  1  0.313827  0.650561  0.053958  1
  O  O11  1  0.980576  0.694540  0.389960  1
  O  O12  1  0.482564  0.704932  0.392345  1
  O  O13  1  0.856940  0.957994  0.649348  1
  O  O14  1  0.348344  0.962813  0.641469  1
  O  O15  1  0.340171  0.364254  0.275509  1
  O  O16  1  0.851269  0.356126  0.274322  1
  O  O17  1  0.167388  0.636809  0.720568  1
  O  O18  1  0.661714  0.638782  0.724871  1
  O  O19  1  0.140938  0.031540  0.348357  1
  O  O20  1  0.673086  0.034525  0.352985  1
  O  O21  1  0.020034  0.304011  0.615740  1
  O  O22  1  0.530399  0.307951  0.610778  1
  O  O23  1  0.175636  0.351972  0.944384  1
  O  O24  1  0.685322  0.356389  0.940749  1
