# generated using pymatgen
data_Mg4AlGa(B2Rh5)2
_symmetry_space_group_name_H-M   'P 1'
_cell_length_a   2.92284600
_cell_length_b   9.43102000
_cell_length_c   9.43102000
_cell_angle_alpha   90.00000000
_cell_angle_beta   90.00000000
_cell_angle_gamma   90.00000000
_symmetry_Int_Tables_number   1
_chemical_formula_structural   Mg4AlGa(B2Rh5)2
_chemical_formula_sum   'Mg4 Al1 Ga1 B4 Rh10'
_cell_volume   259.97001868
_cell_formula_units_Z   1
loop_
 _symmetry_equiv_pos_site_id
 _symmetry_equiv_pos_as_xyz
  1  'x, y, z'
loop_
 _atom_site_type_symbol
 _atom_site_label
 _atom_site_symmetry_multiplicity
 _atom_site_fract_x
 _atom_site_fract_y
 _atom_site_fract_z
 _atom_site_occupancy
  Mg  Mg0  1  0.000000  0.824412  0.176172  1
  Mg  Mg1  1  0.000000  0.323830  0.324412  1
  Mg  Mg2  1  0.000000  0.676171  0.675589  1
  Mg  Mg3  1  0.000000  0.175590  0.823830  1
  Al  Al4  1  0.000000  0.000000  0.500001  1
  Ga  Ga5  1  0.000000  0.500001  0.000000  1
  B  B6  1  0.000000  0.126112  0.126065  1
  B  B7  1  0.000000  0.626067  0.373889  1
  B  B8  1  0.000000  0.373936  0.626114  1
  B  B9  1  0.000000  0.873888  0.873935  1
  Rh  Rh10  1  0.499999  0.000000  0.000000  1
  Rh  Rh11  1  0.499999  0.284801  0.071156  1
  Rh  Rh12  1  0.499999  0.571156  0.215200  1
  Rh  Rh13  1  0.499999  0.070906  0.285462  1
  Rh  Rh14  1  0.499999  0.785463  0.429095  1
  Rh  Rh15  1  0.499999  0.500001  0.500001  1
  Rh  Rh16  1  0.499999  0.214539  0.570906  1
  Rh  Rh17  1  0.499999  0.929095  0.714538  1
  Rh  Rh18  1  0.499999  0.428845  0.784802  1
  Rh  Rh19  1  0.499999  0.715199  0.928845  1
