# generated using pymatgen
data_HfZr2(MnGa3)2
_symmetry_space_group_name_H-M   'P 1'
_cell_length_a   5.40151600
_cell_length_b   7.72857000
_cell_length_c   8.73972800
_cell_angle_alpha   90.00000000
_cell_angle_beta   90.00000000
_cell_angle_gamma   90.00000000
_symmetry_Int_Tables_number   1
_chemical_formula_structural   HfZr2(MnGa3)2
_chemical_formula_sum   'Hf2 Zr4 Mn4 Ga12'
_cell_volume   364.84863713
_cell_formula_units_Z   2
loop_
 _symmetry_equiv_pos_site_id
 _symmetry_equiv_pos_as_xyz
  1  'x, y, z'
loop_
 _atom_site_type_symbol
 _atom_site_label
 _atom_site_symmetry_multiplicity
 _atom_site_fract_x
 _atom_site_fract_y
 _atom_site_fract_z
 _atom_site_occupancy
  Hf  Hf0  1  0.500000  0.718787  0.500000  1
  Hf  Hf1  1  0.000000  0.281213  0.000000  1
  Zr  Zr2  1  0.500000  0.154334  0.780608  1
  Zr  Zr3  1  0.500000  0.154334  0.219392  1
  Zr  Zr4  1  0.000000  0.845666  0.719392  1
  Zr  Zr5  1  0.000000  0.845666  0.280608  1
  Mn  Mn6  1  0.250000  0.500000  0.250000  1
  Mn  Mn7  1  0.250000  0.500000  0.750000  1
  Mn  Mn8  1  0.750000  0.500000  0.250000  1
  Mn  Mn9  1  0.750000  0.500000  0.750000  1
  Ga  Ga10  1  0.500000  0.763463  0.187878  1
  Ga  Ga11  1  0.500000  0.763463  0.812122  1
  Ga  Ga12  1  0.000000  0.236537  0.312122  1
  Ga  Ga13  1  0.000000  0.236537  0.687878  1
  Ga  Ga14  1  0.500000  0.368883  0.500000  1
  Ga  Ga15  1  0.000000  0.631117  0.000000  1
  Ga  Ga16  1  0.000000  0.564326  0.500000  1
  Ga  Ga17  1  0.500000  0.435674  0.000000  1
  Ga  Ga18  1  0.260777  0.042716  0.500000  1
  Ga  Ga19  1  0.739223  0.042716  0.500000  1
  Ga  Ga20  1  0.239223  0.957284  0.000000  1
  Ga  Ga21  1  0.760777  0.957284  0.000000  1
