# generated using pymatgen
data_Tb2Gd3Y3B20
_symmetry_space_group_name_H-M   'P 1'
_cell_length_a   7.12229171
_cell_length_b   7.11817304
_cell_length_c   7.14886427
_cell_angle_alpha   77.00074552
_cell_angle_beta   89.90465906
_cell_angle_gamma   90.07819083
_symmetry_Int_Tables_number   1
_chemical_formula_structural   Tb2Gd3Y3B20
_chemical_formula_sum   'Tb2 Gd3 Y3 B20'
_cell_volume   353.14193732
_cell_formula_units_Z   1
loop_
 _symmetry_equiv_pos_site_id
 _symmetry_equiv_pos_as_xyz
  1  'x, y, z'
loop_
 _atom_site_type_symbol
 _atom_site_label
 _atom_site_symmetry_multiplicity
 _atom_site_fract_x
 _atom_site_fract_y
 _atom_site_fract_z
 _atom_site_occupancy
  Tb  Tb0  1  0.185222  0.757461  0.753671  1
  Tb  Tb1  1  0.692880  0.766834  0.629039  1
  Gd  Gd2  1  0.191649  0.231486  0.872016  1
  Gd  Gd3  1  0.307734  0.230920  0.372005  1
  Gd  Gd4  1  0.808303  0.769265  0.128015  1
  Y  Y5  1  0.315407  0.756938  0.253934  1
  Y  Y6  1  0.814569  0.243247  0.246341  1
  Y  Y7  1  0.684841  0.242809  0.746083  1
  B  B8  1  0.502117  0.314442  0.040084  1
  B  B9  1  0.001979  0.685498  0.459780  1
  B  B10  1  0.498371  0.685398  0.960022  1
  B  B11  1  0.997633  0.314480  0.539947  1
  B  B12  1  0.491157  0.924794  0.926385  1
  B  B13  1  0.989162  0.074859  0.573426  1
  B  B14  1  0.509625  0.075040  0.073170  1
  B  B15  1  0.008734  0.925057  0.426169  1
  B  B16  1  0.326479  0.496546  0.039761  1
  B  B17  1  0.826209  0.503232  0.460343  1
  B  B18  1  0.673906  0.503414  0.960380  1
  B  B19  1  0.173605  0.496772  0.539600  1
  B  B20  1  0.910828  0.499274  0.910612  1
  B  B21  1  0.410762  0.501817  0.589339  1
  B  B22  1  0.089326  0.501296  0.089050  1
  B  B23  1  0.589406  0.499114  0.410834  1
  B  B24  1  0.961514  0.496647  0.674084  1
  B  B25  1  0.461876  0.503172  0.825949  1
  B  B26  1  0.038241  0.503460  0.325717  1
  B  B27  1  0.538465  0.496731  0.174242  1
