# generated using pymatgen
data_PtI8
_symmetry_space_group_name_H-M   'P 1'
_cell_length_a   9.59025908
_cell_length_b   9.16907119
_cell_length_c   15.42468762
_cell_angle_alpha   44.21148502
_cell_angle_beta   89.80084374
_cell_angle_gamma   89.66423957
_symmetry_Int_Tables_number   1
_chemical_formula_structural   PtI8
_chemical_formula_sum   'Pt2 I16'
_cell_volume   945.77866610
_cell_formula_units_Z   2
loop_
 _symmetry_equiv_pos_site_id
 _symmetry_equiv_pos_as_xyz
  1  'x, y, z'
loop_
 _atom_site_type_symbol
 _atom_site_label
 _atom_site_symmetry_multiplicity
 _atom_site_fract_x
 _atom_site_fract_y
 _atom_site_fract_z
 _atom_site_occupancy
  Pt  Pt0  1  0.500000  0.000000  0.500000  1
  Pt  Pt1  1  0.000000  0.000000  0.000000  1
  I  I2  1  0.409735  0.695271  0.238884  1
  I  I3  1  0.909208  0.302939  0.261592  1
  I  I4  1  0.090792  0.697061  0.738408  1
  I  I5  1  0.590265  0.304729  0.761116  1
  I  I6  1  0.915832  0.343818  0.941298  1
  I  I7  1  0.433604  0.210894  0.263586  1
  I  I8  1  0.566396  0.789106  0.736414  1
  I  I9  1  0.261179  0.077492  0.023811  1
  I  I10  1  0.414397  0.659043  0.557189  1
  I  I11  1  0.239677  0.080796  0.526331  1
  I  I12  1  0.084168  0.656182  0.058702  1
  I  I13  1  0.760323  0.919204  0.473669  1
  I  I14  1  0.738821  0.922508  0.976189  1
  I  I15  1  0.933085  0.793945  0.235512  1
  I  I16  1  0.066915  0.206055  0.764488  1
  I  I17  1  0.585603  0.340957  0.442811  1
