# generated using pymatgen
data_Ho12InFe2Co2Pt
_symmetry_space_group_name_H-M   'P 1'
_cell_length_a   8.29423170
_cell_length_b   8.29423134
_cell_length_c   8.29423163
_cell_angle_alpha   110.58328986
_cell_angle_beta   110.38381553
_cell_angle_gamma   107.46505783
_symmetry_Int_Tables_number   1
_chemical_formula_structural   Ho12InFe2Co2Pt
_chemical_formula_sum   'Ho12 In1 Fe2 Co2 Pt1'
_cell_volume   438.84122930
_cell_formula_units_Z   1
loop_
 _symmetry_equiv_pos_site_id
 _symmetry_equiv_pos_as_xyz
  1  'x, y, z'
loop_
 _atom_site_type_symbol
 _atom_site_label
 _atom_site_symmetry_multiplicity
 _atom_site_fract_x
 _atom_site_fract_y
 _atom_site_fract_z
 _atom_site_occupancy
  Ho  Ho0  1  0.315115  0.618840  0.303723  1
  Ho  Ho1  1  0.684885  0.381160  0.696277  1
  Ho  Ho2  1  0.315115  0.011391  0.696277  1
  Ho  Ho3  1  0.684885  0.988609  0.303723  1
  Ho  Ho4  1  0.185657  0.291229  0.476886  1
  Ho  Ho5  1  0.814343  0.708771  0.523114  1
  Ho  Ho6  1  0.185657  0.708771  0.894429  1
  Ho  Ho7  1  0.814343  0.291229  0.105571  1
  Ho  Ho8  1  0.413690  0.215203  0.198487  1
  Ho  Ho9  1  0.586310  0.784797  0.801513  1
  Ho  Ho10  1  0.016716  0.215203  0.801513  1
  Ho  Ho11  1  0.983284  0.784797  0.198487  1
  In  In12  1  0.500000  0.500000  0.000000  1
  Fe  Fe13  1  0.108975  0.608975  0.500000  1
  Fe  Fe14  1  0.891025  0.391025  0.500000  1
  Co  Co15  1  0.380837  0.000000  0.380837  1
  Co  Co16  1  0.619163  0.000000  0.619163  1
  Pt  Pt17  1  0.000000  0.000000  0.000000  1
