# generated using pymatgen
data_DyLu7Sc11Si16Ag
_symmetry_space_group_name_H-M   'P 1'
_cell_length_a   6.96044931
_cell_length_b   7.33541530
_cell_length_c   13.90374058
_cell_angle_alpha   90.03532952
_cell_angle_beta   89.95836407
_cell_angle_gamma   89.85609290
_symmetry_Int_Tables_number   1
_chemical_formula_structural   DyLu7Sc11Si16Ag
_chemical_formula_sum   'Dy1 Lu7 Sc11 Si16 Ag1'
_cell_volume   709.89165319
_cell_formula_units_Z   1
loop_
 _symmetry_equiv_pos_site_id
 _symmetry_equiv_pos_as_xyz
  1  'x, y, z'
loop_
 _atom_site_type_symbol
 _atom_site_label
 _atom_site_symmetry_multiplicity
 _atom_site_fract_x
 _atom_site_fract_y
 _atom_site_fract_z
 _atom_site_occupancy
  Dy  Dy0  1  0.485752  0.673303  0.596620  1
  Lu  Lu1  1  0.011338  0.177723  0.095775  1
  Lu  Lu2  1  0.989740  0.813661  0.903008  1
  Lu  Lu3  1  0.486300  0.674316  0.902787  1
  Lu  Lu4  1  0.989272  0.813475  0.597912  1
  Lu  Lu5  1  0.510301  0.322039  0.095924  1
  Lu  Lu6  1  0.010643  0.177766  0.403103  1
  Lu  Lu7  1  0.509727  0.321815  0.402854  1
  Sc  Sc8  1  0.838541  0.495827  0.249919  1
  Sc  Sc9  1  0.341699  0.004555  0.249817  1
  Sc  Sc10  1  0.655868  0.996112  0.750212  1
  Sc  Sc11  1  0.323563  0.181559  0.627736  1
  Sc  Sc12  1  0.672020  0.825203  0.374111  1
  Sc  Sc13  1  0.170102  0.679212  0.373394  1
  Sc  Sc14  1  0.671853  0.824599  0.125558  1
  Sc  Sc15  1  0.837973  0.326394  0.627400  1
  Sc  Sc16  1  0.324477  0.181057  0.873108  1
  Sc  Sc17  1  0.836603  0.326362  0.873765  1
  Sc  Sc18  1  0.170284  0.679604  0.126240  1
  Si  Si19  1  0.024210  0.091398  0.750729  1
  Si  Si20  1  0.971271  0.893500  0.249621  1
  Si  Si21  1  0.468676  0.613764  0.249527  1
  Si  Si22  1  0.536018  0.386279  0.750627  1
  Si  Si23  1  0.286356  0.876853  0.750950  1
  Si  Si24  1  0.714775  0.132901  0.249388  1
  Si  Si25  1  0.213082  0.368678  0.249482  1
  Si  Si26  1  0.777491  0.631673  0.751213  1
  Si  Si27  1  0.162012  0.458832  0.530296  1
  Si  Si28  1  0.840392  0.535014  0.461647  1
  Si  Si29  1  0.342786  0.968092  0.461931  1
  Si  Si30  1  0.841126  0.535018  0.038137  1
  Si  Si31  1  0.659146  0.035722  0.539555  1
  Si  Si32  1  0.165233  0.460705  0.968536  1
  Si  Si33  1  0.658410  0.033361  0.959950  1
  Si  Si34  1  0.343337  0.966173  0.037416  1
  Ag  Ag35  1  0.159621  0.517451  0.751750  1
