# generated using pymatgen
data_Sm3Dy13(HoSn4)4
_symmetry_space_group_name_H-M   'P 1'
_cell_length_a   8.04736656
_cell_length_b   8.19354502
_cell_length_c   15.48437554
_cell_angle_alpha   90.02930406
_cell_angle_beta   90.22231542
_cell_angle_gamma   89.90293074
_symmetry_Int_Tables_number   1
_chemical_formula_structural   Sm3Dy13(HoSn4)4
_chemical_formula_sum   'Sm3 Dy13 Ho4 Sn16'
_cell_volume   1020.97563141
_cell_formula_units_Z   1
loop_
 _symmetry_equiv_pos_site_id
 _symmetry_equiv_pos_as_xyz
  1  'x, y, z'
loop_
 _atom_site_type_symbol
 _atom_site_label
 _atom_site_symmetry_multiplicity
 _atom_site_fract_x
 _atom_site_fract_y
 _atom_site_fract_z
 _atom_site_occupancy
  Sm  Sm0  1  0.982968  0.820885  0.403351  1
  Sm  Sm1  1  0.516595  0.321009  0.595834  1
  Sm  Sm2  1  0.017456  0.179130  0.904293  1
  Dy  Dy3  1  0.366494  0.836625  0.877972  1
  Dy  Dy4  1  0.864567  0.663304  0.622307  1
  Dy  Dy5  1  0.635179  0.162854  0.376787  1
  Dy  Dy6  1  0.134068  0.337295  0.121987  1
  Dy  Dy7  1  0.632964  0.162927  0.122377  1
  Dy  Dy8  1  0.134599  0.337183  0.377160  1
  Dy  Dy9  1  0.366229  0.836887  0.622742  1
  Dy  Dy10  1  0.867760  0.662639  0.878141  1
  Dy  Dy11  1  0.521539  0.321952  0.902028  1
  Dy  Dy12  1  0.019808  0.179353  0.597644  1
  Dy  Dy13  1  0.480662  0.679017  0.402239  1
  Dy  Dy14  1  0.979103  0.820097  0.098179  1
  Dy  Dy15  1  0.479763  0.678336  0.097143  1
  Ho  Ho16  1  0.197969  0.503168  0.750424  1
  Ho  Ho17  1  0.697999  0.996984  0.750163  1
  Ho  Ho18  1  0.802069  0.497313  0.249333  1
  Ho  Ho19  1  0.302258  0.002849  0.249564  1
  Sn  Sn20  1  0.294499  0.034007  0.043039  1
  Sn  Sn21  1  0.795088  0.462659  0.457468  1
  Sn  Sn22  1  0.705177  0.963907  0.542252  1
  Sn  Sn23  1  0.208792  0.537430  0.958660  1
  Sn  Sn24  1  0.703552  0.960310  0.959119  1
  Sn  Sn25  1  0.202682  0.540313  0.540776  1
  Sn  Sn26  1  0.297346  0.039478  0.458985  1
  Sn  Sn27  1  0.792717  0.462877  0.041652  1
  Sn  Sn28  1  0.564366  0.619479  0.750564  1
  Sn  Sn29  1  0.063996  0.880248  0.749990  1
  Sn  Sn30  1  0.436355  0.381174  0.249937  1
  Sn  Sn31  1  0.936276  0.119607  0.249409  1
  Sn  Sn32  1  0.328288  0.146724  0.750855  1
  Sn  Sn33  1  0.828267  0.353210  0.749186  1
  Sn  Sn34  1  0.669896  0.851908  0.249511  1
  Sn  Sn35  1  0.172657  0.646859  0.248928  1
