# generated using pymatgen
data_Tb5Y5Si5Ge
_symmetry_space_group_name_H-M   'P 1'
_cell_length_a   8.49656611
_cell_length_b   8.49645784
_cell_length_c   6.41519400
_cell_angle_alpha   90.00000000
_cell_angle_beta   90.00000000
_cell_angle_gamma   119.98199832
_symmetry_Int_Tables_number   1
_chemical_formula_structural   Tb5Y5Si5Ge
_chemical_formula_sum   'Tb5 Y5 Si5 Ge1'
_cell_volume   401.14420694
_cell_formula_units_Z   1
loop_
 _symmetry_equiv_pos_site_id
 _symmetry_equiv_pos_as_xyz
  1  'x, y, z'
loop_
 _atom_site_type_symbol
 _atom_site_label
 _atom_site_symmetry_multiplicity
 _atom_site_fract_x
 _atom_site_fract_y
 _atom_site_fract_z
 _atom_site_occupancy
  Tb  Tb0  1  0.998845  0.755846  0.750000  1
  Tb  Tb1  1  0.333219  0.665747  0.499320  1
  Tb  Tb2  1  0.667402  0.334217  0.000680  1
  Tb  Tb3  1  0.667402  0.334217  0.499320  1
  Tb  Tb4  1  0.333219  0.665747  0.000680  1
  Y  Y5  1  0.999916  0.243242  0.250000  1
  Y  Y6  1  0.756577  0.756685  0.250000  1
  Y  Y7  1  0.757595  0.999990  0.750000  1
  Y  Y8  1  0.243021  0.244205  0.750000  1
  Y  Y9  1  0.242997  0.000023  0.250000  1
  Si  Si10  1  0.394075  0.394059  0.250000  1
  Si  Si11  1  0.000066  0.606020  0.250000  1
  Si  Si12  1  0.999943  0.394018  0.750000  1
  Si  Si13  1  0.605652  0.605835  0.750000  1
  Si  Si14  1  0.606045  0.000044  0.250000  1
  Ge  Ge15  1  0.394025  0.000107  0.750000  1
