# generated using pymatgen
data_PrP12IrOs3
_symmetry_space_group_name_H-M   'P 1'
_cell_length_a   7.05571227
_cell_length_b   7.04514971
_cell_length_c   7.04514999
_cell_angle_alpha   109.44083490
_cell_angle_beta   109.50160395
_cell_angle_gamma   109.50159435
_symmetry_Int_Tables_number   1
_chemical_formula_structural   PrP12IrOs3
_chemical_formula_sum   'Pr1 P12 Ir1 Os3'
_cell_volume   269.48613684
_cell_formula_units_Z   1
loop_
 _symmetry_equiv_pos_site_id
 _symmetry_equiv_pos_as_xyz
  1  'x, y, z'
loop_
 _atom_site_type_symbol
 _atom_site_label
 _atom_site_symmetry_multiplicity
 _atom_site_fract_x
 _atom_site_fract_y
 _atom_site_fract_z
 _atom_site_occupancy
  Pr  Pr0  1  0.000000  0.000000  0.000000  1
  P  P1  1  0.353982  0.213532  0.855599  1
  P  P2  1  0.646018  0.786468  0.144401  1
  P  P3  1  0.644959  0.501356  0.856796  1
  P  P4  1  0.355041  0.498644  0.143204  1
  P  P5  1  0.211837  0.856796  0.355440  1
  P  P6  1  0.788163  0.143204  0.644560  1
  P  P7  1  0.501616  0.855599  0.642067  1
  P  P8  1  0.498384  0.144401  0.357933  1
  P  P9  1  0.859549  0.357933  0.213532  1
  P  P10  1  0.140451  0.642067  0.786468  1
  P  P11  1  0.856397  0.644560  0.501356  1
  P  P12  1  0.143603  0.355440  0.498644  1
  Ir  Ir13  1  0.500000  0.000000  0.000000  1
  Os  Os14  1  0.000000  0.000000  0.500000  1
  Os  Os15  1  0.000000  0.500000  0.000000  1
  Os  Os16  1  0.500000  0.500000  0.500000  1
