# generated using pymatgen
data_Ce7ZrF30
_symmetry_space_group_name_H-M   'P 1'
_cell_length_a   8.71957421
_cell_length_b   8.71957405
_cell_length_c   8.71957400
_cell_angle_alpha   100.12935418
_cell_angle_beta   100.12935401
_cell_angle_gamma   100.12935091
_symmetry_Int_Tables_number   1
_chemical_formula_structural   Ce7ZrF30
_chemical_formula_sum   'Ce7 Zr1 F30'
_cell_volume   627.65272255
_cell_formula_units_Z   1
loop_
 _symmetry_equiv_pos_site_id
 _symmetry_equiv_pos_as_xyz
  1  'x, y, z'
loop_
 _atom_site_type_symbol
 _atom_site_label
 _atom_site_symmetry_multiplicity
 _atom_site_fract_x
 _atom_site_fract_y
 _atom_site_fract_z
 _atom_site_occupancy
  Ce  Ce0  1  0.176508  0.750000  0.323492  1
  Ce  Ce1  1  0.250000  0.678236  0.821764  1
  Ce  Ce2  1  0.678236  0.821764  0.250000  1
  Ce  Ce3  1  0.750000  0.750000  0.750000  1
  Ce  Ce4  1  0.323492  0.176508  0.750000  1
  Ce  Ce5  1  0.750000  0.323492  0.176508  1
  Ce  Ce6  1  0.821764  0.250000  0.678236  1
  Zr  Zr7  1  0.250000  0.250000  0.250000  1
  F  F8  1  0.961463  0.538537  0.250000  1
  F  F9  1  0.808079  0.340913  0.442403  1
  F  F10  1  0.491189  0.722842  0.719236  1
  F  F11  1  0.340913  0.442403  0.808079  1
  F  F12  1  0.008811  0.780764  0.777158  1
  F  F13  1  0.750000  0.032286  0.467714  1
  F  F14  1  0.949047  0.845993  0.318476  1
  F  F15  1  0.230642  0.222101  0.007668  1
  F  F16  1  0.777158  0.008811  0.780764  1
  F  F17  1  0.318476  0.949047  0.845993  1
  F  F18  1  0.277899  0.269358  0.492332  1
  F  F19  1  0.442403  0.808079  0.340913  1
  F  F20  1  0.538537  0.250000  0.961463  1
  F  F21  1  0.269358  0.492332  0.277899  1
  F  F22  1  0.159087  0.691921  0.057597  1
  F  F23  1  0.845993  0.318476  0.949047  1
  F  F24  1  0.719236  0.491189  0.722842  1
  F  F25  1  0.467714  0.750000  0.032286  1
  F  F26  1  0.550953  0.181524  0.654007  1
  F  F27  1  0.722842  0.719236  0.491189  1
  F  F28  1  0.691921  0.057597  0.159087  1
  F  F29  1  0.222101  0.007668  0.230642  1
  F  F30  1  0.780764  0.777158  0.008811  1
  F  F31  1  0.057597  0.159087  0.691921  1
  F  F32  1  0.250000  0.961463  0.538537  1
  F  F33  1  0.007668  0.230642  0.222101  1
  F  F34  1  0.654007  0.550953  0.181524  1
  F  F35  1  0.492332  0.277899  0.269358  1
  F  F36  1  0.181524  0.654007  0.550953  1
  F  F37  1  0.032286  0.467714  0.750000  1
