# generated using pymatgen
data_LaPr10In(Hg2Ir)4
_symmetry_space_group_name_H-M   'P 1'
_cell_length_a   13.47648332
_cell_length_b   13.47648249
_cell_length_c   3.91917900
_cell_angle_alpha   90.00000000
_cell_angle_beta   90.00000000
_cell_angle_gamma   114.27384292
_symmetry_Int_Tables_number   1
_chemical_formula_structural   LaPr10In(Hg2Ir)4
_chemical_formula_sum   'La1 Pr10 In1 Hg8 Ir4'
_cell_volume   648.85593421
_cell_formula_units_Z   1
loop_
 _symmetry_equiv_pos_site_id
 _symmetry_equiv_pos_as_xyz
  1  'x, y, z'
loop_
 _atom_site_type_symbol
 _atom_site_label
 _atom_site_symmetry_multiplicity
 _atom_site_fract_x
 _atom_site_fract_y
 _atom_site_fract_z
 _atom_site_occupancy
  La  La0  1  0.798413  0.798413  0.500000  1
  Pr  Pr1  1  0.499575  0.499575  0.500000  1
  Pr  Pr2  1  0.202534  0.202534  0.500000  1
  Pr  Pr3  1  0.587384  0.919391  0.500000  1
  Pr  Pr4  1  0.412480  0.081100  0.500000  1
  Pr  Pr5  1  0.919391  0.587384  0.500000  1
  Pr  Pr6  1  0.081100  0.412480  0.500000  1
  Pr  Pr7  1  0.129782  0.870850  0.500000  1
  Pr  Pr8  1  0.870850  0.129782  0.500000  1
  Pr  Pr9  1  0.332731  0.666858  0.500000  1
  Pr  Pr10  1  0.666858  0.332731  0.500000  1
  In  In11  1  0.000600  0.000600  0.000000  1
  Hg  Hg12  1  0.349745  0.867167  0.000000  1
  Hg  Hg13  1  0.650077  0.133004  0.000000  1
  Hg  Hg14  1  0.867167  0.349745  0.000000  1
  Hg  Hg15  1  0.133004  0.650077  0.000000  1
  Hg  Hg16  1  0.557893  0.710718  0.000000  1
  Hg  Hg17  1  0.441610  0.288923  0.000000  1
  Hg  Hg18  1  0.710718  0.557893  0.000000  1
  Hg  Hg19  1  0.288923  0.441610  0.000000  1
  Ir  Ir20  1  0.759350  0.947871  0.000000  1
  Ir  Ir21  1  0.241138  0.050804  0.000000  1
  Ir  Ir22  1  0.947871  0.759350  0.000000  1
  Ir  Ir23  1  0.050804  0.241138  0.000000  1
