# generated using pymatgen
data_Hf18Ti2Fe2Mo5Au
_symmetry_space_group_name_H-M   'P 1'
_cell_length_a   8.45711700
_cell_length_b   8.70341415
_cell_length_c   8.65272301
_cell_angle_alpha   119.81178255
_cell_angle_beta   90.00000000
_cell_angle_gamma   90.00000000
_symmetry_Int_Tables_number   1
_chemical_formula_structural   Hf18Ti2Fe2Mo5Au
_chemical_formula_sum   'Hf18 Ti2 Fe2 Mo5 Au1'
_cell_volume   552.60649626
_cell_formula_units_Z   1
loop_
 _symmetry_equiv_pos_site_id
 _symmetry_equiv_pos_as_xyz
  1  'x, y, z'
loop_
 _atom_site_type_symbol
 _atom_site_label
 _atom_site_symmetry_multiplicity
 _atom_site_fract_x
 _atom_site_fract_y
 _atom_site_fract_z
 _atom_site_occupancy
  Hf  Hf0  1  0.558291  0.798042  0.596567  1
  Hf  Hf1  1  0.558315  0.798029  0.201487  1
  Hf  Hf2  1  0.566122  0.409270  0.204634  1
  Hf  Hf3  1  0.442407  0.201452  0.407282  1
  Hf  Hf4  1  0.442412  0.201451  0.794152  1
  Hf  Hf5  1  0.440996  0.594630  0.797311  1
  Hf  Hf6  1  0.057593  0.201452  0.407282  1
  Hf  Hf7  1  0.057588  0.201451  0.794152  1
  Hf  Hf8  1  0.059004  0.594630  0.797311  1
  Hf  Hf9  1  0.941709  0.798042  0.596567  1
  Hf  Hf10  1  0.941685  0.798029  0.201487  1
  Hf  Hf11  1  0.933878  0.409270  0.204634  1
  Hf  Hf12  1  0.750000  0.456692  0.915428  1
  Hf  Hf13  1  0.750000  0.456714  0.541240  1
  Hf  Hf14  1  0.750000  0.081007  0.540475  1
  Hf  Hf15  1  0.250000  0.548054  0.084899  1
  Hf  Hf16  1  0.250000  0.548049  0.463167  1
  Hf  Hf17  1  0.250000  0.918725  0.459374  1
  Ti  Ti18  1  0.503985  0.998860  0.999433  1
  Ti  Ti19  1  0.996015  0.998860  0.999433  1
  Fe  Fe20  1  0.750000  0.667739  0.333922  1
  Fe  Fe21  1  0.250000  0.330866  0.665434  1
  Mo  Mo22  1  0.750000  0.116223  0.228670  1
  Mo  Mo23  1  0.750000  0.116229  0.887555  1
  Mo  Mo24  1  0.750000  0.769861  0.884921  1
  Mo  Mo25  1  0.250000  0.880838  0.769521  1
  Mo  Mo26  1  0.250000  0.880806  0.111302  1
  Au  Au27  1  0.250000  0.224722  0.112359  1
