# generated using pymatgen
data_CaLa2(OsO5)2
_symmetry_space_group_name_H-M   'P 1'
_cell_length_a   5.57620074
_cell_length_b   5.57620142
_cell_length_c   7.00346511
_cell_angle_alpha   72.77077426
_cell_angle_beta   72.77077322
_cell_angle_gamma   89.71281459
_symmetry_Int_Tables_number   1
_chemical_formula_structural   CaLa2(OsO5)2
_chemical_formula_sum   'Ca1 La2 Os2 O10'
_cell_volume   197.84254911
_cell_formula_units_Z   1
loop_
 _symmetry_equiv_pos_site_id
 _symmetry_equiv_pos_as_xyz
  1  'x, y, z'
loop_
 _atom_site_type_symbol
 _atom_site_label
 _atom_site_symmetry_multiplicity
 _atom_site_fract_x
 _atom_site_fract_y
 _atom_site_fract_z
 _atom_site_occupancy
  Ca  Ca0  1  0.500000  0.500000  0.000000  1
  La  La1  1  0.755700  0.244300  0.500000  1
  La  La2  1  0.244300  0.755700  0.500000  1
  Os  Os3  1  0.135089  0.135089  0.827937  1
  Os  Os4  1  0.864911  0.864911  0.172063  1
  O  O5  1  0.825986  0.825986  0.473260  1
  O  O6  1  0.174014  0.174014  0.526740  1
  O  O7  1  0.597014  0.597014  0.276045  1
  O  O8  1  0.402986  0.402986  0.723955  1
  O  O9  1  0.368552  0.895223  0.792295  1
  O  O10  1  0.855429  0.855429  0.896577  1
  O  O11  1  0.144571  0.144571  0.103423  1
  O  O12  1  0.895223  0.368552  0.792295  1
  O  O13  1  0.631448  0.104777  0.207705  1
  O  O14  1  0.104777  0.631448  0.207705  1
