# generated using pymatgen
data_Er2MnSi14Ir5
_symmetry_space_group_name_H-M   'P 1'
_cell_length_a   7.95365803
_cell_length_b   7.95365898
_cell_length_c   7.99516869
_cell_angle_alpha   56.89530318
_cell_angle_beta   56.89529951
_cell_angle_gamma   57.04161339
_symmetry_Int_Tables_number   1
_chemical_formula_structural   Er2MnSi14Ir5
_chemical_formula_sum   'Er2 Mn1 Si14 Ir5'
_cell_volume   332.43150430
_cell_formula_units_Z   1
loop_
 _symmetry_equiv_pos_site_id
 _symmetry_equiv_pos_as_xyz
  1  'x, y, z'
loop_
 _atom_site_type_symbol
 _atom_site_label
 _atom_site_symmetry_multiplicity
 _atom_site_fract_x
 _atom_site_fract_y
 _atom_site_fract_z
 _atom_site_occupancy
  Er  Er0  1  0.001803  0.004275  0.994563  1
  Er  Er1  1  0.495725  0.498197  0.505437  1
  Mn  Mn2  1  0.076275  0.423725  0.750000  1
  Si  Si3  1  0.762502  0.737498  0.750000  1
  Si  Si4  1  0.248781  0.251219  0.250000  1
  Si  Si5  1  0.850288  0.066252  0.671423  1
  Si  Si6  1  0.671698  0.852270  0.063522  1
  Si  Si7  1  0.064127  0.663452  0.847210  1
  Si  Si8  1  0.647730  0.828302  0.436478  1
  Si  Si9  1  0.433748  0.649712  0.828577  1
  Si  Si10  1  0.836548  0.435873  0.652790  1
  Si  Si11  1  0.168252  0.561915  0.365329  1
  Si  Si12  1  0.565214  0.351139  0.172623  1
  Si  Si13  1  0.343638  0.179248  0.571677  1
  Si  Si14  1  0.938085  0.331748  0.134671  1
  Si  Si15  1  0.320752  0.156362  0.928323  1
  Si  Si16  1  0.148861  0.934786  0.327377  1
  Ir  Ir17  1  0.249556  0.927732  0.572365  1
  Ir  Ir18  1  0.572268  0.250444  0.927635  1
  Ir  Ir19  1  0.926001  0.573999  0.250000  1
  Ir  Ir20  1  0.427962  0.749813  0.072012  1
  Ir  Ir21  1  0.750187  0.072038  0.427988  1
