# generated using pymatgen
data_Lu10Ga5Sb
_symmetry_space_group_name_H-M   'P 1'
_cell_length_a   8.47075817
_cell_length_b   8.47075865
_cell_length_c   6.37983400
_cell_angle_alpha   90.00000000
_cell_angle_beta   90.00000000
_cell_angle_gamma   120.09910454
_symmetry_Int_Tables_number   1
_chemical_formula_structural   Lu10Ga5Sb
_chemical_formula_sum   'Lu10 Ga5 Sb1'
_cell_volume   396.05001094
_cell_formula_units_Z   1
loop_
 _symmetry_equiv_pos_site_id
 _symmetry_equiv_pos_as_xyz
  1  'x, y, z'
loop_
 _atom_site_type_symbol
 _atom_site_label
 _atom_site_symmetry_multiplicity
 _atom_site_fract_x
 _atom_site_fract_y
 _atom_site_fract_z
 _atom_site_occupancy
  Lu  Lu0  1  0.675384  0.332776  0.005274  1
  Lu  Lu1  1  0.332776  0.675384  0.005274  1
  Lu  Lu2  1  0.332776  0.675384  0.494726  1
  Lu  Lu3  1  0.675384  0.332776  0.494726  1
  Lu  Lu4  1  0.767356  0.767356  0.750000  1
  Lu  Lu5  1  0.237746  0.987414  0.750000  1
  Lu  Lu6  1  0.987414  0.237746  0.750000  1
  Lu  Lu7  1  0.240165  0.240165  0.250000  1
  Lu  Lu8  1  0.758270  0.998557  0.250000  1
  Lu  Lu9  1  0.998557  0.758270  0.250000  1
  Ga  Ga10  1  0.597131  0.997916  0.750000  1
  Ga  Ga11  1  0.997916  0.597131  0.750000  1
  Ga  Ga12  1  0.600384  0.600384  0.250000  1
  Ga  Ga13  1  0.400217  0.003202  0.250000  1
  Ga  Ga14  1  0.003202  0.400217  0.250000  1
  Sb  Sb15  1  0.395321  0.395321  0.750000  1
