# generated using pymatgen
data_Eu2Re2C3
_symmetry_space_group_name_H-M   'P 1'
_cell_length_a   3.32237800
_cell_length_b   5.32930200
_cell_length_c   11.76925700
_cell_angle_alpha   90.00000000
_cell_angle_beta   90.00000000
_cell_angle_gamma   90.00000000
_symmetry_Int_Tables_number   1
_chemical_formula_structural   Eu2Re2C3
_chemical_formula_sum   'Eu4 Re4 C6'
_cell_volume   208.38594330
_cell_formula_units_Z   2
loop_
 _symmetry_equiv_pos_site_id
 _symmetry_equiv_pos_as_xyz
  1  'x, y, z'
loop_
 _atom_site_type_symbol
 _atom_site_label
 _atom_site_symmetry_multiplicity
 _atom_site_fract_x
 _atom_site_fract_y
 _atom_site_fract_z
 _atom_site_occupancy
  Eu  Eu0  1  0.500000  0.835758  0.157522  1
  Eu  Eu1  1  0.000000  0.335758  0.342478  1
  Eu  Eu2  1  0.000000  0.664242  0.657522  1
  Eu  Eu3  1  0.500000  0.164242  0.842478  1
  Re  Re4  1  0.500000  0.827054  0.426891  1
  Re  Re5  1  0.000000  0.327054  0.073109  1
  Re  Re6  1  0.500000  0.172946  0.573109  1
  Re  Re7  1  0.000000  0.672946  0.926891  1
  C  C8  1  0.000000  0.164755  0.665751  1
  C  C9  1  0.500000  0.664755  0.834249  1
  C  C10  1  0.000000  0.835245  0.334249  1
  C  C11  1  0.000000  0.000000  0.000000  1
  C  C12  1  0.500000  0.335245  0.165751  1
  C  C13  1  0.500000  0.500000  0.500000  1
