# generated using pymatgen
data_Ce5AlZnRu3
_symmetry_space_group_name_H-M   'P 1'
_cell_length_a   8.40001741
_cell_length_b   8.40001722
_cell_length_c   8.33506320
_cell_angle_alpha   109.49451697
_cell_angle_beta   109.46177331
_cell_angle_gamma   109.77104403
_symmetry_Int_Tables_number   1
_chemical_formula_structural   Ce5AlZnRu3
_chemical_formula_sum   'Ce10 Al2 Zn2 Ru6'
_cell_volume   450.97434058
_cell_formula_units_Z   2
loop_
 _symmetry_equiv_pos_site_id
 _symmetry_equiv_pos_as_xyz
  1  'x, y, z'
loop_
 _atom_site_type_symbol
 _atom_site_label
 _atom_site_symmetry_multiplicity
 _atom_site_fract_x
 _atom_site_fract_y
 _atom_site_fract_z
 _atom_site_occupancy
  Ce  Ce0  1  0.252070  0.691956  0.444991  1
  Ce  Ce1  1  0.746964  0.807079  0.055009  1
  Ce  Ce2  1  0.442798  0.251203  0.692996  1
  Ce  Ce3  1  0.691030  0.441030  0.250000  1
  Ce  Ce4  1  0.058207  0.749802  0.807004  1
  Ce  Ce5  1  0.805911  0.055911  0.750000  1
  Ce  Ce6  1  0.217326  0.217738  0.217697  1
  Ce  Ce7  1  0.500042  0.999630  0.282303  1
  Ce  Ce8  1  0.284184  0.499384  0.999421  1
  Ce  Ce9  1  0.999963  0.284763  0.500579  1
  Al  Al10  1  0.905192  0.501247  0.001781  1
  Al  Al11  1  0.999466  0.903411  0.498219  1
  Zn  Zn12  1  0.592848  0.591177  0.591426  1
  Zn  Zn13  1  0.499750  0.001422  0.908574  1
  Ru  Ru14  1  0.245154  0.130406  0.876044  1
  Ru  Ru15  1  0.754362  0.369110  0.623956  1
  Ru  Ru16  1  0.887047  0.254172  0.128702  1
  Ru  Ru17  1  0.126819  0.876818  0.250000  1
  Ru  Ru18  1  0.625470  0.758345  0.371298  1
  Ru  Ru19  1  0.365396  0.615396  0.750000  1
