# generated using pymatgen
data_Gd2B10Ir
_symmetry_space_group_name_H-M   'P 1'
_cell_length_a   4.18805100
_cell_length_b   5.70822700
_cell_length_c   11.38659800
_cell_angle_alpha   90.00000000
_cell_angle_beta   90.00000000
_cell_angle_gamma   90.00000000
_symmetry_Int_Tables_number   1
_chemical_formula_structural   Gd2B10Ir
_chemical_formula_sum   'Gd4 B20 Ir2'
_cell_volume   272.21194922
_cell_formula_units_Z   2
loop_
 _symmetry_equiv_pos_site_id
 _symmetry_equiv_pos_as_xyz
  1  'x, y, z'
loop_
 _atom_site_type_symbol
 _atom_site_label
 _atom_site_symmetry_multiplicity
 _atom_site_fract_x
 _atom_site_fract_y
 _atom_site_fract_z
 _atom_site_occupancy
  Gd  Gd0  1  0.500000  0.204834  0.366279  1
  Gd  Gd1  1  0.500000  0.795166  0.633721  1
  Gd  Gd2  1  0.500000  0.295166  0.866279  1
  Gd  Gd3  1  0.500000  0.704834  0.133721  1
  B  B4  1  0.000000  0.381367  0.043104  1
  B  B5  1  0.000000  0.618633  0.956896  1
  B  B6  1  0.000000  0.118633  0.543104  1
  B  B7  1  0.000000  0.881367  0.456896  1
  B  B8  1  0.000000  0.361255  0.197637  1
  B  B9  1  0.000000  0.638745  0.802363  1
  B  B10  1  0.000000  0.138745  0.697637  1
  B  B11  1  0.000000  0.861255  0.302363  1
  B  B12  1  0.000000  0.053881  0.192857  1
  B  B13  1  0.000000  0.946119  0.807143  1
  B  B14  1  0.000000  0.446119  0.692857  1
  B  B15  1  0.000000  0.553881  0.307143  1
  B  B16  1  0.301104  0.218748  0.119290  1
  B  B17  1  0.698896  0.781252  0.880710  1
  B  B18  1  0.301104  0.781252  0.880710  1
  B  B19  1  0.698896  0.281252  0.619290  1
  B  B20  1  0.698896  0.218748  0.119290  1
  B  B21  1  0.301104  0.718748  0.380710  1
  B  B22  1  0.698896  0.718748  0.380710  1
  B  B23  1  0.301104  0.281252  0.619290  1
  Ir  Ir24  1  0.000000  0.000000  0.000000  1
  Ir  Ir25  1  0.000000  0.500000  0.500000  1
