# generated using pymatgen
data_Pr5In3
_symmetry_space_group_name_H-M   'P 1'
_cell_length_a   6.23717656
_cell_length_b   9.56407719
_cell_length_c   9.56407735
_cell_angle_alpha   83.89656441
_cell_angle_beta   70.96939396
_cell_angle_gamma   70.96939298
_symmetry_Int_Tables_number   1
_chemical_formula_structural   Pr5In3
_chemical_formula_sum   'Pr10 In6'
_cell_volume   509.86408262
_cell_formula_units_Z   2
loop_
 _symmetry_equiv_pos_site_id
 _symmetry_equiv_pos_as_xyz
  1  'x, y, z'
loop_
 _atom_site_type_symbol
 _atom_site_label
 _atom_site_symmetry_multiplicity
 _atom_site_fract_x
 _atom_site_fract_y
 _atom_site_fract_z
 _atom_site_occupancy
  Pr  Pr0  1  0.719271  0.865036  0.696421  1
  Pr  Pr1  1  0.280729  0.134964  0.303579  1
  Pr  Pr2  1  0.780729  0.303579  0.134964  1
  Pr  Pr3  1  0.219271  0.696421  0.865036  1
  Pr  Pr4  1  0.584308  0.696421  0.134964  1
  Pr  Pr5  1  0.415692  0.303579  0.865036  1
  Pr  Pr6  1  0.084308  0.134964  0.696421  1
  Pr  Pr7  1  0.915692  0.865036  0.303579  1
  Pr  Pr8  1  0.750000  0.500000  0.500000  1
  Pr  Pr9  1  0.250000  0.500000  0.500000  1
  In  In10  1  0.161499  0.500000  0.177004  1
  In  In11  1  0.838501  0.500000  0.822996  1
  In  In12  1  0.338501  0.822996  0.500000  1
  In  In13  1  0.661499  0.177004  0.500000  1
  In  In14  1  0.250000  0.000000  0.000000  1
  In  In15  1  0.750000  0.000000  0.000000  1
