# generated using pymatgen
data_Er9Sc(SiSb)4
_symmetry_space_group_name_H-M   'P 1'
_cell_length_a   8.37918801
_cell_length_b   8.37918785
_cell_length_c   7.71835000
_cell_angle_alpha   89.99790761
_cell_angle_beta   89.99790761
_cell_angle_gamma   125.35930176
_symmetry_Int_Tables_number   1
_chemical_formula_structural   Er9Sc(SiSb)4
_chemical_formula_sum   'Er9 Sc1 Si4 Sb4'
_cell_volume   441.94995824
_cell_formula_units_Z   1
loop_
 _symmetry_equiv_pos_site_id
 _symmetry_equiv_pos_as_xyz
  1  'x, y, z'
loop_
 _atom_site_type_symbol
 _atom_site_label
 _atom_site_symmetry_multiplicity
 _atom_site_fract_x
 _atom_site_fract_y
 _atom_site_fract_z
 _atom_site_occupancy
  Er  Er0  1  0.539655  0.790010  0.166800  1
  Er  Er1  1  0.292608  0.041603  0.335646  1
  Er  Er2  1  0.209990  0.460345  0.833200  1
  Er  Er3  1  0.958397  0.707392  0.664354  1
  Er  Er4  1  0.707392  0.958397  0.664354  1
  Er  Er5  1  0.460345  0.209990  0.833200  1
  Er  Er6  1  0.790010  0.539655  0.166800  1
  Er  Er7  1  0.041603  0.292608  0.335646  1
  Er  Er8  1  0.000000  0.000000  0.000000  1
  Sc  Sc9  1  0.500000  0.500000  0.500000  1
  Si  Si10  1  0.631987  0.631987  0.866137  1
  Si  Si11  1  0.134488  0.134488  0.630697  1
  Si  Si12  1  0.865512  0.865512  0.369303  1
  Si  Si13  1  0.368013  0.368013  0.133863  1
  Sb  Sb14  1  0.295880  0.704120  0.500000  1
  Sb  Sb15  1  0.206330  0.793670  0.000000  1
  Sb  Sb16  1  0.704120  0.295880  0.500000  1
  Sb  Sb17  1  0.793670  0.206330  0.000000  1
