# generated using pymatgen
data_CeNp3(PaAs4)2
_symmetry_space_group_name_H-M   'P 1'
_cell_length_a   7.45258704
_cell_length_b   7.43667183
_cell_length_c   7.43209197
_cell_angle_alpha   109.34453372
_cell_angle_beta   109.64271283
_cell_angle_gamma   109.37687763
_symmetry_Int_Tables_number   1
_chemical_formula_structural   CeNp3(PaAs4)2
_chemical_formula_sum   'Ce1 Np3 Pa2 As8'
_cell_volume   317.27615008
_cell_formula_units_Z   1
loop_
 _symmetry_equiv_pos_site_id
 _symmetry_equiv_pos_as_xyz
  1  'x, y, z'
loop_
 _atom_site_type_symbol
 _atom_site_label
 _atom_site_symmetry_multiplicity
 _atom_site_fract_x
 _atom_site_fract_y
 _atom_site_fract_z
 _atom_site_occupancy
  Ce  Ce0  1  0.875555  0.124162  0.746890  1
  Np  Np1  1  0.375998  0.251873  0.630360  1
  Np  Np2  1  0.118335  0.746223  0.873563  1
  Np  Np3  1  0.751716  0.878296  0.124435  1
  Pa  Pa4  1  0.254312  0.628269  0.376602  1
  Pa  Pa5  1  0.624347  0.370848  0.247851  1
  As  As6  1  0.656602  0.654114  0.655150  1
  As  As7  1  0.493009  0.998732  0.335982  1
  As  As8  1  0.003026  0.344056  0.496265  1
  As  As9  1  0.347202  0.505934  0.007290  1
  As  As10  1  0.002174  0.836980  0.496808  1
  As  As11  1  0.842929  0.503009  0.006831  1
  As  As12  1  0.163045  0.160729  0.162943  1
  As  As13  1  0.491751  0.996775  0.839030  1
