# generated using pymatgen
data_YbNb2Bi2O9
_symmetry_space_group_name_H-M   'P 1'
_cell_length_a   5.48848051
_cell_length_b   5.58950500
_cell_length_c   12.91297029
_cell_angle_alpha   90.00000000
_cell_angle_beta   102.26995526
_cell_angle_gamma   90.00000000
_symmetry_Int_Tables_number   1
_chemical_formula_structural   YbNb2Bi2O9
_chemical_formula_sum   'Yb2 Nb4 Bi4 O18'
_cell_volume   387.09364481
_cell_formula_units_Z   2
loop_
 _symmetry_equiv_pos_site_id
 _symmetry_equiv_pos_as_xyz
  1  'x, y, z'
loop_
 _atom_site_type_symbol
 _atom_site_label
 _atom_site_symmetry_multiplicity
 _atom_site_fract_x
 _atom_site_fract_y
 _atom_site_fract_z
 _atom_site_occupancy
  Yb  Yb0  1  0.241871  0.570872  0.000000  1
  Yb  Yb1  1  0.758129  0.070872  0.000000  1
  Nb  Nb2  1  0.336777  0.035300  0.160583  1
  Nb  Nb3  1  0.663223  0.535300  0.839417  1
  Nb  Nb4  1  0.823806  0.535300  0.160583  1
  Nb  Nb5  1  0.176194  0.035300  0.839417  1
  Bi  Bi6  1  0.580876  0.117299  0.602039  1
  Bi  Bi7  1  0.419124  0.617299  0.397961  1
  Bi  Bi8  1  0.021163  0.617299  0.602039  1
  Bi  Bi9  1  0.978837  0.117299  0.397961  1
  O  O10  1  0.340138  0.975242  0.000000  1
  O  O11  1  0.659862  0.475242  0.000000  1
  O  O12  1  0.317047  0.005475  0.305652  1
  O  O13  1  0.682953  0.505475  0.694348  1
  O  O14  1  0.988605  0.505475  0.305652  1
  O  O15  1  0.011395  0.005475  0.694348  1
  O  O16  1  0.475145  0.199064  0.827785  1
  O  O17  1  0.524855  0.699064  0.172215  1
  O  O18  1  0.352640  0.699064  0.827785  1
  O  O19  1  0.647360  0.199064  0.172215  1
  O  O20  1  0.265011  0.337736  0.500601  1
  O  O21  1  0.734989  0.837736  0.499399  1
  O  O22  1  0.235590  0.837736  0.500601  1
  O  O23  1  0.764410  0.337736  0.499399  1
  O  O24  1  0.102660  0.292568  0.116786  1
  O  O25  1  0.897340  0.792568  0.883214  1
  O  O26  1  0.014127  0.792568  0.116786  1
  O  O27  1  0.985873  0.292568  0.883214  1
