# generated using pymatgen
data_Tb8Ta2Ti9Si16W
_symmetry_space_group_name_H-M   'P 1'
_cell_length_a   7.05300313
_cell_length_b   7.05414434
_cell_length_c   12.98526835
_cell_angle_alpha   90.01730575
_cell_angle_beta   90.04115076
_cell_angle_gamma   89.93217484
_symmetry_Int_Tables_number   1
_chemical_formula_structural   Tb8Ta2Ti9Si16W
_chemical_formula_sum   'Tb8 Ta2 Ti9 Si16 W1'
_cell_volume   646.05413596
_cell_formula_units_Z   1
loop_
 _symmetry_equiv_pos_site_id
 _symmetry_equiv_pos_as_xyz
  1  'x, y, z'
loop_
 _atom_site_type_symbol
 _atom_site_label
 _atom_site_symmetry_multiplicity
 _atom_site_fract_x
 _atom_site_fract_y
 _atom_site_fract_z
 _atom_site_occupancy
  Tb  Tb0  1  0.339912  0.002474  0.467323  1
  Tb  Tb1  1  0.497957  0.840051  0.717877  1
  Tb  Tb2  1  0.503140  0.159586  0.217308  1
  Tb  Tb3  1  0.839343  0.496665  0.282373  1
  Tb  Tb4  1  0.159065  0.501859  0.782429  1
  Tb  Tb5  1  0.661035  0.998583  0.966032  1
  Tb  Tb6  1  0.001461  0.339376  0.534185  1
  Tb  Tb7  1  0.997510  0.660244  0.032396  1
  Ta  Ta8  1  0.326634  0.326018  0.999368  1
  Ta  Ta9  1  0.173491  0.826492  0.249894  1
  Ti  Ti10  1  0.673944  0.672967  0.500563  1
  Ti  Ti11  1  0.153662  0.009605  0.875101  1
  Ti  Ti12  1  0.490500  0.653466  0.125934  1
  Ti  Ti13  1  0.510140  0.344787  0.627634  1
  Ti  Ti14  1  0.654379  0.489787  0.873205  1
  Ti  Ti15  1  0.346063  0.509157  0.373333  1
  Ti  Ti16  1  0.847390  0.991844  0.375878  1
  Ti  Ti17  1  0.009023  0.153697  0.123679  1
  Ti  Ti18  1  0.991050  0.847341  0.625380  1
  Si  Si19  1  0.199571  0.128559  0.685290  1
  Si  Si20  1  0.371140  0.701789  0.934550  1
  Si  Si21  1  0.628956  0.298709  0.435371  1
  Si  Si22  1  0.701877  0.370855  0.065000  1
  Si  Si23  1  0.298624  0.628783  0.565224  1
  Si  Si24  1  0.798130  0.870961  0.184977  1
  Si  Si25  1  0.128994  0.201870  0.314958  1
  Si  Si26  1  0.871532  0.800562  0.814651  1
  Si  Si27  1  0.292084  0.954270  0.063951  1
  Si  Si28  1  0.546977  0.791268  0.314870  1
  Si  Si29  1  0.454903  0.208417  0.814105  1
  Si  Si30  1  0.790522  0.545601  0.685496  1
  Si  Si31  1  0.207795  0.453496  0.185288  1
  Si  Si32  1  0.708766  0.047320  0.566296  1
  Si  Si33  1  0.952817  0.291386  0.934255  1
  Si  Si34  1  0.045771  0.707953  0.435704  1
  W  W35  1  0.825841  0.174200  0.750124  1
