# generated using pymatgen
data_Nd2Er2Zn4Si3Ge
_symmetry_space_group_name_H-M   'P 1'
_cell_length_a   4.18358700
_cell_length_b   4.18358585
_cell_length_c   16.13387500
_cell_angle_alpha   90.00000000
_cell_angle_beta   90.00000000
_cell_angle_gamma   120.00001703
_symmetry_Int_Tables_number   1
_chemical_formula_structural   Nd2Er2Zn4Si3Ge
_chemical_formula_sum   'Nd2 Er2 Zn4 Si3 Ge1'
_cell_volume   244.54947503
_cell_formula_units_Z   1
loop_
 _symmetry_equiv_pos_site_id
 _symmetry_equiv_pos_as_xyz
  1  'x, y, z'
loop_
 _atom_site_type_symbol
 _atom_site_label
 _atom_site_symmetry_multiplicity
 _atom_site_fract_x
 _atom_site_fract_y
 _atom_site_fract_z
 _atom_site_occupancy
  Nd  Nd0  1  0.000000  0.000000  0.001866  1
  Nd  Nd1  1  0.000000  0.000000  0.499803  1
  Er  Er2  1  0.000000  0.000000  0.250654  1
  Er  Er3  1  0.000000  0.000000  0.747858  1
  Zn  Zn4  1  0.333333  0.666667  0.143481  1
  Zn  Zn5  1  0.666667  0.333333  0.852632  1
  Zn  Zn6  1  0.666667  0.333333  0.641420  1
  Zn  Zn7  1  0.333333  0.666667  0.357842  1
  Si  Si8  1  0.333333  0.666667  0.623811  1
  Si  Si9  1  0.666667  0.333333  0.376280  1
  Si  Si10  1  0.666667  0.333333  0.125322  1
  Ge  Ge11  1  0.333333  0.666667  0.879030  1
