# generated using pymatgen
data_Ba2MgBi2
_symmetry_space_group_name_H-M   'P 1'
_cell_length_a   7.27785970
_cell_length_b   7.60708150
_cell_length_c   9.07472619
_cell_angle_alpha   114.78002237
_cell_angle_beta   113.64046567
_cell_angle_gamma   89.99999726
_symmetry_Int_Tables_number   1
_chemical_formula_structural   Ba2MgBi2
_chemical_formula_sum   'Ba4 Mg2 Bi4'
_cell_volume   409.24629000
_cell_formula_units_Z   2
loop_
 _symmetry_equiv_pos_site_id
 _symmetry_equiv_pos_as_xyz
  1  'x, y, z'
loop_
 _atom_site_type_symbol
 _atom_site_label
 _atom_site_symmetry_multiplicity
 _atom_site_fract_x
 _atom_site_fract_y
 _atom_site_fract_z
 _atom_site_occupancy
  Ba  Ba0  1  0.139579  0.335774  0.279158  1
  Ba  Ba1  1  0.639579  0.943386  0.279158  1
  Ba  Ba2  1  0.360421  0.056615  0.720842  1
  Ba  Ba3  1  0.860421  0.664226  0.720842  1
  Mg  Mg4  1  0.250001  0.500000  0.000000  1
  Mg  Mg5  1  0.750000  0.500000  0.000000  1
  Bi  Bi6  1  0.615455  0.398944  0.230912  1
  Bi  Bi7  1  0.115456  0.831968  0.230912  1
  Bi  Bi8  1  0.884544  0.168032  0.769089  1
  Bi  Bi9  1  0.384544  0.601056  0.769089  1
