# generated using pymatgen
data_Sm3Pd8Au
_symmetry_space_group_name_H-M   'P 1'
_cell_length_a   4.25403600
_cell_length_b   5.93511901
_cell_length_c   17.75690600
_cell_angle_alpha   90.00304091
_cell_angle_beta   90.00171051
_cell_angle_gamma   89.99780852
_symmetry_Int_Tables_number   1
_chemical_formula_structural   Sm3Pd8Au
_chemical_formula_sum   'Sm6 Pd16 Au2'
_cell_volume   448.33008969
_cell_formula_units_Z   2
loop_
 _symmetry_equiv_pos_site_id
 _symmetry_equiv_pos_as_xyz
  1  'x, y, z'
loop_
 _atom_site_type_symbol
 _atom_site_label
 _atom_site_symmetry_multiplicity
 _atom_site_fract_x
 _atom_site_fract_y
 _atom_site_fract_z
 _atom_site_occupancy
  Sm  Sm0  1  0.526081  0.309609  0.042622  1
  Sm  Sm1  1  0.526077  0.808773  0.206031  1
  Sm  Sm2  1  0.526156  0.309657  0.369407  1
  Sm  Sm3  1  0.525971  0.769314  0.542988  1
  Sm  Sm4  1  0.525894  0.269942  0.706269  1
  Sm  Sm5  1  0.525973  0.769004  0.869579  1
  Pd  Pd6  1  0.526250  0.803921  0.039069  1
  Pd  Pd7  1  0.026131  0.060121  0.123405  1
  Pd  Pd8  1  0.026161  0.558595  0.123338  1
  Pd  Pd9  1  0.526172  0.308641  0.206003  1
  Pd  Pd10  1  0.026108  0.559083  0.288972  1
  Pd  Pd11  1  0.026169  0.059701  0.288817  1
  Pd  Pd12  1  0.526009  0.803888  0.373205  1
  Pd  Pd13  1  0.026040  0.539496  0.456188  1
  Pd  Pd14  1  0.525837  0.275051  0.539139  1
  Pd  Pd15  1  0.025845  0.019206  0.623491  1
  Pd  Pd16  1  0.025895  0.519655  0.623303  1
  Pd  Pd17  1  0.525766  0.770011  0.706284  1
  Pd  Pd18  1  0.025876  0.519913  0.788976  1
  Pd  Pd19  1  0.025735  0.018644  0.788856  1
  Pd  Pd20  1  0.525868  0.274662  0.873196  1
  Pd  Pd21  1  0.026028  0.539354  0.956133  1
  Au  Au22  1  0.026141  0.039447  0.456141  1
  Au  Au23  1  0.026154  0.039276  0.956128  1
