# generated using pymatgen
data_YMnFeSi2
_symmetry_space_group_name_H-M   'P 1'
_cell_length_a   5.79077282
_cell_length_b   5.79077262
_cell_length_c   5.79077240
_cell_angle_alpha   140.86223364
_cell_angle_beta   140.86223655
_cell_angle_gamma   56.54643106
_symmetry_Int_Tables_number   1
_chemical_formula_structural   YMnFeSi2
_chemical_formula_sum   'Y1 Mn1 Fe1 Si2'
_cell_volume   76.74157470
_cell_formula_units_Z   1
loop_
 _symmetry_equiv_pos_site_id
 _symmetry_equiv_pos_as_xyz
  1  'x, y, z'
loop_
 _atom_site_type_symbol
 _atom_site_label
 _atom_site_symmetry_multiplicity
 _atom_site_fract_x
 _atom_site_fract_y
 _atom_site_fract_z
 _atom_site_occupancy
  Y  Y0  1  0.000000  0.000000  0.000000  1
  Mn  Mn1  1  0.750000  0.250000  0.500000  1
  Fe  Fe2  1  0.250000  0.750000  0.500000  1
  Si  Si3  1  0.621945  0.621945  0.000000  1
  Si  Si4  1  0.378054  0.378054  0.000000  1
