# generated using pymatgen
data_Y4Lu13Th3Sn16
_symmetry_space_group_name_H-M   'P 1'
_cell_length_a   8.03256494
_cell_length_b   8.14362824
_cell_length_c   15.34340700
_cell_angle_alpha   90.04265720
_cell_angle_beta   90.30382887
_cell_angle_gamma   89.86663277
_symmetry_Int_Tables_number   1
_chemical_formula_structural   Y4Lu13Th3Sn16
_chemical_formula_sum   'Y4 Lu13 Th3 Sn16'
_cell_volume   1003.65994282
_cell_formula_units_Z   1
loop_
 _symmetry_equiv_pos_site_id
 _symmetry_equiv_pos_as_xyz
  1  'x, y, z'
loop_
 _atom_site_type_symbol
 _atom_site_label
 _atom_site_symmetry_multiplicity
 _atom_site_fract_x
 _atom_site_fract_y
 _atom_site_fract_z
 _atom_site_occupancy
  Y  Y0  1  0.022452  0.177184  0.598315  1
  Y  Y1  1  0.479604  0.677452  0.402974  1
  Y  Y2  1  0.977587  0.821841  0.098459  1
  Y  Y3  1  0.479711  0.675987  0.096435  1
  Lu  Lu4  1  0.361021  0.835501  0.876804  1
  Lu  Lu5  1  0.860062  0.664544  0.624228  1
  Lu  Lu6  1  0.638747  0.163675  0.375361  1
  Lu  Lu7  1  0.136233  0.336652  0.123594  1
  Lu  Lu8  1  0.637164  0.162102  0.123711  1
  Lu  Lu9  1  0.140070  0.338271  0.375745  1
  Lu  Lu10  1  0.360863  0.838793  0.624973  1
  Lu  Lu11  1  0.863907  0.661541  0.876252  1
  Lu  Lu12  1  0.527849  0.323798  0.900908  1
  Lu  Lu13  1  0.192849  0.502384  0.750740  1
  Lu  Lu14  1  0.691273  0.997775  0.750271  1
  Lu  Lu15  1  0.807304  0.498324  0.249427  1
  Lu  Lu16  1  0.307545  0.003321  0.248789  1
  Th  Th17  1  0.983531  0.821709  0.403531  1
  Th  Th18  1  0.515576  0.322660  0.595305  1
  Th  Th19  1  0.016895  0.177013  0.905169  1
  Sn  Sn20  1  0.297058  0.035472  0.043133  1
  Sn  Sn21  1  0.799051  0.462431  0.457371  1
  Sn  Sn22  1  0.702228  0.964322  0.542620  1
  Sn  Sn23  1  0.209851  0.532324  0.956745  1
  Sn  Sn24  1  0.698389  0.958428  0.958682  1
  Sn  Sn25  1  0.197257  0.544412  0.540747  1
  Sn  Sn26  1  0.301680  0.042314  0.459427  1
  Sn  Sn27  1  0.795840  0.459518  0.040626  1
  Sn  Sn28  1  0.557380  0.624119  0.749593  1
  Sn  Sn29  1  0.057295  0.876499  0.751020  1
  Sn  Sn30  1  0.441808  0.376752  0.249245  1
  Sn  Sn31  1  0.941559  0.124485  0.251049  1
  Sn  Sn32  1  0.329139  0.148421  0.753158  1
  Sn  Sn33  1  0.828095  0.352987  0.748047  1
  Sn  Sn34  1  0.668549  0.850546  0.249715  1
  Sn  Sn35  1  0.174578  0.646444  0.247829  1
