# generated using pymatgen
data_Nd6IrO12
_symmetry_space_group_name_H-M   'P 1'
_cell_length_a   6.73332509
_cell_length_b   6.73332441
_cell_length_c   6.73332429
_cell_angle_alpha   98.53139067
_cell_angle_beta   98.53139618
_cell_angle_gamma   98.53140186
_symmetry_Int_Tables_number   1
_chemical_formula_structural   Nd6IrO12
_chemical_formula_sum   'Nd6 Ir1 O12'
_cell_volume   293.99024258
_cell_formula_units_Z   1
loop_
 _symmetry_equiv_pos_site_id
 _symmetry_equiv_pos_as_xyz
  1  'x, y, z'
loop_
 _atom_site_type_symbol
 _atom_site_label
 _atom_site_symmetry_multiplicity
 _atom_site_fract_x
 _atom_site_fract_y
 _atom_site_fract_z
 _atom_site_occupancy
  Nd  Nd0  1  0.144597  0.309415  0.610924  1
  Nd  Nd1  1  0.389076  0.855403  0.690585  1
  Nd  Nd2  1  0.690585  0.389076  0.855403  1
  Nd  Nd3  1  0.309415  0.610924  0.144597  1
  Nd  Nd4  1  0.610924  0.144597  0.309415  1
  Nd  Nd5  1  0.855403  0.690585  0.389076  1
  Ir  Ir6  1  0.000000  0.000000  0.000000  1
  O  O7  1  0.067274  0.289250  0.966827  1
  O  O8  1  0.033173  0.932726  0.710750  1
  O  O9  1  0.407391  0.559710  0.822470  1
  O  O10  1  0.177530  0.592609  0.440290  1
  O  O11  1  0.710750  0.033173  0.932726  1
  O  O12  1  0.440290  0.177530  0.592609  1
  O  O13  1  0.559710  0.822470  0.407391  1
  O  O14  1  0.289250  0.966827  0.067274  1
  O  O15  1  0.822470  0.407391  0.559710  1
  O  O16  1  0.592609  0.440290  0.177530  1
  O  O17  1  0.966827  0.067274  0.289250  1
  O  O18  1  0.932726  0.710750  0.033173  1
