# generated using pymatgen
data_Pr3SiPd5
_symmetry_space_group_name_H-M   'P 1'
_cell_length_a   8.46226893
_cell_length_b   8.46226881
_cell_length_c   8.46226780
_cell_angle_alpha   127.23791903
_cell_angle_beta   126.22302918
_cell_angle_gamma   78.69357368
_symmetry_Int_Tables_number   1
_chemical_formula_structural   Pr3SiPd5
_chemical_formula_sum   'Pr6 Si2 Pd10'
_cell_volume   376.68576784
_cell_formula_units_Z   2
loop_
 _symmetry_equiv_pos_site_id
 _symmetry_equiv_pos_as_xyz
  1  'x, y, z'
loop_
 _atom_site_type_symbol
 _atom_site_label
 _atom_site_symmetry_multiplicity
 _atom_site_fract_x
 _atom_site_fract_y
 _atom_site_fract_z
 _atom_site_occupancy
  Pr  Pr0  1  0.223624  0.450017  0.773607  1
  Pr  Pr1  1  0.776376  0.549983  0.226393  1
  Pr  Pr2  1  0.823589  0.049983  0.773607  1
  Pr  Pr3  1  0.176411  0.950017  0.226393  1
  Pr  Pr4  1  0.388884  0.250000  0.138884  1
  Pr  Pr5  1  0.611116  0.750000  0.861116  1
  Si  Si6  1  0.787620  0.250000  0.537620  1
  Si  Si7  1  0.212380  0.750000  0.462380  1
  Pd  Pd8  1  0.169760  0.408511  0.362940  1
  Pd  Pd9  1  0.830240  0.193180  0.238751  1
  Pd  Pd10  1  0.454429  0.091489  0.761249  1
  Pd  Pd11  1  0.545571  0.306820  0.637060  1
  Pd  Pd12  1  0.000000  0.500000  0.000000  1
  Pd  Pd13  1  0.000000  0.000000  0.500000  1
  Pd  Pd14  1  0.454429  0.693180  0.362940  1
  Pd  Pd15  1  0.545571  0.908511  0.238751  1
  Pd  Pd16  1  0.169760  0.806820  0.761249  1
  Pd  Pd17  1  0.830240  0.591489  0.637060  1
