# generated using pymatgen
data_LiPr4Fe2CoO12
_symmetry_space_group_name_H-M   'P 1'
_cell_length_a   5.46895870
_cell_length_b   5.60476137
_cell_length_c   7.79023303
_cell_angle_alpha   90.09086095
_cell_angle_beta   90.27069754
_cell_angle_gamma   90.51470345
_symmetry_Int_Tables_number   1
_chemical_formula_structural   LiPr4Fe2CoO12
_chemical_formula_sum   'Li1 Pr4 Fe2 Co1 O12'
_cell_volume   238.77523029
_cell_formula_units_Z   1
loop_
 _symmetry_equiv_pos_site_id
 _symmetry_equiv_pos_as_xyz
  1  'x, y, z'
loop_
 _atom_site_type_symbol
 _atom_site_label
 _atom_site_symmetry_multiplicity
 _atom_site_fract_x
 _atom_site_fract_y
 _atom_site_fract_z
 _atom_site_occupancy
  Li  Li0  1  0.000000  0.500000  0.500000  1
  Pr  Pr1  1  0.015174  0.945705  0.737442  1
  Pr  Pr2  1  0.508458  0.549531  0.261475  1
  Pr  Pr3  1  0.491542  0.450469  0.738525  1
  Pr  Pr4  1  0.984826  0.054295  0.262558  1
  Fe  Fe5  1  0.500000  0.000000  0.000000  1
  Fe  Fe6  1  0.000000  0.500000  0.000000  1
  Co  Co7  1  0.500000  0.000000  0.500000  1
  O  O8  1  0.696804  0.275350  0.461299  1
  O  O9  1  0.227596  0.197324  0.537264  1
  O  O10  1  0.783902  0.794588  0.048386  1
  O  O11  1  0.290043  0.709913  0.954970  1
  O  O12  1  0.303196  0.724650  0.538701  1
  O  O13  1  0.772404  0.802676  0.462736  1
  O  O14  1  0.216098  0.205412  0.951614  1
  O  O15  1  0.709957  0.290087  0.045030  1
  O  O16  1  0.075334  0.483198  0.237586  1
  O  O17  1  0.583987  0.018021  0.745134  1
  O  O18  1  0.416013  0.981979  0.254866  1
  O  O19  1  0.924666  0.516802  0.762414  1
