# generated using pymatgen
data_ErTm9Ru4
_symmetry_space_group_name_H-M   'P 1'
_cell_length_a   6.24370320
_cell_length_b   7.23913721
_cell_length_c   8.35342229
_cell_angle_alpha   96.80858570
_cell_angle_beta   111.99968126
_cell_angle_gamma   90.00578223
_symmetry_Int_Tables_number   1
_chemical_formula_structural   ErTm9Ru4
_chemical_formula_sum   'Er1 Tm9 Ru4'
_cell_volume   347.19907456
_cell_formula_units_Z   1
loop_
 _symmetry_equiv_pos_site_id
 _symmetry_equiv_pos_as_xyz
  1  'x, y, z'
loop_
 _atom_site_type_symbol
 _atom_site_label
 _atom_site_symmetry_multiplicity
 _atom_site_fract_x
 _atom_site_fract_y
 _atom_site_fract_z
 _atom_site_occupancy
  Er  Er0  1  0.790944  0.083981  0.813405  1
  Tm  Tm1  1  0.977647  0.415820  0.186416  1
  Tm  Tm2  1  0.208881  0.915756  0.186541  1
  Tm  Tm3  1  0.022614  0.584228  0.813739  1
  Tm  Tm4  1  0.205584  0.184333  0.565072  1
  Tm  Tm5  1  0.640626  0.315687  0.434872  1
  Tm  Tm6  1  0.794194  0.815594  0.434690  1
  Tm  Tm7  1  0.359305  0.684368  0.565010  1
  Tm  Tm8  1  0.418654  0.249926  0.000021  1
  Tm  Tm9  1  0.581328  0.750106  0.000185  1
  Ru  Ru10  1  0.602519  0.423928  0.779774  1
  Ru  Ru11  1  0.822968  0.076745  0.220111  1
  Ru  Ru12  1  0.397275  0.576358  0.220169  1
  Ru  Ru13  1  0.177463  0.923172  0.779994  1
