# generated using pymatgen
data_TbFe3CoP12
_symmetry_space_group_name_H-M   'P 1'
_cell_length_a   6.74231378
_cell_length_b   6.74231460
_cell_length_c   6.74231339
_cell_angle_alpha   109.42289149
_cell_angle_beta   109.42289572
_cell_angle_gamma   109.42289295
_symmetry_Int_Tables_number   1
_chemical_formula_structural   TbFe3CoP12
_chemical_formula_sum   'Tb1 Fe3 Co1 P12'
_cell_volume   236.36309135
_cell_formula_units_Z   1
loop_
 _symmetry_equiv_pos_site_id
 _symmetry_equiv_pos_as_xyz
  1  'x, y, z'
loop_
 _atom_site_type_symbol
 _atom_site_label
 _atom_site_symmetry_multiplicity
 _atom_site_fract_x
 _atom_site_fract_y
 _atom_site_fract_z
 _atom_site_occupancy
  Tb  Tb0  1  0.000000  0.000000  0.000000  1
  Fe  Fe1  1  0.500000  0.000000  0.000000  1
  Fe  Fe2  1  0.000000  0.500000  0.000000  1
  Fe  Fe3  1  0.000000  0.000000  0.500000  1
  Co  Co4  1  0.500000  0.500000  0.500000  1
  P  P5  1  0.150566  0.800461  0.650097  1
  P  P6  1  0.147390  0.500382  0.348578  1
  P  P7  1  0.852610  0.499618  0.651422  1
  P  P8  1  0.348578  0.147390  0.500382  1
  P  P9  1  0.800461  0.650097  0.150566  1
  P  P10  1  0.849434  0.199539  0.349903  1
  P  P11  1  0.650097  0.150566  0.800461  1
  P  P12  1  0.499618  0.651422  0.852610  1
  P  P13  1  0.651422  0.852610  0.499618  1
  P  P14  1  0.500382  0.348578  0.147390  1
  P  P15  1  0.349903  0.849434  0.199539  1
  P  P16  1  0.199539  0.349903  0.849434  1
