# generated using pymatgen
data_NdSm5RhI10
_symmetry_space_group_name_H-M   'P 1'
_cell_length_a   7.90583224
_cell_length_b   9.85007513
_cell_length_c   9.99701115
_cell_angle_alpha   107.39155562
_cell_angle_beta   97.10350399
_cell_angle_gamma   104.56438154
_symmetry_Int_Tables_number   1
_chemical_formula_structural   NdSm5RhI10
_chemical_formula_sum   'Nd1 Sm5 Rh1 I10'
_cell_volume   702.17750347
_cell_formula_units_Z   1
loop_
 _symmetry_equiv_pos_site_id
 _symmetry_equiv_pos_as_xyz
  1  'x, y, z'
loop_
 _atom_site_type_symbol
 _atom_site_label
 _atom_site_symmetry_multiplicity
 _atom_site_fract_x
 _atom_site_fract_y
 _atom_site_fract_z
 _atom_site_occupancy
  Nd  Nd0  1  0.532941  0.218439  0.415812  1
  Sm  Sm1  1  0.468022  0.780134  0.583950  1
  Sm  Sm2  1  0.146770  0.372774  0.330239  1
  Sm  Sm3  1  0.853009  0.627954  0.669867  1
  Sm  Sm4  1  0.616786  0.544122  0.258275  1
  Sm  Sm5  1  0.383135  0.456551  0.741968  1
  Rh  Rh6  1  0.499933  0.500807  0.500246  1
  I  I7  1  0.146932  0.046396  0.226917  1
  I  I8  1  0.850659  0.953012  0.772079  1
  I  I9  1  0.242148  0.412897  0.040022  1
  I  I10  1  0.757883  0.587113  0.959949  1
  I  I11  1  0.717761  0.242722  0.151906  1
  I  I12  1  0.283272  0.757729  0.846846  1
  I  I13  1  0.045862  0.684681  0.410683  1
  I  I14  1  0.955421  0.315815  0.590007  1
  I  I15  1  0.413522  0.127382  0.678706  1
  I  I16  1  0.585944  0.871472  0.322528  1
