# generated using pymatgen
data_HoTm2Mn7CoTcP6
_symmetry_space_group_name_H-M   'P 1'
_cell_length_a   3.61297500
_cell_length_b   10.83766400
_cell_length_c   12.59411100
_cell_angle_alpha   90.00000000
_cell_angle_beta   90.00000000
_cell_angle_gamma   90.00000000
_symmetry_Int_Tables_number   1
_chemical_formula_structural   HoTm2Mn7CoTcP6
_chemical_formula_sum   'Ho2 Tm4 Mn14 Co2 Tc2 P12'
_cell_volume   493.13764362
_cell_formula_units_Z   2
loop_
 _symmetry_equiv_pos_site_id
 _symmetry_equiv_pos_as_xyz
  1  'x, y, z'
loop_
 _atom_site_type_symbol
 _atom_site_label
 _atom_site_symmetry_multiplicity
 _atom_site_fract_x
 _atom_site_fract_y
 _atom_site_fract_z
 _atom_site_occupancy
  Ho  Ho0  1  0.000000  0.500000  0.531627  1
  Ho  Ho1  1  0.500000  0.000000  0.468373  1
  Tm  Tm2  1  0.500000  0.821374  0.205478  1
  Tm  Tm3  1  0.500000  0.178626  0.205478  1
  Tm  Tm4  1  0.000000  0.678626  0.794522  1
  Tm  Tm5  1  0.000000  0.321374  0.794522  1
  Mn  Mn6  1  0.000000  0.500000  0.990449  1
  Mn  Mn7  1  0.500000  0.000000  0.009551  1
  Mn  Mn8  1  0.500000  0.332141  0.994991  1
  Mn  Mn9  1  0.500000  0.667859  0.994991  1
  Mn  Mn10  1  0.000000  0.167859  0.005009  1
  Mn  Mn11  1  0.000000  0.832141  0.005009  1
  Mn  Mn12  1  0.500000  0.297847  0.432714  1
  Mn  Mn13  1  0.500000  0.702153  0.432714  1
  Mn  Mn14  1  0.000000  0.202153  0.567286  1
  Mn  Mn15  1  0.000000  0.797847  0.567286  1
  Mn  Mn16  1  0.500000  0.879373  0.700567  1
  Mn  Mn17  1  0.500000  0.120627  0.700567  1
  Mn  Mn18  1  0.000000  0.620627  0.299433  1
  Mn  Mn19  1  0.000000  0.379373  0.299433  1
  Co  Co20  1  0.500000  0.500000  0.704696  1
  Co  Co21  1  0.000000  0.000000  0.295304  1
  Tc  Tc22  1  0.500000  0.500000  0.162061  1
  Tc  Tc23  1  0.000000  0.000000  0.837939  1
  P  P24  1  0.500000  0.500000  0.877923  1
  P  P25  1  0.000000  0.000000  0.122077  1
  P  P26  1  0.500000  0.500000  0.357461  1
  P  P27  1  0.000000  0.000000  0.642539  1
  P  P28  1  0.500000  0.319032  0.618852  1
  P  P29  1  0.500000  0.680968  0.618852  1
  P  P30  1  0.000000  0.180968  0.381148  1
  P  P31  1  0.000000  0.819032  0.381148  1
  P  P32  1  0.500000  0.845216  0.884968  1
  P  P33  1  0.500000  0.154784  0.884968  1
  P  P34  1  0.000000  0.654784  0.115032  1
  P  P35  1  0.000000  0.345216  0.115032  1
