# generated using pymatgen
data_Dy3Bi5O14
_symmetry_space_group_name_H-M   'P 1'
_cell_length_a   6.63377639
_cell_length_b   6.74818417
_cell_length_c   7.80714259
_cell_angle_alpha   106.62362579
_cell_angle_beta   89.48581635
_cell_angle_gamma   98.95603298
_symmetry_Int_Tables_number   1
_chemical_formula_structural   Dy3Bi5O14
_chemical_formula_sum   'Dy3 Bi5 O14'
_cell_volume   330.57042103
_cell_formula_units_Z   1
loop_
 _symmetry_equiv_pos_site_id
 _symmetry_equiv_pos_as_xyz
  1  'x, y, z'
loop_
 _atom_site_type_symbol
 _atom_site_label
 _atom_site_symmetry_multiplicity
 _atom_site_fract_x
 _atom_site_fract_y
 _atom_site_fract_z
 _atom_site_occupancy
  Dy  Dy0  1  0.461670  0.000908  0.252388  1
  Dy  Dy1  1  0.539411  0.996740  0.751923  1
  Dy  Dy2  1  0.263052  0.536135  0.884763  1
  Bi  Bi3  1  0.002635  0.006749  0.501948  1
  Bi  Bi4  1  0.003548  0.001266  0.999311  1
  Bi  Bi5  1  0.735841  0.478722  0.116042  1
  Bi  Bi6  1  0.721607  0.465784  0.613509  1
  Bi  Bi7  1  0.267099  0.525564  0.392578  1
  O  O8  1  0.450560  0.650710  0.164754  1
  O  O9  1  0.540191  0.346092  0.824279  1
  O  O10  1  0.303184  0.918587  0.950671  1
  O  O11  1  0.698004  0.054498  0.049131  1
  O  O12  1  0.299507  0.921752  0.513797  1
  O  O13  1  0.701314  0.083267  0.490052  1
  O  O14  1  0.531171  0.354314  0.350678  1
  O  O15  1  0.455263  0.643455  0.658243  1
  O  O16  1  0.935844  0.668931  0.958785  1
  O  O17  1  0.087275  0.323459  0.030633  1
  O  O18  1  0.096890  0.335165  0.622680  1
  O  O19  1  0.903329  0.681201  0.373462  1
  O  O20  1  0.876410  0.926927  0.731615  1
  O  O21  1  0.126197  0.079774  0.268760  1
