# generated using pymatgen
data_Y3HoTcB12Ru
_symmetry_space_group_name_H-M   'P 1'
_cell_length_a   3.67544400
_cell_length_b   9.16005889
_cell_length_c   11.55300324
_cell_angle_alpha   89.87814192
_cell_angle_beta   90.00000000
_cell_angle_gamma   90.00000000
_symmetry_Int_Tables_number   1
_chemical_formula_structural   Y3HoTcB12Ru
_chemical_formula_sum   'Y6 Ho2 Tc2 B24 Ru2'
_cell_volume   388.95735545
_cell_formula_units_Z   2
loop_
 _symmetry_equiv_pos_site_id
 _symmetry_equiv_pos_as_xyz
  1  'x, y, z'
loop_
 _atom_site_type_symbol
 _atom_site_label
 _atom_site_symmetry_multiplicity
 _atom_site_fract_x
 _atom_site_fract_y
 _atom_site_fract_z
 _atom_site_occupancy
  Y  Y0  1  0.000000  0.325207  0.415465  1
  Y  Y1  1  0.000000  0.674793  0.584535  1
  Y  Y2  1  0.000000  0.821115  0.087287  1
  Y  Y3  1  0.000000  0.178885  0.912713  1
  Y  Y4  1  0.000000  0.942109  0.370580  1
  Y  Y5  1  0.000000  0.057891  0.629420  1
  Ho  Ho6  1  0.000000  0.443056  0.130063  1
  Ho  Ho7  1  0.000000  0.556944  0.869937  1
  Tc  Tc8  1  0.000000  0.638131  0.319965  1
  Tc  Tc9  1  0.000000  0.361869  0.680035  1
  B  B10  1  0.500000  0.553167  0.432711  1
  B  B11  1  0.500000  0.446833  0.567289  1
  B  B12  1  0.500000  0.054016  0.067201  1
  B  B13  1  0.500000  0.945984  0.932799  1
  B  B14  1  0.500000  0.747991  0.418668  1
  B  B15  1  0.500000  0.252009  0.581332  1
  B  B16  1  0.500000  0.248698  0.081407  1
  B  B17  1  0.500000  0.751302  0.918593  1
  B  B18  1  0.500000  0.791032  0.265248  1
  B  B19  1  0.500000  0.208968  0.734752  1
  B  B20  1  0.500000  0.290731  0.233898  1
  B  B21  1  0.500000  0.709269  0.766102  1
  B  B22  1  0.500000  0.630900  0.185227  1
  B  B23  1  0.500000  0.369100  0.814773  1
  B  B24  1  0.500000  0.131255  0.313639  1
  B  B25  1  0.500000  0.868745  0.686361  1
  B  B26  1  0.500000  0.983586  0.211651  1
  B  B27  1  0.500000  0.016414  0.788349  1
  B  B28  1  0.500000  0.482800  0.287395  1
  B  B29  1  0.500000  0.517200  0.712605  1
  B  B30  1  0.500000  0.603199  0.028430  1
  B  B31  1  0.500000  0.396801  0.971570  1
  B  B32  1  0.500000  0.104353  0.470927  1
  B  B33  1  0.500000  0.895647  0.529073  1
  Ru  Ru34  1  0.000000  0.138212  0.178308  1
  Ru  Ru35  1  0.000000  0.861788  0.821692  1
