# generated using pymatgen
data_Nb6CoCuS12
_symmetry_space_group_name_H-M   'P 1'
_cell_length_a   5.80693400
_cell_length_b   5.80693369
_cell_length_c   11.97777000
_cell_angle_alpha   90.00000000
_cell_angle_beta   90.00000000
_cell_angle_gamma   120.00000179
_symmetry_Int_Tables_number   1
_chemical_formula_structural   Nb6CoCuS12
_chemical_formula_sum   'Nb6 Co1 Cu1 S12'
_cell_volume   349.78433016
_cell_formula_units_Z   1
loop_
 _symmetry_equiv_pos_site_id
 _symmetry_equiv_pos_as_xyz
  1  'x, y, z'
loop_
 _atom_site_type_symbol
 _atom_site_label
 _atom_site_symmetry_multiplicity
 _atom_site_fract_x
 _atom_site_fract_y
 _atom_site_fract_z
 _atom_site_occupancy
  Nb  Nb0  1  0.333333  0.666667  0.004192  1
  Nb  Nb1  1  0.666667  0.333333  0.490334  1
  Nb  Nb2  1  0.333333  0.666667  0.495808  1
  Nb  Nb3  1  0.000000  0.000000  0.009726  1
  Nb  Nb4  1  0.666667  0.333333  0.009666  1
  Nb  Nb5  1  0.000000  0.000000  0.490274  1
  Co  Co6  1  0.333333  0.666667  0.250000  1
  Cu  Cu7  1  0.666667  0.333333  0.750000  1
  S  S8  1  0.004115  0.666046  0.138014  1
  S  S9  1  0.670199  0.671371  0.624219  1
  S  S10  1  0.004115  0.338069  0.361986  1
  S  S11  1  0.333954  0.338069  0.138014  1
  S  S12  1  0.328629  0.998828  0.624219  1
  S  S13  1  0.328629  0.329801  0.875781  1
  S  S14  1  0.661931  0.666046  0.361986  1
  S  S15  1  0.001172  0.671371  0.875781  1
  S  S16  1  0.670199  0.998828  0.875781  1
  S  S17  1  0.333954  0.995885  0.361986  1
  S  S18  1  0.661931  0.995885  0.138014  1
  S  S19  1  0.001172  0.329801  0.624219  1
