# generated using pymatgen
data_Sm5Ta3(P3Ir4)4
_symmetry_space_group_name_H-M   'P 1'
_cell_length_a   12.79517800
_cell_length_b   12.79517733
_cell_length_c   4.02529300
_cell_angle_alpha   90.00000000
_cell_angle_beta   90.00000000
_cell_angle_gamma   119.99999656
_symmetry_Int_Tables_number   1
_chemical_formula_structural   Sm5Ta3(P3Ir4)4
_chemical_formula_sum   'Sm5 Ta3 P12 Ir16'
_cell_volume   570.71696966
_cell_formula_units_Z   1
loop_
 _symmetry_equiv_pos_site_id
 _symmetry_equiv_pos_as_xyz
  1  'x, y, z'
loop_
 _atom_site_type_symbol
 _atom_site_label
 _atom_site_symmetry_multiplicity
 _atom_site_fract_x
 _atom_site_fract_y
 _atom_site_fract_z
 _atom_site_occupancy
  Sm  Sm0  1  0.333333  0.666667  0.500000  1
  Sm  Sm1  1  0.666667  0.333333  0.500000  1
  Sm  Sm2  1  0.000000  0.813451  0.000000  1
  Sm  Sm3  1  0.186549  0.186549  0.000000  1
  Sm  Sm4  1  0.813451  0.000000  0.000000  1
  Ta  Ta5  1  0.000000  0.452050  0.500000  1
  Ta  Ta6  1  0.547950  0.547950  0.500000  1
  Ta  Ta7  1  0.452050  0.000000  0.500000  1
  P  P8  1  0.000000  0.641492  0.500000  1
  P  P9  1  0.358508  0.358508  0.500000  1
  P  P10  1  0.641492  0.000000  0.500000  1
  P  P11  1  0.517546  0.684671  0.000000  1
  P  P12  1  0.315329  0.832873  0.000000  1
  P  P13  1  0.167127  0.482454  0.000000  1
  P  P14  1  0.482454  0.167127  0.000000  1
  P  P15  1  0.684671  0.517546  0.000000  1
  P  P16  1  0.832873  0.315329  0.000000  1
  P  P17  1  0.000000  0.177332  0.500000  1
  P  P18  1  0.822668  0.822668  0.500000  1
  P  P19  1  0.177332  0.000000  0.500000  1
  Ir  Ir20  1  0.508449  0.865485  0.000000  1
  Ir  Ir21  1  0.134515  0.642966  0.000000  1
  Ir  Ir22  1  0.357034  0.491551  0.000000  1
  Ir  Ir23  1  0.491551  0.357034  0.000000  1
  Ir  Ir24  1  0.865485  0.508449  0.000000  1
  Ir  Ir25  1  0.642966  0.134515  0.000000  1
  Ir  Ir26  1  0.000000  0.284929  0.000000  1
  Ir  Ir27  1  0.715071  0.715071  0.000000  1
  Ir  Ir28  1  0.284929  0.000000  0.000000  1
  Ir  Ir29  1  0.625921  0.803210  0.500000  1
  Ir  Ir30  1  0.196790  0.822711  0.500000  1
  Ir  Ir31  1  0.177289  0.374079  0.500000  1
  Ir  Ir32  1  0.374079  0.177289  0.500000  1
  Ir  Ir33  1  0.803210  0.625921  0.500000  1
  Ir  Ir34  1  0.822711  0.196790  0.500000  1
  Ir  Ir35  1  0.000000  0.000000  0.500000  1
