# generated using pymatgen
data_Eu2Al3SiPt2
_symmetry_space_group_name_H-M   'P 1'
_cell_length_a   9.29066710
_cell_length_b   9.29066744
_cell_length_c   4.20057300
_cell_angle_alpha   90.00000000
_cell_angle_beta   90.00000000
_cell_angle_gamma   152.36869889
_symmetry_Int_Tables_number   1
_chemical_formula_structural   Eu2Al3SiPt2
_chemical_formula_sum   'Eu2 Al3 Si1 Pt2'
_cell_volume   168.15681194
_cell_formula_units_Z   1
loop_
 _symmetry_equiv_pos_site_id
 _symmetry_equiv_pos_as_xyz
  1  'x, y, z'
loop_
 _atom_site_type_symbol
 _atom_site_label
 _atom_site_symmetry_multiplicity
 _atom_site_fract_x
 _atom_site_fract_y
 _atom_site_fract_z
 _atom_site_occupancy
  Eu  Eu0  1  0.601399  0.398601  0.250000  1
  Eu  Eu1  1  0.397129  0.602871  0.750000  1
  Al  Al2  1  0.253441  0.746559  0.250000  1
  Al  Al3  1  0.745853  0.254147  0.750000  1
  Al  Al4  1  0.963842  0.036158  0.250000  1
  Si  Si5  1  0.039309  0.960691  0.750000  1
  Pt  Pt6  1  0.825294  0.174706  0.250000  1
  Pt  Pt7  1  0.173732  0.826268  0.750000  1
