# generated using pymatgen
data_Sr4TbYb(RuO6)2
_symmetry_space_group_name_H-M   'P 1'
_cell_length_a   5.79320884
_cell_length_b   5.88682070
_cell_length_c   8.24295357
_cell_angle_alpha   90.12824770
_cell_angle_beta   90.37712676
_cell_angle_gamma   90.00828752
_symmetry_Int_Tables_number   1
_chemical_formula_structural   Sr4TbYb(RuO6)2
_chemical_formula_sum   'Sr4 Tb1 Yb1 Ru2 O12'
_cell_volume   281.10744347
_cell_formula_units_Z   1
loop_
 _symmetry_equiv_pos_site_id
 _symmetry_equiv_pos_as_xyz
  1  'x, y, z'
loop_
 _atom_site_type_symbol
 _atom_site_label
 _atom_site_symmetry_multiplicity
 _atom_site_fract_x
 _atom_site_fract_y
 _atom_site_fract_z
 _atom_site_occupancy
  Sr  Sr0  1  0.009702  0.044710  0.254248  1
  Sr  Sr1  1  0.490430  0.540657  0.254975  1
  Sr  Sr2  1  0.509570  0.459343  0.745025  1
  Sr  Sr3  1  0.990298  0.955290  0.745752  1
  Tb  Tb4  1  0.500000  0.000000  0.999999  1
  Yb  Yb5  1  0.999999  0.500001  0.500000  1
  Ru  Ru6  1  0.000000  0.500001  0.000000  1
  Ru  Ru7  1  0.499999  0.000000  0.500001  1
  O  O8  1  0.272675  0.304877  0.040952  1
  O  O9  1  0.191305  0.773958  0.043119  1
  O  O10  1  0.923440  0.479279  0.229245  1
  O  O11  1  0.578522  0.979018  0.266391  1
  O  O12  1  0.311035  0.269900  0.458299  1
  O  O13  1  0.231235  0.806922  0.460551  1
  O  O14  1  0.768766  0.193077  0.539448  1
  O  O15  1  0.688966  0.730100  0.541703  1
  O  O16  1  0.421476  0.020982  0.733609  1
  O  O17  1  0.076561  0.520721  0.770755  1
  O  O18  1  0.808696  0.226042  0.956881  1
  O  O19  1  0.727324  0.695122  0.959048  1
