# generated using pymatgen
data_Er2PaFe(Co4P3)2
_symmetry_space_group_name_H-M   'P 1'
_cell_length_a   3.70667700
_cell_length_b   10.51177400
_cell_length_c   12.10572000
_cell_angle_alpha   90.00000000
_cell_angle_beta   90.00000000
_cell_angle_gamma   90.00000000
_symmetry_Int_Tables_number   1
_chemical_formula_structural   Er2PaFe(Co4P3)2
_chemical_formula_sum   'Er4 Pa2 Fe2 Co16 P12'
_cell_volume   471.68425873
_cell_formula_units_Z   2
loop_
 _symmetry_equiv_pos_site_id
 _symmetry_equiv_pos_as_xyz
  1  'x, y, z'
loop_
 _atom_site_type_symbol
 _atom_site_label
 _atom_site_symmetry_multiplicity
 _atom_site_fract_x
 _atom_site_fract_y
 _atom_site_fract_z
 _atom_site_occupancy
  Er  Er0  1  0.250000  0.934402  0.795742  1
  Er  Er1  1  0.250000  0.565598  0.795742  1
  Er  Er2  1  0.750000  0.065598  0.204258  1
  Er  Er3  1  0.750000  0.434402  0.204258  1
  Pa  Pa4  1  0.750000  0.250000  0.471583  1
  Pa  Pa5  1  0.250000  0.750000  0.528417  1
  Fe  Fe6  1  0.250000  0.250000  0.843724  1
  Fe  Fe7  1  0.750000  0.750000  0.156276  1
  Co  Co8  1  0.250000  0.250000  0.303582  1
  Co  Co9  1  0.750000  0.750000  0.696418  1
  Co  Co10  1  0.750000  0.250000  0.015042  1
  Co  Co11  1  0.250000  0.750000  0.984958  1
  Co  Co12  1  0.250000  0.416436  0.006292  1
  Co  Co13  1  0.250000  0.083564  0.006292  1
  Co  Co14  1  0.750000  0.583564  0.993708  1
  Co  Co15  1  0.750000  0.916436  0.993708  1
  Co  Co16  1  0.250000  0.449074  0.568013  1
  Co  Co17  1  0.250000  0.050926  0.568013  1
  Co  Co18  1  0.750000  0.550926  0.431987  1
  Co  Co19  1  0.750000  0.949074  0.431987  1
  Co  Co20  1  0.250000  0.870653  0.290033  1
  Co  Co21  1  0.250000  0.629347  0.290033  1
  Co  Co22  1  0.750000  0.129347  0.709967  1
  Co  Co23  1  0.750000  0.370653  0.709967  1
  P  P24  1  0.250000  0.250000  0.121240  1
  P  P25  1  0.750000  0.750000  0.878760  1
  P  P26  1  0.250000  0.250000  0.657819  1
  P  P27  1  0.750000  0.750000  0.342181  1
  P  P28  1  0.250000  0.442969  0.382300  1
  P  P29  1  0.250000  0.057031  0.382300  1
  P  P30  1  0.750000  0.557031  0.617700  1
  P  P31  1  0.750000  0.942969  0.617700  1
  P  P32  1  0.250000  0.903035  0.106311  1
  P  P33  1  0.250000  0.596965  0.106311  1
  P  P34  1  0.750000  0.096965  0.893689  1
  P  P35  1  0.750000  0.403035  0.893689  1
