# generated using pymatgen
data_La14Pr2Cd4CoPt3
_symmetry_space_group_name_H-M   'P 1'
_cell_length_a   10.12445761
_cell_length_b   10.12445809
_cell_length_c   10.12362319
_cell_angle_alpha   60.09964492
_cell_angle_beta   60.09964721
_cell_angle_gamma   60.07306274
_symmetry_Int_Tables_number   1
_chemical_formula_structural   La14Pr2Cd4CoPt3
_chemical_formula_sum   'La14 Pr2 Cd4 Co1 Pt3'
_cell_volume   735.28711029
_cell_formula_units_Z   1
loop_
 _symmetry_equiv_pos_site_id
 _symmetry_equiv_pos_as_xyz
  1  'x, y, z'
loop_
 _atom_site_type_symbol
 _atom_site_label
 _atom_site_symmetry_multiplicity
 _atom_site_fract_x
 _atom_site_fract_y
 _atom_site_fract_z
 _atom_site_occupancy
  La  La0  1  0.350447  0.350447  0.349966  1
  La  La1  1  0.344828  0.344828  0.954113  1
  La  La2  1  0.344286  0.954204  0.344748  1
  La  La3  1  0.954204  0.344286  0.344748  1
  La  La4  1  0.819968  0.189805  0.189716  1
  La  La5  1  0.192177  0.807694  0.807728  1
  La  La6  1  0.189805  0.819968  0.189716  1
  La  La7  1  0.807694  0.192177  0.807728  1
  La  La8  1  0.189689  0.189689  0.820138  1
  La  La9  1  0.807841  0.807841  0.192100  1
  La  La10  1  0.938574  0.562385  0.562395  1
  La  La11  1  0.562781  0.935299  0.935465  1
  La  La12  1  0.562385  0.938574  0.562395  1
  La  La13  1  0.935299  0.562781  0.935465  1
  Pr  Pr14  1  0.561662  0.561662  0.939214  1
  Pr  Pr15  1  0.936071  0.936071  0.562241  1
  Cd  Cd16  1  0.579515  0.579515  0.579812  1
  Cd  Cd17  1  0.580402  0.580402  0.259732  1
  Cd  Cd18  1  0.580744  0.259766  0.580389  1
  Cd  Cd19  1  0.259766  0.580744  0.580389  1
  Co  Co20  1  0.142072  0.142072  0.141981  1
  Pt  Pt21  1  0.143380  0.143380  0.572973  1
  Pt  Pt22  1  0.143431  0.572976  0.143423  1
  Pt  Pt23  1  0.572976  0.143431  0.143423  1
