# generated using pymatgen
data_Tb6FeCo16ReP12
_symmetry_space_group_name_H-M   'P 1'
_cell_length_a   3.71791100
_cell_length_b   10.53784700
_cell_length_c   12.23704400
_cell_angle_alpha   90.00000000
_cell_angle_beta   90.00000000
_cell_angle_gamma   90.00000000
_symmetry_Int_Tables_number   1
_chemical_formula_structural   Tb6FeCo16ReP12
_chemical_formula_sum   'Tb6 Fe1 Co16 Re1 P12'
_cell_volume   479.43242141
_cell_formula_units_Z   1
loop_
 _symmetry_equiv_pos_site_id
 _symmetry_equiv_pos_as_xyz
  1  'x, y, z'
loop_
 _atom_site_type_symbol
 _atom_site_label
 _atom_site_symmetry_multiplicity
 _atom_site_fract_x
 _atom_site_fract_y
 _atom_site_fract_z
 _atom_site_occupancy
  Tb  Tb0  1  0.000000  0.500000  0.523904  1
  Tb  Tb1  1  0.500000  0.000000  0.478819  1
  Tb  Tb2  1  0.500000  0.818160  0.206081  1
  Tb  Tb3  1  0.500000  0.181840  0.206081  1
  Tb  Tb4  1  0.000000  0.682483  0.795096  1
  Tb  Tb5  1  0.000000  0.317517  0.795096  1
  Fe  Fe6  1  0.000000  0.000000  0.843094  1
  Co  Co7  1  0.500000  0.500000  0.702151  1
  Co  Co8  1  0.000000  0.000000  0.296851  1
  Co  Co9  1  0.000000  0.500000  0.987819  1
  Co  Co10  1  0.500000  0.000000  0.013602  1
  Co  Co11  1  0.500000  0.332798  0.991222  1
  Co  Co12  1  0.500000  0.667202  0.991222  1
  Co  Co13  1  0.000000  0.167387  0.005864  1
  Co  Co14  1  0.000000  0.832613  0.005864  1
  Co  Co15  1  0.500000  0.296646  0.430236  1
  Co  Co16  1  0.500000  0.703354  0.430236  1
  Co  Co17  1  0.000000  0.203501  0.568949  1
  Co  Co18  1  0.000000  0.796499  0.568949  1
  Co  Co19  1  0.500000  0.878940  0.709254  1
  Co  Co20  1  0.500000  0.121060  0.709254  1
  Co  Co21  1  0.000000  0.620258  0.290887  1
  Co  Co22  1  0.000000  0.379742  0.290887  1
  Re  Re23  1  0.500000  0.500000  0.156236  1
  P  P24  1  0.500000  0.500000  0.880933  1
  P  P25  1  0.000000  0.000000  0.116785  1
  P  P26  1  0.500000  0.500000  0.348515  1
  P  P27  1  0.000000  0.000000  0.658097  1
  P  P28  1  0.500000  0.310011  0.615867  1
  P  P29  1  0.500000  0.689989  0.615867  1
  P  P30  1  0.000000  0.189110  0.384545  1
  P  P31  1  0.000000  0.810890  0.384545  1
  P  P32  1  0.500000  0.848939  0.892260  1
  P  P33  1  0.500000  0.151061  0.892260  1
  P  P34  1  0.000000  0.655306  0.106338  1
  P  P35  1  0.000000  0.344694  0.106338  1
