# generated using pymatgen
data_La6Al24CuOs7
_symmetry_space_group_name_H-M   'P 1'
_cell_length_a   8.96362605
_cell_length_b   8.96362524
_cell_length_c   9.71370307
_cell_angle_alpha   89.85104807
_cell_angle_beta   90.14894941
_cell_angle_gamma   119.66943967
_symmetry_Int_Tables_number   1
_chemical_formula_structural   La6Al24CuOs7
_chemical_formula_sum   'La6 Al24 Cu1 Os7'
_cell_volume   678.13773030
_cell_formula_units_Z   1
loop_
 _symmetry_equiv_pos_site_id
 _symmetry_equiv_pos_as_xyz
  1  'x, y, z'
loop_
 _atom_site_type_symbol
 _atom_site_label
 _atom_site_symmetry_multiplicity
 _atom_site_fract_x
 _atom_site_fract_y
 _atom_site_fract_z
 _atom_site_occupancy
  La  La0  1  0.189042  0.382488  0.249136  1
  La  La1  1  0.810958  0.617512  0.750864  1
  La  La2  1  0.617512  0.810958  0.249136  1
  La  La3  1  0.382488  0.189042  0.750864  1
  La  La4  1  0.192783  0.807217  0.251911  1
  La  La5  1  0.807217  0.192783  0.748089  1
  Al  Al6  1  0.331267  0.668733  0.006245  1
  Al  Al7  1  0.668733  0.331267  0.993755  1
  Al  Al8  1  0.666549  0.333451  0.503868  1
  Al  Al9  1  0.333451  0.666549  0.496132  1
  Al  Al10  1  0.162175  0.325401  0.574300  1
  Al  Al11  1  0.837825  0.674599  0.425700  1
  Al  Al12  1  0.674599  0.837825  0.574300  1
  Al  Al13  1  0.844522  0.676423  0.077780  1
  Al  Al14  1  0.325401  0.162175  0.425700  1
  Al  Al15  1  0.155478  0.323577  0.922220  1
  Al  Al16  1  0.162872  0.837128  0.575423  1
  Al  Al17  1  0.323577  0.155478  0.077780  1
  Al  Al18  1  0.837128  0.162872  0.424577  1
  Al  Al19  1  0.676423  0.844522  0.922220  1
  Al  Al20  1  0.836474  0.163526  0.074353  1
  Al  Al21  1  0.163526  0.836474  0.925647  1
  Al  Al22  1  0.563695  0.127342  0.248744  1
  Al  Al23  1  0.436305  0.872658  0.751256  1
  Al  Al24  1  0.872658  0.436305  0.248744  1
  Al  Al25  1  0.127342  0.563695  0.751256  1
  Al  Al26  1  0.564058  0.435942  0.251697  1
  Al  Al27  1  0.435942  0.564058  0.748303  1
  Al  Al28  1  0.999072  0.000928  0.250434  1
  Al  Al29  1  0.000928  0.999072  0.749566  1
  Cu  Cu30  1  0.500000  0.500000  0.000000  1
  Os  Os31  1  0.500000  0.000000  0.000000  1
  Os  Os32  1  0.000000  0.500000  0.000000  1
  Os  Os33  1  0.500000  0.000000  0.500000  1
  Os  Os34  1  0.000000  0.500000  0.500000  1
  Os  Os35  1  0.500000  0.500000  0.500000  1
  Os  Os36  1  0.000000  0.000000  0.000000  1
  Os  Os37  1  0.000000  0.000000  0.500000  1
