# generated using pymatgen
data_YHo2ZnGa7Ag3
_symmetry_space_group_name_H-M   'P 1'
_cell_length_a   4.32344850
_cell_length_b   8.32429844
_cell_length_c   8.34208450
_cell_angle_alpha   70.45568659
_cell_angle_beta   74.98126180
_cell_angle_gamma   74.94841987
_symmetry_Int_Tables_number   1
_chemical_formula_structural   YHo2ZnGa7Ag3
_chemical_formula_sum   'Y1 Ho2 Zn1 Ga7 Ag3'
_cell_volume   268.28464998
_cell_formula_units_Z   1
loop_
 _symmetry_equiv_pos_site_id
 _symmetry_equiv_pos_as_xyz
  1  'x, y, z'
loop_
 _atom_site_type_symbol
 _atom_site_label
 _atom_site_symmetry_multiplicity
 _atom_site_fract_x
 _atom_site_fract_y
 _atom_site_fract_z
 _atom_site_occupancy
  Y  Y0  1  0.498689  0.500413  0.502209  1
  Ho  Ho1  1  0.201788  0.796799  0.799625  1
  Ho  Ho2  1  0.799451  0.202655  0.198443  1
  Zn  Zn3  1  0.356633  0.364897  0.921837  1
  Ga  Ga4  1  0.643335  0.638692  0.074639  1
  Ga  Ga5  1  0.356324  0.926552  0.360799  1
  Ga  Ga6  1  0.642184  0.075171  0.640463  1
  Ga  Ga7  1  0.161670  0.469701  0.206957  1
  Ga  Ga8  1  0.842303  0.525062  0.790333  1
  Ga  Ga9  1  0.157971  0.211348  0.472708  1
  Ga  Ga10  1  0.841509  0.788080  0.528904  1
  Ag  Ag11  1  0.498767  0.001602  0.000864  1
  Ag  Ag12  1  0.000284  0.804517  0.194914  1
  Ag  Ag13  1  0.999092  0.194510  0.807306  1
