# generated using pymatgen
data_LaTh5(Ir5Rh)3
_symmetry_space_group_name_H-M   'P 1'
_cell_length_a   5.38428900
_cell_length_b   5.38428784
_cell_length_c   17.76000600
_cell_angle_alpha   90.00000000
_cell_angle_beta   90.00000000
_cell_angle_gamma   120.00000101
_symmetry_Int_Tables_number   1
_chemical_formula_structural   LaTh5(Ir5Rh)3
_chemical_formula_sum   'La1 Th5 Ir15 Rh3'
_cell_volume   445.89270431
_cell_formula_units_Z   1
loop_
 _symmetry_equiv_pos_site_id
 _symmetry_equiv_pos_as_xyz
  1  'x, y, z'
loop_
 _atom_site_type_symbol
 _atom_site_label
 _atom_site_symmetry_multiplicity
 _atom_site_fract_x
 _atom_site_fract_y
 _atom_site_fract_z
 _atom_site_occupancy
  La  La0  1  0.333333  0.666667  0.750000  1
  Th  Th1  1  0.333333  0.666667  0.544013  1
  Th  Th2  1  0.666667  0.333333  0.042367  1
  Th  Th3  1  0.666667  0.333333  0.457633  1
  Th  Th4  1  0.333333  0.666667  0.955987  1
  Th  Th5  1  0.666667  0.333333  0.250000  1
  Ir  Ir6  1  0.167372  0.334744  0.126760  1
  Ir  Ir7  1  0.832638  0.665278  0.626450  1
  Ir  Ir8  1  0.665256  0.832628  0.126760  1
  Ir  Ir9  1  0.167372  0.832628  0.126760  1
  Ir  Ir10  1  0.832638  0.167362  0.626450  1
  Ir  Ir11  1  0.334722  0.167362  0.626450  1
  Ir  Ir12  1  0.832638  0.665278  0.873550  1
  Ir  Ir13  1  0.832638  0.167362  0.873550  1
  Ir  Ir14  1  0.334722  0.167362  0.873550  1
  Ir  Ir15  1  0.665256  0.832628  0.373240  1
  Ir  Ir16  1  0.167372  0.832628  0.373240  1
  Ir  Ir17  1  0.167372  0.334744  0.373240  1
  Ir  Ir18  1  0.000000  0.000000  0.250000  1
  Ir  Ir19  1  0.000000  0.000000  0.000062  1
  Ir  Ir20  1  0.000000  0.000000  0.499938  1
  Rh  Rh21  1  0.000000  0.000000  0.750000  1
  Rh  Rh22  1  0.333333  0.666667  0.250000  1
  Rh  Rh23  1  0.666667  0.333333  0.750000  1
