# generated using pymatgen
data_Ho4Tm6In8AgPt2Au
_symmetry_space_group_name_H-M   'P 1'
_cell_length_a   3.62471600
_cell_length_b   8.12878932
_cell_length_c   18.21784100
_cell_angle_alpha   89.94090536
_cell_angle_beta   90.00000000
_cell_angle_gamma   90.00000000
_symmetry_Int_Tables_number   1
_chemical_formula_structural   Ho4Tm6In8AgPt2Au
_chemical_formula_sum   'Ho4 Tm6 In8 Ag1 Pt2 Au1'
_cell_volume   536.78025112
_cell_formula_units_Z   1
loop_
 _symmetry_equiv_pos_site_id
 _symmetry_equiv_pos_as_xyz
  1  'x, y, z'
loop_
 _atom_site_type_symbol
 _atom_site_label
 _atom_site_symmetry_multiplicity
 _atom_site_fract_x
 _atom_site_fract_y
 _atom_site_fract_z
 _atom_site_occupancy
  Ho  Ho0  1  0.000000  0.267752  0.721174  1
  Ho  Ho1  1  0.000000  0.727141  0.279282  1
  Ho  Ho2  1  0.000000  0.999519  0.999852  1
  Ho  Ho3  1  0.000000  0.500749  0.500130  1
  Tm  Tm4  1  0.000000  0.121959  0.421165  1
  Tm  Tm5  1  0.000000  0.879910  0.581032  1
  Tm  Tm6  1  0.000000  0.384767  0.916156  1
  Tm  Tm7  1  0.000000  0.616248  0.083493  1
  Tm  Tm8  1  0.000000  0.256536  0.215178  1
  Tm  Tm9  1  0.000000  0.746826  0.783305  1
  In  In10  1  0.500000  0.416587  0.352179  1
  In  In11  1  0.500000  0.579453  0.647787  1
  In  In12  1  0.500000  0.078163  0.852789  1
  In  In13  1  0.500000  0.923270  0.148030  1
  In  In14  1  0.500000  0.292714  0.064489  1
  In  In15  1  0.500000  0.707244  0.934944  1
  In  In16  1  0.500000  0.208692  0.567311  1
  In  In17  1  0.500000  0.793460  0.432308  1
  Ag  Ag18  1  0.500000  0.030369  0.301875  1
  Pt  Pt19  1  0.500000  0.473938  0.804735  1
  Pt  Pt20  1  0.500000  0.526208  0.195116  1
  Au  Au21  1  0.500000  0.968495  0.697671  1
