# generated using pymatgen
data_Y6Ho10Cd4RuPt3
_symmetry_space_group_name_H-M   'P 1'
_cell_length_a   9.68427052
_cell_length_b   9.68427011
_cell_length_c   9.68427082
_cell_angle_alpha   59.66366061
_cell_angle_beta   59.66366436
_cell_angle_gamma   59.66365924
_symmetry_Int_Tables_number   1
_chemical_formula_structural   Y6Ho10Cd4RuPt3
_chemical_formula_sum   'Y6 Ho10 Cd4 Ru1 Pt3'
_cell_volume   637.31521013
_cell_formula_units_Z   1
loop_
 _symmetry_equiv_pos_site_id
 _symmetry_equiv_pos_as_xyz
  1  'x, y, z'
loop_
 _atom_site_type_symbol
 _atom_site_label
 _atom_site_symmetry_multiplicity
 _atom_site_fract_x
 _atom_site_fract_y
 _atom_site_fract_z
 _atom_site_occupancy
  Y  Y0  1  0.936377  0.564650  0.564650  1
  Y  Y1  1  0.560170  0.937024  0.937024  1
  Y  Y2  1  0.564650  0.936377  0.564650  1
  Y  Y3  1  0.937024  0.560170  0.937024  1
  Y  Y4  1  0.564650  0.564650  0.936377  1
  Y  Y5  1  0.937024  0.937024  0.560170  1
  Ho  Ho6  1  0.351726  0.351726  0.351726  1
  Ho  Ho7  1  0.349537  0.349537  0.948449  1
  Ho  Ho8  1  0.349537  0.948449  0.349537  1
  Ho  Ho9  1  0.948449  0.349537  0.349537  1
  Ho  Ho10  1  0.814905  0.188714  0.188714  1
  Ho  Ho11  1  0.188781  0.809995  0.809995  1
  Ho  Ho12  1  0.188714  0.814905  0.188714  1
  Ho  Ho13  1  0.809995  0.188781  0.809995  1
  Ho  Ho14  1  0.188714  0.188714  0.814905  1
  Ho  Ho15  1  0.809995  0.809995  0.188781  1
  Cd  Cd16  1  0.580292  0.580292  0.580292  1
  Cd  Cd17  1  0.581199  0.581199  0.254821  1
  Cd  Cd18  1  0.581199  0.254821  0.581199  1
  Cd  Cd19  1  0.254821  0.581199  0.581199  1
  Ru  Ru20  1  0.143005  0.143005  0.143005  1
  Pt  Pt21  1  0.143644  0.143644  0.571945  1
  Pt  Pt22  1  0.143644  0.571945  0.143644  1
  Pt  Pt23  1  0.571945  0.143644  0.143644  1
