# generated using pymatgen
data_TbSm3(GaPt3)6
_symmetry_space_group_name_H-M   'P 1'
_cell_length_a   7.80798253
_cell_length_b   7.80928624
_cell_length_c   10.23987193
_cell_angle_alpha   67.73313725
_cell_angle_beta   67.76546730
_cell_angle_gamma   59.96282829
_symmetry_Int_Tables_number   1
_chemical_formula_structural   TbSm3(GaPt3)6
_chemical_formula_sum   'Tb1 Sm3 Ga6 Pt18'
_cell_volume   486.13649662
_cell_formula_units_Z   1
loop_
 _symmetry_equiv_pos_site_id
 _symmetry_equiv_pos_as_xyz
  1  'x, y, z'
loop_
 _atom_site_type_symbol
 _atom_site_label
 _atom_site_symmetry_multiplicity
 _atom_site_fract_x
 _atom_site_fract_y
 _atom_site_fract_z
 _atom_site_occupancy
  Tb  Tb0  1  0.585186  0.754136  0.249455  1
  Sm  Sm1  1  0.246214  0.414826  0.250366  1
  Sm  Sm2  1  0.753796  0.585279  0.749537  1
  Sm  Sm3  1  0.414933  0.246029  0.750523  1
  Ga  Ga4  1  0.180721  0.639435  0.498915  1
  Ga  Ga5  1  0.639457  0.180941  0.999035  1
  Ga  Ga6  1  0.000458  0.499637  0.000148  1
  Ga  Ga7  1  0.819036  0.360717  0.500816  1
  Ga  Ga8  1  0.360399  0.819094  0.001250  1
  Ga  Ga9  1  0.500014  0.000284  0.500006  1
  Pt  Pt10  1  0.132344  0.867819  0.250120  1
  Pt  Pt11  1  0.353203  0.530913  0.922111  1
  Pt  Pt12  1  0.698680  0.858893  0.924267  1
  Pt  Pt13  1  0.706977  0.082770  0.246047  1
  Pt  Pt14  1  0.858660  0.699374  0.420894  1
  Pt  Pt15  1  0.976068  0.809467  0.074076  1
  Pt  Pt16  1  0.302093  0.138735  0.078775  1
  Pt  Pt17  1  0.646386  0.470121  0.078950  1
  Pt  Pt18  1  0.917059  0.292632  0.253868  1
  Pt  Pt19  1  0.082805  0.707987  0.746077  1
  Pt  Pt20  1  0.810204  0.977495  0.572869  1
  Pt  Pt21  1  0.530977  0.354601  0.421220  1
  Pt  Pt22  1  0.140518  0.301043  0.577450  1
  Pt  Pt23  1  0.292189  0.916936  0.753953  1
  Pt  Pt24  1  0.021934  0.189877  0.927529  1
  Pt  Pt25  1  0.868435  0.131410  0.749972  1
  Pt  Pt26  1  0.469563  0.648006  0.575830  1
  Pt  Pt27  1  0.191693  0.021544  0.425943  1
