# generated using pymatgen
data_Re24MoW4
_symmetry_space_group_name_H-M   'P 1'
_cell_length_a   8.35666059
_cell_length_b   8.35666047
_cell_length_c   8.35666016
_cell_angle_alpha   109.46007141
_cell_angle_beta   109.46007019
_cell_angle_gamma   109.46007443
_symmetry_Int_Tables_number   1
_chemical_formula_structural   Re24MoW4
_chemical_formula_sum   'Re24 Mo1 W4'
_cell_volume   449.42321662
_cell_formula_units_Z   1
loop_
 _symmetry_equiv_pos_site_id
 _symmetry_equiv_pos_as_xyz
  1  'x, y, z'
loop_
 _atom_site_type_symbol
 _atom_site_label
 _atom_site_symmetry_multiplicity
 _atom_site_fract_x
 _atom_site_fract_y
 _atom_site_fract_z
 _atom_site_occupancy
  Re  Re0  1  0.315017  0.315017  0.716328  1
  Re  Re1  1  0.401562  0.684789  0.999840  1
  Re  Re2  1  0.684789  0.401562  0.999840  1
  Re  Re3  1  0.598257  0.283248  0.598257  1
  Re  Re4  1  0.401562  0.999840  0.684789  1
  Re  Re5  1  0.999840  0.401562  0.684789  1
  Re  Re6  1  0.283248  0.598257  0.598257  1
  Re  Re7  1  0.716328  0.315017  0.315017  1
  Re  Re8  1  0.315017  0.716328  0.315017  1
  Re  Re9  1  0.684789  0.999840  0.401562  1
  Re  Re10  1  0.999840  0.684789  0.401562  1
  Re  Re11  1  0.598257  0.598257  0.283248  1
  Re  Re12  1  0.806525  0.806525  0.182698  1
  Re  Re13  1  0.375832  0.193502  0.000160  1
  Re  Re14  1  0.193502  0.375832  0.000160  1
  Re  Re15  1  0.624132  0.817597  0.624132  1
  Re  Re16  1  0.375832  0.000160  0.193502  1
  Re  Re17  1  0.000160  0.375832  0.193502  1
  Re  Re18  1  0.817597  0.624132  0.624132  1
  Re  Re19  1  0.182698  0.806525  0.806525  1
  Re  Re20  1  0.806525  0.182698  0.806525  1
  Re  Re21  1  0.193502  0.000160  0.375832  1
  Re  Re22  1  0.000160  0.193502  0.375832  1
  Re  Re23  1  0.624132  0.624132  0.817597  1
  Mo  Mo24  1  0.358993  0.358993  0.358993  1
  W  W25  1  0.000610  0.000610  0.000610  1
  W  W26  1  0.000066  0.000066  0.641165  1
  W  W27  1  0.641165  0.000066  0.000066  1
  W  W28  1  0.000066  0.641165  0.000066  1
