# generated using pymatgen
data_Yb4Al13Si5(OsRh)3
_symmetry_space_group_name_H-M   'P 1'
_cell_length_a   7.48506674
_cell_length_b   7.43691328
_cell_length_c   9.27441600
_cell_angle_alpha   90.03396030
_cell_angle_beta   89.93550932
_cell_angle_gamma   119.55911495
_symmetry_Int_Tables_number   1
_chemical_formula_structural   Yb4Al13Si5(OsRh)3
_chemical_formula_sum   'Yb4 Al13 Si5 Os3 Rh3'
_cell_volume   449.07372786
_cell_formula_units_Z   1
loop_
 _symmetry_equiv_pos_site_id
 _symmetry_equiv_pos_as_xyz
  1  'x, y, z'
loop_
 _atom_site_type_symbol
 _atom_site_label
 _atom_site_symmetry_multiplicity
 _atom_site_fract_x
 _atom_site_fract_y
 _atom_site_fract_z
 _atom_site_occupancy
  Yb  Yb0  1  0.992389  0.670113  0.246387  1
  Yb  Yb1  1  0.007775  0.337267  0.754017  1
  Yb  Yb2  1  0.684588  0.002346  0.247755  1
  Yb  Yb3  1  0.311196  0.990747  0.751067  1
  Al  Al4  1  0.338840  0.003406  0.423408  1
  Al  Al5  1  0.003683  0.333198  0.428774  1
  Al  Al6  1  0.665679  0.000979  0.574557  1
  Al  Al7  1  0.662604  0.997881  0.922768  1
  Al  Al8  1  0.340763  0.004701  0.075254  1
  Al  Al9  1  0.334367  0.331970  0.555777  1
  Al  Al10  1  0.661057  0.666042  0.445708  1
  Al  Al11  1  0.662558  0.665153  0.052728  1
  Al  Al12  1  0.339214  0.331798  0.947005  1
  Al  Al13  1  0.331328  0.548272  0.248842  1
  Al  Al14  1  0.668931  0.453559  0.750851  1
  Al  Al15  1  0.545826  0.339363  0.249838  1
  Al  Al16  1  0.457748  0.662667  0.749272  1
  Si  Si17  1  0.134213  0.128398  0.250648  1
  Si  Si18  1  0.864448  0.871986  0.750397  1
  Si  Si19  1  0.002968  0.330736  0.074459  1
  Si  Si20  1  0.993674  0.667106  0.930702  1
  Si  Si21  1  0.995116  0.664207  0.568440  1
  Os  Os22  1  0.688629  0.336544  0.002534  1
  Os  Os23  1  0.000832  0.999674  0.999755  1
  Os  Os24  1  0.000235  0.992279  0.500938  1
  Rh  Rh25  1  0.312706  0.662830  0.996159  1
  Rh  Rh26  1  0.320266  0.670896  0.502230  1
  Rh  Rh27  1  0.678365  0.335885  0.499732  1
