# generated using pymatgen
data_Y2Si3Ni
_symmetry_space_group_name_H-M   'P 1'
_cell_length_a   4.06302900
_cell_length_b   7.95448259
_cell_length_c   7.95448288
_cell_angle_alpha   119.96620976
_cell_angle_beta   90.00000000
_cell_angle_gamma   90.00000000
_symmetry_Int_Tables_number   1
_chemical_formula_structural   Y2Si3Ni
_chemical_formula_sum   'Y4 Si6 Ni2'
_cell_volume   222.71640854
_cell_formula_units_Z   2
loop_
 _symmetry_equiv_pos_site_id
 _symmetry_equiv_pos_as_xyz
  1  'x, y, z'
loop_
 _atom_site_type_symbol
 _atom_site_label
 _atom_site_symmetry_multiplicity
 _atom_site_fract_x
 _atom_site_fract_y
 _atom_site_fract_z
 _atom_site_occupancy
  Y  Y0  1  0.500000  0.000020  0.000020  1
  Y  Y1  1  0.500000  0.000024  0.501012  1
  Y  Y2  1  0.500000  0.498979  0.498979  1
  Y  Y3  1  0.500000  0.501012  0.000024  1
  Si  Si4  1  0.000000  0.829039  0.171327  1
  Si  Si5  1  0.000000  0.828679  0.658054  1
  Si  Si6  1  0.000000  0.341944  0.170999  1
  Si  Si7  1  0.000000  0.171327  0.829039  1
  Si  Si8  1  0.000000  0.658054  0.828679  1
  Si  Si9  1  0.000000  0.170999  0.341944  1
  Ni  Ni10  1  0.000000  0.666704  0.333320  1
  Ni  Ni11  1  0.000000  0.333320  0.666704  1
