# generated using pymatgen
data_Tb11ErCo4SnOs
_symmetry_space_group_name_H-M   'P 1'
_cell_length_a   8.33639046
_cell_length_b   8.33910681
_cell_length_c   8.33910615
_cell_angle_alpha   111.52425585
_cell_angle_beta   110.42857389
_cell_angle_gamma   106.51531545
_symmetry_Int_Tables_number   1
_chemical_formula_structural   Tb11ErCo4SnOs
_chemical_formula_sum   'Tb11 Er1 Co4 Sn1 Os1'
_cell_volume   445.26788041
_cell_formula_units_Z   1
loop_
 _symmetry_equiv_pos_site_id
 _symmetry_equiv_pos_as_xyz
  1  'x, y, z'
loop_
 _atom_site_type_symbol
 _atom_site_label
 _atom_site_symmetry_multiplicity
 _atom_site_fract_x
 _atom_site_fract_y
 _atom_site_fract_z
 _atom_site_occupancy
  Tb  Tb0  1  0.593338  0.786319  0.807020  1
  Tb  Tb1  1  0.021310  0.213961  0.807349  1
  Tb  Tb2  1  0.979291  0.785084  0.194207  1
  Tb  Tb3  1  0.183404  0.285094  0.467733  1
  Tb  Tb4  1  0.816854  0.713194  0.530588  1
  Tb  Tb5  1  0.183404  0.715672  0.898310  1
  Tb  Tb6  1  0.816854  0.286265  0.103660  1
  Tb  Tb7  1  0.314301  0.619747  0.307265  1
  Tb  Tb8  1  0.685547  0.379051  0.692419  1
  Tb  Tb9  1  0.314301  0.007036  0.694554  1
  Tb  Tb10  1  0.685547  0.993128  0.306496  1
  Er  Er11  1  0.409143  0.215121  0.194022  1
  Co  Co12  1  0.376976  0.000558  0.376418  1
  Co  Co13  1  0.618262  0.999584  0.618678  1
  Co  Co14  1  0.110681  0.610674  0.500007  1
  Co  Co15  1  0.886678  0.388628  0.498052  1
  Sn  Sn16  1  0.500498  0.499724  0.000774  1
  Os  Os17  1  0.003611  0.001159  0.002452  1
