# generated using pymatgen
data_Tb2GaSiPd4
_symmetry_space_group_name_H-M   'P 1'
_cell_length_a   5.57671719
_cell_length_b   7.13308700
_cell_length_c   7.39063561
_cell_angle_alpha   90.00000000
_cell_angle_beta   88.96261629
_cell_angle_gamma   90.00000000
_symmetry_Int_Tables_number   1
_chemical_formula_structural   Tb2GaSiPd4
_chemical_formula_sum   'Tb4 Ga2 Si2 Pd8'
_cell_volume   293.94545082
_cell_formula_units_Z   2
loop_
 _symmetry_equiv_pos_site_id
 _symmetry_equiv_pos_as_xyz
  1  'x, y, z'
loop_
 _atom_site_type_symbol
 _atom_site_label
 _atom_site_symmetry_multiplicity
 _atom_site_fract_x
 _atom_site_fract_y
 _atom_site_fract_z
 _atom_site_occupancy
  Tb  Tb0  1  0.138319  0.750000  0.527096  1
  Tb  Tb1  1  0.861681  0.250000  0.472904  1
  Tb  Tb2  1  0.648302  0.250000  0.968718  1
  Tb  Tb3  1  0.351698  0.750000  0.031282  1
  Ga  Ga4  1  0.856962  0.750000  0.879988  1
  Ga  Ga5  1  0.143038  0.250000  0.120012  1
  Si  Si6  1  0.362685  0.250000  0.619985  1
  Si  Si7  1  0.637315  0.750000  0.380015  1
  Pd  Pd8  1  0.588568  0.552203  0.673991  1
  Pd  Pd9  1  0.411432  0.447797  0.326009  1
  Pd  Pd10  1  0.097616  0.445815  0.814861  1
  Pd  Pd11  1  0.411432  0.052203  0.326009  1
  Pd  Pd12  1  0.902384  0.554185  0.185139  1
  Pd  Pd13  1  0.588568  0.947797  0.673991  1
  Pd  Pd14  1  0.902384  0.945815  0.185139  1
  Pd  Pd15  1  0.097616  0.054185  0.814861  1
