# generated using pymatgen
data_Tb4Ga2TcOs5
_symmetry_space_group_name_H-M   'P 1'
_cell_length_a   5.37316445
_cell_length_b   5.37316577
_cell_length_c   8.79798200
_cell_angle_alpha   90.00000000
_cell_angle_beta   90.00000000
_cell_angle_gamma   118.91436122
_symmetry_Int_Tables_number   1
_chemical_formula_structural   Tb4Ga2TcOs5
_chemical_formula_sum   'Tb4 Ga2 Tc1 Os5'
_cell_volume   222.34219304
_cell_formula_units_Z   1
loop_
 _symmetry_equiv_pos_site_id
 _symmetry_equiv_pos_as_xyz
  1  'x, y, z'
loop_
 _atom_site_type_symbol
 _atom_site_label
 _atom_site_symmetry_multiplicity
 _atom_site_fract_x
 _atom_site_fract_y
 _atom_site_fract_z
 _atom_site_occupancy
  Tb  Tb0  1  0.328480  0.671520  0.443395  1
  Tb  Tb1  1  0.661884  0.338116  0.569713  1
  Tb  Tb2  1  0.661884  0.338116  0.930287  1
  Tb  Tb3  1  0.328480  0.671520  0.056605  1
  Ga  Ga4  1  0.838700  0.653802  0.250000  1
  Ga  Ga5  1  0.346198  0.161300  0.250000  1
  Tc  Tc6  1  0.840526  0.159474  0.250000  1
  Os  Os7  1  0.989564  0.010436  0.498549  1
  Os  Os8  1  0.989564  0.010436  0.001451  1
  Os  Os9  1  0.181939  0.818061  0.750000  1
  Os  Os10  1  0.161430  0.328650  0.750000  1
  Os  Os11  1  0.671350  0.838570  0.750000  1
