# generated using pymatgen
data_TbEr5Al24(RuRh3)2
_symmetry_space_group_name_H-M   'P 1'
_cell_length_a   8.81596500
_cell_length_b   8.80724771
_cell_length_c   9.47973000
_cell_angle_alpha   90.00000000
_cell_angle_beta   90.00000000
_cell_angle_gamma   120.03273597
_symmetry_Int_Tables_number   1
_chemical_formula_structural   TbEr5Al24(RuRh3)2
_chemical_formula_sum   'Tb1 Er5 Al24 Ru2 Rh6'
_cell_volume   637.22574482
_cell_formula_units_Z   1
loop_
 _symmetry_equiv_pos_site_id
 _symmetry_equiv_pos_as_xyz
  1  'x, y, z'
loop_
 _atom_site_type_symbol
 _atom_site_label
 _atom_site_symmetry_multiplicity
 _atom_site_fract_x
 _atom_site_fract_y
 _atom_site_fract_z
 _atom_site_occupancy
  Tb  Tb0  1  0.191610  0.383219  0.250000  1
  Er  Er1  1  0.807387  0.614774  0.750000  1
  Er  Er2  1  0.615686  0.807966  0.250000  1
  Er  Er3  1  0.385128  0.192597  0.750000  1
  Er  Er4  1  0.192279  0.807966  0.250000  1
  Er  Er5  1  0.807468  0.192597  0.750000  1
  Al  Al6  1  0.333604  0.667209  0.029183  1
  Al  Al7  1  0.666746  0.333491  0.970351  1
  Al  Al8  1  0.666746  0.333491  0.529649  1
  Al  Al9  1  0.333604  0.667209  0.470817  1
  Al  Al10  1  0.162851  0.325704  0.576902  1
  Al  Al11  1  0.837154  0.674307  0.423459  1
  Al  Al12  1  0.674395  0.837159  0.576516  1
  Al  Al13  1  0.837154  0.674307  0.076541  1
  Al  Al14  1  0.325805  0.162570  0.423582  1
  Al  Al15  1  0.162851  0.325704  0.923098  1
  Al  Al16  1  0.162763  0.837159  0.576516  1
  Al  Al17  1  0.325805  0.162570  0.076418  1
  Al  Al18  1  0.836767  0.162570  0.423582  1
  Al  Al19  1  0.674395  0.837159  0.923484  1
  Al  Al20  1  0.836767  0.162570  0.076418  1
  Al  Al21  1  0.162763  0.837159  0.923484  1
  Al  Al22  1  0.561519  0.123038  0.250000  1
  Al  Al23  1  0.438454  0.876908  0.750000  1
  Al  Al24  1  0.876359  0.438587  0.250000  1
  Al  Al25  1  0.123017  0.561393  0.750000  1
  Al  Al26  1  0.562227  0.438587  0.250000  1
  Al  Al27  1  0.438377  0.561393  0.750000  1
  Al  Al28  1  0.999677  0.999354  0.250000  1
  Al  Al29  1  0.999956  0.999913  0.750000  1
  Ru  Ru30  1  0.000037  0.000073  0.999538  1
  Ru  Ru31  1  0.000037  0.000073  0.500462  1
  Rh  Rh32  1  0.500079  0.000158  0.999838  1
  Rh  Rh33  1  0.999837  0.500227  0.999663  1
  Rh  Rh34  1  0.500079  0.000158  0.500162  1
  Rh  Rh35  1  0.500390  0.500227  0.999663  1
  Rh  Rh36  1  0.999837  0.500227  0.500337  1
  Rh  Rh37  1  0.500390  0.500227  0.500337  1
