# generated using pymatgen
data_NdTh3(SnRu)4
_symmetry_space_group_name_H-M   'P 1'
_cell_length_a   4.18630600
_cell_length_b   7.52071535
_cell_length_c   16.74574700
_cell_angle_alpha   90.24248662
_cell_angle_beta   90.00000000
_cell_angle_gamma   90.00000000
_symmetry_Int_Tables_number   1
_chemical_formula_structural   NdTh3(SnRu)4
_chemical_formula_sum   'Nd2 Th6 Sn8 Ru8'
_cell_volume   527.21864161
_cell_formula_units_Z   2
loop_
 _symmetry_equiv_pos_site_id
 _symmetry_equiv_pos_as_xyz
  1  'x, y, z'
loop_
 _atom_site_type_symbol
 _atom_site_label
 _atom_site_symmetry_multiplicity
 _atom_site_fract_x
 _atom_site_fract_y
 _atom_site_fract_z
 _atom_site_occupancy
  Nd  Nd0  1  0.750000  0.951871  0.218999  1
  Nd  Nd1  1  0.250000  0.151882  0.559619  1
  Th  Th2  1  0.750000  0.835971  0.439326  1
  Th  Th3  1  0.750000  0.449731  0.280565  1
  Th  Th4  1  0.750000  0.351233  0.061792  1
  Th  Th5  1  0.250000  0.664516  0.939769  1
  Th  Th6  1  0.250000  0.053976  0.779253  1
  Th  Th7  1  0.250000  0.550985  0.718329  1
  Sn  Sn8  1  0.750000  0.481814  0.565621  1
  Sn  Sn9  1  0.750000  0.382726  0.849019  1
  Sn  Sn10  1  0.750000  0.004808  0.933014  1
  Sn  Sn11  1  0.750000  0.881243  0.649576  1
  Sn  Sn12  1  0.250000  0.487920  0.435731  1
  Sn  Sn13  1  0.250000  0.008728  0.070227  1
  Sn  Sn14  1  0.250000  0.637123  0.153595  1
  Sn  Sn15  1  0.250000  0.110445  0.342774  1
  Ru  Ru16  1  0.750000  0.753405  0.811797  1
  Ru  Ru17  1  0.250000  0.252392  0.940617  1
  Ru  Ru18  1  0.750000  0.244303  0.427907  1
  Ru  Ru19  1  0.250000  0.733742  0.320150  1
  Ru  Ru20  1  0.750000  0.754139  0.057765  1
  Ru  Ru21  1  0.750000  0.251456  0.692652  1
  Ru  Ru22  1  0.250000  0.275676  0.185350  1
  Ru  Ru23  1  0.250000  0.729917  0.566555  1
