# generated using pymatgen
data_InBi3(Pt2O7)2
_symmetry_space_group_name_H-M   'P 1'
_cell_length_a   7.37352359
_cell_length_b   7.38419382
_cell_length_c   7.38419400
_cell_angle_alpha   59.99999918
_cell_angle_beta   59.95211793
_cell_angle_gamma   59.95211684
_symmetry_Int_Tables_number   1
_chemical_formula_structural   InBi3(Pt2O7)2
_chemical_formula_sum   'In1 Bi3 Pt4 O14'
_cell_volume   284.08713096
_cell_formula_units_Z   1
loop_
 _symmetry_equiv_pos_site_id
 _symmetry_equiv_pos_as_xyz
  1  'x, y, z'
loop_
 _atom_site_type_symbol
 _atom_site_label
 _atom_site_symmetry_multiplicity
 _atom_site_fract_x
 _atom_site_fract_y
 _atom_site_fract_z
 _atom_site_occupancy
  In  In0  1  0.625000  0.125000  0.125000  1
  Bi  Bi1  1  0.125000  0.125000  0.625000  1
  Bi  Bi2  1  0.125000  0.625000  0.125000  1
  Bi  Bi3  1  0.125000  0.125000  0.125000  1
  Pt  Pt4  1  0.625000  0.625000  0.125000  1
  Pt  Pt5  1  0.625000  0.125000  0.625000  1
  Pt  Pt6  1  0.125000  0.625000  0.625000  1
  Pt  Pt7  1  0.625000  0.625000  0.625000  1
  O  O8  1  0.277500  0.240833  0.240833  1
  O  O9  1  0.972500  0.009167  0.009167  1
  O  O10  1  0.544635  0.960428  0.534509  1
  O  O11  1  0.290494  0.709609  0.290287  1
  O  O12  1  0.544635  0.534509  0.960428  1
  O  O13  1  0.959506  0.540391  0.540391  1
  O  O14  1  0.544635  0.960428  0.960428  1
  O  O15  1  0.959506  0.959713  0.540391  1
  O  O16  1  0.959506  0.540391  0.959713  1
  O  O17  1  0.705365  0.289572  0.289572  1
  O  O18  1  0.290494  0.709609  0.709609  1
  O  O19  1  0.705365  0.289572  0.715491  1
  O  O20  1  0.290494  0.290287  0.709609  1
  O  O21  1  0.705365  0.715491  0.289572  1
