# generated using pymatgen
data_YErP7Ru12
_symmetry_space_group_name_H-M   'P 1'
_cell_length_a   9.40441300
_cell_length_b   9.40441313
_cell_length_c   3.95810300
_cell_angle_alpha   90.00000000
_cell_angle_beta   90.00000000
_cell_angle_gamma   119.99999604
_symmetry_Int_Tables_number   1
_chemical_formula_structural   YErP7Ru12
_chemical_formula_sum   'Y1 Er1 P7 Ru12'
_cell_volume   303.16644605
_cell_formula_units_Z   1
loop_
 _symmetry_equiv_pos_site_id
 _symmetry_equiv_pos_as_xyz
  1  'x, y, z'
loop_
 _atom_site_type_symbol
 _atom_site_label
 _atom_site_symmetry_multiplicity
 _atom_site_fract_x
 _atom_site_fract_y
 _atom_site_fract_z
 _atom_site_occupancy
  Y  Y0  1  0.333333  0.666667  0.000000  1
  Er  Er1  1  0.666667  0.333333  0.500000  1
  P  P2  1  0.601106  0.718741  0.500000  1
  P  P3  1  0.000000  0.000000  0.000000  1
  P  P4  1  0.281259  0.882364  0.500000  1
  P  P5  1  0.117636  0.398894  0.500000  1
  P  P6  1  0.884860  0.573138  0.000000  1
  P  P7  1  0.426862  0.311722  0.000000  1
  P  P8  1  0.688278  0.115140  0.000000  1
  Ru  Ru9  1  0.556771  0.950780  0.500000  1
  Ru  Ru10  1  0.394010  0.443229  0.500000  1
  Ru  Ru11  1  0.914852  0.121687  0.500000  1
  Ru  Ru12  1  0.206835  0.085148  0.500000  1
  Ru  Ru13  1  0.878313  0.793165  0.500000  1
  Ru  Ru14  1  0.727982  0.892509  0.000000  1
  Ru  Ru15  1  0.107491  0.835472  0.000000  1
  Ru  Ru16  1  0.164528  0.272018  0.000000  1
  Ru  Ru17  1  0.423746  0.067236  0.000000  1
  Ru  Ru18  1  0.932764  0.356511  0.000000  1
  Ru  Ru19  1  0.643489  0.576254  0.000000  1
  Ru  Ru20  1  0.049220  0.605990  0.500000  1
