# generated using pymatgen
data_Tm11LuCo4SnRu
_symmetry_space_group_name_H-M   'P 1'
_cell_length_a   8.16608166
_cell_length_b   8.16767521
_cell_length_c   8.16767419
_cell_angle_alpha   111.33249546
_cell_angle_beta   110.98563773
_cell_angle_gamma   106.15342883
_symmetry_Int_Tables_number   1
_chemical_formula_structural   Tm11LuCo4SnRu
_chemical_formula_sum   'Tm11 Lu1 Co4 Sn1 Ru1'
_cell_volume   418.27015711
_cell_formula_units_Z   1
loop_
 _symmetry_equiv_pos_site_id
 _symmetry_equiv_pos_as_xyz
  1  'x, y, z'
loop_
 _atom_site_type_symbol
 _atom_site_label
 _atom_site_symmetry_multiplicity
 _atom_site_fract_x
 _atom_site_fract_y
 _atom_site_fract_z
 _atom_site_occupancy
  Tm  Tm0  1  0.587124  0.781330  0.805794  1
  Tm  Tm1  1  0.024923  0.218668  0.806255  1
  Tm  Tm2  1  0.975848  0.781528  0.194321  1
  Tm  Tm3  1  0.184276  0.282671  0.466425  1
  Tm  Tm4  1  0.815562  0.716651  0.532700  1
  Tm  Tm5  1  0.184276  0.717850  0.901605  1
  Tm  Tm6  1  0.815562  0.282863  0.098911  1
  Tm  Tm7  1  0.313376  0.619417  0.306706  1
  Tm  Tm8  1  0.686318  0.379896  0.692595  1
  Tm  Tm9  1  0.313376  0.006670  0.693960  1
  Tm  Tm10  1  0.686318  0.993721  0.306421  1
  Lu  Lu11  1  0.412345  0.218110  0.194235  1
  Co  Co12  1  0.375110  0.000493  0.374617  1
  Co  Co13  1  0.624736  0.999845  0.624891  1
  Co  Co14  1  0.112019  0.612032  0.499987  1
  Co  Co15  1  0.887344  0.387791  0.499554  1
  Sn  Sn16  1  0.499952  0.499694  0.000258  1
  Ru  Ru17  1  0.001534  0.000769  0.000765  1
