# generated using pymatgen
data_Pa2Mn12P7
_symmetry_space_group_name_H-M   'P 1'
_cell_length_a   9.21311100
_cell_length_b   9.21311247
_cell_length_c   3.64884800
_cell_angle_alpha   90.00000000
_cell_angle_beta   90.00000000
_cell_angle_gamma   120.00000551
_symmetry_Int_Tables_number   1
_chemical_formula_structural   Pa2Mn12P7
_chemical_formula_sum   'Pa2 Mn12 P7'
_cell_volume   268.22487786
_cell_formula_units_Z   1
loop_
 _symmetry_equiv_pos_site_id
 _symmetry_equiv_pos_as_xyz
  1  'x, y, z'
loop_
 _atom_site_type_symbol
 _atom_site_label
 _atom_site_symmetry_multiplicity
 _atom_site_fract_x
 _atom_site_fract_y
 _atom_site_fract_z
 _atom_site_occupancy
  Pa  Pa0  1  0.333333  0.666667  0.000000  1
  Pa  Pa1  1  0.000000  0.000000  0.500000  1
  Mn  Mn2  1  0.040746  0.278065  0.000000  1
  Mn  Mn3  1  0.721935  0.762681  0.000000  1
  Mn  Mn4  1  0.237319  0.959254  0.000000  1
  Mn  Mn5  1  0.543907  0.056558  0.000000  1
  Mn  Mn6  1  0.943442  0.487350  0.000000  1
  Mn  Mn7  1  0.512650  0.456093  0.000000  1
  Mn  Mn8  1  0.617554  0.893365  0.500000  1
  Mn  Mn9  1  0.106635  0.724190  0.500000  1
  Mn  Mn10  1  0.275810  0.382446  0.500000  1
  Mn  Mn11  1  0.788129  0.223601  0.500000  1
  Mn  Mn12  1  0.776399  0.564528  0.500000  1
  Mn  Mn13  1  0.435472  0.211871  0.500000  1
  P  P14  1  0.780091  0.039862  0.000000  1
  P  P15  1  0.960138  0.740229  0.000000  1
  P  P16  1  0.259771  0.219909  0.000000  1
  P  P17  1  0.384557  0.930881  0.500000  1
  P  P18  1  0.069119  0.453678  0.500000  1
  P  P19  1  0.546322  0.615443  0.500000  1
  P  P20  1  0.666667  0.333333  0.000000  1
