# generated using pymatgen
data_Sm4Ho3Er(ReB6)4
_symmetry_space_group_name_H-M   'P 1'
_cell_length_a   3.70593400
_cell_length_b   9.20669400
_cell_length_c   11.63541900
_cell_angle_alpha   90.00328765
_cell_angle_beta   90.00000000
_cell_angle_gamma   90.00000000
_symmetry_Int_Tables_number   1
_chemical_formula_structural   Sm4Ho3Er(ReB6)4
_chemical_formula_sum   'Sm4 Ho3 Er1 Re4 B24'
_cell_volume   396.99351845
_cell_formula_units_Z   1
loop_
 _symmetry_equiv_pos_site_id
 _symmetry_equiv_pos_as_xyz
  1  'x, y, z'
loop_
 _atom_site_type_symbol
 _atom_site_label
 _atom_site_symmetry_multiplicity
 _atom_site_fract_x
 _atom_site_fract_y
 _atom_site_fract_z
 _atom_site_occupancy
  Sm  Sm0  1  0.000000  0.323084  0.414273  1
  Sm  Sm1  1  0.000000  0.676906  0.585765  1
  Sm  Sm2  1  0.000000  0.823028  0.085679  1
  Sm  Sm3  1  0.000000  0.176941  0.914291  1
  Ho  Ho4  1  0.000000  0.942833  0.369674  1
  Ho  Ho5  1  0.000000  0.057179  0.630341  1
  Ho  Ho6  1  0.000000  0.442862  0.130185  1
  Er  Er7  1  0.000000  0.557219  0.869624  1
  Re  Re8  1  0.000000  0.638975  0.319658  1
  Re  Re9  1  0.000000  0.361206  0.680493  1
  Re  Re10  1  0.000000  0.138999  0.180289  1
  Re  Re11  1  0.000000  0.860761  0.819729  1
  B  B12  1  0.500000  0.554283  0.431322  1
  B  B13  1  0.500000  0.445720  0.568728  1
  B  B14  1  0.500000  0.054277  0.068676  1
  B  B15  1  0.500000  0.945660  0.931297  1
  B  B16  1  0.500000  0.749583  0.416624  1
  B  B17  1  0.500000  0.250436  0.583393  1
  B  B18  1  0.500000  0.249585  0.083381  1
  B  B19  1  0.500000  0.750125  0.916631  1
  B  B20  1  0.500000  0.791509  0.265667  1
  B  B21  1  0.500000  0.208550  0.734348  1
  B  B22  1  0.500000  0.291515  0.234323  1
  B  B23  1  0.500000  0.708250  0.765736  1
  B  B24  1  0.500000  0.629842  0.185870  1
  B  B25  1  0.500000  0.370375  0.814269  1
  B  B26  1  0.500000  0.129850  0.314116  1
  B  B27  1  0.500000  0.870100  0.685919  1
  B  B28  1  0.500000  0.983053  0.212774  1
  B  B29  1  0.500000  0.016927  0.787242  1
  B  B30  1  0.500000  0.483039  0.287215  1
  B  B31  1  0.500000  0.517098  0.712944  1
  B  B32  1  0.500000  0.597338  0.026715  1
  B  B33  1  0.500000  0.402891  0.972808  1
  B  B34  1  0.500000  0.097379  0.473012  1
  B  B35  1  0.500000  0.902623  0.526990  1
