# generated using pymatgen
data_Y6Zn16Ag7C
_symmetry_space_group_name_H-M   'P 1'
_cell_length_a   9.04742378
_cell_length_b   9.05486005
_cell_length_c   9.05486000
_cell_angle_alpha   60.00000017
_cell_angle_beta   59.97280751
_cell_angle_gamma   59.97279922
_symmetry_Int_Tables_number   1
_chemical_formula_structural   Y6Zn16Ag7C
_chemical_formula_sum   'Y6 Zn16 Ag7 C1'
_cell_volume   524.31799939
_cell_formula_units_Z   1
loop_
 _symmetry_equiv_pos_site_id
 _symmetry_equiv_pos_as_xyz
  1  'x, y, z'
loop_
 _atom_site_type_symbol
 _atom_site_label
 _atom_site_symmetry_multiplicity
 _atom_site_fract_x
 _atom_site_fract_y
 _atom_site_fract_z
 _atom_site_occupancy
  Y  Y0  1  0.693524  0.306103  0.306103  1
  Y  Y1  1  0.305866  0.693936  0.693936  1
  Y  Y2  1  0.305866  0.693936  0.306262  1
  Y  Y3  1  0.693524  0.306103  0.694270  1
  Y  Y4  1  0.305866  0.306262  0.693936  1
  Y  Y5  1  0.693524  0.694270  0.306103  1
  Zn  Zn6  1  0.359601  0.880132  0.880132  1
  Zn  Zn7  1  0.497517  0.998955  0.998955  1
  Zn  Zn8  1  0.999561  0.499837  0.499837  1
  Zn  Zn9  1  0.999561  0.499837  0.000765  1
  Zn  Zn10  1  0.497517  0.998955  0.504572  1
  Zn  Zn11  1  0.999561  0.000765  0.499837  1
  Zn  Zn12  1  0.497517  0.504572  0.998955  1
  Zn  Zn13  1  0.328799  0.326647  0.326647  1
  Zn  Zn14  1  0.671707  0.673466  0.673466  1
  Zn  Zn15  1  0.328799  0.326647  0.017909  1
  Zn  Zn16  1  0.328799  0.017909  0.326647  1
  Zn  Zn17  1  0.671707  0.673466  0.981359  1
  Zn  Zn18  1  0.671707  0.981359  0.673466  1
  Zn  Zn19  1  0.019250  0.326917  0.326917  1
  Zn  Zn20  1  0.981468  0.672844  0.672844  1
  Zn  Zn21  1  0.005888  0.998037  0.998037  1
  Ag  Ag22  1  0.120537  0.118382  0.118382  1
  Ag  Ag23  1  0.879559  0.881355  0.881355  1
  Ag  Ag24  1  0.120537  0.118382  0.642701  1
  Ag  Ag25  1  0.120537  0.642701  0.118382  1
  Ag  Ag26  1  0.879559  0.881355  0.357730  1
  Ag  Ag27  1  0.879559  0.357730  0.881355  1
  Ag  Ag28  1  0.642844  0.119053  0.119053  1
  C  C29  1  0.499741  0.500087  0.500087  1
