# generated using pymatgen
data_Dy4Sc4Ir3Rh
_symmetry_space_group_name_H-M   'P 1'
_cell_length_a   4.26105200
_cell_length_b   7.14171820
_cell_length_c   8.69703324
_cell_angle_alpha   90.45150598
_cell_angle_beta   90.00000000
_cell_angle_gamma   90.00000000
_symmetry_Int_Tables_number   1
_chemical_formula_structural   Dy4Sc4Ir3Rh
_chemical_formula_sum   'Dy4 Sc4 Ir3 Rh1'
_cell_volume   264.65322404
_cell_formula_units_Z   1
loop_
 _symmetry_equiv_pos_site_id
 _symmetry_equiv_pos_as_xyz
  1  'x, y, z'
loop_
 _atom_site_type_symbol
 _atom_site_label
 _atom_site_symmetry_multiplicity
 _atom_site_fract_x
 _atom_site_fract_y
 _atom_site_fract_z
 _atom_site_occupancy
  Dy  Dy0  1  0.250000  0.517283  0.175106  1
  Dy  Dy1  1  0.750000  0.476264  0.824779  1
  Dy  Dy2  1  0.250000  0.018960  0.325832  1
  Dy  Dy3  1  0.750000  0.985828  0.672290  1
  Sc  Sc4  1  0.250000  0.140128  0.935150  1
  Sc  Sc5  1  0.750000  0.859289  0.065826  1
  Sc  Sc6  1  0.250000  0.641997  0.563989  1
  Sc  Sc7  1  0.750000  0.359607  0.434149  1
  Ir  Ir8  1  0.750000  0.740449  0.393899  1
  Ir  Ir9  1  0.250000  0.262945  0.607305  1
  Ir  Ir10  1  0.750000  0.238786  0.104607  1
  Rh  Rh11  1  0.250000  0.758463  0.897069  1
