# generated using pymatgen
data_HoLu3Al8
_symmetry_space_group_name_H-M   'P 1'
_cell_length_a   9.55509664
_cell_length_b   9.55509668
_cell_length_c   9.55509610
_cell_angle_alpha   33.47137104
_cell_angle_beta   33.47137290
_cell_angle_gamma   33.47137181
_symmetry_Int_Tables_number   1
_chemical_formula_structural   HoLu3Al8
_chemical_formula_sum   'Ho1 Lu3 Al8'
_cell_volume   236.32507311
_cell_formula_units_Z   1
loop_
 _symmetry_equiv_pos_site_id
 _symmetry_equiv_pos_as_xyz
  1  'x, y, z'
loop_
 _atom_site_type_symbol
 _atom_site_label
 _atom_site_symmetry_multiplicity
 _atom_site_fract_x
 _atom_site_fract_y
 _atom_site_fract_z
 _atom_site_occupancy
  Ho  Ho0  1  0.687478  0.687478  0.687478  1
  Lu  Lu1  1  0.187431  0.187431  0.187431  1
  Lu  Lu2  1  0.812623  0.812623  0.812623  1
  Lu  Lu3  1  0.312442  0.312442  0.312442  1
  Al  Al4  1  0.999913  0.999913  0.999913  1
  Al  Al5  1  0.500038  0.500038  0.500038  1
  Al  Al6  1  0.750023  0.250232  0.250232  1
  Al  Al7  1  0.249799  0.749895  0.749895  1
  Al  Al8  1  0.250232  0.750023  0.250232  1
  Al  Al9  1  0.749895  0.249799  0.749895  1
  Al  Al10  1  0.250232  0.250232  0.750023  1
  Al  Al11  1  0.749895  0.749895  0.249799  1
