# generated using pymatgen
data_LiTbY15Cd3Pt4
_symmetry_space_group_name_H-M   'P 1'
_cell_length_a   9.72983473
_cell_length_b   9.72969540
_cell_length_c   9.73043821
_cell_angle_alpha   59.87918883
_cell_angle_beta   59.87725162
_cell_angle_gamma   59.85945330
_symmetry_Int_Tables_number   1
_chemical_formula_structural   LiTbY15Cd3Pt4
_chemical_formula_sum   'Li1 Tb1 Y15 Cd3 Pt4'
_cell_volume   649.46914503
_cell_formula_units_Z   1
loop_
 _symmetry_equiv_pos_site_id
 _symmetry_equiv_pos_as_xyz
  1  'x, y, z'
loop_
 _atom_site_type_symbol
 _atom_site_label
 _atom_site_symmetry_multiplicity
 _atom_site_fract_x
 _atom_site_fract_y
 _atom_site_fract_z
 _atom_site_occupancy
  Li  Li0  1  0.571327  0.571334  0.571329  1
  Tb  Tb1  1  0.350777  0.350713  0.350703  1
  Y  Y2  1  0.352752  0.352868  0.943021  1
  Y  Y3  1  0.352740  0.943017  0.352871  1
  Y  Y4  1  0.942974  0.352821  0.352843  1
  Y  Y5  1  0.809695  0.192458  0.192422  1
  Y  Y6  1  0.188359  0.812452  0.812463  1
  Y  Y7  1  0.192484  0.809677  0.192433  1
  Y  Y8  1  0.812515  0.188331  0.812464  1
  Y  Y9  1  0.192463  0.192450  0.809654  1
  Y  Y10  1  0.812539  0.812475  0.188321  1
  Y  Y11  1  0.937376  0.564534  0.564576  1
  Y  Y12  1  0.563056  0.936497  0.936530  1
  Y  Y13  1  0.564585  0.937219  0.564593  1
  Y  Y14  1  0.936448  0.563105  0.936518  1
  Y  Y15  1  0.564652  0.564630  0.937163  1
  Y  Y16  1  0.936472  0.936483  0.563126  1
  Cd  Cd17  1  0.582171  0.582150  0.253816  1
  Cd  Cd18  1  0.582170  0.253793  0.582187  1
  Cd  Cd19  1  0.253648  0.582249  0.582290  1
  Pt  Pt20  1  0.144025  0.144093  0.144055  1
  Pt  Pt21  1  0.142950  0.142919  0.570892  1
  Pt  Pt22  1  0.142937  0.570870  0.142892  1
  Pt  Pt23  1  0.570884  0.142860  0.142837  1
