# generated using pymatgen
data_Tm6Zr4Al12Os7
_symmetry_space_group_name_H-M   'P 1'
_cell_length_a   9.11685745
_cell_length_b   9.11685652
_cell_length_c   9.11685700
_cell_angle_alpha   59.99999463
_cell_angle_beta   59.99999802
_cell_angle_gamma   60.00000157
_symmetry_Int_Tables_number   1
_chemical_formula_structural   Tm6Zr4Al12Os7
_chemical_formula_sum   'Tm6 Zr4 Al12 Os7'
_cell_volume   535.82183881
_cell_formula_units_Z   1
loop_
 _symmetry_equiv_pos_site_id
 _symmetry_equiv_pos_as_xyz
  1  'x, y, z'
loop_
 _atom_site_type_symbol
 _atom_site_label
 _atom_site_symmetry_multiplicity
 _atom_site_fract_x
 _atom_site_fract_y
 _atom_site_fract_z
 _atom_site_occupancy
  Tm  Tm0  1  0.704862  0.704862  0.295138  1
  Tm  Tm1  1  0.295138  0.704862  0.295138  1
  Tm  Tm2  1  0.704862  0.295138  0.295138  1
  Tm  Tm3  1  0.295138  0.295138  0.704862  1
  Tm  Tm4  1  0.704862  0.295138  0.704862  1
  Tm  Tm5  1  0.295138  0.704862  0.704862  1
  Zr  Zr6  1  0.880118  0.880118  0.359644  1
  Zr  Zr7  1  0.880118  0.359644  0.880118  1
  Zr  Zr8  1  0.359644  0.880118  0.880118  1
  Zr  Zr9  1  0.880118  0.880118  0.880118  1
  Al  Al10  1  0.120559  0.120559  0.638323  1
  Al  Al11  1  0.120559  0.638323  0.120559  1
  Al  Al12  1  0.638323  0.120559  0.120559  1
  Al  Al13  1  0.120559  0.120559  0.120559  1
  Al  Al14  1  0.667413  0.667413  0.997764  1
  Al  Al15  1  0.667413  0.997764  0.667413  1
  Al  Al16  1  0.997764  0.667413  0.667413  1
  Al  Al17  1  0.667413  0.667413  0.667413  1
  Al  Al18  1  0.331212  0.331212  0.006361  1
  Al  Al19  1  0.331212  0.006361  0.331212  1
  Al  Al20  1  0.006361  0.331212  0.331212  1
  Al  Al21  1  0.331212  0.331212  0.331212  1
  Os  Os22  1  0.000000  0.000000  0.000000  1
  Os  Os23  1  0.000759  0.000759  0.499241  1
  Os  Os24  1  0.499241  0.000759  0.499241  1
  Os  Os25  1  0.000759  0.499241  0.499241  1
  Os  Os26  1  0.499241  0.499241  0.000759  1
  Os  Os27  1  0.000759  0.499241  0.000759  1
  Os  Os28  1  0.499241  0.000759  0.000759  1
