# generated using pymatgen
data_Sr2Nd2Cu3Sb8
_symmetry_space_group_name_H-M   'P 1'
_cell_length_a   11.14555961
_cell_length_b   11.14556007
_cell_length_c   11.13658257
_cell_angle_alpha   147.26181940
_cell_angle_beta   147.26182225
_cell_angle_gamma   47.08238236
_symmetry_Int_Tables_number   1
_chemical_formula_structural   Sr2Nd2Cu3Sb8
_chemical_formula_sum   'Sr2 Nd2 Cu3 Sb8'
_cell_volume   402.92894968
_cell_formula_units_Z   1
loop_
 _symmetry_equiv_pos_site_id
 _symmetry_equiv_pos_as_xyz
  1  'x, y, z'
loop_
 _atom_site_type_symbol
 _atom_site_label
 _atom_site_symmetry_multiplicity
 _atom_site_fract_x
 _atom_site_fract_y
 _atom_site_fract_z
 _atom_site_occupancy
  Sr  Sr0  1  0.367821  0.875266  0.000000  1
  Sr  Sr1  1  0.875266  0.367821  0.000000  1
  Nd  Nd2  1  0.634162  0.634162  0.500475  1
  Nd  Nd3  1  0.133687  0.133687  0.499525  1
  Cu  Cu4  1  0.998029  0.998029  0.000000  1
  Cu  Cu5  1  0.995251  0.495251  0.500000  1
  Cu  Cu6  1  0.495251  0.995251  0.500000  1
  Sb  Sb7  1  0.316921  0.316921  0.516328  1
  Sb  Sb8  1  0.800592  0.800592  0.483672  1
  Sb  Sb9  1  0.673559  0.178078  0.000000  1
  Sb  Sb10  1  0.178078  0.673559  0.000000  1
  Sb  Sb11  1  0.257492  0.257492  0.000000  1
  Sb  Sb12  1  0.757192  0.757192  0.000000  1
  Sb  Sb13  1  0.758351  0.258351  0.500000  1
  Sb  Sb14  1  0.258351  0.758351  0.500000  1
