# generated using pymatgen
data_HoEr5Co16(P6Os)2
_symmetry_space_group_name_H-M   'P 1'
_cell_length_a   3.69927000
_cell_length_b   10.46536200
_cell_length_c   12.20401900
_cell_angle_alpha   90.00000000
_cell_angle_beta   90.00000000
_cell_angle_gamma   90.00000000
_symmetry_Int_Tables_number   1
_chemical_formula_structural   HoEr5Co16(P6Os)2
_chemical_formula_sum   'Ho1 Er5 Co16 P12 Os2'
_cell_volume   472.46882853
_cell_formula_units_Z   1
loop_
 _symmetry_equiv_pos_site_id
 _symmetry_equiv_pos_as_xyz
  1  'x, y, z'
loop_
 _atom_site_type_symbol
 _atom_site_label
 _atom_site_symmetry_multiplicity
 _atom_site_fract_x
 _atom_site_fract_y
 _atom_site_fract_z
 _atom_site_occupancy
  Ho  Ho0  1  0.750000  0.250000  0.474964  1
  Er  Er1  1  0.250000  0.750000  0.525109  1
  Er  Er2  1  0.250000  0.932334  0.792699  1
  Er  Er3  1  0.250000  0.567666  0.792699  1
  Er  Er4  1  0.750000  0.067596  0.207176  1
  Er  Er5  1  0.750000  0.432404  0.207176  1
  Co  Co6  1  0.250000  0.250000  0.296235  1
  Co  Co7  1  0.750000  0.750000  0.703420  1
  Co  Co8  1  0.750000  0.250000  0.013002  1
  Co  Co9  1  0.250000  0.750000  0.986907  1
  Co  Co10  1  0.250000  0.417564  0.010300  1
  Co  Co11  1  0.250000  0.082436  0.010300  1
  Co  Co12  1  0.750000  0.582569  0.989697  1
  Co  Co13  1  0.750000  0.917431  0.989697  1
  Co  Co14  1  0.250000  0.452717  0.568765  1
  Co  Co15  1  0.250000  0.047283  0.568765  1
  Co  Co16  1  0.750000  0.547811  0.431257  1
  Co  Co17  1  0.750000  0.952189  0.431257  1
  Co  Co18  1  0.250000  0.871052  0.291776  1
  Co  Co19  1  0.250000  0.628948  0.291776  1
  Co  Co20  1  0.750000  0.128808  0.708367  1
  Co  Co21  1  0.750000  0.371192  0.708367  1
  P  P22  1  0.250000  0.250000  0.119503  1
  P  P23  1  0.750000  0.750000  0.880338  1
  P  P24  1  0.250000  0.250000  0.648714  1
  P  P25  1  0.750000  0.750000  0.351706  1
  P  P26  1  0.250000  0.437901  0.383500  1
  P  P27  1  0.250000  0.062099  0.383500  1
  P  P28  1  0.750000  0.562411  0.616308  1
  P  P29  1  0.750000  0.937589  0.616308  1
  P  P30  1  0.250000  0.903901  0.107687  1
  P  P31  1  0.250000  0.596099  0.107687  1
  P  P32  1  0.750000  0.095933  0.892372  1
  P  P33  1  0.750000  0.404067  0.892372  1
  Os  Os34  1  0.250000  0.250000  0.841048  1
  Os  Os35  1  0.750000  0.750000  0.159245  1
