# generated using pymatgen
data_Mg2NbGaRh4
_symmetry_space_group_name_H-M   'P 1'
_cell_length_a   6.23790812
_cell_length_b   6.24562781
_cell_length_c   6.18533800
_cell_angle_alpha   89.99906881
_cell_angle_beta   89.99979668
_cell_angle_gamma   89.90915829
_symmetry_Int_Tables_number   1
_chemical_formula_structural   Mg2NbGaRh4
_chemical_formula_sum   'Mg4 Nb2 Ga2 Rh8'
_cell_volume   240.97831569
_cell_formula_units_Z   2
loop_
 _symmetry_equiv_pos_site_id
 _symmetry_equiv_pos_as_xyz
  1  'x, y, z'
loop_
 _atom_site_type_symbol
 _atom_site_label
 _atom_site_symmetry_multiplicity
 _atom_site_fract_x
 _atom_site_fract_y
 _atom_site_fract_z
 _atom_site_occupancy
  Mg  Mg0  1  0.749980  0.249971  0.000001  1
  Mg  Mg1  1  0.250020  0.750029  0.999999  1
  Mg  Mg2  1  0.750002  0.250011  0.499998  1
  Mg  Mg3  1  0.249998  0.749989  0.500002  1
  Nb  Nb4  1  0.750055  0.749919  0.500001  1
  Nb  Nb5  1  0.249945  0.250081  0.500000  1
  Ga  Ga6  1  0.250011  0.250001  0.999999  1
  Ga  Ga7  1  0.749989  0.749999  0.000001  1
  Rh  Rh8  1  0.499997  0.999995  0.247709  1
  Rh  Rh9  1  0.499996  0.500001  0.247669  1
  Rh  Rh10  1  0.000005  0.000002  0.247580  1
  Rh  Rh11  1  0.000003  0.500005  0.247665  1
  Rh  Rh12  1  0.999995  0.999998  0.752420  1
  Rh  Rh13  1  0.999997  0.499995  0.752335  1
  Rh  Rh14  1  0.500003  0.000005  0.752291  1
  Rh  Rh15  1  0.500004  0.499999  0.752331  1
