# generated using pymatgen
data_Yb3Ag3GeP2
_symmetry_space_group_name_H-M   'P 1'
_cell_length_a   7.10517300
_cell_length_b   7.10517298
_cell_length_c   4.14491200
_cell_angle_alpha   90.00000000
_cell_angle_beta   90.00000000
_cell_angle_gamma   120.00000477
_symmetry_Int_Tables_number   1
_chemical_formula_structural   Yb3Ag3GeP2
_chemical_formula_sum   'Yb3 Ag3 Ge1 P2'
_cell_volume   181.21545654
_cell_formula_units_Z   1
loop_
 _symmetry_equiv_pos_site_id
 _symmetry_equiv_pos_as_xyz
  1  'x, y, z'
loop_
 _atom_site_type_symbol
 _atom_site_label
 _atom_site_symmetry_multiplicity
 _atom_site_fract_x
 _atom_site_fract_y
 _atom_site_fract_z
 _atom_site_occupancy
  Yb  Yb0  1  0.000000  0.576034  0.000000  1
  Yb  Yb1  1  0.423966  0.423966  0.000000  1
  Yb  Yb2  1  0.576034  0.000000  0.000000  1
  Ag  Ag3  1  0.255013  0.000000  0.500000  1
  Ag  Ag4  1  0.744987  0.744987  0.500000  1
  Ag  Ag5  1  0.000000  0.255013  0.500000  1
  Ge  Ge6  1  0.000000  0.000000  0.000000  1
  P  P7  1  0.666667  0.333333  0.500000  1
  P  P8  1  0.333333  0.666667  0.500000  1
