# generated using pymatgen
data_V2Cr10Si3P
_symmetry_space_group_name_H-M   'P 1'
_cell_length_a   4.51944700
_cell_length_b   4.51812400
_cell_length_c   9.01060800
_cell_angle_alpha   90.00000000
_cell_angle_beta   90.00000000
_cell_angle_gamma   90.00000000
_symmetry_Int_Tables_number   1
_chemical_formula_structural   V2Cr10Si3P
_chemical_formula_sum   'V2 Cr10 Si3 P1'
_cell_volume   183.99140684
_cell_formula_units_Z   1
loop_
 _symmetry_equiv_pos_site_id
 _symmetry_equiv_pos_as_xyz
  1  'x, y, z'
loop_
 _atom_site_type_symbol
 _atom_site_label
 _atom_site_symmetry_multiplicity
 _atom_site_fract_x
 _atom_site_fract_y
 _atom_site_fract_z
 _atom_site_occupancy
  V  V0  1  0.748227  0.000000  0.000000  1
  V  V1  1  0.749489  0.000000  0.500000  1
  Cr  Cr2  1  0.998652  0.500000  0.124477  1
  Cr  Cr3  1  0.999154  0.500000  0.625879  1
  Cr  Cr4  1  0.501179  0.252375  0.751779  1
  Cr  Cr5  1  0.501179  0.252375  0.248221  1
  Cr  Cr6  1  0.998652  0.500000  0.875523  1
  Cr  Cr7  1  0.999154  0.500000  0.374121  1
  Cr  Cr8  1  0.501179  0.747625  0.751779  1
  Cr  Cr9  1  0.501179  0.747625  0.248221  1
  Cr  Cr10  1  0.251650  0.000000  0.000000  1
  Cr  Cr11  1  0.250585  0.000000  0.500000  1
  Si  Si12  1  0.497087  0.500000  0.500000  1
  Si  Si13  1  0.003247  0.000000  0.750047  1
  Si  Si14  1  0.003247  0.000000  0.249953  1
  P  P15  1  0.496140  0.500000  0.000000  1
