# generated using pymatgen
data_Yb2VP3O11
_symmetry_space_group_name_H-M   'P 1'
_cell_length_a   6.74557100
_cell_length_b   6.48840951
_cell_length_c   19.37163600
_cell_angle_alpha   80.76079499
_cell_angle_beta   90.00000000
_cell_angle_gamma   90.00000000
_symmetry_Int_Tables_number   1
_chemical_formula_structural   Yb2VP3O11
_chemical_formula_sum   'Yb8 V4 P12 O44'
_cell_volume   836.85871229
_cell_formula_units_Z   4
loop_
 _symmetry_equiv_pos_site_id
 _symmetry_equiv_pos_as_xyz
  1  'x, y, z'
loop_
 _atom_site_type_symbol
 _atom_site_label
 _atom_site_symmetry_multiplicity
 _atom_site_fract_x
 _atom_site_fract_y
 _atom_site_fract_z
 _atom_site_occupancy
  Yb  Yb0  1  0.136741  0.340590  0.578092  1
  Yb  Yb1  1  0.636741  0.659410  0.921908  1
  Yb  Yb2  1  0.863259  0.659410  0.421908  1
  Yb  Yb3  1  0.363259  0.340590  0.078092  1
  Yb  Yb4  1  0.487268  0.339260  0.765266  1
  Yb  Yb5  1  0.987268  0.660740  0.734734  1
  Yb  Yb6  1  0.512732  0.660740  0.234734  1
  Yb  Yb7  1  0.012732  0.339260  0.265266  1
  V  V8  1  0.643559  0.055909  0.622873  1
  V  V9  1  0.143559  0.944091  0.877127  1
  V  V10  1  0.356441  0.944091  0.377127  1
  V  V11  1  0.856441  0.055909  0.122873  1
  P  P12  1  0.661470  0.575236  0.589633  1
  P  P13  1  0.161470  0.424764  0.910367  1
  P  P14  1  0.338530  0.424764  0.410367  1
  P  P15  1  0.838530  0.575236  0.089633  1
  P  P16  1  0.300061  0.829119  0.549300  1
  P  P17  1  0.800061  0.170881  0.950700  1
  P  P18  1  0.699939  0.170881  0.450700  1
  P  P19  1  0.199939  0.829119  0.049300  1
  P  P20  1  0.487894  0.812325  0.774183  1
  P  P21  1  0.987894  0.187675  0.725817  1
  P  P22  1  0.512106  0.187675  0.225817  1
  P  P23  1  0.012106  0.812325  0.274183  1
  O  O24  1  0.368044  0.019658  0.583659  1
  O  O25  1  0.868044  0.980342  0.916341  1
  O  O26  1  0.631956  0.980342  0.416341  1
  O  O27  1  0.131956  0.019658  0.083659  1
  O  O28  1  0.715056  0.727458  0.640622  1
  O  O29  1  0.215056  0.272542  0.859378  1
  O  O30  1  0.284944  0.272542  0.359378  1
  O  O31  1  0.784944  0.727458  0.140622  1
  O  O32  1  0.165250  0.684011  0.596484  1
  O  O33  1  0.665250  0.315989  0.903516  1
  O  O34  1  0.834750  0.315989  0.403516  1
  O  O35  1  0.334750  0.684011  0.096484  1
  O  O36  1  0.561203  0.373841  0.627881  1
  O  O37  1  0.061203  0.626159  0.872119  1
  O  O38  1  0.438797  0.626159  0.372119  1
  O  O39  1  0.938797  0.373841  0.127881  1
  O  O40  1  0.829844  0.528900  0.542075  1
  O  O41  1  0.329844  0.471100  0.957925  1
  O  O42  1  0.170156  0.471100  0.457925  1
  O  O43  1  0.670156  0.528900  0.042075  1
  O  O44  1  0.773276  0.094480  0.525489  1
  O  O45  1  0.273276  0.905520  0.974511  1
  O  O46  1  0.226724  0.905520  0.474511  1
  O  O47  1  0.726724  0.094480  0.025489  1
  O  O48  1  0.498831  0.695958  0.536310  1
  O  O49  1  0.998831  0.304042  0.963690  1
  O  O50  1  0.501169  0.304042  0.463690  1
  O  O51  1  0.001169  0.695958  0.036310  1
  O  O52  1  0.534569  0.014579  0.721376  1
  O  O53  1  0.034569  0.985421  0.778624  1
  O  O54  1  0.465431  0.985421  0.278624  1
  O  O55  1  0.965431  0.014579  0.221376  1
  O  O56  1  0.331821  0.673234  0.747529  1
  O  O57  1  0.831821  0.326766  0.752471  1
  O  O58  1  0.668179  0.326766  0.252471  1
  O  O59  1  0.168179  0.673234  0.247529  1
  O  O60  1  0.919410  0.104776  0.657147  1
  O  O61  1  0.419410  0.895224  0.842853  1
  O  O62  1  0.080590  0.895224  0.342853  1
  O  O63  1  0.580590  0.104776  0.157147  1
  O  O64  1  0.672995  0.678295  0.796525  1
  O  O65  1  0.172995  0.321705  0.703475  1
  O  O66  1  0.327005  0.321705  0.203475  1
  O  O67  1  0.827005  0.678295  0.296525  1
