# generated using pymatgen
data_Hf3ScCo(SiIr)6
_symmetry_space_group_name_H-M   'P 1'
_cell_length_a   6.94186083
_cell_length_b   6.95986767
_cell_length_c   6.94657900
_cell_angle_alpha   109.37127198
_cell_angle_beta   109.26590769
_cell_angle_gamma   109.80177997
_symmetry_Int_Tables_number   1
_chemical_formula_structural   Hf3ScCo(SiIr)6
_chemical_formula_sum   'Hf3 Sc1 Co1 Si6 Ir6'
_cell_volume   258.27496032
_cell_formula_units_Z   1
loop_
 _symmetry_equiv_pos_site_id
 _symmetry_equiv_pos_as_xyz
  1  'x, y, z'
loop_
 _atom_site_type_symbol
 _atom_site_label
 _atom_site_symmetry_multiplicity
 _atom_site_fract_x
 _atom_site_fract_y
 _atom_site_fract_z
 _atom_site_occupancy
  Hf  Hf0  1  0.999386  0.000585  0.499932  1
  Hf  Hf1  1  0.500496  0.000496  0.000992  1
  Hf  Hf2  1  0.500546  0.499347  0.499932  1
  Sc  Sc3  1  0.999924  0.499924  0.999848  1
  Co  Co4  1  0.748420  0.248420  0.496841  1
  Si  Si5  1  0.684361  0.681647  0.999894  1
  Si  Si6  1  0.325702  0.003381  0.320449  1
  Si  Si7  1  0.994747  0.317068  0.320449  1
  Si  Si8  1  0.315534  0.318247  0.999894  1
  Si  Si9  1  0.685153  0.007860  0.679837  1
  Si  Si10  1  0.994684  0.671977  0.679837  1
  Ir  Ir11  1  0.745735  0.495106  0.251990  1
  Ir  Ir12  1  0.503582  0.252930  0.748034  1
  Ir  Ir13  1  0.244453  0.495104  0.748034  1
  Ir  Ir14  1  0.251051  0.751051  0.502100  1
  Ir  Ir15  1  0.506255  0.756884  0.251990  1
  Ir  Ir16  1  0.999973  0.999973  0.999946  1
