# generated using pymatgen
data_In3Cu3Pd5Pt
_symmetry_space_group_name_H-M   'P 1'
_cell_length_a   4.14530701
_cell_length_b   7.34590000
_cell_length_c   12.43357302
_cell_angle_alpha   90.00000000
_cell_angle_beta   90.00593934
_cell_angle_gamma   90.00000000
_symmetry_Int_Tables_number   1
_chemical_formula_structural   In3Cu3Pd5Pt
_chemical_formula_sum   'In6 Cu6 Pd10 Pt2'
_cell_volume   378.61486334
_cell_formula_units_Z   2
loop_
 _symmetry_equiv_pos_site_id
 _symmetry_equiv_pos_as_xyz
  1  'x, y, z'
loop_
 _atom_site_type_symbol
 _atom_site_label
 _atom_site_symmetry_multiplicity
 _atom_site_fract_x
 _atom_site_fract_y
 _atom_site_fract_z
 _atom_site_occupancy
  In  In0  1  0.000000  0.500000  0.000000  1
  In  In1  1  0.499890  0.000000  0.167195  1
  In  In2  1  0.999966  0.500000  0.333353  1
  In  In3  1  0.500001  0.000000  0.500000  1
  In  In4  1  0.000034  0.500000  0.666647  1
  In  In5  1  0.500109  0.000000  0.832805  1
  Cu  Cu6  1  0.000000  0.000000  0.000000  1
  Cu  Cu7  1  0.500082  0.500000  0.166382  1
  Cu  Cu8  1  0.000068  0.000000  0.333306  1
  Cu  Cu9  1  0.500001  0.500000  0.500000  1
  Cu  Cu10  1  0.999932  0.000000  0.666694  1
  Cu  Cu11  1  0.499920  0.500000  0.833619  1
  Pd  Pd12  1  0.000033  0.249970  0.166761  1
  Pd  Pd13  1  0.000033  0.750031  0.166761  1
  Pd  Pd14  1  0.500056  0.250002  0.333314  1
  Pd  Pd15  1  0.500056  0.749998  0.333314  1
  Pd  Pd16  1  0.000000  0.249926  0.500000  1
  Pd  Pd17  1  0.000000  0.750075  0.500000  1
  Pd  Pd18  1  0.499943  0.250002  0.666686  1
  Pd  Pd19  1  0.499943  0.749998  0.666686  1
  Pd  Pd20  1  0.999967  0.249970  0.833239  1
  Pd  Pd21  1  0.999967  0.750031  0.833239  1
  Pt  Pt22  1  0.500000  0.250025  0.000000  1
  Pt  Pt23  1  0.500000  0.749975  0.000000  1
