# generated using pymatgen
data_Y2Er4Al19Si5Os8
_symmetry_space_group_name_H-M   'P 1'
_cell_length_a   8.69418319
_cell_length_b   8.67941870
_cell_length_c   9.58383400
_cell_angle_alpha   90.00000000
_cell_angle_beta   90.00000000
_cell_angle_gamma   120.07998506
_symmetry_Int_Tables_number   1
_chemical_formula_structural   Y2Er4Al19Si5Os8
_chemical_formula_sum   'Y2 Er4 Al19 Si5 Os8'
_cell_volume   625.80458724
_cell_formula_units_Z   1
loop_
 _symmetry_equiv_pos_site_id
 _symmetry_equiv_pos_as_xyz
  1  'x, y, z'
loop_
 _atom_site_type_symbol
 _atom_site_label
 _atom_site_symmetry_multiplicity
 _atom_site_fract_x
 _atom_site_fract_y
 _atom_site_fract_z
 _atom_site_occupancy
  Y  Y0  1  0.806746  0.612812  0.750000  1
  Y  Y1  1  0.388302  0.193937  0.750000  1
  Er  Er2  1  0.195149  0.389985  0.250000  1
  Er  Er3  1  0.607299  0.805597  0.250000  1
  Er  Er4  1  0.198575  0.805516  0.250000  1
  Er  Er5  1  0.804605  0.195941  0.750000  1
  Al  Al6  1  0.164766  0.329979  0.576649  1
  Al  Al7  1  0.834849  0.669524  0.421686  1
  Al  Al8  1  0.669475  0.835531  0.575268  1
  Al  Al9  1  0.834849  0.669524  0.078314  1
  Al  Al10  1  0.329304  0.165535  0.422142  1
  Al  Al11  1  0.164766  0.329979  0.923351  1
  Al  Al12  1  0.165986  0.834954  0.574992  1
  Al  Al13  1  0.329304  0.165535  0.077858  1
  Al  Al14  1  0.836436  0.165355  0.422682  1
  Al  Al15  1  0.669475  0.835531  0.924732  1
  Al  Al16  1  0.836436  0.165355  0.077318  1
  Al  Al17  1  0.165986  0.834954  0.925008  1
  Al  Al18  1  0.437495  0.874316  0.750000  1
  Al  Al19  1  0.873053  0.433208  0.250000  1
  Al  Al20  1  0.127658  0.564263  0.750000  1
  Al  Al21  1  0.560523  0.433470  0.250000  1
  Al  Al22  1  0.436815  0.564610  0.750000  1
  Al  Al23  1  0.999496  0.998714  0.250000  1
  Al  Al24  1  0.998974  0.002331  0.750000  1
  Si  Si25  1  0.332628  0.665014  0.038961  1
  Si  Si26  1  0.667354  0.334532  0.961510  1
  Si  Si27  1  0.667354  0.334532  0.538490  1
  Si  Si28  1  0.332628  0.665014  0.461039  1
  Si  Si29  1  0.563633  0.126784  0.250000  1
  Os  Os30  1  0.500846  0.001100  0.007002  1
  Os  Os31  1  0.999261  0.498895  0.000928  1
  Os  Os32  1  0.500846  0.001100  0.492998  1
  Os  Os33  1  0.499903  0.499404  0.001250  1
  Os  Os34  1  0.999261  0.498895  0.499072  1
  Os  Os35  1  0.499903  0.499404  0.498750  1
  Os  Os36  1  0.000031  0.999433  0.999891  1
  Os  Os37  1  0.000031  0.999433  0.500109  1
