# generated using pymatgen
data_Ba11Sr2Ga6Si8F
_symmetry_space_group_name_H-M   'P 1'
_cell_length_a   12.03689146
_cell_length_b   12.03689153
_cell_length_c   17.76897098
_cell_angle_alpha   56.22156544
_cell_angle_beta   56.22156906
_cell_angle_gamma   24.22175852
_symmetry_Int_Tables_number   1
_chemical_formula_structural   Ba11Sr2Ga6Si8F
_chemical_formula_sum   'Ba11 Sr2 Ga6 Si8 F1'
_cell_volume   868.84463647
_cell_formula_units_Z   1
loop_
 _symmetry_equiv_pos_site_id
 _symmetry_equiv_pos_as_xyz
  1  'x, y, z'
loop_
 _atom_site_type_symbol
 _atom_site_label
 _atom_site_symmetry_multiplicity
 _atom_site_fract_x
 _atom_site_fract_y
 _atom_site_fract_z
 _atom_site_occupancy
  Ba  Ba0  1  0.191686  0.191686  0.856135  1
  Ba  Ba1  1  0.997161  0.997160  0.349280  1
  Ba  Ba2  1  0.997703  0.997707  0.118607  1
  Ba  Ba3  1  0.189370  0.189369  0.609957  1
  Ba  Ba4  1  0.183740  0.183741  0.109494  1
  Ba  Ba5  1  0.166652  0.166650  0.374038  1
  Ba  Ba6  1  0.833298  0.833296  0.626878  1
  Ba  Ba7  1  0.809098  0.809098  0.390488  1
  Ba  Ba8  1  0.817834  0.817836  0.888883  1
  Ba  Ba9  1  0.808312  0.808313  0.142903  1
  Ba  Ba10  1  0.002058  0.002055  0.882106  1
  Sr  Sr11  1  0.500093  0.500092  0.500835  1
  Sr  Sr12  1  0.002863  0.002865  0.649380  1
  Ga  Ga13  1  0.437499  0.437500  0.807803  1
  Ga  Ga14  1  0.567482  0.567485  0.949388  1
  Ga  Ga15  1  0.429668  0.429670  0.290425  1
  Ga  Ga16  1  0.563779  0.563781  0.189471  1
  Ga  Ga17  1  0.569331  0.569331  0.708784  1
  Ga  Ga18  1  0.432577  0.432578  0.050725  1
  Si  Si19  1  0.635299  0.635299  0.018230  1
  Si  Si20  1  0.639823  0.639823  0.775267  1
  Si  Si21  1  0.359406  0.359406  0.224285  1
  Si  Si22  1  0.378126  0.378127  0.727212  1
  Si  Si23  1  0.371162  0.371162  0.462582  1
  Si  Si24  1  0.625747  0.625746  0.539365  1
  Si  Si25  1  0.624292  0.624292  0.270939  1
  Si  Si26  1  0.365743  0.365744  0.979823  1
  F  F27  1  0.000198  0.000188  0.506717  1
