# generated using pymatgen
data_Pr20Ga4Si7Ir
_symmetry_space_group_name_H-M   'P 1'
_cell_length_a   7.87345572
_cell_length_b   7.87345570
_cell_length_c   14.51232485
_cell_angle_alpha   89.92781696
_cell_angle_beta   90.07218368
_cell_angle_gamma   89.78410476
_symmetry_Int_Tables_number   1
_chemical_formula_structural   Pr20Ga4Si7Ir
_chemical_formula_sum   'Pr20 Ga4 Si7 Ir1'
_cell_volume   899.63013378
_cell_formula_units_Z   1
loop_
 _symmetry_equiv_pos_site_id
 _symmetry_equiv_pos_as_xyz
  1  'x, y, z'
loop_
 _atom_site_type_symbol
 _atom_site_label
 _atom_site_symmetry_multiplicity
 _atom_site_fract_x
 _atom_site_fract_y
 _atom_site_fract_z
 _atom_site_occupancy
  Pr  Pr0  1  0.816360  0.832322  0.607381  1
  Pr  Pr1  1  0.179984  0.839646  0.109864  1
  Pr  Pr2  1  0.162186  0.819342  0.389424  1
  Pr  Pr3  1  0.001886  0.499482  0.723841  1
  Pr  Pr4  1  0.839646  0.179984  0.390136  1
  Pr  Pr5  1  0.684091  0.667790  0.395113  1
  Pr  Pr6  1  0.664888  0.312609  0.606968  1
  Pr  Pr7  1  0.334608  0.686792  0.606797  1
  Pr  Pr8  1  0.005468  0.495401  0.223637  1
  Pr  Pr9  1  0.667790  0.684091  0.104887  1
  Pr  Pr10  1  0.686792  0.334608  0.893203  1
  Pr  Pr11  1  0.832322  0.816360  0.892619  1
  Pr  Pr12  1  0.309558  0.335581  0.390497  1
  Pr  Pr13  1  0.184390  0.167656  0.609460  1
  Pr  Pr14  1  0.819342  0.162186  0.110576  1
  Pr  Pr15  1  0.312609  0.664888  0.893032  1
  Pr  Pr16  1  0.335581  0.309558  0.109503  1
  Pr  Pr17  1  0.495401  0.005468  0.276363  1
  Pr  Pr18  1  0.167656  0.184390  0.890540  1
  Pr  Pr19  1  0.499482  0.001886  0.776159  1
  Ga  Ga20  1  0.998506  0.499385  0.504936  1
  Ga  Ga21  1  0.499524  0.998516  0.495645  1
  Ga  Ga22  1  0.499385  0.998506  0.995064  1
  Ga  Ga23  1  0.998516  0.499524  0.004355  1
  Si  Si24  1  0.616690  0.389268  0.251300  1
  Si  Si25  1  0.113586  0.884653  0.750031  1
  Si  Si26  1  0.386327  0.386327  0.750000  1
  Si  Si27  1  0.389268  0.616690  0.248700  1
  Si  Si28  1  0.881740  0.881740  0.250000  1
  Si  Si29  1  0.614458  0.614458  0.750000  1
  Si  Si30  1  0.884653  0.113586  0.749969  1
  Ir  Ir31  1  0.117304  0.117304  0.250000  1
