# generated using pymatgen
data_Tb11Sc(Si3Os)4
_symmetry_space_group_name_H-M   'P 1'
_cell_length_a   4.19381700
_cell_length_b   10.74899566
_cell_length_c   12.36914008
_cell_angle_alpha   89.77191947
_cell_angle_beta   90.00000000
_cell_angle_gamma   90.00000000
_symmetry_Int_Tables_number   1
_chemical_formula_structural   Tb11Sc(Si3Os)4
_chemical_formula_sum   'Tb11 Sc1 Si12 Os4'
_cell_volume   557.58801495
_cell_formula_units_Z   1
loop_
 _symmetry_equiv_pos_site_id
 _symmetry_equiv_pos_as_xyz
  1  'x, y, z'
loop_
 _atom_site_type_symbol
 _atom_site_label
 _atom_site_symmetry_multiplicity
 _atom_site_fract_x
 _atom_site_fract_y
 _atom_site_fract_z
 _atom_site_occupancy
  Tb  Tb0  1  0.250000  0.882262  0.019836  1
  Tb  Tb1  1  0.250000  0.618056  0.521619  1
  Tb  Tb2  1  0.750000  0.119037  0.975837  1
  Tb  Tb3  1  0.750000  0.377746  0.480863  1
  Tb  Tb4  1  0.250000  0.922809  0.605357  1
  Tb  Tb5  1  0.250000  0.580027  0.104170  1
  Tb  Tb6  1  0.750000  0.078962  0.397440  1
  Tb  Tb7  1  0.750000  0.417826  0.893565  1
  Tb  Tb8  1  0.250000  0.661170  0.800285  1
  Tb  Tb9  1  0.250000  0.838565  0.300838  1
  Tb  Tb10  1  0.750000  0.336562  0.199284  1
  Sc  Sc11  1  0.750000  0.164082  0.702063  1
  Si  Si12  1  0.250000  0.011403  0.818286  1
  Si  Si13  1  0.250000  0.492465  0.320666  1
  Si  Si14  1  0.750000  0.994428  0.179426  1
  Si  Si15  1  0.750000  0.507377  0.679504  1
  Si  Si16  1  0.250000  0.245141  0.836289  1
  Si  Si17  1  0.250000  0.250590  0.343863  1
  Si  Si18  1  0.750000  0.752370  0.158220  1
  Si  Si19  1  0.750000  0.748512  0.657697  1
  Si  Si20  1  0.250000  0.200464  0.553457  1
  Si  Si21  1  0.250000  0.295563  0.041610  1
  Si  Si22  1  0.750000  0.796447  0.457199  1
  Si  Si23  1  0.750000  0.704413  0.955535  1
  Os  Os24  1  0.250000  0.387017  0.681061  1
  Os  Os25  1  0.250000  0.112891  0.181417  1
  Os  Os26  1  0.750000  0.611728  0.319100  1
  Os  Os27  1  0.750000  0.892088  0.815513  1
