# generated using pymatgen
data_Pr6Hg4Pd12Rh
_symmetry_space_group_name_H-M   'P 1'
_cell_length_a   8.58463359
_cell_length_b   8.58463291
_cell_length_c   8.58463400
_cell_angle_alpha   109.47122556
_cell_angle_beta   109.47122396
_cell_angle_gamma   109.47121890
_symmetry_Int_Tables_number   1
_chemical_formula_structural   Pr6Hg4Pd12Rh
_chemical_formula_sum   'Pr6 Hg4 Pd12 Rh1'
_cell_volume   487.01613585
_cell_formula_units_Z   1
loop_
 _symmetry_equiv_pos_site_id
 _symmetry_equiv_pos_as_xyz
  1  'x, y, z'
loop_
 _atom_site_type_symbol
 _atom_site_label
 _atom_site_symmetry_multiplicity
 _atom_site_fract_x
 _atom_site_fract_y
 _atom_site_fract_z
 _atom_site_occupancy
  Pr  Pr0  1  0.000000  0.296982  0.296982  1
  Pr  Pr1  1  0.000000  0.703018  0.703018  1
  Pr  Pr2  1  0.296982  0.000000  0.296982  1
  Pr  Pr3  1  0.703018  0.703018  0.000000  1
  Pr  Pr4  1  0.703018  0.000000  0.703018  1
  Pr  Pr5  1  0.296982  0.296982  0.000000  1
  Hg  Hg6  1  0.000000  0.000000  0.500000  1
  Hg  Hg7  1  0.500000  0.000000  0.000000  1
  Hg  Hg8  1  0.000000  0.500000  0.000000  1
  Hg  Hg9  1  0.500000  0.500000  0.500000  1
  Pd  Pd10  1  0.343917  0.656083  0.000000  1
  Pd  Pd11  1  0.000000  0.343917  0.656083  1
  Pd  Pd12  1  0.656083  0.000000  0.343917  1
  Pd  Pd13  1  0.312165  0.656083  0.656083  1
  Pd  Pd14  1  0.656083  0.312165  0.656083  1
  Pd  Pd15  1  0.687835  0.343917  0.343917  1
  Pd  Pd16  1  0.343917  0.687835  0.343917  1
  Pd  Pd17  1  0.343917  0.343917  0.687835  1
  Pd  Pd18  1  0.000000  0.656083  0.343917  1
  Pd  Pd19  1  0.656083  0.656083  0.312165  1
  Pd  Pd20  1  0.343917  0.000000  0.656083  1
  Pd  Pd21  1  0.656083  0.343917  0.000000  1
  Rh  Rh22  1  0.000000  0.000000  0.000000  1
