# generated using pymatgen
data_BaCe(BIr)8
_symmetry_space_group_name_H-M   'P 1'
_cell_length_a   3.97774000
_cell_length_b   7.78922500
_cell_length_c   7.78922500
_cell_angle_alpha   90.00000000
_cell_angle_beta   90.00000000
_cell_angle_gamma   90.00000000
_symmetry_Int_Tables_number   1
_chemical_formula_structural   BaCe(BIr)8
_chemical_formula_sum   'Ba1 Ce1 B8 Ir8'
_cell_volume   241.33754510
_cell_formula_units_Z   1
loop_
 _symmetry_equiv_pos_site_id
 _symmetry_equiv_pos_as_xyz
  1  'x, y, z'
loop_
 _atom_site_type_symbol
 _atom_site_label
 _atom_site_symmetry_multiplicity
 _atom_site_fract_x
 _atom_site_fract_y
 _atom_site_fract_z
 _atom_site_occupancy
  Ba  Ba0  1  0.250000  0.250000  0.250000  1
  Ce  Ce1  1  0.750000  0.750000  0.750000  1
  B  B2  1  0.357978  0.905775  0.027014  1
  B  B3  1  0.357978  0.594225  0.472986  1
  B  B4  1  0.854452  0.533611  0.088601  1
  B  B5  1  0.854452  0.966389  0.411399  1
  B  B6  1  0.645548  0.088601  0.966389  1
  B  B7  1  0.645548  0.411399  0.533611  1
  B  B8  1  0.142022  0.472986  0.905775  1
  B  B9  1  0.142022  0.027014  0.594225  1
  Ir  Ir10  1  0.141841  0.415487  0.641098  1
  Ir  Ir11  1  0.141841  0.084513  0.858902  1
  Ir  Ir12  1  0.646554  0.138956  0.600460  1
  Ir  Ir13  1  0.646554  0.361044  0.899540  1
  Ir  Ir14  1  0.853446  0.600460  0.361044  1
  Ir  Ir15  1  0.853446  0.899540  0.138956  1
  Ir  Ir16  1  0.358159  0.858902  0.415487  1
  Ir  Ir17  1  0.358159  0.641098  0.084513  1
