# generated using pymatgen
data_ThZr2Ti(PN3)4
_symmetry_space_group_name_H-M   'P 1'
_cell_length_a   6.67048979
_cell_length_b   6.67048938
_cell_length_c   5.32801805
_cell_angle_alpha   78.60505271
_cell_angle_beta   78.60506437
_cell_angle_gamma   84.50504432
_symmetry_Int_Tables_number   1
_chemical_formula_structural   ThZr2Ti(PN3)4
_chemical_formula_sum   'Th1 Zr2 Ti1 P4 N12'
_cell_volume   227.42128210
_cell_formula_units_Z   1
loop_
 _symmetry_equiv_pos_site_id
 _symmetry_equiv_pos_as_xyz
  1  'x, y, z'
loop_
 _atom_site_type_symbol
 _atom_site_label
 _atom_site_symmetry_multiplicity
 _atom_site_fract_x
 _atom_site_fract_y
 _atom_site_fract_z
 _atom_site_occupancy
  Th  Th0  1  0.678481  0.321519  0.750000  1
  Zr  Zr1  1  0.911277  0.088723  0.250000  1
  Zr  Zr2  1  0.319048  0.680952  0.250000  1
  Ti  Ti3  1  0.113420  0.886580  0.750000  1
  P  P4  1  0.193218  0.381531  0.763124  1
  P  P5  1  0.376228  0.196800  0.268978  1
  P  P6  1  0.803200  0.623772  0.231022  1
  P  P7  1  0.618469  0.806782  0.736876  1
  N  N8  1  0.314842  0.380333  0.014525  1
  N  N9  1  0.028678  0.207859  0.840176  1
  N  N10  1  0.991536  0.777125  0.134923  1
  N  N11  1  0.369134  0.342446  0.495945  1
  N  N12  1  0.608819  0.123037  0.173126  1
  N  N13  1  0.381533  0.877086  0.844827  1
  N  N14  1  0.876963  0.391181  0.326874  1
  N  N15  1  0.657554  0.630866  0.004055  1
  N  N16  1  0.792141  0.971322  0.659824  1
  N  N17  1  0.122914  0.618467  0.655173  1
  N  N18  1  0.222875  0.008464  0.365077  1
  N  N19  1  0.619667  0.685158  0.485475  1
