# generated using pymatgen
data_Yb3PrEr2(CoSn6)2
_symmetry_space_group_name_H-M   'P 1'
_cell_length_a   8.38607962
_cell_length_b   8.38607927
_cell_length_c   13.29093003
_cell_angle_alpha   90.17952276
_cell_angle_beta   89.82047709
_cell_angle_gamma   147.84017213
_symmetry_Int_Tables_number   1
_chemical_formula_structural   Yb3PrEr2(CoSn6)2
_chemical_formula_sum   'Yb3 Pr1 Er2 Co2 Sn12'
_cell_volume   497.52336337
_cell_formula_units_Z   1
loop_
 _symmetry_equiv_pos_site_id
 _symmetry_equiv_pos_as_xyz
  1  'x, y, z'
loop_
 _atom_site_type_symbol
 _atom_site_label
 _atom_site_symmetry_multiplicity
 _atom_site_fract_x
 _atom_site_fract_y
 _atom_site_fract_z
 _atom_site_occupancy
  Yb  Yb0  1  0.100342  0.899658  0.597451  1
  Yb  Yb1  1  0.100227  0.899773  0.902279  1
  Yb  Yb2  1  0.899939  0.100061  0.403566  1
  Pr  Pr3  1  0.900342  0.099658  0.093623  1
  Er  Er4  1  0.900868  0.099132  0.752813  1
  Er  Er5  1  0.099568  0.900432  0.249768  1
  Co  Co6  1  0.297510  0.702490  0.250611  1
  Co  Co7  1  0.703699  0.296301  0.749061  1
  Sn  Sn8  1  0.758621  0.241379  0.571918  1
  Sn  Sn9  1  0.425540  0.574460  0.578962  1
  Sn  Sn10  1  0.574480  0.425520  0.423568  1
  Sn  Sn11  1  0.731725  0.268275  0.249843  1
  Sn  Sn12  1  0.267946  0.732054  0.749661  1
  Sn  Sn13  1  0.240376  0.759624  0.072430  1
  Sn  Sn14  1  0.242330  0.757670  0.428182  1
  Sn  Sn15  1  0.573460  0.426540  0.077231  1
  Sn  Sn16  1  0.455616  0.544384  0.252705  1
  Sn  Sn17  1  0.545843  0.454157  0.748651  1
  Sn  Sn18  1  0.754981  0.245019  0.927780  1
  Sn  Sn19  1  0.426590  0.573410  0.919898  1
