# generated using pymatgen
data_IrSBr
_symmetry_space_group_name_H-M   'P 1'
_cell_length_a   3.62922500
_cell_length_b   4.64229700
_cell_length_c   8.70655300
_cell_angle_alpha   90.00000000
_cell_angle_beta   90.00000000
_cell_angle_gamma   90.00000000
_symmetry_Int_Tables_number   1
_chemical_formula_structural   IrSBr
_chemical_formula_sum   'Ir2 S2 Br2'
_cell_volume   146.68748542
_cell_formula_units_Z   2
loop_
 _symmetry_equiv_pos_site_id
 _symmetry_equiv_pos_as_xyz
  1  'x, y, z'
loop_
 _atom_site_type_symbol
 _atom_site_label
 _atom_site_symmetry_multiplicity
 _atom_site_fract_x
 _atom_site_fract_y
 _atom_site_fract_z
 _atom_site_occupancy
  Ir  Ir0  1  0.500000  0.000000  0.881991  1
  Ir  Ir1  1  0.000000  0.500000  0.118009  1
  S  S2  1  0.500000  0.500000  0.946457  1
  S  S3  1  0.000000  0.000000  0.053543  1
  Br  Br4  1  0.000000  0.000000  0.673160  1
  Br  Br5  1  0.500000  0.500000  0.326840  1
