# generated using pymatgen
data_Sr8TbYb11Pt16
_symmetry_space_group_name_H-M   'P 1'
_cell_length_a   7.68322963
_cell_length_b   7.84026794
_cell_length_c   14.87616564
_cell_angle_alpha   89.99738126
_cell_angle_beta   90.05331464
_cell_angle_gamma   89.88553398
_symmetry_Int_Tables_number   1
_chemical_formula_structural   Sr8TbYb11Pt16
_chemical_formula_sum   'Sr8 Tb1 Yb11 Pt16'
_cell_volume   896.11690052
_cell_formula_units_Z   1
loop_
 _symmetry_equiv_pos_site_id
 _symmetry_equiv_pos_as_xyz
  1  'x, y, z'
loop_
 _atom_site_type_symbol
 _atom_site_label
 _atom_site_symmetry_multiplicity
 _atom_site_fract_x
 _atom_site_fract_y
 _atom_site_fract_z
 _atom_site_occupancy
  Sr  Sr0  1  0.502351  0.325564  0.903584  1
  Sr  Sr1  1  0.000919  0.176728  0.595168  1
  Sr  Sr2  1  0.498444  0.675313  0.403291  1
  Sr  Sr3  1  0.997914  0.823942  0.097248  1
  Sr  Sr4  1  0.498908  0.674402  0.098589  1
  Sr  Sr5  1  0.998360  0.824325  0.403174  1
  Sr  Sr6  1  0.502474  0.323892  0.595616  1
  Sr  Sr7  1  0.000116  0.178072  0.903579  1
  Tb  Tb8  1  0.338989  0.832810  0.876540  1
  Yb  Yb9  1  0.838944  0.665959  0.622422  1
  Yb  Yb10  1  0.660991  0.166896  0.376932  1
  Yb  Yb11  1  0.160267  0.333389  0.123288  1
  Yb  Yb12  1  0.661246  0.167289  0.123282  1
  Yb  Yb13  1  0.161019  0.333421  0.377004  1
  Yb  Yb14  1  0.338798  0.832801  0.622726  1
  Yb  Yb15  1  0.839264  0.666761  0.877260  1
  Yb  Yb16  1  0.175701  0.495969  0.748437  1
  Yb  Yb17  1  0.679821  0.003245  0.748611  1
  Yb  Yb18  1  0.822948  0.501418  0.250645  1
  Yb  Yb19  1  0.322621  0.997981  0.250766  1
  Pt  Pt20  1  0.331072  0.037664  0.040106  1
  Pt  Pt21  1  0.834540  0.460222  0.457351  1
  Pt  Pt22  1  0.665406  0.960314  0.542761  1
  Pt  Pt23  1  0.167795  0.546978  0.956391  1
  Pt  Pt24  1  0.661198  0.958699  0.955805  1
  Pt  Pt25  1  0.165058  0.538171  0.543011  1
  Pt  Pt26  1  0.335671  0.039110  0.457274  1
  Pt  Pt27  1  0.837850  0.460559  0.042293  1
  Pt  Pt28  1  0.542481  0.631247  0.753643  1
  Pt  Pt29  1  0.046862  0.868694  0.751560  1
  Pt  Pt30  1  0.454720  0.369955  0.249844  1
  Pt  Pt31  1  0.955181  0.129370  0.250157  1
  Pt  Pt32  1  0.306350  0.121855  0.752143  1
  Pt  Pt33  1  0.800467  0.376889  0.749345  1
  Pt  Pt34  1  0.697524  0.875666  0.250120  1
  Pt  Pt35  1  0.197728  0.624427  0.250034  1
