# generated using pymatgen
data_Er2MnNiO6
_symmetry_space_group_name_H-M   'P 1'
_cell_length_a   5.23236398
_cell_length_b   5.56257900
_cell_length_c   7.54516656
_cell_angle_alpha   90.00071345
_cell_angle_beta   89.49086185
_cell_angle_gamma   89.99919408
_symmetry_Int_Tables_number   1
_chemical_formula_structural   Er2MnNiO6
_chemical_formula_sum   'Er4 Mn2 Ni2 O12'
_cell_volume   219.59670725
_cell_formula_units_Z   2
loop_
 _symmetry_equiv_pos_site_id
 _symmetry_equiv_pos_as_xyz
  1  'x, y, z'
loop_
 _atom_site_type_symbol
 _atom_site_label
 _atom_site_symmetry_multiplicity
 _atom_site_fract_x
 _atom_site_fract_y
 _atom_site_fract_z
 _atom_site_occupancy
  Er  Er0  1  0.979871  0.072631  0.248551  1
  Er  Er1  1  0.479876  0.427372  0.748551  1
  Er  Er2  1  0.020129  0.927369  0.751448  1
  Er  Er3  1  0.520123  0.572628  0.251449  1
  Mn  Mn4  1  0.000002  0.499998  0.500001  1
  Mn  Mn5  1  0.500002  0.000001  0.000000  1
  Ni  Ni6  1  0.500000  0.000000  0.500000  1
  Ni  Ni7  1  0.000000  0.500000  0.000000  1
  O  O8  1  0.114298  0.459230  0.258077  1
  O  O9  1  0.614305  0.040770  0.758076  1
  O  O10  1  0.885701  0.540770  0.741924  1
  O  O11  1  0.385695  0.959230  0.241923  1
  O  O12  1  0.300060  0.686050  0.555030  1
  O  O13  1  0.800069  0.813963  0.055031  1
  O  O14  1  0.699939  0.313950  0.444970  1
  O  O15  1  0.199931  0.186037  0.944968  1
  O  O16  1  0.181245  0.205438  0.560261  1
  O  O17  1  0.681239  0.294569  0.060260  1
  O  O18  1  0.818755  0.794562  0.439739  1
  O  O19  1  0.318761  0.705432  0.939739  1
