# generated using pymatgen
data_Lu6Ti7Al9Ir8
_symmetry_space_group_name_H-M   'P 1'
_cell_length_a   9.00328133
_cell_length_b   9.00328179
_cell_length_c   9.00328242
_cell_angle_alpha   60.10632612
_cell_angle_beta   60.10633147
_cell_angle_gamma   60.10633888
_symmetry_Int_Tables_number   1
_chemical_formula_structural   Lu6Ti7Al9Ir8
_chemical_formula_sum   'Lu6 Ti7 Al9 Ir8'
_cell_volume   517.28821137
_cell_formula_units_Z   1
loop_
 _symmetry_equiv_pos_site_id
 _symmetry_equiv_pos_as_xyz
  1  'x, y, z'
loop_
 _atom_site_type_symbol
 _atom_site_label
 _atom_site_symmetry_multiplicity
 _atom_site_fract_x
 _atom_site_fract_y
 _atom_site_fract_z
 _atom_site_occupancy
  Lu  Lu0  1  0.211772  0.211772  0.789385  1
  Lu  Lu1  1  0.789385  0.211772  0.211772  1
  Lu  Lu2  1  0.211772  0.789385  0.211772  1
  Lu  Lu3  1  0.794273  0.794273  0.196180  1
  Lu  Lu4  1  0.196180  0.794273  0.794273  1
  Lu  Lu5  1  0.794273  0.196180  0.794273  1
  Ti  Ti6  1  0.379151  0.379151  0.379151  1
  Ti  Ti7  1  0.381454  0.861857  0.381454  1
  Ti  Ti8  1  0.861857  0.381454  0.381454  1
  Ti  Ti9  1  0.381454  0.381454  0.861857  1
  Ti  Ti10  1  0.833152  0.500352  0.833152  1
  Ti  Ti11  1  0.500352  0.833152  0.833152  1
  Ti  Ti12  1  0.833152  0.833152  0.500352  1
  Al  Al13  1  0.169887  0.169887  0.169887  1
  Al  Al14  1  0.169359  0.493706  0.169359  1
  Al  Al15  1  0.493706  0.169359  0.169359  1
  Al  Al16  1  0.169359  0.169359  0.493706  1
  Al  Al17  1  0.618829  0.618829  0.618829  1
  Al  Al18  1  0.618010  0.144573  0.618010  1
  Al  Al19  1  0.144573  0.618010  0.618010  1
  Al  Al20  1  0.618010  0.618010  0.144573  1
  Al  Al21  1  0.824380  0.824380  0.824380  1
  Ir  Ir22  1  0.000849  0.000849  0.496706  1
  Ir  Ir23  1  0.496706  0.000849  0.000849  1
  Ir  Ir24  1  0.000849  0.496706  0.000849  1
  Ir  Ir25  1  0.502071  0.502071  0.999084  1
  Ir  Ir26  1  0.999084  0.502071  0.502071  1
  Ir  Ir27  1  0.502071  0.999084  0.502071  1
  Ir  Ir28  1  0.500437  0.500437  0.500437  1
  Ir  Ir29  1  0.003591  0.003591  0.003591  1
