# generated using pymatgen
data_Th4Mg2RhAu3
_symmetry_space_group_name_H-M   'P 1'
_cell_length_a   8.03088810
_cell_length_b   3.93312300
_cell_length_c   8.03088810
_cell_angle_alpha   90.00000000
_cell_angle_beta   90.70756836
_cell_angle_gamma   90.00000000
_symmetry_Int_Tables_number   1
_chemical_formula_structural   Th4Mg2RhAu3
_chemical_formula_sum   'Th4 Mg2 Rh1 Au3'
_cell_volume   253.64806852
_cell_formula_units_Z   1
loop_
 _symmetry_equiv_pos_site_id
 _symmetry_equiv_pos_as_xyz
  1  'x, y, z'
loop_
 _atom_site_type_symbol
 _atom_site_label
 _atom_site_symmetry_multiplicity
 _atom_site_fract_x
 _atom_site_fract_y
 _atom_site_fract_z
 _atom_site_occupancy
  Th  Th0  1  0.343300  0.500000  0.175803  1
  Th  Th1  1  0.812580  0.500000  0.312580  1
  Th  Th2  1  0.169841  0.500000  0.669842  1
  Th  Th3  1  0.675804  0.500000  0.843300  1
  Mg  Mg4  1  0.001637  0.000000  0.001907  1
  Mg  Mg5  1  0.501907  0.000000  0.501637  1
  Rh  Rh6  1  0.631379  0.000000  0.131378  1
  Au  Au7  1  0.128733  0.000000  0.366357  1
  Au  Au8  1  0.866358  0.000000  0.628734  1
  Au  Au9  1  0.368465  0.000000  0.868466  1
