# generated using pymatgen
data_TbErMn2F14
_symmetry_space_group_name_H-M   'P 1'
_cell_length_a   5.41423922
_cell_length_b   8.71086136
_cell_length_c   11.70393361
_cell_angle_alpha   62.31353823
_cell_angle_beta   90.07310088
_cell_angle_gamma   90.05572203
_symmetry_Int_Tables_number   1
_chemical_formula_structural   TbErMn2F14
_chemical_formula_sum   'Tb2 Er2 Mn4 F28'
_cell_volume   488.78767868
_cell_formula_units_Z   2
loop_
 _symmetry_equiv_pos_site_id
 _symmetry_equiv_pos_as_xyz
  1  'x, y, z'
loop_
 _atom_site_type_symbol
 _atom_site_label
 _atom_site_symmetry_multiplicity
 _atom_site_fract_x
 _atom_site_fract_y
 _atom_site_fract_z
 _atom_site_occupancy
  Tb  Tb0  1  0.761251  0.188475  0.236077  1
  Tb  Tb1  1  0.238749  0.811525  0.763923  1
  Er  Er2  1  0.261536  0.810688  0.263869  1
  Er  Er3  1  0.738464  0.189312  0.736131  1
  Mn  Mn4  1  0.758591  0.726763  0.043274  1
  Mn  Mn5  1  0.241409  0.273237  0.956726  1
  Mn  Mn6  1  0.258873  0.275042  0.457696  1
  Mn  Mn7  1  0.741127  0.724958  0.542304  1
  F  F8  1  0.931953  0.707351  0.419548  1
  F  F9  1  0.068047  0.292649  0.580452  1
  F  F10  1  0.430396  0.292815  0.079443  1
  F  F11  1  0.569604  0.707185  0.920557  1
  F  F12  1  0.477527  0.728776  0.131774  1
  F  F13  1  0.522473  0.271224  0.868226  1
  F  F14  1  0.978589  0.272166  0.369290  1
  F  F15  1  0.021411  0.727834  0.630710  1
  F  F16  1  0.948207  0.741056  0.170447  1
  F  F17  1  0.051793  0.258944  0.829553  1
  F  F18  1  0.445268  0.260283  0.330378  1
  F  F19  1  0.554732  0.739717  0.669622  1
  F  F20  1  0.769675  0.488425  0.137055  1
  F  F21  1  0.230325  0.511575  0.862945  1
  F  F22  1  0.269894  0.513871  0.362682  1
  F  F23  1  0.730106  0.486129  0.637318  1
  F  F24  1  0.954455  0.281789  0.039380  1
  F  F25  1  0.045545  0.718211  0.960620  1
  F  F26  1  0.452818  0.718590  0.458909  1
  F  F27  1  0.547182  0.281410  0.541091  1
  F  F28  1  0.739385  0.962336  0.453044  1
  F  F29  1  0.260615  0.037664  0.546956  1
  F  F30  1  0.239191  0.036057  0.047876  1
  F  F31  1  0.760809  0.963943  0.952124  1
  F  F32  1  0.592785  0.965554  0.228255  1
  F  F33  1  0.407215  0.034446  0.771745  1
  F  F34  1  0.098260  0.029423  0.272102  1
  F  F35  1  0.901740  0.970577  0.727898  1
