# generated using pymatgen
data_Pr2DySbO7
_symmetry_space_group_name_H-M   'P 1'
_cell_length_a   6.52594575
_cell_length_b   6.80855485
_cell_length_c   7.66211700
_cell_angle_alpha   106.44849599
_cell_angle_beta   89.61706220
_cell_angle_gamma   99.06553050
_symmetry_Int_Tables_number   1
_chemical_formula_structural   Pr2DySbO7
_chemical_formula_sum   'Pr4 Dy2 Sb2 O14'
_cell_volume   322.17509847
_cell_formula_units_Z   2
loop_
 _symmetry_equiv_pos_site_id
 _symmetry_equiv_pos_as_xyz
  1  'x, y, z'
loop_
 _atom_site_type_symbol
 _atom_site_label
 _atom_site_symmetry_multiplicity
 _atom_site_fract_x
 _atom_site_fract_y
 _atom_site_fract_z
 _atom_site_occupancy
  Pr  Pr0  1  0.262949  0.537791  0.883633  1
  Pr  Pr1  1  0.737051  0.462209  0.116367  1
  Pr  Pr2  1  0.742006  0.471525  0.615468  1
  Pr  Pr3  1  0.257994  0.528475  0.384532  1
  Dy  Dy4  1  0.539727  0.995560  0.747247  1
  Dy  Dy5  1  0.460273  0.004440  0.252753  1
  Sb  Sb6  1  0.000000  0.000000  0.500000  1
  Sb  Sb7  1  0.000000  0.000000  0.000000  1
  O  O8  1  0.447026  0.660464  0.168907  1
  O  O9  1  0.552974  0.339536  0.831093  1
  O  O10  1  0.291023  0.945138  0.954324  1
  O  O11  1  0.708977  0.054862  0.045676  1
  O  O12  1  0.288525  0.942246  0.518282  1
  O  O13  1  0.711475  0.057754  0.481718  1
  O  O14  1  0.538609  0.348266  0.339987  1
  O  O15  1  0.461391  0.651734  0.660013  1
  O  O16  1  0.924714  0.685094  0.943086  1
  O  O17  1  0.075286  0.314906  0.056914  1
  O  O18  1  0.076090  0.318468  0.601216  1
  O  O19  1  0.923910  0.681532  0.398784  1
  O  O20  1  0.901711  0.956056  0.738394  1
  O  O21  1  0.098289  0.043944  0.261606  1
