# generated using pymatgen
data_BaSrVN3
_symmetry_space_group_name_H-M   'P 1'
_cell_length_a   6.40480748
_cell_length_b   6.40480712
_cell_length_c   12.62848400
_cell_angle_alpha   90.00000000
_cell_angle_beta   90.00000000
_cell_angle_gamma   125.67838920
_symmetry_Int_Tables_number   1
_chemical_formula_structural   BaSrVN3
_chemical_formula_sum   'Ba4 Sr4 V4 N12'
_cell_volume   420.80579862
_cell_formula_units_Z   4
loop_
 _symmetry_equiv_pos_site_id
 _symmetry_equiv_pos_as_xyz
  1  'x, y, z'
loop_
 _atom_site_type_symbol
 _atom_site_label
 _atom_site_symmetry_multiplicity
 _atom_site_fract_x
 _atom_site_fract_y
 _atom_site_fract_z
 _atom_site_occupancy
  Ba  Ba0  1  0.448677  0.551323  0.645557  1
  Ba  Ba1  1  0.551323  0.448677  0.354443  1
  Ba  Ba2  1  0.051323  0.948677  0.145557  1
  Ba  Ba3  1  0.948677  0.051323  0.854443  1
  Sr  Sr4  1  0.856776  0.143224  0.422444  1
  Sr  Sr5  1  0.356776  0.643224  0.077556  1
  Sr  Sr6  1  0.643224  0.356776  0.922444  1
  Sr  Sr7  1  0.143224  0.856776  0.577556  1
  V  V8  1  0.758171  0.241829  0.663701  1
  V  V9  1  0.741829  0.258171  0.163701  1
  V  V10  1  0.241829  0.758171  0.336299  1
  V  V11  1  0.258171  0.741829  0.836299  1
  N  N12  1  0.972304  0.527696  0.750000  1
  N  N13  1  0.527696  0.972304  0.250000  1
  N  N14  1  0.027696  0.472304  0.250000  1
  N  N15  1  0.472304  0.027696  0.750000  1
  N  N16  1  0.410936  0.589064  0.873041  1
  N  N17  1  0.589064  0.410936  0.126959  1
  N  N18  1  0.089064  0.910936  0.373041  1
  N  N19  1  0.668254  0.331746  0.548998  1
  N  N20  1  0.168254  0.831746  0.951002  1
  N  N21  1  0.831746  0.168254  0.048998  1
  N  N22  1  0.331746  0.668254  0.451002  1
  N  N23  1  0.910936  0.089064  0.626959  1
