# generated using pymatgen
data_Ti13P8W
_symmetry_space_group_name_H-M   'P 1'
_cell_length_a   7.51321124
_cell_length_b   7.51321160
_cell_length_c   13.58598812
_cell_angle_alpha   75.64960325
_cell_angle_beta   75.64960208
_cell_angle_gamma   26.18991674
_symmetry_Int_Tables_number   1
_chemical_formula_structural   Ti13P8W
_chemical_formula_sum   'Ti13 P8 W1'
_cell_volume   327.33047121
_cell_formula_units_Z   1
loop_
 _symmetry_equiv_pos_site_id
 _symmetry_equiv_pos_as_xyz
  1  'x, y, z'
loop_
 _atom_site_type_symbol
 _atom_site_label
 _atom_site_symmetry_multiplicity
 _atom_site_fract_x
 _atom_site_fract_y
 _atom_site_fract_z
 _atom_site_occupancy
  Ti  Ti0  1  0.000000  0.000000  0.000000  1
  Ti  Ti1  1  0.429942  0.429942  0.171705  1
  Ti  Ti2  1  0.570058  0.570058  0.828295  1
  Ti  Ti3  1  0.196637  0.196637  0.690005  1
  Ti  Ti4  1  0.803363  0.803363  0.309995  1
  Ti  Ti5  1  0.206334  0.206334  0.206526  1
  Ti  Ti6  1  0.793666  0.793666  0.793474  1
  Ti  Ti7  1  0.339685  0.339685  0.969439  1
  Ti  Ti8  1  0.660315  0.660315  0.030561  1
  Ti  Ti9  1  0.003959  0.003959  0.339660  1
  Ti  Ti10  1  0.996041  0.996041  0.660340  1
  Ti  Ti11  1  0.176392  0.176392  0.459077  1
  Ti  Ti12  1  0.823608  0.823608  0.540923  1
  P  P13  1  0.176751  0.176751  0.889564  1
  P  P14  1  0.823249  0.823249  0.110436  1
  P  P15  1  0.372370  0.372370  0.395567  1
  P  P16  1  0.627630  0.627630  0.604433  1
  P  P17  1  0.368899  0.368899  0.658990  1
  P  P18  1  0.631101  0.631101  0.341010  1
  P  P19  1  0.062475  0.062475  0.150622  1
  P  P20  1  0.937525  0.937525  0.849378  1
  W  W21  1  0.500000  0.500000  0.500000  1
