# generated using pymatgen
data_Ce3Er(B2Os)4
_symmetry_space_group_name_H-M   'P 1'
_cell_length_a   5.35362300
_cell_length_b   5.88753600
_cell_length_c   6.47477598
_cell_angle_alpha   89.73503504
_cell_angle_beta   90.00000000
_cell_angle_gamma   90.00000000
_symmetry_Int_Tables_number   1
_chemical_formula_structural   Ce3Er(B2Os)4
_chemical_formula_sum   'Ce3 Er1 B8 Os4'
_cell_volume   204.08047835
_cell_formula_units_Z   1
loop_
 _symmetry_equiv_pos_site_id
 _symmetry_equiv_pos_as_xyz
  1  'x, y, z'
loop_
 _atom_site_type_symbol
 _atom_site_label
 _atom_site_symmetry_multiplicity
 _atom_site_fract_x
 _atom_site_fract_y
 _atom_site_fract_z
 _atom_site_occupancy
  Ce  Ce0  1  0.250000  0.003238  0.339495  1
  Ce  Ce1  1  0.250000  0.504374  0.163657  1
  Ce  Ce2  1  0.750000  0.993920  0.657858  1
  Er  Er3  1  0.750000  0.494452  0.838186  1
  B  B4  1  0.085962  0.370796  0.539972  1
  B  B5  1  0.415761  0.869349  0.961493  1
  B  B6  1  0.586784  0.627295  0.465152  1
  B  B7  1  0.914325  0.133335  0.034507  1
  B  B8  1  0.913216  0.627295  0.465152  1
  B  B9  1  0.585675  0.133335  0.034507  1
  B  B10  1  0.414038  0.370796  0.539972  1
  B  B11  1  0.084239  0.869349  0.961493  1
  Os  Os12  1  0.250000  0.184629  0.814054  1
  Os  Os13  1  0.250000  0.685828  0.686738  1
  Os  Os14  1  0.750000  0.818453  0.187912  1
  Os  Os15  1  0.750000  0.313557  0.309852  1
