# generated using pymatgen
data_Hf4Si4Ir2RuRh
_symmetry_space_group_name_H-M   'P 1'
_cell_length_a   3.97694900
_cell_length_b   6.47450823
_cell_length_c   7.40955661
_cell_angle_alpha   90.15537343
_cell_angle_beta   90.00000000
_cell_angle_gamma   90.00000000
_symmetry_Int_Tables_number   1
_chemical_formula_structural   Hf4Si4Ir2RuRh
_chemical_formula_sum   'Hf4 Si4 Ir2 Ru1 Rh1'
_cell_volume   190.78640833
_cell_formula_units_Z   1
loop_
 _symmetry_equiv_pos_site_id
 _symmetry_equiv_pos_as_xyz
  1  'x, y, z'
loop_
 _atom_site_type_symbol
 _atom_site_label
 _atom_site_symmetry_multiplicity
 _atom_site_fract_x
 _atom_site_fract_y
 _atom_site_fract_z
 _atom_site_occupancy
  Hf  Hf0  1  0.250000  0.516541  0.184640  1
  Hf  Hf1  1  0.750000  0.478661  0.815585  1
  Hf  Hf2  1  0.250000  0.020722  0.318375  1
  Hf  Hf3  1  0.750000  0.984185  0.681577  1
  Si  Si4  1  0.250000  0.780597  0.879460  1
  Si  Si5  1  0.750000  0.218551  0.118140  1
  Si  Si6  1  0.250000  0.275904  0.621820  1
  Si  Si7  1  0.750000  0.725974  0.381112  1
  Ir  Ir8  1  0.750000  0.841404  0.062372  1
  Ir  Ir9  1  0.750000  0.347263  0.434012  1
  Ru  Ru10  1  0.250000  0.156899  0.938369  1
  Rh  Rh11  1  0.250000  0.653299  0.564537  1
