# generated using pymatgen
data_Fe3ReSiW
_symmetry_space_group_name_H-M   'P 1'
_cell_length_a   4.73179300
_cell_length_b   4.73179280
_cell_length_c   7.57845200
_cell_angle_alpha   90.00000000
_cell_angle_beta   90.00000000
_cell_angle_gamma   119.99999441
_symmetry_Int_Tables_number   1
_chemical_formula_structural   Fe3ReSiW
_chemical_formula_sum   'Fe6 Re2 Si2 W2'
_cell_volume   146.94764041
_cell_formula_units_Z   2
loop_
 _symmetry_equiv_pos_site_id
 _symmetry_equiv_pos_as_xyz
  1  'x, y, z'
loop_
 _atom_site_type_symbol
 _atom_site_label
 _atom_site_symmetry_multiplicity
 _atom_site_fract_x
 _atom_site_fract_y
 _atom_site_fract_z
 _atom_site_occupancy
  Fe  Fe0  1  0.170708  0.829292  0.249391  1
  Fe  Fe1  1  0.341414  0.170708  0.749391  1
  Fe  Fe2  1  0.829292  0.658586  0.749391  1
  Fe  Fe3  1  0.170708  0.341414  0.249391  1
  Fe  Fe4  1  0.658586  0.829292  0.249391  1
  Fe  Fe5  1  0.829292  0.170708  0.749391  1
  Re  Re6  1  0.333333  0.666667  0.936162  1
  Re  Re7  1  0.666667  0.333333  0.436162  1
  Si  Si8  1  0.000000  0.000000  0.998959  1
  Si  Si9  1  0.000000  0.000000  0.498959  1
  W  W10  1  0.666667  0.333333  0.066708  1
  W  W11  1  0.333333  0.666667  0.566708  1
