# generated using pymatgen
data_Ca2La7HoSi8O3
_symmetry_space_group_name_H-M   'P 1'
_cell_length_a   10.77838900
_cell_length_b   10.74013567
_cell_length_c   4.58281300
_cell_angle_alpha   90.00000000
_cell_angle_beta   90.00000000
_cell_angle_gamma   120.11789387
_symmetry_Int_Tables_number   1
_chemical_formula_structural   Ca2La7HoSi8O3
_chemical_formula_sum   'Ca2 La7 Ho1 Si8 O3'
_cell_volume   458.89067266
_cell_formula_units_Z   1
loop_
 _symmetry_equiv_pos_site_id
 _symmetry_equiv_pos_as_xyz
  1  'x, y, z'
loop_
 _atom_site_type_symbol
 _atom_site_label
 _atom_site_symmetry_multiplicity
 _atom_site_fract_x
 _atom_site_fract_y
 _atom_site_fract_z
 _atom_site_occupancy
  Ca  Ca0  1  0.000000  0.500000  0.500000  1
  Ca  Ca1  1  0.500000  0.500000  0.500000  1
  La  La2  1  0.207420  0.783044  0.000000  1
  La  La3  1  0.575624  0.783044  0.000000  1
  La  La4  1  0.786731  0.573461  0.000000  1
  La  La5  1  0.000000  0.000000  0.000000  1
  La  La6  1  0.213269  0.426539  0.000000  1
  La  La7  1  0.424376  0.216956  0.000000  1
  La  La8  1  0.792580  0.216956  0.000000  1
  Ho  Ho9  1  0.500000  0.000000  0.500000  1
  Si  Si10  1  0.000000  0.781038  0.500000  1
  Si  Si11  1  0.000000  0.218962  0.500000  1
  Si  Si12  1  0.218962  0.218962  0.500000  1
  Si  Si13  1  0.777442  0.000000  0.500000  1
  Si  Si14  1  0.336560  0.673121  0.500000  1
  Si  Si15  1  0.222558  0.000000  0.500000  1
  Si  Si16  1  0.663440  0.326879  0.500000  1
  Si  Si17  1  0.781038  0.781038  0.500000  1
  O  O18  1  0.000000  0.500000  0.000000  1
  O  O19  1  0.500000  0.500000  0.000000  1
  O  O20  1  0.500000  0.000000  0.000000  1
