# generated using pymatgen
data_Pr3Eu5(Si3Pt)4
_symmetry_space_group_name_H-M   'P 1'
_cell_length_a   8.23810300
_cell_length_b   8.23767712
_cell_length_c   8.61644800
_cell_angle_alpha   90.00000000
_cell_angle_beta   90.00000000
_cell_angle_gamma   120.00170618
_symmetry_Int_Tables_number   1
_chemical_formula_structural   Pr3Eu5(Si3Pt)4
_chemical_formula_sum   'Pr3 Eu5 Si12 Pt4'
_cell_volume   506.38801620
_cell_formula_units_Z   1
loop_
 _symmetry_equiv_pos_site_id
 _symmetry_equiv_pos_as_xyz
  1  'x, y, z'
loop_
 _atom_site_type_symbol
 _atom_site_label
 _atom_site_symmetry_multiplicity
 _atom_site_fract_x
 _atom_site_fract_y
 _atom_site_fract_z
 _atom_site_occupancy
  Pr  Pr0  1  0.499670  0.999339  0.750000  1
  Pr  Pr1  1  0.000001  0.000002  0.750000  1
  Pr  Pr2  1  0.000001  0.000002  0.250000  1
  Eu  Eu3  1  0.499674  0.500306  0.750000  1
  Eu  Eu4  1  0.500325  0.499671  0.250000  1
  Eu  Eu5  1  0.000631  0.500306  0.750000  1
  Eu  Eu6  1  0.999346  0.499671  0.250000  1
  Eu  Eu7  1  0.500317  0.000633  0.250000  1
  Si  Si8  1  0.834845  0.165831  0.999239  1
  Si  Si9  1  0.165166  0.834186  0.001026  1
  Si  Si10  1  0.330985  0.165831  0.999239  1
  Si  Si11  1  0.165166  0.834186  0.498974  1
  Si  Si12  1  0.669020  0.834186  0.001026  1
  Si  Si13  1  0.834845  0.165831  0.500761  1
  Si  Si14  1  0.834428  0.668855  0.998934  1
  Si  Si15  1  0.669020  0.834186  0.498974  1
  Si  Si16  1  0.165567  0.331133  0.000721  1
  Si  Si17  1  0.330985  0.165831  0.500761  1
  Si  Si18  1  0.165567  0.331133  0.499279  1
  Si  Si19  1  0.834428  0.668855  0.501066  1
  Pt  Pt20  1  0.666563  0.333124  0.999648  1
  Pt  Pt21  1  0.333444  0.666889  0.999998  1
  Pt  Pt22  1  0.333444  0.666889  0.500002  1
  Pt  Pt23  1  0.666563  0.333124  0.500352  1
