# generated using pymatgen
data_TbTl5F10
_symmetry_space_group_name_H-M   'P 1'
_cell_length_a   6.98829387
_cell_length_b   7.47695700
_cell_length_c   11.54322100
_cell_angle_alpha   90.00000000
_cell_angle_beta   90.35596236
_cell_angle_gamma   90.00000000
_symmetry_Int_Tables_number   1
_chemical_formula_structural   TbTl5F10
_chemical_formula_sum   'Tb2 Tl10 F20'
_cell_volume   603.13519440
_cell_formula_units_Z   2
loop_
 _symmetry_equiv_pos_site_id
 _symmetry_equiv_pos_as_xyz
  1  'x, y, z'
loop_
 _atom_site_type_symbol
 _atom_site_label
 _atom_site_symmetry_multiplicity
 _atom_site_fract_x
 _atom_site_fract_y
 _atom_site_fract_z
 _atom_site_occupancy
  Tb  Tb0  1  0.559546  0.250000  0.502432  1
  Tb  Tb1  1  0.440454  0.750000  0.497568  1
  Tl  Tl2  1  0.531407  0.997228  0.831053  1
  Tl  Tl3  1  0.468593  0.497228  0.168947  1
  Tl  Tl4  1  0.965882  0.996695  0.326975  1
  Tl  Tl5  1  0.034118  0.496695  0.673025  1
  Tl  Tl6  1  0.531407  0.502772  0.831053  1
  Tl  Tl7  1  0.468593  0.002772  0.168947  1
  Tl  Tl8  1  0.965882  0.503305  0.326975  1
  Tl  Tl9  1  0.034118  0.003305  0.673025  1
  Tl  Tl10  1  0.942369  0.250000  0.001492  1
  Tl  Tl11  1  0.057631  0.750000  0.998508  1
  F  F12  1  0.884921  0.750000  0.840799  1
  F  F13  1  0.115079  0.250000  0.159201  1
  F  F14  1  0.617638  0.750000  0.337885  1
  F  F15  1  0.382362  0.250000  0.662115  1
  F  F16  1  0.849632  0.250000  0.817260  1
  F  F17  1  0.150368  0.750000  0.182740  1
  F  F18  1  0.645895  0.250000  0.315877  1
  F  F19  1  0.354105  0.750000  0.684123  1
  F  F20  1  0.641991  0.965482  0.569510  1
  F  F21  1  0.358009  0.465482  0.430490  1
  F  F22  1  0.851309  0.961697  0.071190  1
  F  F23  1  0.148691  0.461697  0.928810  1
  F  F24  1  0.376589  0.750000  0.983154  1
  F  F25  1  0.623411  0.250000  0.016846  1
  F  F26  1  0.122247  0.750000  0.481582  1
  F  F27  1  0.877753  0.250000  0.518418  1
  F  F28  1  0.148691  0.038303  0.928810  1
  F  F29  1  0.851309  0.538303  0.071190  1
  F  F30  1  0.358009  0.034518  0.430490  1
  F  F31  1  0.641991  0.534518  0.569510  1
