# generated using pymatgen
data_Ca12Ti12Cr5In3O48
_symmetry_space_group_name_H-M   'P 1'
_cell_length_a   11.00355932
_cell_length_b   11.02545119
_cell_length_c   11.01878799
_cell_angle_alpha   109.50233206
_cell_angle_beta   109.43245127
_cell_angle_gamma   109.42380587
_symmetry_Int_Tables_number   1
_chemical_formula_structural   Ca12Ti12Cr5In3O48
_chemical_formula_sum   'Ca12 Ti12 Cr5 In3 O48'
_cell_volume   1029.76028609
_cell_formula_units_Z   1
loop_
 _symmetry_equiv_pos_site_id
 _symmetry_equiv_pos_as_xyz
  1  'x, y, z'
loop_
 _atom_site_type_symbol
 _atom_site_label
 _atom_site_symmetry_multiplicity
 _atom_site_fract_x
 _atom_site_fract_y
 _atom_site_fract_z
 _atom_site_occupancy
  Ca  Ca0  1  0.253655  0.379601  0.125017  1
  Ca  Ca1  1  0.746345  0.620399  0.874983  1
  Ca  Ca2  1  0.751144  0.130753  0.371114  1
  Ca  Ca3  1  0.129216  0.258141  0.378267  1
  Ca  Ca4  1  0.376464  0.749374  0.121844  1
  Ca  Ca5  1  0.248856  0.869247  0.628886  1
  Ca  Ca6  1  0.870784  0.741859  0.621733  1
  Ca  Ca7  1  0.623536  0.250626  0.878156  1
  Ca  Ca8  1  0.376698  0.127859  0.251232  1
  Ca  Ca9  1  0.623302  0.872141  0.748768  1
  Ca  Ca10  1  0.125421  0.379542  0.752484  1
  Ca  Ca11  1  0.874579  0.620458  0.247516  1
  Ti  Ti12  1  0.246276  0.619554  0.374499  1
  Ti  Ti13  1  0.753724  0.380446  0.625501  1
  Ti  Ti14  1  0.740782  0.870942  0.120273  1
  Ti  Ti15  1  0.379092  0.259656  0.629956  1
  Ti  Ti16  1  0.620908  0.740344  0.370044  1
  Ti  Ti17  1  0.259218  0.129058  0.879727  1
  Ti  Ti18  1  0.125675  0.744817  0.871218  1
  Ti  Ti19  1  0.874325  0.255183  0.128782  1
  Ti  Ti20  1  0.624910  0.374589  0.249869  1
  Ti  Ti21  1  0.375090  0.625411  0.750131  1
  Ti  Ti22  1  0.875644  0.130774  0.754358  1
  Ti  Ti23  1  0.124356  0.869226  0.245642  1
  Cr  Cr24  1  0.000000  0.500000  0.500000  1
  Cr  Cr25  1  0.500000  0.000000  0.000000  1
  Cr  Cr26  1  0.500000  0.500000  0.000000  1
  Cr  Cr27  1  0.500000  0.500000  0.500000  1
  Cr  Cr28  1  0.000000  0.500000  0.000000  1
  In  In29  1  0.000000  0.000000  0.000000  1
  In  In30  1  0.500000  0.000000  0.500000  1
  In  In31  1  0.000000  0.000000  0.500000  1
  O  O32  1  0.486849  0.385398  0.304128  1
  O  O33  1  0.513151  0.614602  0.695872  1
  O  O34  1  0.579563  0.181474  0.197013  1
  O  O35  1  0.912034  0.128555  0.603112  1
  O  O36  1  0.300014  0.479566  0.380440  1
  O  O37  1  0.313255  0.910628  0.284044  1
  O  O38  1  0.420437  0.818526  0.802987  1
  O  O39  1  0.087966  0.871445  0.396888  1
  O  O40  1  0.699986  0.520434  0.619560  1
  O  O41  1  0.686745  0.089372  0.715956  1
  O  O42  1  0.022214  0.320680  0.904939  1
  O  O43  1  0.197516  0.582129  0.184197  1
  O  O44  1  0.123643  0.021894  0.213212  1
  O  O45  1  0.977786  0.679320  0.095061  1
  O  O46  1  0.802484  0.417871  0.815803  1
  O  O47  1  0.876357  0.978106  0.786788  1
  O  O48  1  0.594330  0.916895  0.116804  1
  O  O49  1  0.182805  0.486172  0.601662  1
  O  O50  1  0.405670  0.083105  0.883196  1
  O  O51  1  0.817195  0.513828  0.398338  1
  O  O52  1  0.893991  0.019882  0.307257  1
  O  O53  1  0.383587  0.581458  0.898908  1
  O  O54  1  0.106009  0.980118  0.692743  1
  O  O55  1  0.616413  0.418542  0.101092  1
  O  O56  1  0.385825  0.302542  0.483936  1
  O  O57  1  0.588169  0.893739  0.375475  1
  O  O58  1  0.614175  0.697458  0.516064  1
  O  O59  1  0.411831  0.106261  0.624525  1
  O  O60  1  0.120382  0.598754  0.919290  1
  O  O61  1  0.020212  0.211993  0.124642  1
  O  O62  1  0.879618  0.401246  0.080710  1
  O  O63  1  0.979788  0.788007  0.875358  1
  O  O64  1  0.315283  0.897421  0.011673  1
  O  O65  1  0.917794  0.302387  0.320489  1
  O  O66  1  0.684717  0.102579  0.988327  1
  O  O67  1  0.082206  0.697613  0.679511  1
  O  O68  1  0.188429  0.215555  0.586820  1
  O  O69  1  0.476064  0.594276  0.177503  1
  O  O70  1  0.811571  0.784445  0.413180  1
  O  O71  1  0.523936  0.405724  0.822497  1
  O  O72  1  0.301880  0.317461  0.914964  1
  O  O73  1  0.698120  0.682539  0.085036  1
  O  O74  1  0.216286  0.129560  0.027210  1
  O  O75  1  0.783714  0.870440  0.972790  1
  O  O76  1  0.903169  0.387570  0.584135  1
  O  O77  1  0.096831  0.612430  0.415865  1
  O  O78  1  0.604948  0.190790  0.477948  1
  O  O79  1  0.395052  0.809210  0.522052  1
