# generated using pymatgen
data_Sb3MoPb4O13
_symmetry_space_group_name_H-M   'P 1'
_cell_length_a   7.55915454
_cell_length_b   7.55781193
_cell_length_c   7.55919016
_cell_angle_alpha   60.53664523
_cell_angle_beta   60.53269920
_cell_angle_gamma   60.53903440
_symmetry_Int_Tables_number   1
_chemical_formula_structural   Sb3MoPb4O13
_chemical_formula_sum   'Sb3 Mo1 Pb4 O13'
_cell_volume   309.07139139
_cell_formula_units_Z   1
loop_
 _symmetry_equiv_pos_site_id
 _symmetry_equiv_pos_as_xyz
  1  'x, y, z'
loop_
 _atom_site_type_symbol
 _atom_site_label
 _atom_site_symmetry_multiplicity
 _atom_site_fract_x
 _atom_site_fract_y
 _atom_site_fract_z
 _atom_site_occupancy
  Sb  Sb0  1  0.001014  0.499823  0.499909  1
  Sb  Sb1  1  0.499943  0.499861  0.001031  1
  Sb  Sb2  1  0.499859  0.001041  0.499898  1
  Mo  Mo3  1  0.499885  0.499838  0.499773  1
  Pb  Pb4  1  0.997957  0.997925  0.998273  1
  Pb  Pb5  1  0.500710  0.000872  0.000757  1
  Pb  Pb6  1  0.000618  0.000631  0.500876  1
  Pb  Pb7  1  0.000785  0.501072  0.000511  1
  O  O8  1  0.842960  0.419497  0.419396  1
  O  O9  1  0.422618  0.818387  0.818462  1
  O  O10  1  0.419537  0.419347  0.843009  1
  O  O11  1  0.818644  0.818498  0.422422  1
  O  O12  1  0.818534  0.422345  0.818555  1
  O  O13  1  0.419475  0.843132  0.419346  1
  O  O14  1  0.161101  0.577920  0.577899  1
  O  O15  1  0.576739  0.183288  0.183281  1
  O  O16  1  0.577924  0.577937  0.161076  1
  O  O17  1  0.183168  0.183274  0.576814  1
  O  O18  1  0.183363  0.576773  0.183310  1
  O  O19  1  0.577954  0.160972  0.577950  1
  O  O20  1  0.122210  0.122566  0.122447  1
