# generated using pymatgen
data_Pa4Al24CrPt8
_symmetry_space_group_name_H-M   'P 1'
_cell_length_a   7.56345463
_cell_length_b   7.61246535
_cell_length_c   13.03952218
_cell_angle_alpha   84.75444181
_cell_angle_beta   79.03611777
_cell_angle_gamma   59.75663957
_symmetry_Int_Tables_number   1
_chemical_formula_structural   Pa4Al24CrPt8
_chemical_formula_sum   'Pa4 Al24 Cr1 Pt8'
_cell_volume   636.73914160
_cell_formula_units_Z   1
loop_
 _symmetry_equiv_pos_site_id
 _symmetry_equiv_pos_as_xyz
  1  'x, y, z'
loop_
 _atom_site_type_symbol
 _atom_site_label
 _atom_site_symmetry_multiplicity
 _atom_site_fract_x
 _atom_site_fract_y
 _atom_site_fract_z
 _atom_site_occupancy
  Pa  Pa0  1  0.385839  0.175049  0.809974  1
  Pa  Pa1  1  0.614161  0.824951  0.190026  1
  Pa  Pa2  1  0.740744  0.497962  0.809935  1
  Pa  Pa3  1  0.259256  0.502038  0.190065  1
  Al  Al4  1  0.690211  0.829009  0.945953  1
  Al  Al5  1  0.309789  0.170991  0.054047  1
  Al  Al6  1  0.145694  0.832722  0.561264  1
  Al  Al7  1  0.854306  0.167278  0.438736  1
  Al  Al8  1  0.482074  0.166019  0.559028  1
  Al  Al9  1  0.517926  0.833981  0.440972  1
  Al  Al10  1  0.216722  0.163459  0.328366  1
  Al  Al11  1  0.783278  0.836541  0.671634  1
  Al  Al12  1  0.435956  0.509593  0.671994  1
  Al  Al13  1  0.564044  0.490407  0.328006  1
  Al  Al14  1  0.110513  0.156326  0.668271  1
  Al  Al15  1  0.889487  0.843674  0.331729  1
  Al  Al16  1  0.345628  0.501069  0.945815  1
  Al  Al17  1  0.654372  0.498931  0.054185  1
  Al  Al18  1  0.013902  0.173799  0.958221  1
  Al  Al19  1  0.986098  0.826201  0.041779  1
  Al  Al20  1  0.187334  0.499676  0.441876  1
  Al  Al21  1  0.812666  0.500324  0.558124  1
  Al  Al22  1  0.736707  0.161264  0.182162  1
  Al  Al23  1  0.263293  0.838736  0.817838  1
  Al  Al24  1  0.059211  0.632865  0.821501  1
  Al  Al25  1  0.940789  0.367135  0.178499  1
  Al  Al26  1  0.856922  0.042262  0.817649  1
  Al  Al27  1  0.143078  0.957738  0.182351  1
  Cr  Cr28  1  0.000000  0.500000  0.000000  1
  Pt  Pt29  1  0.119478  0.491108  0.641502  1
  Pt  Pt30  1  0.880522  0.508892  0.358498  1
  Pt  Pt31  1  0.654474  0.173043  0.000019  1
  Pt  Pt32  1  0.345526  0.826957  0.999981  1
  Pt  Pt33  1  0.536369  0.167459  0.360667  1
  Pt  Pt34  1  0.463631  0.832541  0.639333  1
  Pt  Pt35  1  0.777863  0.175801  0.638514  1
  Pt  Pt36  1  0.222137  0.824199  0.361486  1
