# generated using pymatgen
data_ThZnSiGeIr
_symmetry_space_group_name_H-M   'P 1'
_cell_length_a   4.26091200
_cell_length_b   4.26091200
_cell_length_c   10.28041900
_cell_angle_alpha   90.00000000
_cell_angle_beta   90.00000000
_cell_angle_gamma   90.00000000
_symmetry_Int_Tables_number   1
_chemical_formula_structural   ThZnSiGeIr
_chemical_formula_sum   'Th2 Zn2 Si2 Ge2 Ir2'
_cell_volume   186.64482172
_cell_formula_units_Z   2
loop_
 _symmetry_equiv_pos_site_id
 _symmetry_equiv_pos_as_xyz
  1  'x, y, z'
loop_
 _atom_site_type_symbol
 _atom_site_label
 _atom_site_symmetry_multiplicity
 _atom_site_fract_x
 _atom_site_fract_y
 _atom_site_fract_z
 _atom_site_occupancy
  Th  Th0  1  0.000000  0.500000  0.268469  1
  Th  Th1  1  0.500000  0.000000  0.731531  1
  Zn  Zn2  1  0.000000  0.000000  0.000000  1
  Zn  Zn3  1  0.500000  0.500000  0.000000  1
  Si  Si4  1  0.000000  0.000000  0.500000  1
  Si  Si5  1  0.500000  0.500000  0.500000  1
  Ge  Ge6  1  0.000000  0.500000  0.855661  1
  Ge  Ge7  1  0.500000  0.000000  0.144339  1
  Ir  Ir8  1  0.000000  0.500000  0.615455  1
  Ir  Ir9  1  0.500000  0.000000  0.384545  1
