# generated using pymatgen
data_Ce4HfMg3Ir4
_symmetry_space_group_name_H-M   'P 1'
_cell_length_a   4.19757900
_cell_length_b   7.14669292
_cell_length_c   8.70763457
_cell_angle_alpha   93.11567464
_cell_angle_beta   90.00000000
_cell_angle_gamma   90.00000000
_symmetry_Int_Tables_number   1
_chemical_formula_structural   Ce4HfMg3Ir4
_chemical_formula_sum   'Ce4 Hf1 Mg3 Ir4'
_cell_volume   260.83253557
_cell_formula_units_Z   1
loop_
 _symmetry_equiv_pos_site_id
 _symmetry_equiv_pos_as_xyz
  1  'x, y, z'
loop_
 _atom_site_type_symbol
 _atom_site_label
 _atom_site_symmetry_multiplicity
 _atom_site_fract_x
 _atom_site_fract_y
 _atom_site_fract_z
 _atom_site_occupancy
  Ce  Ce0  1  0.250000  0.534854  0.185907  1
  Ce  Ce1  1  0.750000  0.476826  0.809785  1
  Ce  Ce2  1  0.750000  0.965699  0.672466  1
  Ce  Ce3  1  0.250000  0.023434  0.330987  1
  Hf  Hf4  1  0.250000  0.129273  0.945239  1
  Mg  Mg5  1  0.250000  0.633031  0.558579  1
  Mg  Mg6  1  0.750000  0.360850  0.437606  1
  Mg  Mg7  1  0.750000  0.858594  0.065606  1
  Ir  Ir8  1  0.250000  0.757327  0.875349  1
  Ir  Ir9  1  0.750000  0.262069  0.102590  1
  Ir  Ir10  1  0.750000  0.750130  0.371354  1
  Ir  Ir11  1  0.250000  0.247914  0.644533  1
