# generated using pymatgen
data_CsTh3S4
_symmetry_space_group_name_H-M   'P 1'
_cell_length_a   4.09029600
_cell_length_b   4.09029615
_cell_length_c   29.60805200
_cell_angle_alpha   90.00000000
_cell_angle_beta   90.00000000
_cell_angle_gamma   119.99998258
_symmetry_Int_Tables_number   1
_chemical_formula_structural   CsTh3S4
_chemical_formula_sum   'Cs2 Th6 S8'
_cell_volume   428.99283040
_cell_formula_units_Z   2
loop_
 _symmetry_equiv_pos_site_id
 _symmetry_equiv_pos_as_xyz
  1  'x, y, z'
loop_
 _atom_site_type_symbol
 _atom_site_label
 _atom_site_symmetry_multiplicity
 _atom_site_fract_x
 _atom_site_fract_y
 _atom_site_fract_z
 _atom_site_occupancy
  Cs  Cs0  1  0.666667  0.333333  0.250000  1
  Cs  Cs1  1  0.333333  0.666667  0.750000  1
  Th  Th2  1  0.666667  0.333333  0.608965  1
  Th  Th3  1  0.666667  0.333333  0.891035  1
  Th  Th4  1  0.333333  0.666667  0.391035  1
  Th  Th5  1  0.333333  0.666667  0.108965  1
  Th  Th6  1  0.000000  0.000000  0.500000  1
  Th  Th7  1  0.000000  0.000000  0.000000  1
  S  S8  1  0.000000  0.000000  0.164084  1
  S  S9  1  0.666667  0.333333  0.445195  1
  S  S10  1  0.000000  0.000000  0.664084  1
  S  S11  1  0.333333  0.666667  0.945195  1
  S  S12  1  0.333333  0.666667  0.554805  1
  S  S13  1  0.000000  0.000000  0.335916  1
  S  S14  1  0.666667  0.333333  0.054805  1
  S  S15  1  0.000000  0.000000  0.835916  1
