# generated using pymatgen
data_TbY3(InPd2)2
_symmetry_space_group_name_H-M   'P 1'
_cell_length_a   7.74224785
_cell_length_b   7.74224785
_cell_length_c   3.76704000
_cell_angle_alpha   90.00000000
_cell_angle_beta   90.00000000
_cell_angle_gamma   90.26591164
_symmetry_Int_Tables_number   1
_chemical_formula_structural   TbY3(InPd2)2
_chemical_formula_sum   'Tb1 Y3 In2 Pd4'
_cell_volume   225.80299306
_cell_formula_units_Z   1
loop_
 _symmetry_equiv_pos_site_id
 _symmetry_equiv_pos_as_xyz
  1  'x, y, z'
loop_
 _atom_site_type_symbol
 _atom_site_label
 _atom_site_symmetry_multiplicity
 _atom_site_fract_x
 _atom_site_fract_y
 _atom_site_fract_z
 _atom_site_occupancy
  Tb  Tb0  1  0.672667  0.172667  0.500000  1
  Y  Y1  1  0.326955  0.826955  0.500000  1
  Y  Y2  1  0.173169  0.327233  0.500000  1
  Y  Y3  1  0.827233  0.673169  0.500000  1
  In  In4  1  0.499716  0.500437  0.000000  1
  In  In5  1  0.000437  0.999716  0.000000  1
  Pd  Pd6  1  0.127333  0.627333  0.000000  1
  Pd  Pd7  1  0.871521  0.371521  0.000000  1
  Pd  Pd8  1  0.627858  0.873111  0.000000  1
  Pd  Pd9  1  0.373111  0.127858  0.000000  1
