# generated using pymatgen
data_Ce4Dy(TcB3)2
_symmetry_space_group_name_H-M   'P 1'
_cell_length_a   5.49342269
_cell_length_b   5.49342221
_cell_length_c   8.51176203
_cell_angle_alpha   71.17395915
_cell_angle_beta   71.17396057
_cell_angle_gamma   60.00000276
_symmetry_Int_Tables_number   1
_chemical_formula_structural   Ce4Dy(TcB3)2
_chemical_formula_sum   'Ce4 Dy1 Tc2 B6'
_cell_volume   206.43206049
_cell_formula_units_Z   1
loop_
 _symmetry_equiv_pos_site_id
 _symmetry_equiv_pos_as_xyz
  1  'x, y, z'
loop_
 _atom_site_type_symbol
 _atom_site_label
 _atom_site_symmetry_multiplicity
 _atom_site_fract_x
 _atom_site_fract_y
 _atom_site_fract_z
 _atom_site_occupancy
  Ce  Ce0  1  0.001560  0.001560  0.995321  1
  Ce  Ce1  1  0.251255  0.251255  0.246235  1
  Ce  Ce2  1  0.585318  0.585318  0.244045  1
  Ce  Ce3  1  0.414325  0.414325  0.757025  1
  Dy  Dy4  1  0.750839  0.750839  0.747482  1
  Tc  Tc5  1  0.890835  0.890835  0.327497  1
  Tc  Tc6  1  0.108629  0.108629  0.674113  1
  B  B7  1  0.499668  0.170819  0.501381  1
  B  B8  1  0.828132  0.499668  0.501381  1
  B  B9  1  0.170819  0.828132  0.501381  1
  B  B10  1  0.170819  0.499668  0.501381  1
  B  B11  1  0.828132  0.170819  0.501381  1
  B  B12  1  0.499668  0.828132  0.501381  1
