# generated using pymatgen
data_TbHo2Pa(ZnRh)4
_symmetry_space_group_name_H-M   'P 1'
_cell_length_a   3.86985400
_cell_length_b   7.09468564
_cell_length_c   8.32285391
_cell_angle_alpha   90.74559328
_cell_angle_beta   90.00000000
_cell_angle_gamma   90.00000000
_symmetry_Int_Tables_number   1
_chemical_formula_structural   TbHo2Pa(ZnRh)4
_chemical_formula_sum   'Tb1 Ho2 Pa1 Zn4 Rh4'
_cell_volume   228.48791596
_cell_formula_units_Z   1
loop_
 _symmetry_equiv_pos_site_id
 _symmetry_equiv_pos_as_xyz
  1  'x, y, z'
loop_
 _atom_site_type_symbol
 _atom_site_label
 _atom_site_symmetry_multiplicity
 _atom_site_fract_x
 _atom_site_fract_y
 _atom_site_fract_z
 _atom_site_occupancy
  Tb  Tb0  1  0.250000  0.051909  0.320898  1
  Ho  Ho1  1  0.750000  0.443812  0.808322  1
  Ho  Ho2  1  0.750000  0.941393  0.688385  1
  Pa  Pa3  1  0.250000  0.552412  0.178158  1
  Zn  Zn4  1  0.250000  0.128492  0.934579  1
  Zn  Zn5  1  0.750000  0.893231  0.063001  1
  Zn  Zn6  1  0.250000  0.621294  0.563877  1
  Zn  Zn7  1  0.750000  0.369581  0.442997  1
  Rh  Rh8  1  0.750000  0.739090  0.356081  1
  Rh  Rh9  1  0.250000  0.235949  0.626850  1
  Rh  Rh10  1  0.750000  0.283241  0.127424  1
  Rh  Rh11  1  0.250000  0.739597  0.889428  1
