# generated using pymatgen
data_SmDy7Sc12Si15Pt
_symmetry_space_group_name_H-M   'P 1'
_cell_length_a   7.09574735
_cell_length_b   7.44751991
_cell_length_c   13.99769346
_cell_angle_alpha   90.04793753
_cell_angle_beta   90.02076646
_cell_angle_gamma   90.24519944
_symmetry_Int_Tables_number   1
_chemical_formula_structural   SmDy7Sc12Si15Pt
_chemical_formula_sum   'Sm1 Dy7 Sc12 Si15 Pt1'
_cell_volume   739.71110197
_cell_formula_units_Z   1
loop_
 _symmetry_equiv_pos_site_id
 _symmetry_equiv_pos_as_xyz
  1  'x, y, z'
loop_
 _atom_site_type_symbol
 _atom_site_label
 _atom_site_symmetry_multiplicity
 _atom_site_fract_x
 _atom_site_fract_y
 _atom_site_fract_z
 _atom_site_occupancy
  Sm  Sm0  1  0.011533  0.176917  0.095735  1
  Dy  Dy1  1  0.990235  0.821982  0.904783  1
  Dy  Dy2  1  0.489405  0.676393  0.904342  1
  Dy  Dy3  1  0.990271  0.822108  0.594800  1
  Dy  Dy4  1  0.510994  0.323424  0.096793  1
  Dy  Dy5  1  0.011836  0.178230  0.403321  1
  Dy  Dy6  1  0.511232  0.323282  0.403626  1
  Dy  Dy7  1  0.488805  0.676433  0.595221  1
  Sc  Sc8  1  0.159046  0.502854  0.750039  1
  Sc  Sc9  1  0.838352  0.498350  0.250153  1
  Sc  Sc10  1  0.339452  0.004124  0.250178  1
  Sc  Sc11  1  0.665619  0.999084  0.750117  1
  Sc  Sc12  1  0.323723  0.173723  0.625323  1
  Sc  Sc13  1  0.671123  0.825715  0.373684  1
  Sc  Sc14  1  0.170907  0.676904  0.374025  1
  Sc  Sc15  1  0.671355  0.825469  0.126635  1
  Sc  Sc16  1  0.830551  0.323426  0.625327  1
  Sc  Sc17  1  0.324219  0.173760  0.874544  1
  Sc  Sc18  1  0.829985  0.323924  0.874568  1
  Sc  Sc19  1  0.170795  0.676656  0.126308  1
  Si  Si20  1  0.969310  0.883187  0.250724  1
  Si  Si21  1  0.468627  0.615531  0.250263  1
  Si  Si22  1  0.531157  0.387029  0.749842  1
  Si  Si23  1  0.287830  0.868779  0.749870  1
  Si  Si24  1  0.711887  0.129694  0.251174  1
  Si  Si25  1  0.213624  0.373277  0.250950  1
  Si  Si26  1  0.780673  0.625529  0.749790  1
  Si  Si27  1  0.158812  0.466327  0.538041  1
  Si  Si28  1  0.842323  0.535897  0.460635  1
  Si  Si29  1  0.345000  0.965445  0.460503  1
  Si  Si30  1  0.841072  0.537728  0.038726  1
  Si  Si31  1  0.657991  0.033805  0.538783  1
  Si  Si32  1  0.159402  0.468370  0.961262  1
  Si  Si33  1  0.657455  0.033575  0.960978  1
  Si  Si34  1  0.347516  0.963820  0.038979  1
  Pt  Pt35  1  0.027882  0.109251  0.749959  1
