# generated using pymatgen
data_Ca7Y(OsC2)4
_symmetry_space_group_name_H-M   'P 1'
_cell_length_a   5.18473700
_cell_length_b   6.52922936
_cell_length_c   10.34924151
_cell_angle_alpha   90.25548313
_cell_angle_beta   90.00000000
_cell_angle_gamma   90.00000000
_symmetry_Int_Tables_number   1
_chemical_formula_structural   Ca7Y(OsC2)4
_chemical_formula_sum   'Ca7 Y1 Os4 C8'
_cell_volume   350.34252889
_cell_formula_units_Z   1
loop_
 _symmetry_equiv_pos_site_id
 _symmetry_equiv_pos_as_xyz
  1  'x, y, z'
loop_
 _atom_site_type_symbol
 _atom_site_label
 _atom_site_symmetry_multiplicity
 _atom_site_fract_x
 _atom_site_fract_y
 _atom_site_fract_z
 _atom_site_occupancy
  Ca  Ca0  1  0.750000  0.305661  0.450244  1
  Ca  Ca1  1  0.750000  0.807102  0.050780  1
  Ca  Ca2  1  0.250000  0.189892  0.948932  1
  Ca  Ca3  1  0.250000  0.535997  0.217801  1
  Ca  Ca4  1  0.750000  0.463775  0.782301  1
  Ca  Ca5  1  0.750000  0.965650  0.724543  1
  Ca  Ca6  1  0.250000  0.036897  0.277535  1
  Y  Y7  1  0.250000  0.682480  0.552316  1
  Os  Os8  1  0.250000  0.730396  0.849463  1
  Os  Os9  1  0.750000  0.267186  0.150489  1
  Os  Os10  1  0.750000  0.767898  0.352072  1
  Os  Os11  1  0.250000  0.230159  0.648131  1
  C  C12  1  0.250000  0.468676  0.755765  1
  C  C13  1  0.750000  0.531517  0.241141  1
  C  C14  1  0.750000  0.029692  0.259841  1
  C  C15  1  0.250000  0.962777  0.734798  1
  C  C16  1  0.250000  0.791692  0.023526  1
  C  C17  1  0.750000  0.210573  0.975220  1
  C  C18  1  0.750000  0.709867  0.528807  1
  C  C19  1  0.250000  0.312113  0.476296  1
