# generated using pymatgen
data_Li2Hf(AsPd)3
_symmetry_space_group_name_H-M   'P 1'
_cell_length_a   6.61281037
_cell_length_b   6.61281053
_cell_length_c   3.93379800
_cell_angle_alpha   90.00000000
_cell_angle_beta   90.00000000
_cell_angle_gamma   118.29804516
_symmetry_Int_Tables_number   1
_chemical_formula_structural   Li2Hf(AsPd)3
_chemical_formula_sum   'Li2 Hf1 As3 Pd3'
_cell_volume   151.46433132
_cell_formula_units_Z   1
loop_
 _symmetry_equiv_pos_site_id
 _symmetry_equiv_pos_as_xyz
  1  'x, y, z'
loop_
 _atom_site_type_symbol
 _atom_site_label
 _atom_site_symmetry_multiplicity
 _atom_site_fract_x
 _atom_site_fract_y
 _atom_site_fract_z
 _atom_site_occupancy
  Li  Li0  1  0.584473  0.996919  0.000000  1
  Li  Li1  1  0.996919  0.584473  0.000000  1
  Hf  Hf2  1  0.411880  0.411880  0.000000  1
  As  As3  1  0.332303  0.658890  0.500000  1
  As  As4  1  0.658890  0.332303  0.500000  1
  As  As5  1  0.011593  0.011593  0.000000  1
  Pd  Pd6  1  0.252246  0.994678  0.500000  1
  Pd  Pd7  1  0.994678  0.252246  0.500000  1
  Pd  Pd8  1  0.757020  0.757020  0.500000  1
