# generated using pymatgen
data_Tb3Pr2HoTa2O14
_symmetry_space_group_name_H-M   'P 1'
_cell_length_a   6.54610970
_cell_length_b   6.54492832
_cell_length_c   7.62694108
_cell_angle_alpha   89.98649918
_cell_angle_beta   89.99559892
_cell_angle_gamma   109.09585701
_symmetry_Int_Tables_number   1
_chemical_formula_structural   Tb3Pr2HoTa2O14
_chemical_formula_sum   'Tb3 Pr2 Ho1 Ta2 O14'
_cell_volume   308.78610499
_cell_formula_units_Z   1
loop_
 _symmetry_equiv_pos_site_id
 _symmetry_equiv_pos_as_xyz
  1  'x, y, z'
loop_
 _atom_site_type_symbol
 _atom_site_label
 _atom_site_symmetry_multiplicity
 _atom_site_fract_x
 _atom_site_fract_y
 _atom_site_fract_z
 _atom_site_occupancy
  Tb  Tb0  1  0.000329  0.534500  0.245923  1
  Tb  Tb1  1  0.999397  0.466086  0.745880  1
  Tb  Tb2  1  0.533590  0.000382  0.753988  1
  Pr  Pr3  1  0.512195  0.512363  0.499485  1
  Pr  Pr4  1  0.485827  0.485090  0.000436  1
  Ho  Ho5  1  0.467218  0.999032  0.254103  1
  Ta  Ta6  1  0.001369  0.001394  0.499296  1
  Ta  Ta7  1  0.998464  0.998617  0.000531  1
  O  O8  1  0.936320  0.062313  0.749928  1
  O  O9  1  0.064139  0.936686  0.249972  1
  O  O10  1  0.357233  0.645655  0.249765  1
  O  O11  1  0.642382  0.356930  0.749989  1
  O  O12  1  0.363731  0.636508  0.750068  1
  O  O13  1  0.634931  0.360257  0.250343  1
  O  O14  1  0.322225  0.071758  0.973409  1
  O  O15  1  0.678895  0.929413  0.469575  1
  O  O16  1  0.314586  0.060971  0.535302  1
  O  O17  1  0.686869  0.940894  0.039315  1
  O  O18  1  0.063075  0.314901  0.463524  1
  O  O19  1  0.937245  0.685758  0.963516  1
  O  O20  1  0.926650  0.678310  0.527847  1
  O  O21  1  0.073327  0.322182  0.027806  1
