# generated using pymatgen
data_Al3V6GaN2
_symmetry_space_group_name_H-M   'P 1'
_cell_length_a   6.62442783
_cell_length_b   6.62103100
_cell_length_c   6.62037283
_cell_angle_alpha   90.00000000
_cell_angle_beta   90.12326243
_cell_angle_gamma   90.00000000
_symmetry_Int_Tables_number   1
_chemical_formula_structural   Al3V6GaN2
_chemical_formula_sum   'Al6 V12 Ga2 N4'
_cell_volume   290.37246885
_cell_formula_units_Z   2
loop_
 _symmetry_equiv_pos_site_id
 _symmetry_equiv_pos_as_xyz
  1  'x, y, z'
loop_
 _atom_site_type_symbol
 _atom_site_label
 _atom_site_symmetry_multiplicity
 _atom_site_fract_x
 _atom_site_fract_y
 _atom_site_fract_z
 _atom_site_occupancy
  Al  Al0  1  0.179005  0.819254  0.318818  1
  Al  Al1  1  0.318455  0.179696  0.820832  1
  Al  Al2  1  0.820995  0.319254  0.181182  1
  Al  Al3  1  0.681545  0.679696  0.679168  1
  Al  Al4  1  0.570447  0.429677  0.929939  1
  Al  Al5  1  0.429553  0.929677  0.570061  1
  V  V6  1  0.792028  0.958321  0.377940  1
  V  V7  1  0.706074  0.042610  0.872426  1
  V  V8  1  0.207972  0.458321  0.122060  1
  V  V9  1  0.293926  0.542610  0.627574  1
  V  V10  1  0.955378  0.375580  0.793408  1
  V  V11  1  0.044622  0.875580  0.706592  1
  V  V12  1  0.459747  0.125290  0.208024  1
  V  V13  1  0.540253  0.625290  0.291976  1
  V  V14  1  0.376325  0.792340  0.956854  1
  V  V15  1  0.873906  0.706133  0.041713  1
  V  V16  1  0.126094  0.206133  0.458287  1
  V  V17  1  0.623675  0.292340  0.543146  1
  Ga  Ga18  1  0.930885  0.569010  0.430530  1
  Ga  Ga19  1  0.069115  0.069010  0.069470  1
  N  N20  1  0.875855  0.126374  0.625871  1
  N  N21  1  0.626334  0.875715  0.124583  1
  N  N22  1  0.124145  0.626374  0.874129  1
  N  N23  1  0.373666  0.375715  0.375417  1
