# generated using pymatgen
data_Tb12Pr4Mg2Hg2IrRh3
_symmetry_space_group_name_H-M   'P 1'
_cell_length_a   9.80899247
_cell_length_b   9.75659811
_cell_length_c   9.75840817
_cell_angle_alpha   59.70938151
_cell_angle_beta   59.88007213
_cell_angle_gamma   60.17076319
_symmetry_Int_Tables_number   1
_chemical_formula_structural   Tb12Pr4Mg2Hg2IrRh3
_chemical_formula_sum   'Tb12 Pr4 Mg2 Hg2 Ir1 Rh3'
_cell_volume   659.14995531
_cell_formula_units_Z   1
loop_
 _symmetry_equiv_pos_site_id
 _symmetry_equiv_pos_as_xyz
  1  'x, y, z'
loop_
 _atom_site_type_symbol
 _atom_site_label
 _atom_site_symmetry_multiplicity
 _atom_site_fract_x
 _atom_site_fract_y
 _atom_site_fract_z
 _atom_site_occupancy
  Tb  Tb0  1  0.347353  0.346962  0.345564  1
  Tb  Tb1  1  0.348798  0.349634  0.959750  1
  Tb  Tb2  1  0.348963  0.955580  0.352161  1
  Tb  Tb3  1  0.950825  0.349162  0.346886  1
  Tb  Tb4  1  0.813710  0.184572  0.185061  1
  Tb  Tb5  1  0.182712  0.814382  0.816533  1
  Tb  Tb6  1  0.187624  0.810070  0.188983  1
  Tb  Tb7  1  0.809305  0.184439  0.813221  1
  Tb  Tb8  1  0.188420  0.187342  0.811028  1
  Tb  Tb9  1  0.805698  0.807219  0.192299  1
  Tb  Tb10  1  0.940783  0.554595  0.556480  1
  Tb  Tb11  1  0.551412  0.941492  0.949459  1
  Pr  Pr12  1  0.563111  0.939373  0.562786  1
  Pr  Pr13  1  0.939537  0.563252  0.932604  1
  Pr  Pr14  1  0.563434  0.561997  0.937723  1
  Pr  Pr15  1  0.937438  0.933073  0.566169  1
  Mg  Mg16  1  0.580480  0.273660  0.572188  1
  Mg  Mg17  1  0.275787  0.579635  0.570288  1
  Hg  Hg18  1  0.586096  0.579290  0.584211  1
  Hg  Hg19  1  0.581334  0.583422  0.249858  1
  Ir  Ir20  1  0.574367  0.139202  0.142867  1
  Rh  Rh21  1  0.147859  0.138388  0.139655  1
  Rh  Rh22  1  0.137956  0.148734  0.574955  1
  Rh  Rh23  1  0.137000  0.574524  0.149274  1
