# generated using pymatgen
data_Cs2AsF5
_symmetry_space_group_name_H-M   'P 1'
_cell_length_a   6.51931100
_cell_length_b   8.38400500
_cell_length_c   12.58348900
_cell_angle_alpha   90.00000000
_cell_angle_beta   90.00000000
_cell_angle_gamma   90.00000000
_symmetry_Int_Tables_number   1
_chemical_formula_structural   Cs2AsF5
_chemical_formula_sum   'Cs8 As4 F20'
_cell_volume   687.78753668
_cell_formula_units_Z   4
loop_
 _symmetry_equiv_pos_site_id
 _symmetry_equiv_pos_as_xyz
  1  'x, y, z'
loop_
 _atom_site_type_symbol
 _atom_site_label
 _atom_site_symmetry_multiplicity
 _atom_site_fract_x
 _atom_site_fract_y
 _atom_site_fract_z
 _atom_site_occupancy
  Cs  Cs0  1  0.750000  0.506016  0.714991  1
  Cs  Cs1  1  0.250000  0.493984  0.285009  1
  Cs  Cs2  1  0.250000  0.993984  0.214991  1
  Cs  Cs3  1  0.750000  0.006016  0.785009  1
  Cs  Cs4  1  0.750000  0.163706  0.423758  1
  Cs  Cs5  1  0.250000  0.836294  0.576242  1
  Cs  Cs6  1  0.250000  0.336294  0.923758  1
  Cs  Cs7  1  0.750000  0.663706  0.076242  1
  As  As8  1  0.750000  0.171131  0.063980  1
  As  As9  1  0.250000  0.828869  0.936020  1
  As  As10  1  0.250000  0.328869  0.563980  1
  As  As11  1  0.750000  0.671131  0.436020  1
  F  F12  1  0.750000  0.325887  0.918854  1
  F  F13  1  0.250000  0.674113  0.081146  1
  F  F14  1  0.250000  0.174113  0.418854  1
  F  F15  1  0.750000  0.825887  0.581146  1
  F  F16  1  0.540060  0.302310  0.124847  1
  F  F17  1  0.459940  0.697690  0.875153  1
  F  F18  1  0.459940  0.197690  0.624847  1
  F  F19  1  0.040060  0.697690  0.875153  1
  F  F20  1  0.540060  0.802310  0.375153  1
  F  F21  1  0.959940  0.302310  0.124847  1
  F  F22  1  0.959940  0.802310  0.375153  1
  F  F23  1  0.040060  0.197690  0.624847  1
  F  F24  1  0.500000  0.000000  0.000000  1
  F  F25  1  0.500000  0.500000  0.500000  1
  F  F26  1  0.000000  0.000000  0.000000  1
  F  F27  1  0.000000  0.500000  0.500000  1
  F  F28  1  0.750000  0.047945  0.192656  1
  F  F29  1  0.250000  0.952055  0.807344  1
  F  F30  1  0.250000  0.452055  0.692656  1
  F  F31  1  0.750000  0.547945  0.307344  1
