# generated using pymatgen
data_CeErCI
_symmetry_space_group_name_H-M   'P 1'
_cell_length_a   3.74673900
_cell_length_b   3.74673912
_cell_length_c   15.15872700
_cell_angle_alpha   90.00000000
_cell_angle_beta   90.00000000
_cell_angle_gamma   120.00000781
_symmetry_Int_Tables_number   1
_chemical_formula_structural   CeErCI
_chemical_formula_sum   'Ce2 Er2 C2 I2'
_cell_volume   184.28934413
_cell_formula_units_Z   2
loop_
 _symmetry_equiv_pos_site_id
 _symmetry_equiv_pos_as_xyz
  1  'x, y, z'
loop_
 _atom_site_type_symbol
 _atom_site_label
 _atom_site_symmetry_multiplicity
 _atom_site_fract_x
 _atom_site_fract_y
 _atom_site_fract_z
 _atom_site_occupancy
  Ce  Ce0  1  0.666667  0.333333  0.586280  1
  Ce  Ce1  1  0.333333  0.666667  0.086280  1
  Er  Er2  1  0.333333  0.666667  0.413752  1
  Er  Er3  1  0.666667  0.333333  0.913752  1
  C  C4  1  0.000000  0.000000  0.493430  1
  C  C5  1  0.000000  0.000000  0.993430  1
  I  I6  1  0.666667  0.333333  0.256537  1
  I  I7  1  0.333333  0.666667  0.756537  1
