# generated using pymatgen
data_Cs2TiZn2CdAs4
_symmetry_space_group_name_H-M   'P 1'
_cell_length_a   8.29013029
_cell_length_b   8.29013035
_cell_length_c   6.05760300
_cell_angle_alpha   90.00000000
_cell_angle_beta   90.00000000
_cell_angle_gamma   137.06129193
_symmetry_Int_Tables_number   1
_chemical_formula_structural   Cs2TiZn2CdAs4
_chemical_formula_sum   'Cs2 Ti1 Zn2 Cd1 As4'
_cell_volume   283.60123137
_cell_formula_units_Z   1
loop_
 _symmetry_equiv_pos_site_id
 _symmetry_equiv_pos_as_xyz
  1  'x, y, z'
loop_
 _atom_site_type_symbol
 _atom_site_label
 _atom_site_symmetry_multiplicity
 _atom_site_fract_x
 _atom_site_fract_y
 _atom_site_fract_z
 _atom_site_occupancy
  Cs  Cs0  1  0.500000  0.000000  0.257187  1
  Cs  Cs1  1  0.000000  0.500000  0.742813  1
  Ti  Ti2  1  0.000000  0.000000  0.000000  1
  Zn  Zn3  1  0.500000  0.500000  0.000000  1
  Zn  Zn4  1  0.000000  0.000000  0.500000  1
  Cd  Cd5  1  0.500000  0.500000  0.500000  1
  As  As6  1  0.670354  0.865083  0.768460  1
  As  As7  1  0.134917  0.329646  0.231540  1
  As  As8  1  0.865083  0.670354  0.231540  1
  As  As9  1  0.329646  0.134917  0.768460  1
