# generated using pymatgen
data_Pa2SnH4
_symmetry_space_group_name_H-M   'P 1'
_cell_length_a   6.19999285
_cell_length_b   6.19999337
_cell_length_c   6.19999221
_cell_angle_alpha   105.83980228
_cell_angle_beta   105.83981090
_cell_angle_gamma   117.00721116
_symmetry_Int_Tables_number   1
_chemical_formula_structural   Pa2SnH4
_chemical_formula_sum   'Pa4 Sn2 H8'
_cell_volume   181.05441355
_cell_formula_units_Z   2
loop_
 _symmetry_equiv_pos_site_id
 _symmetry_equiv_pos_as_xyz
  1  'x, y, z'
loop_
 _atom_site_type_symbol
 _atom_site_label
 _atom_site_symmetry_multiplicity
 _atom_site_fract_x
 _atom_site_fract_y
 _atom_site_fract_z
 _atom_site_occupancy
  Pa  Pa0  1  0.845184  0.654816  0.500000  1
  Pa  Pa1  1  0.654816  0.154816  0.809633  1
  Pa  Pa2  1  0.154816  0.345184  0.500000  1
  Pa  Pa3  1  0.345184  0.845184  0.190367  1
  Sn  Sn4  1  0.750000  0.750000  0.000000  1
  Sn  Sn5  1  0.250000  0.250000  0.000000  1
  H  H6  1  0.215799  0.982994  0.500000  1
  H  H7  1  0.482994  0.715799  0.500000  1
  H  H8  1  0.715799  0.215799  0.232806  1
  H  H9  1  0.982994  0.482994  0.767194  1
  H  H10  1  0.284201  0.784201  0.767194  1
  H  H11  1  0.517006  0.284201  0.500000  1
  H  H12  1  0.017006  0.517006  0.232806  1
  H  H13  1  0.784201  0.017006  0.500000  1
