# generated using pymatgen
data_Tb2Nd3Bi3O14
_symmetry_space_group_name_H-M   'P 1'
_cell_length_a   6.69750816
_cell_length_b   6.75155972
_cell_length_c   7.86859206
_cell_angle_alpha   106.68783636
_cell_angle_beta   89.70174458
_cell_angle_gamma   98.52864419
_symmetry_Int_Tables_number   1
_chemical_formula_structural   Tb2Nd3Bi3O14
_chemical_formula_sum   'Tb2 Nd3 Bi3 O14'
_cell_volume   336.79019011
_cell_formula_units_Z   1
loop_
 _symmetry_equiv_pos_site_id
 _symmetry_equiv_pos_as_xyz
  1  'x, y, z'
loop_
 _atom_site_type_symbol
 _atom_site_label
 _atom_site_symmetry_multiplicity
 _atom_site_fract_x
 _atom_site_fract_y
 _atom_site_fract_z
 _atom_site_occupancy
  Tb  Tb0  1  0.458274  0.009269  0.255595  1
  Tb  Tb1  1  0.537499  0.000047  0.748968  1
  Nd  Nd2  1  0.269599  0.535984  0.882766  1
  Nd  Nd3  1  0.741492  0.458198  0.114458  1
  Nd  Nd4  1  0.749962  0.481476  0.618331  1
  Bi  Bi5  1  0.994030  0.998657  0.499830  1
  Bi  Bi6  1  0.998632  0.995615  0.997432  1
  Bi  Bi7  1  0.286597  0.540047  0.389766  1
  O  O8  1  0.448704  0.658002  0.174678  1
  O  O9  1  0.556807  0.349714  0.833694  1
  O  O10  1  0.301457  0.929549  0.952336  1
  O  O11  1  0.697817  0.066350  0.049882  1
  O  O12  1  0.296290  0.934438  0.517061  1
  O  O13  1  0.698514  0.077842  0.488738  1
  O  O14  1  0.542384  0.358776  0.343384  1
  O  O15  1  0.459549  0.647005  0.653750  1
  O  O16  1  0.927279  0.664665  0.944529  1
  O  O17  1  0.068033  0.319637  0.030742  1
  O  O18  1  0.068963  0.330971  0.623966  1
  O  O19  1  0.910267  0.668131  0.386146  1
  O  O20  1  0.872753  0.911083  0.728098  1
  O  O21  1  0.115097  0.064547  0.265846  1
