# generated using pymatgen
data_La3NdDyIr2
_symmetry_space_group_name_H-M   'P 1'
_cell_length_a   6.69451427
_cell_length_b   7.31453214
_cell_length_c   9.10293485
_cell_angle_alpha   96.26997587
_cell_angle_beta   111.57457290
_cell_angle_gamma   90.00000675
_symmetry_Int_Tables_number   1
_chemical_formula_structural   La3NdDyIr2
_chemical_formula_sum   'La6 Nd2 Dy2 Ir4'
_cell_volume   411.64801677
_cell_formula_units_Z   2
loop_
 _symmetry_equiv_pos_site_id
 _symmetry_equiv_pos_as_xyz
  1  'x, y, z'
loop_
 _atom_site_type_symbol
 _atom_site_label
 _atom_site_symmetry_multiplicity
 _atom_site_fract_x
 _atom_site_fract_y
 _atom_site_fract_z
 _atom_site_occupancy
  La  La0  1  0.796716  0.081849  0.817883  1
  La  La1  1  0.978833  0.418151  0.182117  1
  La  La2  1  0.202171  0.914307  0.184096  1
  La  La3  1  0.018074  0.585693  0.815904  1
  La  La4  1  0.215188  0.184314  0.574517  1
  La  La5  1  0.640670  0.315686  0.425483  1
  Nd  Nd6  1  0.785574  0.813600  0.427421  1
  Nd  Nd7  1  0.358153  0.686400  0.572579  1
  Dy  Dy8  1  0.436222  0.250000  0.000000  1
  Dy  Dy9  1  0.565282  0.750000  0.000000  1
  Ir  Ir10  1  0.598815  0.425157  0.787727  1
  Ir  Ir11  1  0.811088  0.074843  0.212273  1
  Ir  Ir12  1  0.403098  0.573377  0.212984  1
  Ir  Ir13  1  0.190114  0.926623  0.787016  1
