# generated using pymatgen
data_TiCo2GeMoP
_symmetry_space_group_name_H-M   'P 1'
_cell_length_a   3.63891200
_cell_length_b   6.09315300
_cell_length_c   6.96990900
_cell_angle_alpha   90.00000000
_cell_angle_beta   90.00000000
_cell_angle_gamma   90.00000000
_symmetry_Int_Tables_number   1
_chemical_formula_structural   TiCo2GeMoP
_chemical_formula_sum   'Ti2 Co4 Ge2 Mo2 P2'
_cell_volume   154.53994187
_cell_formula_units_Z   2
loop_
 _symmetry_equiv_pos_site_id
 _symmetry_equiv_pos_as_xyz
  1  'x, y, z'
loop_
 _atom_site_type_symbol
 _atom_site_label
 _atom_site_symmetry_multiplicity
 _atom_site_fract_x
 _atom_site_fract_y
 _atom_site_fract_z
 _atom_site_occupancy
  Ti  Ti0  1  0.750000  0.020298  0.680398  1
  Ti  Ti1  1  0.750000  0.520298  0.819602  1
  Co  Co2  1  0.250000  0.862097  0.921253  1
  Co  Co3  1  0.250000  0.362097  0.578747  1
  Co  Co4  1  0.750000  0.148481  0.044789  1
  Co  Co5  1  0.750000  0.648481  0.455211  1
  Ge  Ge6  1  0.750000  0.771024  0.124121  1
  Ge  Ge7  1  0.750000  0.271024  0.375879  1
  Mo  Mo8  1  0.250000  0.967956  0.331649  1
  Mo  Mo9  1  0.250000  0.467956  0.168351  1
  P  P10  1  0.250000  0.230144  0.879772  1
  P  P11  1  0.250000  0.730144  0.620228  1
