# generated using pymatgen
data_Er4ZnIn2AgAu2
_symmetry_space_group_name_H-M   'P 1'
_cell_length_a   7.90434836
_cell_length_b   7.89374048
_cell_length_c   3.71881200
_cell_angle_alpha   90.00000000
_cell_angle_beta   90.00000000
_cell_angle_gamma   90.58875592
_symmetry_Int_Tables_number   1
_chemical_formula_structural   Er4ZnIn2AgAu2
_chemical_formula_sum   'Er4 Zn1 In2 Ag1 Au2'
_cell_volume   232.02255819
_cell_formula_units_Z   1
loop_
 _symmetry_equiv_pos_site_id
 _symmetry_equiv_pos_as_xyz
  1  'x, y, z'
loop_
 _atom_site_type_symbol
 _atom_site_label
 _atom_site_symmetry_multiplicity
 _atom_site_fract_x
 _atom_site_fract_y
 _atom_site_fract_z
 _atom_site_occupancy
  Er  Er0  1  0.669724  0.176672  0.500000  1
  Er  Er1  1  0.326784  0.832993  0.500000  1
  Er  Er2  1  0.169758  0.325903  0.500000  1
  Er  Er3  1  0.830805  0.664970  0.500000  1
  Zn  Zn4  1  0.125827  0.624631  0.000000  1
  In  In5  1  0.496999  0.502899  0.000000  1
  In  In6  1  0.998967  0.996657  0.000000  1
  Ag  Ag7  1  0.629391  0.870637  0.000000  1
  Au  Au8  1  0.878985  0.377812  0.000000  1
  Au  Au9  1  0.372762  0.126827  0.000000  1
