# generated using pymatgen
data_Tm3Ga3Ru2Au
_symmetry_space_group_name_H-M   'P 1'
_cell_length_a   7.25388100
_cell_length_b   7.25388106
_cell_length_c   3.84575300
_cell_angle_alpha   90.00000000
_cell_angle_beta   90.00000000
_cell_angle_gamma   119.99999640
_symmetry_Int_Tables_number   1
_chemical_formula_structural   Tm3Ga3Ru2Au
_chemical_formula_sum   'Tm3 Ga3 Ru2 Au1'
_cell_volume   175.24792796
_cell_formula_units_Z   1
loop_
 _symmetry_equiv_pos_site_id
 _symmetry_equiv_pos_as_xyz
  1  'x, y, z'
loop_
 _atom_site_type_symbol
 _atom_site_label
 _atom_site_symmetry_multiplicity
 _atom_site_fract_x
 _atom_site_fract_y
 _atom_site_fract_z
 _atom_site_occupancy
  Tm  Tm0  1  0.417802  0.399607  0.500000  1
  Tm  Tm1  1  0.600393  0.018195  0.500000  1
  Tm  Tm2  1  0.981805  0.582198  0.500000  1
  Ga  Ga3  1  0.766466  0.743368  0.000000  1
  Ga  Ga4  1  0.256632  0.023099  0.000000  1
  Ga  Ga5  1  0.976901  0.233534  0.000000  1
  Ru  Ru6  1  0.666667  0.333333  0.000000  1
  Ru  Ru7  1  0.000000  0.000000  0.500000  1
  Au  Au8  1  0.333333  0.666667  0.000000  1
