# generated using pymatgen
data_Ce2NiRhPb
_symmetry_space_group_name_H-M   'P 1'
_cell_length_a   7.69449700
_cell_length_b   7.68987900
_cell_length_c   3.70154800
_cell_angle_alpha   90.00000000
_cell_angle_beta   90.00000000
_cell_angle_gamma   90.00000000
_symmetry_Int_Tables_number   1
_chemical_formula_structural   Ce2NiRhPb
_chemical_formula_sum   'Ce4 Ni2 Rh2 Pb2'
_cell_volume   219.01967309
_cell_formula_units_Z   2
loop_
 _symmetry_equiv_pos_site_id
 _symmetry_equiv_pos_as_xyz
  1  'x, y, z'
loop_
 _atom_site_type_symbol
 _atom_site_label
 _atom_site_symmetry_multiplicity
 _atom_site_fract_x
 _atom_site_fract_y
 _atom_site_fract_z
 _atom_site_occupancy
  Ce  Ce0  1  0.325844  0.172952  0.499999  1
  Ce  Ce1  1  0.825844  0.327047  0.499999  1
  Ce  Ce2  1  0.172009  0.673094  0.499999  1
  Ce  Ce3  1  0.672009  0.826905  0.499999  1
  Ni  Ni4  1  0.629239  0.129074  0.000000  1
  Ni  Ni5  1  0.129240  0.370926  0.000000  1
  Rh  Rh6  1  0.875096  0.623608  0.000000  1
  Rh  Rh7  1  0.375096  0.876391  0.000000  1
  Pb  Pb8  1  0.997809  0.003814  0.000000  1
  Pb  Pb9  1  0.497809  0.496186  0.000000  1
