# generated using pymatgen
data_Yb5P3F
_symmetry_space_group_name_H-M   'P 1'
_cell_length_a   6.35310600
_cell_length_b   8.20869354
_cell_length_c   8.20869500
_cell_angle_alpha   120.00000187
_cell_angle_beta   90.00000000
_cell_angle_gamma   90.00000000
_symmetry_Int_Tables_number   1
_chemical_formula_structural   Yb5P3F
_chemical_formula_sum   'Yb10 P6 F2'
_cell_volume   370.73610803
_cell_formula_units_Z   2
loop_
 _symmetry_equiv_pos_site_id
 _symmetry_equiv_pos_as_xyz
  1  'x, y, z'
loop_
 _atom_site_type_symbol
 _atom_site_label
 _atom_site_symmetry_multiplicity
 _atom_site_fract_x
 _atom_site_fract_y
 _atom_site_fract_z
 _atom_site_occupancy
  Yb  Yb0  1  0.500000  0.333333  0.666667  1
  Yb  Yb1  1  0.500000  0.666666  0.333333  1
  Yb  Yb2  1  0.000000  0.666667  0.333333  1
  Yb  Yb3  1  0.000000  0.333334  0.666667  1
  Yb  Yb4  1  0.750000  0.245589  0.000000  1
  Yb  Yb5  1  0.750000  0.754411  0.754411  1
  Yb  Yb6  1  0.750000  0.000000  0.245589  1
  Yb  Yb7  1  0.250000  0.754411  0.000000  1
  Yb  Yb8  1  0.250000  0.245589  0.245589  1
  Yb  Yb9  1  0.250000  0.000000  0.754411  1
  P  P10  1  0.750000  0.607837  0.000000  1
  P  P11  1  0.750000  0.392163  0.392163  1
  P  P12  1  0.750000  0.000000  0.607837  1
  P  P13  1  0.250000  0.392163  0.000000  1
  P  P14  1  0.250000  0.607837  0.607837  1
  P  P15  1  0.250000  0.000000  0.392163  1
  F  F16  1  0.500000  0.000000  0.000000  1
  F  F17  1  0.000000  0.000000  0.000000  1
