# generated using pymatgen
data_LiNd6(P3Rh5)4
_symmetry_space_group_name_H-M   'P 1'
_cell_length_a   13.51278000
_cell_length_b   13.51277885
_cell_length_c   3.94423100
_cell_angle_alpha   90.00000000
_cell_angle_beta   90.00000000
_cell_angle_gamma   119.99999793
_symmetry_Int_Tables_number   1
_chemical_formula_structural   LiNd6(P3Rh5)4
_chemical_formula_sum   'Li1 Nd6 P12 Rh20'
_cell_volume   623.70949857
_cell_formula_units_Z   1
loop_
 _symmetry_equiv_pos_site_id
 _symmetry_equiv_pos_as_xyz
  1  'x, y, z'
loop_
 _atom_site_type_symbol
 _atom_site_label
 _atom_site_symmetry_multiplicity
 _atom_site_fract_x
 _atom_site_fract_y
 _atom_site_fract_z
 _atom_site_occupancy
  Li  Li0  1  0.000000  0.000000  0.000000  1
  Nd  Nd1  1  0.531143  0.717809  0.250324  1
  Nd  Nd2  1  0.282191  0.813334  0.250324  1
  Nd  Nd3  1  0.186666  0.468857  0.250324  1
  Nd  Nd4  1  0.468857  0.282191  0.749676  1
  Nd  Nd5  1  0.717809  0.186666  0.749676  1
  Nd  Nd6  1  0.813334  0.531143  0.749676  1
  P  P7  1  0.522900  0.135463  0.250059  1
  P  P8  1  0.864537  0.387438  0.250059  1
  P  P9  1  0.612562  0.477100  0.250059  1
  P  P10  1  0.950289  0.725019  0.248196  1
  P  P11  1  0.274981  0.225271  0.248196  1
  P  P12  1  0.774729  0.049711  0.248196  1
  P  P13  1  0.387438  0.522900  0.749941  1
  P  P14  1  0.477100  0.864537  0.749941  1
  P  P15  1  0.135463  0.612562  0.749941  1
  P  P16  1  0.725019  0.774729  0.751804  1
  P  P17  1  0.225271  0.950289  0.751804  1
  P  P18  1  0.049711  0.274981  0.751804  1
  Rh  Rh19  1  0.333333  0.666667  0.750979  1
  Rh  Rh20  1  0.922966  0.251076  0.247752  1
  Rh  Rh21  1  0.748924  0.671890  0.247752  1
  Rh  Rh22  1  0.328110  0.077034  0.247752  1
  Rh  Rh23  1  0.440643  0.025295  0.749323  1
  Rh  Rh24  1  0.974705  0.415349  0.749323  1
  Rh  Rh25  1  0.584651  0.559357  0.749323  1
  Rh  Rh26  1  0.666667  0.333333  0.249021  1
  Rh  Rh27  1  0.093618  0.198891  0.253291  1
  Rh  Rh28  1  0.801109  0.894726  0.253291  1
  Rh  Rh29  1  0.105274  0.906382  0.253291  1
  Rh  Rh30  1  0.025295  0.584651  0.250677  1
  Rh  Rh31  1  0.415349  0.440643  0.250677  1
  Rh  Rh32  1  0.559357  0.974705  0.250677  1
  Rh  Rh33  1  0.671890  0.922966  0.752248  1
  Rh  Rh34  1  0.077034  0.748924  0.752248  1
  Rh  Rh35  1  0.251076  0.328110  0.752248  1
  Rh  Rh36  1  0.906382  0.801109  0.746709  1
  Rh  Rh37  1  0.198891  0.105274  0.746709  1
  Rh  Rh38  1  0.894726  0.093618  0.746709  1
