# generated using pymatgen
data_DyY(BIr)8
_symmetry_space_group_name_H-M   'P 1'
_cell_length_a   7.63505200
_cell_length_b   7.63505200
_cell_length_c   3.99421600
_cell_angle_alpha   90.00000000
_cell_angle_beta   90.00000000
_cell_angle_gamma   90.00000000
_symmetry_Int_Tables_number   1
_chemical_formula_structural   DyY(BIr)8
_chemical_formula_sum   'Dy1 Y1 B8 Ir8'
_cell_volume   232.83890356
_cell_formula_units_Z   1
loop_
 _symmetry_equiv_pos_site_id
 _symmetry_equiv_pos_as_xyz
  1  'x, y, z'
loop_
 _atom_site_type_symbol
 _atom_site_label
 _atom_site_symmetry_multiplicity
 _atom_site_fract_x
 _atom_site_fract_y
 _atom_site_fract_z
 _atom_site_occupancy
  Dy  Dy0  1  0.000000  0.000000  0.000000  1
  Y  Y1  1  0.500000  0.500000  0.500000  1
  B  B2  1  0.341873  0.778783  0.888735  1
  B  B3  1  0.658127  0.221217  0.888735  1
  B  B4  1  0.778783  0.658127  0.111265  1
  B  B5  1  0.221217  0.341873  0.111265  1
  B  B6  1  0.278733  0.158091  0.388720  1
  B  B7  1  0.721267  0.841909  0.388720  1
  B  B8  1  0.841909  0.278733  0.611280  1
  B  B9  1  0.158091  0.721267  0.611280  1
  Ir  Ir10  1  0.390427  0.159927  0.887450  1
  Ir  Ir11  1  0.609573  0.840073  0.887450  1
  Ir  Ir12  1  0.840073  0.390427  0.112550  1
  Ir  Ir13  1  0.159927  0.609573  0.112550  1
  Ir  Ir14  1  0.340003  0.890497  0.387366  1
  Ir  Ir15  1  0.659997  0.109503  0.387366  1
  Ir  Ir16  1  0.890497  0.659997  0.612634  1
  Ir  Ir17  1  0.109503  0.340003  0.612634  1
