# generated using pymatgen
data_DyPaBiN2
_symmetry_space_group_name_H-M   'P 1'
_cell_length_a   7.27008143
_cell_length_b   7.27008031
_cell_length_c   7.27008000
_cell_angle_alpha   148.90566912
_cell_angle_beta   148.90565440
_cell_angle_gamma   44.55018237
_symmetry_Int_Tables_number   1
_chemical_formula_structural   DyPaBiN2
_chemical_formula_sum   'Dy1 Pa1 Bi1 N2'
_cell_volume   102.18031490
_cell_formula_units_Z   1
loop_
 _symmetry_equiv_pos_site_id
 _symmetry_equiv_pos_as_xyz
  1  'x, y, z'
loop_
 _atom_site_type_symbol
 _atom_site_label
 _atom_site_symmetry_multiplicity
 _atom_site_fract_x
 _atom_site_fract_y
 _atom_site_fract_z
 _atom_site_occupancy
  Dy  Dy0  1  0.334318  0.334318  0.000000  1
  Pa  Pa1  1  0.673191  0.673191  0.000000  1
  Bi  Bi2  1  0.002035  0.002035  0.000000  1
  N  N3  1  0.245228  0.745228  0.500000  1
  N  N4  1  0.745228  0.245228  0.500000  1
