# generated using pymatgen
data_Sc12InCoTcNi3
_symmetry_space_group_name_H-M   'P 1'
_cell_length_a   7.75654186
_cell_length_b   7.75654212
_cell_length_c   7.75654243
_cell_angle_alpha   111.25424891
_cell_angle_beta   110.90920135
_cell_angle_gamma   106.29630346
_symmetry_Int_Tables_number   1
_chemical_formula_structural   Sc12InCoTcNi3
_chemical_formula_sum   'Sc12 In1 Co1 Tc1 Ni3'
_cell_volume   358.41336515
_cell_formula_units_Z   1
loop_
 _symmetry_equiv_pos_site_id
 _symmetry_equiv_pos_as_xyz
  1  'x, y, z'
loop_
 _atom_site_type_symbol
 _atom_site_label
 _atom_site_symmetry_multiplicity
 _atom_site_fract_x
 _atom_site_fract_y
 _atom_site_fract_z
 _atom_site_occupancy
  Sc  Sc0  1  0.422528  0.227830  0.194697  1
  Sc  Sc1  1  0.577808  0.772077  0.805732  1
  Sc  Sc2  1  0.033134  0.227830  0.805303  1
  Sc  Sc3  1  0.966345  0.772077  0.194268  1
  Sc  Sc4  1  0.319200  0.618217  0.299017  1
  Sc  Sc5  1  0.684804  0.382785  0.697981  1
  Sc  Sc6  1  0.319200  0.020182  0.700983  1
  Sc  Sc7  1  0.684804  0.986823  0.302019  1
  Sc  Sc8  1  0.180315  0.274966  0.458497  1
  Sc  Sc9  1  0.816470  0.721818  0.541503  1
  Sc  Sc10  1  0.180315  0.721818  0.905349  1
  Sc  Sc11  1  0.816470  0.274966  0.094651  1
  In  In12  1  0.499888  0.499888  0.000000  1
  Co  Co13  1  0.879027  0.379027  0.500000  1
  Tc  Tc14  1  0.998951  0.998951  0.000000  1
  Ni  Ni15  1  0.355489  0.999290  0.356199  1
  Ni  Ni16  1  0.643092  0.999290  0.643801  1
  Ni  Ni17  1  0.122161  0.622161  0.500000  1
