# generated using pymatgen
data_Tm16Co3Ag4Rh
_symmetry_space_group_name_H-M   'P 1'
_cell_length_a   9.30416836
_cell_length_b   9.30191559
_cell_length_c   9.30235010
_cell_angle_alpha   59.71330114
_cell_angle_beta   59.71844318
_cell_angle_gamma   59.71759071
_symmetry_Int_Tables_number   1
_chemical_formula_structural   Tm16Co3Ag4Rh
_chemical_formula_sum   'Tm16 Co3 Ag4 Rh1'
_cell_volume   565.61590917
_cell_formula_units_Z   1
loop_
 _symmetry_equiv_pos_site_id
 _symmetry_equiv_pos_as_xyz
  1  'x, y, z'
loop_
 _atom_site_type_symbol
 _atom_site_label
 _atom_site_symmetry_multiplicity
 _atom_site_fract_x
 _atom_site_fract_y
 _atom_site_fract_z
 _atom_site_occupancy
  Tm  Tm0  1  0.346928  0.347014  0.347074  1
  Tm  Tm1  1  0.352882  0.352978  0.951522  1
  Tm  Tm2  1  0.352863  0.951512  0.353011  1
  Tm  Tm3  1  0.951577  0.352911  0.352962  1
  Tm  Tm4  1  0.805282  0.188839  0.188848  1
  Tm  Tm5  1  0.188570  0.811837  0.811768  1
  Tm  Tm6  1  0.188835  0.805249  0.188843  1
  Tm  Tm7  1  0.811882  0.188574  0.811725  1
  Tm  Tm8  1  0.188833  0.188831  0.805211  1
  Tm  Tm9  1  0.811840  0.811754  0.188576  1
  Tm  Tm10  1  0.936834  0.563528  0.563538  1
  Tm  Tm11  1  0.562894  0.937129  0.937097  1
  Tm  Tm12  1  0.563526  0.936827  0.563519  1
  Tm  Tm13  1  0.937111  0.562903  0.937098  1
  Tm  Tm14  1  0.563546  0.563532  0.936826  1
  Tm  Tm15  1  0.937111  0.937128  0.562885  1
  Co  Co16  1  0.141374  0.141371  0.575115  1
  Co  Co17  1  0.141359  0.575129  0.141374  1
  Co  Co18  1  0.575138  0.141357  0.141376  1
  Ag  Ag19  1  0.581676  0.581677  0.581678  1
  Ag  Ag20  1  0.581540  0.581540  0.254972  1
  Ag  Ag21  1  0.581538  0.254968  0.581541  1
  Ag  Ag22  1  0.254969  0.581539  0.581542  1
  Rh  Rh23  1  0.141890  0.141872  0.141899  1
