# generated using pymatgen
data_Dy6Y4(AlBi)3
_symmetry_space_group_name_H-M   'P 1'
_cell_length_a   9.07508300
_cell_length_b   9.09898369
_cell_length_c   6.48551000
_cell_angle_alpha   90.00000000
_cell_angle_beta   90.00000000
_cell_angle_gamma   119.95552660
_symmetry_Int_Tables_number   1
_chemical_formula_structural   Dy6Y4(AlBi)3
_chemical_formula_sum   'Dy6 Y4 Al3 Bi3'
_cell_volume   463.99436816
_cell_formula_units_Z   1
loop_
 _symmetry_equiv_pos_site_id
 _symmetry_equiv_pos_as_xyz
  1  'x, y, z'
loop_
 _atom_site_type_symbol
 _atom_site_label
 _atom_site_symmetry_multiplicity
 _atom_site_fract_x
 _atom_site_fract_y
 _atom_site_fract_z
 _atom_site_occupancy
  Dy  Dy0  1  0.765787  0.751086  0.250000  1
  Dy  Dy1  1  0.014106  0.249629  0.250000  1
  Dy  Dy2  1  0.314252  0.647912  0.496125  1
  Dy  Dy3  1  0.678586  0.344082  0.495997  1
  Dy  Dy4  1  0.314252  0.647912  0.003875  1
  Dy  Dy5  1  0.678586  0.344082  0.004003  1
  Y  Y6  1  0.771384  0.013361  0.750000  1
  Y  Y7  1  0.233210  0.000913  0.250000  1
  Y  Y8  1  0.998925  0.754038  0.750000  1
  Y  Y9  1  0.229936  0.244445  0.750000  1
  Al  Al10  1  0.995573  0.398173  0.750000  1
  Al  Al11  1  0.397399  0.392082  0.250000  1
  Al  Al12  1  0.000487  0.602808  0.250000  1
  Bi  Bi13  1  0.605920  0.612005  0.750000  1
  Bi  Bi14  1  0.392828  0.002365  0.750000  1
  Bi  Bi15  1  0.608770  0.995107  0.250000  1
