# generated using pymatgen
data_Sm3TmV4F28
_symmetry_space_group_name_H-M   'P 1'
_cell_length_a   5.55244484
_cell_length_b   8.92721704
_cell_length_c   11.92297418
_cell_angle_alpha   63.15466653
_cell_angle_beta   90.06330699
_cell_angle_gamma   90.03148761
_symmetry_Int_Tables_number   1
_chemical_formula_structural   Sm3TmV4F28
_chemical_formula_sum   'Sm3 Tm1 V4 F28'
_cell_volume   527.30382357
_cell_formula_units_Z   1
loop_
 _symmetry_equiv_pos_site_id
 _symmetry_equiv_pos_as_xyz
  1  'x, y, z'
loop_
 _atom_site_type_symbol
 _atom_site_label
 _atom_site_symmetry_multiplicity
 _atom_site_fract_x
 _atom_site_fract_y
 _atom_site_fract_z
 _atom_site_occupancy
  Sm  Sm0  1  0.258211  0.186547  0.732176  1
  Sm  Sm1  1  0.241475  0.192019  0.231125  1
  Sm  Sm2  1  0.741635  0.805178  0.269659  1
  Tm  Tm3  1  0.759917  0.804265  0.770114  1
  V  V4  1  0.754351  0.277512  0.953931  1
  V  V5  1  0.255646  0.726670  0.548580  1
  V  V6  1  0.246401  0.726581  0.040274  1
  V  V7  1  0.746924  0.271359  0.457404  1
  F  F8  1  0.450705  0.708381  0.919860  1
  F  F9  1  0.946217  0.292498  0.578320  1
  F  F10  1  0.555060  0.295794  0.076028  1
  F  F11  1  0.053717  0.707587  0.427412  1
  F  F12  1  0.463648  0.284198  0.544427  1
  F  F13  1  0.963112  0.717472  0.950201  1
  F  F14  1  0.535006  0.714891  0.459038  1
  F  F15  1  0.037237  0.287861  0.041650  1
  F  F16  1  0.764193  0.509154  0.861861  1
  F  F17  1  0.265612  0.496590  0.640032  1
  F  F18  1  0.231769  0.496762  0.132891  1
  F  F19  1  0.734369  0.502817  0.364901  1
  F  F20  1  0.758585  0.048710  0.044715  1
  F  F21  1  0.258920  0.955383  0.456491  1
  F  F22  1  0.241547  0.956200  0.951530  1
  F  F23  1  0.741679  0.043663  0.547156  1
  F  F24  1  0.981300  0.733683  0.642821  1
  F  F25  1  0.479911  0.269408  0.861901  1
  F  F26  1  0.023416  0.269194  0.364660  1
  F  F27  1  0.519665  0.730991  0.134049  1
  F  F28  1  0.046433  0.745849  0.163950  1
  F  F29  1  0.549402  0.254058  0.332433  1
  F  F30  1  0.951833  0.256912  0.830527  1
  F  F31  1  0.461903  0.749472  0.669936  1
  F  F32  1  0.410643  0.968071  0.229053  1
  F  F33  1  0.910480  0.030209  0.271128  1
  F  F34  1  0.586938  0.018204  0.769122  1
  F  F35  1  0.072137  0.965857  0.730643  1
