# generated using pymatgen
data_Tb2Ho2Os7W
_symmetry_space_group_name_H-M   'P 1'
_cell_length_a   5.30074557
_cell_length_b   5.30074499
_cell_length_c   8.89746706
_cell_angle_alpha   89.98842715
_cell_angle_beta   90.01157295
_cell_angle_gamma   117.93982771
_symmetry_Int_Tables_number   1
_chemical_formula_structural   Tb2Ho2Os7W
_chemical_formula_sum   'Tb2 Ho2 Os7 W1'
_cell_volume   220.86015829
_cell_formula_units_Z   1
loop_
 _symmetry_equiv_pos_site_id
 _symmetry_equiv_pos_as_xyz
  1  'x, y, z'
loop_
 _atom_site_type_symbol
 _atom_site_label
 _atom_site_symmetry_multiplicity
 _atom_site_fract_x
 _atom_site_fract_y
 _atom_site_fract_z
 _atom_site_occupancy
  Tb  Tb0  1  0.329246  0.670754  0.437630  1
  Tb  Tb1  1  0.666501  0.333499  0.566608  1
  Ho  Ho2  1  0.666751  0.333249  0.933643  1
  Ho  Ho3  1  0.329039  0.670961  0.062259  1
  Os  Os4  1  0.992233  0.007767  0.502429  1
  Os  Os5  1  0.992252  0.007748  0.997486  1
  Os  Os6  1  0.825377  0.649678  0.248639  1
  Os  Os7  1  0.350322  0.174623  0.248639  1
  Os  Os8  1  0.177047  0.822953  0.751227  1
  Os  Os9  1  0.173003  0.338718  0.751239  1
  Os  Os10  1  0.661282  0.826997  0.751239  1
  W  W11  1  0.836948  0.163052  0.248963  1
