# generated using pymatgen
data_Hf8In4Pt7Rh
_symmetry_space_group_name_H-M   'P 1'
_cell_length_a   7.58531432
_cell_length_b   7.58531471
_cell_length_c   6.71973370
_cell_angle_alpha   90.02219078
_cell_angle_beta   89.97781410
_cell_angle_gamma   89.97066590
_symmetry_Int_Tables_number   1
_chemical_formula_structural   Hf8In4Pt7Rh
_chemical_formula_sum   'Hf8 In4 Pt7 Rh1'
_cell_volume   386.63318437
_cell_formula_units_Z   1
loop_
 _symmetry_equiv_pos_site_id
 _symmetry_equiv_pos_as_xyz
  1  'x, y, z'
loop_
 _atom_site_type_symbol
 _atom_site_label
 _atom_site_symmetry_multiplicity
 _atom_site_fract_x
 _atom_site_fract_y
 _atom_site_fract_z
 _atom_site_occupancy
  Hf  Hf0  1  0.152977  0.148095  0.997074  1
  Hf  Hf1  1  0.851905  0.847023  0.997074  1
  Hf  Hf2  1  0.650462  0.349538  0.500145  1
  Hf  Hf3  1  0.345570  0.654430  0.501653  1
  Hf  Hf4  1  0.681734  0.318266  0.000535  1
  Hf  Hf5  1  0.316164  0.683836  0.997249  1
  Hf  Hf6  1  0.821447  0.818439  0.501513  1
  Hf  Hf7  1  0.181561  0.178553  0.501513  1
  In  In8  1  0.501111  0.999788  0.249184  1
  In  In9  1  0.496947  0.998882  0.750053  1
  In  In10  1  0.000212  0.498889  0.249184  1
  In  In11  1  0.001118  0.503053  0.750053  1
  Pt  Pt12  1  0.368470  0.369361  0.221149  1
  Pt  Pt13  1  0.630531  0.630761  0.778996  1
  Pt  Pt14  1  0.630639  0.631530  0.221149  1
  Pt  Pt15  1  0.869024  0.130976  0.721549  1
  Pt  Pt16  1  0.868691  0.131309  0.279936  1
  Pt  Pt17  1  0.369239  0.369469  0.778996  1
  Pt  Pt18  1  0.130814  0.869186  0.278938  1
  Rh  Rh19  1  0.131385  0.868615  0.724058  1
