# generated using pymatgen
data_U3Cr(PO4)6
_symmetry_space_group_name_H-M   'P 1'
_cell_length_a   9.10420278
_cell_length_b   9.10420320
_cell_length_c   9.34048385
_cell_angle_alpha   60.83332770
_cell_angle_beta   60.83332782
_cell_angle_gamma   59.99999990
_symmetry_Int_Tables_number   1
_chemical_formula_structural   U3Cr(PO4)6
_chemical_formula_sum   'U3 Cr1 P6 O24'
_cell_volume   554.23656750
_cell_formula_units_Z   1
loop_
 _symmetry_equiv_pos_site_id
 _symmetry_equiv_pos_as_xyz
  1  'x, y, z'
loop_
 _atom_site_type_symbol
 _atom_site_label
 _atom_site_symmetry_multiplicity
 _atom_site_fract_x
 _atom_site_fract_y
 _atom_site_fract_z
 _atom_site_occupancy
  U  U0  1  0.141695  0.141695  0.574916  1
  U  U1  1  0.356063  0.356063  0.931812  1
  U  U2  1  0.640438  0.640438  0.078686  1
  Cr  Cr3  1  0.855353  0.855353  0.433942  1
  P  P4  1  0.747449  0.032551  0.738629  1
  P  P5  1  0.032551  0.481371  0.738629  1
  P  P6  1  0.481371  0.747449  0.738629  1
  P  P7  1  0.551819  0.228514  0.255902  1
  P  P8  1  0.963765  0.551819  0.255902  1
  P  P9  1  0.228514  0.963765  0.255902  1
  O  O10  1  0.265920  0.129205  0.093064  1
  O  O11  1  0.511811  0.265920  0.093064  1
  O  O12  1  0.909676  0.060574  0.725309  1
  O  O13  1  0.129205  0.511811  0.093064  1
  O  O14  1  0.579929  0.202011  0.768491  1
  O  O15  1  0.774814  0.003182  0.580731  1
  O  O16  1  0.060574  0.304441  0.725309  1
  O  O17  1  0.202011  0.449568  0.768491  1
  O  O18  1  0.449568  0.579929  0.768491  1
  O  O19  1  0.377823  0.211714  0.413641  1
  O  O20  1  0.715264  0.065202  0.277958  1
  O  O21  1  0.996822  0.377823  0.413641  1
  O  O22  1  0.003182  0.641273  0.580731  1
  O  O23  1  0.304441  0.909676  0.725309  1
  O  O24  1  0.641273  0.774814  0.580731  1
  O  O25  1  0.571602  0.400710  0.231169  1
  O  O26  1  0.796520  0.571602  0.231169  1
  O  O27  1  0.941576  0.715264  0.277958  1
  O  O28  1  0.211714  0.996822  0.413641  1
  O  O29  1  0.400710  0.796520  0.231169  1
  O  O30  1  0.872190  0.502815  0.908655  1
  O  O31  1  0.065202  0.941576  0.277958  1
  O  O32  1  0.502815  0.716340  0.908655  1
  O  O33  1  0.716340  0.872190  0.908655  1
