# generated using pymatgen
data_Rb3Na2ZrBi3
_symmetry_space_group_name_H-M   'P 1'
_cell_length_a   14.64373154
_cell_length_b   14.64373211
_cell_length_c   14.64373160
_cell_angle_alpha   150.49049478
_cell_angle_beta   107.15977619
_cell_angle_gamma   80.48467914
_symmetry_Int_Tables_number   1
_chemical_formula_structural   Rb3Na2ZrBi3
_chemical_formula_sum   'Rb12 Na8 Zr4 Bi12'
_cell_volume   1449.73245634
_cell_formula_units_Z   4
loop_
 _symmetry_equiv_pos_site_id
 _symmetry_equiv_pos_as_xyz
  1  'x, y, z'
loop_
 _atom_site_type_symbol
 _atom_site_label
 _atom_site_symmetry_multiplicity
 _atom_site_fract_x
 _atom_site_fract_y
 _atom_site_fract_z
 _atom_site_occupancy
  Rb  Rb0  1  0.591290  0.948639  0.205235  1
  Rb  Rb1  1  0.072330  0.750000  0.822330  1
  Rb  Rb2  1  0.908710  0.113945  0.357349  1
  Rb  Rb3  1  0.408710  0.051361  0.794765  1
  Rb  Rb4  1  0.756596  0.613945  0.705235  1
  Rb  Rb5  1  0.243404  0.386055  0.294765  1
  Rb  Rb6  1  0.091290  0.886055  0.642651  1
  Rb  Rb7  1  0.427670  0.250000  0.677670  1
  Rb  Rb8  1  0.743404  0.448639  0.857349  1
  Rb  Rb9  1  0.256596  0.551361  0.142651  1
  Rb  Rb10  1  0.927670  0.250000  0.177670  1
  Rb  Rb11  1  0.572330  0.750000  0.322330  1
  Na  Na12  1  0.002811  0.252811  0.750000  1
  Na  Na13  1  0.662230  0.912230  0.750000  1
  Na  Na14  1  0.997189  0.747189  0.250000  1
  Na  Na15  1  0.497189  0.247189  0.250000  1
  Na  Na16  1  0.502811  0.752811  0.750000  1
  Na  Na17  1  0.162230  0.412230  0.750000  1
  Na  Na18  1  0.337770  0.087770  0.250000  1
  Na  Na19  1  0.837770  0.587770  0.250000  1
  Zr  Zr20  1  0.668692  0.418692  0.250000  1
  Zr  Zr21  1  0.168692  0.918692  0.250000  1
  Zr  Zr22  1  0.831308  0.081308  0.750000  1
  Zr  Zr23  1  0.331308  0.581308  0.750000  1
  Bi  Bi24  1  0.340898  0.750000  0.090898  1
  Bi  Bi25  1  0.489521  0.549227  0.353616  1
  Bi  Bi26  1  0.989521  0.635906  0.940295  1
  Bi  Bi27  1  0.510479  0.450773  0.646384  1
  Bi  Bi28  1  0.304389  0.864094  0.853616  1
  Bi  Bi29  1  0.695611  0.135906  0.146384  1
  Bi  Bi30  1  0.010479  0.364094  0.059705  1
  Bi  Bi31  1  0.659102  0.250000  0.909102  1
  Bi  Bi32  1  0.804389  0.950773  0.440295  1
  Bi  Bi33  1  0.159102  0.250000  0.409102  1
  Bi  Bi34  1  0.195611  0.049227  0.559705  1
  Bi  Bi35  1  0.840898  0.750000  0.590898  1
