# generated using pymatgen
data_HoZrSi5Rh3
_symmetry_space_group_name_H-M   'P 1'
_cell_length_a   8.04241885
_cell_length_b   8.02570911
_cell_length_c   8.02570908
_cell_angle_alpha   137.92563780
_cell_angle_beta   104.58874895
_cell_angle_gamma   90.30421157
_symmetry_Int_Tables_number   1
_chemical_formula_structural   HoZrSi5Rh3
_chemical_formula_sum   'Ho2 Zr2 Si10 Rh6'
_cell_volume   320.83061678
_cell_formula_units_Z   2
loop_
 _symmetry_equiv_pos_site_id
 _symmetry_equiv_pos_as_xyz
  1  'x, y, z'
loop_
 _atom_site_type_symbol
 _atom_site_label
 _atom_site_symmetry_multiplicity
 _atom_site_fract_x
 _atom_site_fract_y
 _atom_site_fract_z
 _atom_site_occupancy
  Ho  Ho0  1  0.099951  0.367728  0.732223  1
  Ho  Ho1  1  0.900049  0.632272  0.267777  1
  Zr  Zr2  1  0.639625  0.868701  0.770925  1
  Zr  Zr3  1  0.360375  0.131299  0.229075  1
  Si  Si4  1  0.277714  0.023155  0.746956  1
  Si  Si5  1  0.722286  0.976845  0.253044  1
  Si  Si6  1  0.722286  0.469242  0.745441  1
  Si  Si7  1  0.277714  0.530758  0.254559  1
  Si  Si8  1  0.451723  0.608639  0.843084  1
  Si  Si9  1  0.548277  0.391361  0.156916  1
  Si  Si10  1  0.762327  0.101746  0.660580  1
  Si  Si11  1  0.237673  0.898254  0.339420  1
  Si  Si12  1  0.000000  0.749440  0.749440  1
  Si  Si13  1  0.000000  0.250560  0.250560  1
  Rh  Rh14  1  0.251703  0.639318  0.612385  1
  Rh  Rh15  1  0.748297  0.360682  0.387615  1
  Rh  Rh16  1  0.031055  0.138615  0.892441  1
  Rh  Rh17  1  0.968945  0.861385  0.107559  1
  Rh  Rh18  1  0.500000  0.750514  0.250514  1
  Rh  Rh19  1  0.500000  0.249486  0.749486  1
