# generated using pymatgen
data_Ti6GaAsN2
_symmetry_space_group_name_H-M   'P 1'
_cell_length_a   5.49766012
_cell_length_b   5.49766237
_cell_length_c   8.09578800
_cell_angle_alpha   90.00000000
_cell_angle_beta   90.00000000
_cell_angle_gamma   146.31210580
_symmetry_Int_Tables_number   1
_chemical_formula_structural   Ti6GaAsN2
_chemical_formula_sum   'Ti6 Ga1 As1 N2'
_cell_volume   135.72151137
_cell_formula_units_Z   1
loop_
 _symmetry_equiv_pos_site_id
 _symmetry_equiv_pos_as_xyz
  1  'x, y, z'
loop_
 _atom_site_type_symbol
 _atom_site_label
 _atom_site_symmetry_multiplicity
 _atom_site_fract_x
 _atom_site_fract_y
 _atom_site_fract_z
 _atom_site_occupancy
  Ti  Ti0  1  0.954759  0.045241  0.750000  1
  Ti  Ti1  1  0.054223  0.945777  0.250000  1
  Ti  Ti2  1  0.624280  0.375720  0.544133  1
  Ti  Ti3  1  0.372615  0.627385  0.447718  1
  Ti  Ti4  1  0.372615  0.627385  0.052282  1
  Ti  Ti5  1  0.624280  0.375720  0.955867  1
  Ga  Ga6  1  0.252194  0.747806  0.750000  1
  As  As7  1  0.746412  0.253588  0.250000  1
  N  N8  1  0.999311  0.000689  0.497106  1
  N  N9  1  0.999311  0.000689  0.002894  1
