# generated using pymatgen
data_Tb11Tl8InPd3Ru
_symmetry_space_group_name_H-M   'P 1'
_cell_length_a   13.33967374
_cell_length_b   13.34647151
_cell_length_c   3.70063400
_cell_angle_alpha   90.00000000
_cell_angle_beta   90.00000000
_cell_angle_gamma   110.75345620
_symmetry_Int_Tables_number   1
_chemical_formula_structural   Tb11Tl8InPd3Ru
_chemical_formula_sum   'Tb11 Tl8 In1 Pd3 Ru1'
_cell_volume   616.10153273
_cell_formula_units_Z   1
loop_
 _symmetry_equiv_pos_site_id
 _symmetry_equiv_pos_as_xyz
  1  'x, y, z'
loop_
 _atom_site_type_symbol
 _atom_site_label
 _atom_site_symmetry_multiplicity
 _atom_site_fract_x
 _atom_site_fract_y
 _atom_site_fract_z
 _atom_site_occupancy
  Tb  Tb0  1  0.419892  0.080355  0.000000  1
  Tb  Tb1  1  0.582634  0.924800  0.000000  1
  Tb  Tb2  1  0.078522  0.420160  0.000000  1
  Tb  Tb3  1  0.924349  0.580351  0.000000  1
  Tb  Tb4  1  0.157901  0.842180  0.000000  1
  Tb  Tb5  1  0.839613  0.158194  0.000000  1
  Tb  Tb6  1  0.372215  0.626598  0.000000  1
  Tb  Tb7  1  0.617629  0.365228  0.000000  1
  Tb  Tb8  1  0.315548  0.306660  0.000000  1
  Tb  Tb9  1  0.689719  0.688507  0.000000  1
  Tb  Tb10  1  0.999525  0.000206  0.000000  1
  Tl  Tl11  1  0.367994  0.846503  0.500000  1
  Tl  Tl12  1  0.632237  0.159118  0.500000  1
  Tl  Tl13  1  0.844926  0.367995  0.500000  1
  Tl  Tl14  1  0.156344  0.633946  0.500000  1
  Tl  Tl15  1  0.218685  0.073198  0.500000  1
  Tl  Tl16  1  0.783029  0.930125  0.500000  1
  Tl  Tl17  1  0.068023  0.216686  0.500000  1
  Tl  Tl18  1  0.931388  0.783520  0.500000  1
  In  In19  1  0.500355  0.499472  0.500000  1
  Pd  Pd20  1  0.547625  0.749325  0.500000  1
  Pd  Pd21  1  0.252323  0.452635  0.500000  1
  Pd  Pd22  1  0.749787  0.549057  0.500000  1
  Ru  Ru23  1  0.449738  0.245181  0.500000  1
