# generated using pymatgen
data_Na2Ca3Ge3P9Ir19
_symmetry_space_group_name_H-M   'P 1'
_cell_length_a   12.80976572
_cell_length_b   12.82407022
_cell_length_c   3.97119000
_cell_angle_alpha   90.00000000
_cell_angle_beta   90.00000000
_cell_angle_gamma   120.03694885
_symmetry_Int_Tables_number   1
_chemical_formula_structural   Na2Ca3Ge3P9Ir19
_chemical_formula_sum   'Na2 Ca3 Ge3 P9 Ir19'
_cell_volume   564.75040979
_cell_formula_units_Z   1
loop_
 _symmetry_equiv_pos_site_id
 _symmetry_equiv_pos_as_xyz
  1  'x, y, z'
loop_
 _atom_site_type_symbol
 _atom_site_label
 _atom_site_symmetry_multiplicity
 _atom_site_fract_x
 _atom_site_fract_y
 _atom_site_fract_z
 _atom_site_occupancy
  Na  Na0  1  0.822623  0.821702  0.500000  1
  Na  Na1  1  0.177377  0.999079  0.500000  1
  Ca  Ca2  1  0.667523  0.333403  0.000000  1
  Ca  Ca3  1  0.332477  0.665880  0.000000  1
  Ca  Ca4  1  0.000000  0.174619  0.500000  1
  Ge  Ge5  1  0.645115  0.645739  0.000000  1
  Ge  Ge6  1  0.354885  0.000624  0.000000  1
  Ge  Ge7  1  0.000000  0.356882  0.000000  1
  P  P8  1  0.690002  0.173248  0.500000  1
  P  P9  1  0.826424  0.517197  0.500000  1
  P  P10  1  0.484305  0.310127  0.500000  1
  P  P11  1  0.173576  0.690773  0.500000  1
  P  P12  1  0.515695  0.825822  0.500000  1
  P  P13  1  0.309998  0.483246  0.500000  1
  P  P14  1  0.180929  0.178106  0.000000  1
  P  P15  1  0.819071  0.997177  0.000000  1
  P  P16  1  0.000000  0.819753  0.000000  1
  Ir  Ir17  1  0.796140  0.175725  0.000000  1
  Ir  Ir18  1  0.823031  0.618292  0.000000  1
  Ir  Ir19  1  0.382976  0.206353  0.000000  1
  Ir  Ir20  1  0.176969  0.795262  0.000000  1
  Ir  Ir21  1  0.617024  0.823376  0.000000  1
  Ir  Ir22  1  0.203860  0.379585  0.000000  1
  Ir  Ir23  1  0.452846  0.455414  0.000000  1
  Ir  Ir24  1  0.547154  0.002568  0.000000  1
  Ir  Ir25  1  0.000000  0.546360  0.000000  1
  Ir  Ir26  1  0.289923  0.290159  0.500000  1
  Ir  Ir27  1  0.710077  0.000236  0.500000  1
  Ir  Ir28  1  0.000000  0.710424  0.500000  1
  Ir  Ir29  1  0.867543  0.362396  0.500000  1
  Ir  Ir30  1  0.637156  0.505967  0.500000  1
  Ir  Ir31  1  0.494516  0.132489  0.500000  1
  Ir  Ir32  1  0.362844  0.868809  0.500000  1
  Ir  Ir33  1  0.505484  0.637972  0.500000  1
  Ir  Ir34  1  0.132457  0.494852  0.500000  1
  Ir  Ir35  1  0.000000  0.000381  0.000000  1
