# generated using pymatgen
data_ErLu3(Si2Tc)2
_symmetry_space_group_name_H-M   'P 1'
_cell_length_a   5.69050864
_cell_length_b   5.69050865
_cell_length_c   9.90414842
_cell_angle_alpha   64.01469774
_cell_angle_beta   64.01469792
_cell_angle_gamma   42.74799871
_symmetry_Int_Tables_number   1
_chemical_formula_structural   ErLu3(Si2Tc)2
_chemical_formula_sum   'Er1 Lu3 Si4 Tc2'
_cell_volume   192.09251595
_cell_formula_units_Z   1
loop_
 _symmetry_equiv_pos_site_id
 _symmetry_equiv_pos_as_xyz
  1  'x, y, z'
loop_
 _atom_site_type_symbol
 _atom_site_label
 _atom_site_symmetry_multiplicity
 _atom_site_fract_x
 _atom_site_fract_y
 _atom_site_fract_z
 _atom_site_occupancy
  Er  Er0  1  0.811513  0.811513  0.108538  1
  Lu  Lu1  1  0.004386  0.004386  0.323534  1
  Lu  Lu2  1  0.187496  0.187496  0.889291  1
  Lu  Lu3  1  0.995397  0.995397  0.676804  1
  Si  Si4  1  0.504555  0.504555  0.121541  1
  Si  Si5  1  0.496454  0.496454  0.877842  1
  Si  Si6  1  0.360960  0.360960  0.560553  1
  Si  Si7  1  0.638837  0.638837  0.440729  1
  Tc  Tc8  1  0.271827  0.271827  0.369994  1
  Tc  Tc9  1  0.728575  0.728575  0.631173  1
