# generated using pymatgen
data_Pa4Ir3PdPb2
_symmetry_space_group_name_H-M   'P 1'
_cell_length_a   7.88418928
_cell_length_b   7.88418909
_cell_length_c   3.59866400
_cell_angle_alpha   90.00000000
_cell_angle_beta   90.00000000
_cell_angle_gamma   89.62773364
_symmetry_Int_Tables_number   1
_chemical_formula_structural   Pa4Ir3PdPb2
_chemical_formula_sum   'Pa4 Ir3 Pd1 Pb2'
_cell_volume   223.68981289
_cell_formula_units_Z   1
loop_
 _symmetry_equiv_pos_site_id
 _symmetry_equiv_pos_as_xyz
  1  'x, y, z'
loop_
 _atom_site_type_symbol
 _atom_site_label
 _atom_site_symmetry_multiplicity
 _atom_site_fract_x
 _atom_site_fract_y
 _atom_site_fract_z
 _atom_site_occupancy
  Pa  Pa0  1  0.659211  0.159211  0.500000  1
  Pa  Pa1  1  0.180299  0.334564  0.500000  1
  Pa  Pa2  1  0.834564  0.680299  0.500000  1
  Pa  Pa3  1  0.326409  0.826409  0.500000  1
  Ir  Ir4  1  0.368395  0.130263  0.000000  1
  Ir  Ir5  1  0.125298  0.625298  0.000000  1
  Ir  Ir6  1  0.630263  0.868395  0.000000  1
  Pd  Pd7  1  0.867708  0.367708  0.000000  1
  Pb  Pb8  1  0.000964  0.006887  0.000000  1
  Pb  Pb9  1  0.506887  0.500964  0.000000  1
