# generated using pymatgen
data_Y19TmSi15Pt
_symmetry_space_group_name_H-M   'P 1'
_cell_length_a   7.41110700
_cell_length_b   7.73656161
_cell_length_c   14.66886200
_cell_angle_alpha   90.00000000
_cell_angle_beta   90.00000000
_cell_angle_gamma   90.09925319
_symmetry_Int_Tables_number   1
_chemical_formula_structural   Y19TmSi15Pt
_chemical_formula_sum   'Y19 Tm1 Si15 Pt1'
_cell_volume   841.05973714
_cell_formula_units_Z   1
loop_
 _symmetry_equiv_pos_site_id
 _symmetry_equiv_pos_as_xyz
  1  'x, y, z'
loop_
 _atom_site_type_symbol
 _atom_site_label
 _atom_site_symmetry_multiplicity
 _atom_site_fract_x
 _atom_site_fract_y
 _atom_site_fract_z
 _atom_site_occupancy
  Y  Y0  1  0.680453  0.179103  0.623083  1
  Y  Y1  1  0.186581  0.323978  0.876440  1
  Y  Y2  1  0.317743  0.820175  0.123233  1
  Y  Y3  1  0.817527  0.677848  0.376523  1
  Y  Y4  1  0.317743  0.820175  0.376767  1
  Y  Y5  1  0.817527  0.677848  0.123477  1
  Y  Y6  1  0.680453  0.179103  0.876917  1
  Y  Y7  1  0.186581  0.323978  0.623560  1
  Y  Y8  1  0.525624  0.681629  0.594390  1
  Y  Y9  1  0.026952  0.817551  0.904067  1
  Y  Y10  1  0.473196  0.315918  0.097586  1
  Y  Y11  1  0.972897  0.182786  0.402482  1
  Y  Y12  1  0.473196  0.315918  0.402414  1
  Y  Y13  1  0.972897  0.182786  0.097518  1
  Y  Y14  1  0.525624  0.681629  0.905610  1
  Y  Y15  1  0.026952  0.817551  0.595933  1
  Y  Y16  1  0.355772  0.983746  0.750000  1
  Y  Y17  1  0.148495  0.485680  0.250000  1
  Y  Y18  1  0.648657  0.013148  0.250000  1
  Tm  Tm19  1  0.842866  0.510074  0.750000  1
  Si  Si20  1  0.646250  0.971890  0.459074  1
  Si  Si21  1  0.145890  0.527619  0.040237  1
  Si  Si22  1  0.352057  0.026320  0.960320  1
  Si  Si23  1  0.852507  0.472907  0.540312  1
  Si  Si24  1  0.352057  0.026320  0.539680  1
  Si  Si25  1  0.852507  0.472907  0.959688  1
  Si  Si26  1  0.646250  0.971890  0.040926  1
  Si  Si27  1  0.145890  0.527619  0.459763  1
  Si  Si28  1  0.980099  0.101793  0.750000  1
  Si  Si29  1  0.521496  0.603022  0.250000  1
  Si  Si30  1  0.021308  0.895469  0.250000  1
  Si  Si31  1  0.742286  0.874450  0.750000  1
  Si  Si32  1  0.227155  0.630153  0.750000  1
  Si  Si33  1  0.266597  0.126873  0.250000  1
  Si  Si34  1  0.766213  0.372934  0.250000  1
  Pt  Pt35  1  0.483699  0.407210  0.750000  1
