# generated using pymatgen
data_Ta10ZnSi5
_symmetry_space_group_name_H-M   'P 1'
_cell_length_a   7.57101287
_cell_length_b   7.57101188
_cell_length_c   7.57101314
_cell_angle_alpha   128.43890024
_cell_angle_beta   128.43889369
_cell_angle_gamma   75.91510216
_symmetry_Int_Tables_number   1
_chemical_formula_structural   Ta10ZnSi5
_chemical_formula_sum   'Ta10 Zn1 Si5'
_cell_volume   258.90171241
_cell_formula_units_Z   1
loop_
 _symmetry_equiv_pos_site_id
 _symmetry_equiv_pos_as_xyz
  1  'x, y, z'
loop_
 _atom_site_type_symbol
 _atom_site_label
 _atom_site_symmetry_multiplicity
 _atom_site_fract_x
 _atom_site_fract_y
 _atom_site_fract_z
 _atom_site_occupancy
  Ta  Ta0  1  0.017409  0.188525  0.506200  1
  Ta  Ta1  1  0.682325  0.511209  0.493800  1
  Ta  Ta2  1  0.511209  0.017409  0.828884  1
  Ta  Ta3  1  0.188525  0.682325  0.171116  1
  Ta  Ta4  1  0.988791  0.817675  0.506200  1
  Ta  Ta5  1  0.311475  0.482591  0.493800  1
  Ta  Ta6  1  0.482591  0.988791  0.171116  1
  Ta  Ta7  1  0.817675  0.311475  0.828884  1
  Ta  Ta8  1  0.999390  0.999390  0.000000  1
  Ta  Ta9  1  0.500610  0.500610  0.000000  1
  Zn  Zn10  1  0.750000  0.750000  0.000000  1
  Si  Si11  1  0.250000  0.250000  0.000000  1
  Si  Si12  1  0.369967  0.130033  0.500000  1
  Si  Si13  1  0.630033  0.869967  0.500000  1
  Si  Si14  1  0.869967  0.369967  0.239933  1
  Si  Si15  1  0.130033  0.630033  0.760067  1
