# generated using pymatgen
data_Ac2BeB3Ir4
_symmetry_space_group_name_H-M   'P 1'
_cell_length_a   7.35403017
_cell_length_b   6.38870993
_cell_length_c   5.72759261
_cell_angle_alpha   74.51489609
_cell_angle_beta   56.09583893
_cell_angle_gamma   48.63936906
_symmetry_Int_Tables_number   1
_chemical_formula_structural   Ac2BeB3Ir4
_chemical_formula_sum   'Ac2 Be1 B3 Ir4'
_cell_volume   165.38922755
_cell_formula_units_Z   1
loop_
 _symmetry_equiv_pos_site_id
 _symmetry_equiv_pos_as_xyz
  1  'x, y, z'
loop_
 _atom_site_type_symbol
 _atom_site_label
 _atom_site_symmetry_multiplicity
 _atom_site_fract_x
 _atom_site_fract_y
 _atom_site_fract_z
 _atom_site_occupancy
  Ac  Ac0  1  0.749690  0.750310  0.749690  1
  Ac  Ac1  1  0.501244  0.498756  0.501244  1
  Be  Be2  1  0.074890  0.425110  0.074890  1
  B  B3  1  0.826531  0.173469  0.826531  1
  B  B4  1  0.422529  0.077471  0.422529  1
  B  B5  1  0.172012  0.827988  0.172012  1
  Ir  Ir6  1  0.382844  0.385654  0.124201  1
  Ir  Ir7  1  0.135629  0.116911  0.860432  1
  Ir  Ir8  1  0.860432  0.887029  0.135629  1
  Ir  Ir9  1  0.124201  0.107302  0.382844  1
