# generated using pymatgen
data_Ho7Tm(ScSi3)2
_symmetry_space_group_name_H-M   'P 1'
_cell_length_a   8.30872283
_cell_length_b   8.31500491
_cell_length_c   6.17946111
_cell_angle_alpha   90.02177368
_cell_angle_beta   89.98910551
_cell_angle_gamma   120.02501665
_symmetry_Int_Tables_number   1
_chemical_formula_structural   Ho7Tm(ScSi3)2
_chemical_formula_sum   'Ho7 Tm1 Sc2 Si6'
_cell_volume   369.63105470
_cell_formula_units_Z   1
loop_
 _symmetry_equiv_pos_site_id
 _symmetry_equiv_pos_as_xyz
  1  'x, y, z'
loop_
 _atom_site_type_symbol
 _atom_site_label
 _atom_site_symmetry_multiplicity
 _atom_site_fract_x
 _atom_site_fract_y
 _atom_site_fract_z
 _atom_site_occupancy
  Ho  Ho0  1  0.333012  0.666695  0.999911  1
  Ho  Ho1  1  0.666988  0.333681  0.999911  1
  Ho  Ho2  1  0.756003  0.755578  0.253803  1
  Ho  Ho3  1  0.243997  0.999576  0.253803  1
  Ho  Ho4  1  0.000000  0.244964  0.253873  1
  Ho  Ho5  1  0.244270  0.244201  0.746178  1
  Ho  Ho6  1  0.755730  0.999931  0.746178  1
  Tm  Tm7  1  0.000000  0.755104  0.745343  1
  Sc  Sc8  1  0.666777  0.333534  0.500160  1
  Sc  Sc9  1  0.333223  0.666758  0.500160  1
  Si  Si10  1  0.397063  0.396917  0.264775  1
  Si  Si11  1  0.602937  0.999854  0.264775  1
  Si  Si12  1  0.000000  0.602859  0.265223  1
  Si  Si13  1  0.604138  0.603329  0.735365  1
  Si  Si14  1  0.395862  0.999191  0.735365  1
  Si  Si15  1  0.000000  0.397827  0.735177  1
