# generated using pymatgen
data_Tm3Sc2Tl3
_symmetry_space_group_name_H-M   'P 1'
_cell_length_a   6.26330700
_cell_length_b   8.81997304
_cell_length_c   8.81872053
_cell_angle_alpha   120.00470309
_cell_angle_beta   90.00000000
_cell_angle_gamma   90.00000000
_symmetry_Int_Tables_number   1
_chemical_formula_structural   Tm3Sc2Tl3
_chemical_formula_sum   'Tm6 Sc4 Tl6'
_cell_volume   421.87771484
_cell_formula_units_Z   2
loop_
 _symmetry_equiv_pos_site_id
 _symmetry_equiv_pos_as_xyz
  1  'x, y, z'
loop_
 _atom_site_type_symbol
 _atom_site_label
 _atom_site_symmetry_multiplicity
 _atom_site_fract_x
 _atom_site_fract_y
 _atom_site_fract_z
 _atom_site_occupancy
  Tm  Tm0  1  0.750002  0.234973  0.000000  1
  Tm  Tm1  1  0.749979  0.765309  0.765430  1
  Tm  Tm2  1  0.749979  0.999878  0.234570  1
  Tm  Tm3  1  0.250002  0.765027  0.000000  1
  Tm  Tm4  1  0.249979  0.234691  0.234570  1
  Tm  Tm5  1  0.249979  0.000122  0.765430  1
  Sc  Sc6  1  0.500005  0.333191  0.666371  1
  Sc  Sc7  1  0.500005  0.666819  0.333629  1
  Sc  Sc8  1  0.000005  0.666809  0.333629  1
  Sc  Sc9  1  0.000005  0.333181  0.666371  1
  Tl  Tl10  1  0.750000  0.592115  0.000000  1
  Tl  Tl11  1  0.750015  0.407726  0.407753  1
  Tl  Tl12  1  0.750015  0.999973  0.592247  1
  Tl  Tl13  1  0.250000  0.407885  0.000000  1
  Tl  Tl14  1  0.250015  0.592274  0.592247  1
  Tl  Tl15  1  0.250015  0.000027  0.407753  1
