# generated using pymatgen
data_CaLa2GaGeRh2
_symmetry_space_group_name_H-M   'P 1'
_cell_length_a   5.62997200
_cell_length_b   8.16837800
_cell_length_c   14.11417000
_cell_angle_alpha   90.00000000
_cell_angle_beta   90.00000000
_cell_angle_gamma   90.00000000
_symmetry_Int_Tables_number   1
_chemical_formula_structural   CaLa2GaGeRh2
_chemical_formula_sum   'Ca4 La8 Ga4 Ge4 Rh8'
_cell_volume   649.07877217
_cell_formula_units_Z   4
loop_
 _symmetry_equiv_pos_site_id
 _symmetry_equiv_pos_as_xyz
  1  'x, y, z'
loop_
 _atom_site_type_symbol
 _atom_site_label
 _atom_site_symmetry_multiplicity
 _atom_site_fract_x
 _atom_site_fract_y
 _atom_site_fract_z
 _atom_site_occupancy
  Ca  Ca0  1  0.646506  0.258671  0.250000  1
  Ca  Ca1  1  0.353494  0.741329  0.750000  1
  Ca  Ca2  1  0.353494  0.758671  0.250000  1
  Ca  Ca3  1  0.646506  0.241329  0.750000  1
  La  La4  1  0.154597  0.402407  0.101213  1
  La  La5  1  0.845403  0.597593  0.898787  1
  La  La6  1  0.845403  0.597593  0.601213  1
  La  La7  1  0.845403  0.902407  0.398787  1
  La  La8  1  0.154597  0.402407  0.398787  1
  La  La9  1  0.154597  0.097593  0.601213  1
  La  La10  1  0.154597  0.097593  0.898787  1
  La  La11  1  0.845403  0.902407  0.101213  1
  Ga  Ga12  1  0.628846  0.250000  0.000000  1
  Ga  Ga13  1  0.371154  0.750000  0.000000  1
  Ga  Ga14  1  0.371154  0.750000  0.500000  1
  Ga  Ga15  1  0.628846  0.250000  0.500000  1
  Ge  Ge16  1  0.157759  0.109456  0.250000  1
  Ge  Ge17  1  0.842241  0.890544  0.750000  1
  Ge  Ge18  1  0.842241  0.609456  0.250000  1
  Ge  Ge19  1  0.157759  0.390544  0.750000  1
  Rh  Rh20  1  0.364954  0.028845  0.090286  1
  Rh  Rh21  1  0.635046  0.971155  0.909714  1
  Rh  Rh22  1  0.635046  0.971155  0.590286  1
  Rh  Rh23  1  0.635046  0.528845  0.409714  1
  Rh  Rh24  1  0.364954  0.028845  0.409714  1
  Rh  Rh25  1  0.364954  0.471155  0.590286  1
  Rh  Rh26  1  0.364954  0.471155  0.909714  1
  Rh  Rh27  1  0.635046  0.528845  0.090286  1
