# generated using pymatgen
data_Dy2LuCu2Ni7
_symmetry_space_group_name_H-M   'P 1'
_cell_length_a   4.95758100
_cell_length_b   4.95758154
_cell_length_c   16.07611900
_cell_angle_alpha   90.00000000
_cell_angle_beta   90.00000000
_cell_angle_gamma   119.99998972
_symmetry_Int_Tables_number   1
_chemical_formula_structural   Dy2LuCu2Ni7
_chemical_formula_sum   'Dy4 Lu2 Cu4 Ni14'
_cell_volume   342.17759831
_cell_formula_units_Z   2
loop_
 _symmetry_equiv_pos_site_id
 _symmetry_equiv_pos_as_xyz
  1  'x, y, z'
loop_
 _atom_site_type_symbol
 _atom_site_label
 _atom_site_symmetry_multiplicity
 _atom_site_fract_x
 _atom_site_fract_y
 _atom_site_fract_z
 _atom_site_occupancy
  Dy  Dy0  1  0.333333  0.666667  0.540281  1
  Dy  Dy1  1  0.666667  0.333333  0.040281  1
  Dy  Dy2  1  0.333333  0.666667  0.750995  1
  Dy  Dy3  1  0.666667  0.333333  0.250995  1
  Lu  Lu4  1  0.666667  0.333333  0.458746  1
  Lu  Lu5  1  0.333333  0.666667  0.958746  1
  Cu  Cu6  1  0.333333  0.666667  0.250011  1
  Cu  Cu7  1  0.666667  0.333333  0.750011  1
  Cu  Cu8  1  0.000000  0.000000  0.249803  1
  Cu  Cu9  1  0.000000  0.000000  0.749803  1
  Ni  Ni10  1  0.000000  0.000000  0.999782  1
  Ni  Ni11  1  0.000000  0.000000  0.499782  1
  Ni  Ni12  1  0.167716  0.335433  0.124749  1
  Ni  Ni13  1  0.832284  0.664567  0.624749  1
  Ni  Ni14  1  0.664567  0.832284  0.124749  1
  Ni  Ni15  1  0.167716  0.832284  0.124749  1
  Ni  Ni16  1  0.832284  0.167716  0.624749  1
  Ni  Ni17  1  0.335433  0.167716  0.624749  1
  Ni  Ni18  1  0.832633  0.665265  0.875378  1
  Ni  Ni19  1  0.832633  0.167367  0.875378  1
  Ni  Ni20  1  0.334735  0.167367  0.875378  1
  Ni  Ni21  1  0.665265  0.832633  0.375378  1
  Ni  Ni22  1  0.167367  0.832633  0.375378  1
  Ni  Ni23  1  0.167367  0.334735  0.375378  1
