# generated using pymatgen
data_Er2Ta2Sb2O11
_symmetry_space_group_name_H-M   'P 1'
_cell_length_a   6.62358386
_cell_length_b   7.61864034
_cell_length_c   9.59107787
_cell_angle_alpha   101.52274670
_cell_angle_beta   90.87177856
_cell_angle_gamma   90.19663911
_symmetry_Int_Tables_number   1
_chemical_formula_structural   Er2Ta2Sb2O11
_chemical_formula_sum   'Er4 Ta4 Sb4 O22'
_cell_volume   474.17185622
_cell_formula_units_Z   2
loop_
 _symmetry_equiv_pos_site_id
 _symmetry_equiv_pos_as_xyz
  1  'x, y, z'
loop_
 _atom_site_type_symbol
 _atom_site_label
 _atom_site_symmetry_multiplicity
 _atom_site_fract_x
 _atom_site_fract_y
 _atom_site_fract_z
 _atom_site_occupancy
  Er  Er0  1  0.748850  0.369550  0.482249  1
  Er  Er1  1  0.251150  0.630450  0.517751  1
  Er  Er2  1  0.763164  0.871846  0.499599  1
  Er  Er3  1  0.236836  0.128154  0.500401  1
  Ta  Ta4  1  0.913939  0.701168  0.803866  1
  Ta  Ta5  1  0.086061  0.298832  0.196134  1
  Ta  Ta6  1  0.917183  0.198976  0.801552  1
  Ta  Ta7  1  0.082817  0.801024  0.198448  1
  Sb  Sb8  1  0.408917  0.954811  0.805556  1
  Sb  Sb9  1  0.591083  0.045189  0.194444  1
  Sb  Sb10  1  0.424477  0.453541  0.822232  1
  Sb  Sb11  1  0.575523  0.546459  0.177768  1
  O  O12  1  0.213114  0.737694  0.752768  1
  O  O13  1  0.786886  0.262306  0.247232  1
  O  O14  1  0.632188  0.654610  0.835423  1
  O  O15  1  0.367812  0.345390  0.164577  1
  O  O16  1  0.632341  0.258376  0.829232  1
  O  O17  1  0.367659  0.741624  0.170768  1
  O  O18  1  0.891517  0.154882  0.579741  1
  O  O19  1  0.108483  0.845118  0.420259  1
  O  O20  1  0.212642  0.135674  0.743888  1
  O  O21  1  0.787358  0.864326  0.256112  1
  O  O22  1  0.892614  0.635065  0.585929  1
  O  O23  1  0.107386  0.364935  0.414071  1
  O  O24  1  0.023042  0.550962  0.201999  1
  O  O25  1  0.976958  0.449038  0.798001  1
  O  O26  1  0.998291  0.790334  0.002195  1
  O  O27  1  0.001709  0.209666  0.997805  1
  O  O28  1  0.566405  0.593802  0.390097  1
  O  O29  1  0.433595  0.406198  0.609903  1
  O  O30  1  0.165127  0.058690  0.232891  1
  O  O31  1  0.834873  0.941310  0.767109  1
  O  O32  1  0.537983  0.107890  0.400789  1
  O  O33  1  0.462017  0.892110  0.599211  1
