# generated using pymatgen
data_Ba2AuClO2
_symmetry_space_group_name_H-M   'P 1'
_cell_length_a   4.37925720
_cell_length_b   4.37925879
_cell_length_c   10.12277919
_cell_angle_alpha   89.99999892
_cell_angle_beta   102.49223040
_cell_angle_gamma   60.00000454
_symmetry_Int_Tables_number   1
_chemical_formula_structural   Ba2AuClO2
_chemical_formula_sum   'Ba2 Au1 Cl1 O2'
_cell_volume   162.79600059
_cell_formula_units_Z   1
loop_
 _symmetry_equiv_pos_site_id
 _symmetry_equiv_pos_as_xyz
  1  'x, y, z'
loop_
 _atom_site_type_symbol
 _atom_site_label
 _atom_site_symmetry_multiplicity
 _atom_site_fract_x
 _atom_site_fract_y
 _atom_site_fract_z
 _atom_site_occupancy
  Ba  Ba0  1  0.486527  0.256737  0.229791  1
  Ba  Ba1  1  0.513472  0.743264  0.770209  1
  Au  Au2  1  0.000001  0.500000  0.500000  1
  Cl  Cl3  1  0.000000  0.000000  0.000000  1
  O  O4  1  0.861788  0.569106  0.292682  1
  O  O5  1  0.138214  0.430893  0.707319  1
