# generated using pymatgen
data_SmFe2NiP2
_symmetry_space_group_name_H-M   'P 1'
_cell_length_a   3.77412400
_cell_length_b   10.68367400
_cell_length_c   12.24463500
_cell_angle_alpha   90.00000000
_cell_angle_beta   90.00000000
_cell_angle_gamma   90.00000000
_symmetry_Int_Tables_number   1
_chemical_formula_structural   SmFe2NiP2
_chemical_formula_sum   'Sm6 Fe12 Ni6 P12'
_cell_volume   493.72217813
_cell_formula_units_Z   6
loop_
 _symmetry_equiv_pos_site_id
 _symmetry_equiv_pos_as_xyz
  1  'x, y, z'
loop_
 _atom_site_type_symbol
 _atom_site_label
 _atom_site_symmetry_multiplicity
 _atom_site_fract_x
 _atom_site_fract_y
 _atom_site_fract_z
 _atom_site_occupancy
  Sm  Sm0  1  0.000000  0.500000  0.521249  1
  Sm  Sm1  1  0.500000  0.000000  0.478751  1
  Sm  Sm2  1  0.500000  0.818752  0.204561  1
  Sm  Sm3  1  0.500000  0.181248  0.204561  1
  Sm  Sm4  1  0.000000  0.681248  0.795439  1
  Sm  Sm5  1  0.000000  0.318752  0.795439  1
  Fe  Fe6  1  0.500000  0.500000  0.153940  1
  Fe  Fe7  1  0.000000  0.000000  0.846060  1
  Fe  Fe8  1  0.000000  0.500000  0.989394  1
  Fe  Fe9  1  0.500000  0.000000  0.010606  1
  Fe  Fe10  1  0.500000  0.333563  0.997745  1
  Fe  Fe11  1  0.500000  0.666437  0.997745  1
  Fe  Fe12  1  0.000000  0.166437  0.002255  1
  Fe  Fe13  1  0.000000  0.833563  0.002255  1
  Fe  Fe14  1  0.500000  0.297591  0.427389  1
  Fe  Fe15  1  0.500000  0.702409  0.427389  1
  Fe  Fe16  1  0.000000  0.202409  0.572611  1
  Fe  Fe17  1  0.000000  0.797591  0.572611  1
  Ni  Ni18  1  0.500000  0.500000  0.703951  1
  Ni  Ni19  1  0.000000  0.000000  0.296049  1
  Ni  Ni20  1  0.500000  0.880078  0.711969  1
  Ni  Ni21  1  0.500000  0.119922  0.711969  1
  Ni  Ni22  1  0.000000  0.619922  0.288031  1
  Ni  Ni23  1  0.000000  0.380078  0.288031  1
  P  P24  1  0.500000  0.500000  0.890557  1
  P  P25  1  0.000000  0.000000  0.109443  1
  P  P26  1  0.500000  0.500000  0.343594  1
  P  P27  1  0.000000  0.000000  0.656406  1
  P  P28  1  0.500000  0.306141  0.610298  1
  P  P29  1  0.500000  0.693859  0.610298  1
  P  P30  1  0.000000  0.193859  0.389702  1
  P  P31  1  0.000000  0.806141  0.389702  1
  P  P32  1  0.500000  0.843393  0.899595  1
  P  P33  1  0.500000  0.156607  0.899595  1
  P  P34  1  0.000000  0.656607  0.100405  1
  P  P35  1  0.000000  0.343393  0.100405  1
