# generated using pymatgen
data_TmBi4Mo3F28
_symmetry_space_group_name_H-M   'P 1'
_cell_length_a   5.71234410
_cell_length_b   9.26813264
_cell_length_c   12.40812500
_cell_angle_alpha   62.17853048
_cell_angle_beta   89.87267692
_cell_angle_gamma   89.98032636
_symmetry_Int_Tables_number   1
_chemical_formula_structural   TmBi4Mo3F28
_chemical_formula_sum   'Tm1 Bi4 Mo3 F28'
_cell_volume   580.98284670
_cell_formula_units_Z   1
loop_
 _symmetry_equiv_pos_site_id
 _symmetry_equiv_pos_as_xyz
  1  'x, y, z'
loop_
 _atom_site_type_symbol
 _atom_site_label
 _atom_site_symmetry_multiplicity
 _atom_site_fract_x
 _atom_site_fract_y
 _atom_site_fract_z
 _atom_site_occupancy
  Tm  Tm0  1  0.755627  0.273298  0.957207  1
  Bi  Bi1  1  0.767227  0.801897  0.772053  1
  Bi  Bi2  1  0.263014  0.181071  0.744486  1
  Bi  Bi3  1  0.245795  0.187633  0.226673  1
  Bi  Bi4  1  0.735934  0.826287  0.257098  1
  Mo  Mo5  1  0.256516  0.729136  0.540777  1
  Mo  Mo6  1  0.241975  0.724301  0.046189  1
  Mo  Mo7  1  0.745010  0.275328  0.455363  1
  F  F8  1  0.429213  0.703912  0.920314  1
  F  F9  1  0.920723  0.299082  0.578038  1
  F  F10  1  0.547492  0.287190  0.095894  1
  F  F11  1  0.058436  0.711789  0.416191  1
  F  F12  1  0.450366  0.281759  0.533008  1
  F  F13  1  0.935383  0.727083  0.958017  1
  F  F14  1  0.554404  0.725200  0.452245  1
  F  F15  1  0.076652  0.270604  0.049330  1
  F  F16  1  0.790072  0.528819  0.860908  1
  F  F17  1  0.265283  0.488403  0.634769  1
  F  F18  1  0.218761  0.485584  0.144352  1
  F  F19  1  0.735389  0.505069  0.364615  1
  F  F20  1  0.764294  0.013197  0.064008  1
  F  F21  1  0.264810  0.970633  0.446251  1
  F  F22  1  0.250636  0.967045  0.948515  1
  F  F23  1  0.740240  0.045182  0.539515  1
  F  F24  1  0.964076  0.739683  0.631246  1
  F  F25  1  0.454409  0.268790  0.858825  1
  F  F26  1  0.034736  0.273704  0.374441  1
  F  F27  1  0.531874  0.717508  0.143813  1
  F  F28  1  0.057904  0.744795  0.173865  1
  F  F29  1  0.572428  0.258853  0.326777  1
  F  F30  1  0.951758  0.239309  0.824597  1
  F  F31  1  0.451312  0.747602  0.668010  1
  F  F32  1  0.394468  0.967773  0.223980  1
  F  F33  1  0.899948  0.035650  0.270622  1
  F  F34  1  0.589075  0.028120  0.768485  1
  F  F35  1  0.084757  0.968710  0.729522  1
