# generated using pymatgen
data_DyTc6BiO24
_symmetry_space_group_name_H-M   'P 1'
_cell_length_a   10.03952200
_cell_length_b   10.03952278
_cell_length_c   6.09720100
_cell_angle_alpha   90.00000000
_cell_angle_beta   90.00000000
_cell_angle_gamma   119.99999741
_symmetry_Int_Tables_number   1
_chemical_formula_structural   DyTc6BiO24
_chemical_formula_sum   'Dy1 Tc6 Bi1 O24'
_cell_volume   532.21518388
_cell_formula_units_Z   1
loop_
 _symmetry_equiv_pos_site_id
 _symmetry_equiv_pos_as_xyz
  1  'x, y, z'
loop_
 _atom_site_type_symbol
 _atom_site_label
 _atom_site_symmetry_multiplicity
 _atom_site_fract_x
 _atom_site_fract_y
 _atom_site_fract_z
 _atom_site_occupancy
  Dy  Dy0  1  0.666667  0.333333  0.750000  1
  Tc  Tc1  1  0.084774  0.386624  0.750000  1
  Tc  Tc2  1  0.394258  0.300124  0.250000  1
  Tc  Tc3  1  0.613376  0.698148  0.750000  1
  Tc  Tc4  1  0.905864  0.605742  0.250000  1
  Tc  Tc5  1  0.301852  0.915226  0.750000  1
  Tc  Tc6  1  0.699876  0.094136  0.250000  1
  Bi  Bi7  1  0.333333  0.666667  0.250000  1
  O  O8  1  0.494088  0.642769  0.518516  1
  O  O9  1  0.357231  0.851320  0.518516  1
  O  O10  1  0.827792  0.723096  0.250000  1
  O  O11  1  0.107370  0.843832  0.750000  1
  O  O12  1  0.276904  0.104696  0.250000  1
  O  O13  1  0.156168  0.263538  0.750000  1
  O  O14  1  0.513116  0.357742  0.017983  1
  O  O15  1  0.895304  0.172208  0.250000  1
  O  O16  1  0.105431  0.715813  0.250000  1
  O  O17  1  0.148680  0.505912  0.981484  1
  O  O18  1  0.148680  0.505912  0.518516  1
  O  O19  1  0.884962  0.284426  0.750000  1
  O  O20  1  0.284187  0.389618  0.250000  1
  O  O21  1  0.715574  0.600536  0.750000  1
  O  O22  1  0.844627  0.486884  0.482017  1
  O  O23  1  0.399464  0.115038  0.750000  1
  O  O24  1  0.642258  0.155373  0.017983  1
  O  O25  1  0.494088  0.642769  0.981484  1
  O  O26  1  0.357231  0.851320  0.981484  1
  O  O27  1  0.642258  0.155373  0.482017  1
  O  O28  1  0.513116  0.357742  0.482017  1
  O  O29  1  0.844627  0.486884  0.017983  1
  O  O30  1  0.736462  0.892630  0.750000  1
  O  O31  1  0.610382  0.894569  0.250000  1
