# generated using pymatgen
data_Li4Nd3ThSb8
_symmetry_space_group_name_H-M   'P 1'
_cell_length_a   4.30671800
_cell_length_b   4.32191726
_cell_length_c   22.71259400
_cell_angle_alpha   90.31485601
_cell_angle_beta   90.00000000
_cell_angle_gamma   90.00000000
_symmetry_Int_Tables_number   1
_chemical_formula_structural   Li4Nd3ThSb8
_chemical_formula_sum   'Li4 Nd3 Th1 Sb8'
_cell_volume   422.74946219
_cell_formula_units_Z   1
loop_
 _symmetry_equiv_pos_site_id
 _symmetry_equiv_pos_as_xyz
  1  'x, y, z'
loop_
 _atom_site_type_symbol
 _atom_site_label
 _atom_site_symmetry_multiplicity
 _atom_site_fract_x
 _atom_site_fract_y
 _atom_site_fract_z
 _atom_site_occupancy
  Li  Li0  1  0.250000  0.230222  0.251736  1
  Li  Li1  1  0.750000  0.730253  0.251448  1
  Li  Li2  1  0.750000  0.769233  0.749812  1
  Li  Li3  1  0.250000  0.269296  0.749957  1
  Nd  Nd4  1  0.750000  0.240230  0.387309  1
  Nd  Nd5  1  0.750000  0.263798  0.886205  1
  Nd  Nd6  1  0.250000  0.734247  0.115071  1
  Th  Th7  1  0.250000  0.760107  0.610485  1
  Sb  Sb8  1  0.250000  0.767762  0.830465  1
  Sb  Sb9  1  0.750000  0.231725  0.168394  1
  Sb  Sb10  1  0.750000  0.263114  0.663578  1
  Sb  Sb11  1  0.250000  0.734911  0.334204  1
  Sb  Sb12  1  0.250000  0.252827  0.500759  1
  Sb  Sb13  1  0.250000  0.240941  0.000193  1
  Sb  Sb14  1  0.750000  0.760539  0.999719  1
  Sb  Sb15  1  0.750000  0.750795  0.500664  1
