# generated using pymatgen
data_SrSb2Cl2O3
_symmetry_space_group_name_H-M   'P 1'
_cell_length_a   18.50841800
_cell_length_b   5.56875600
_cell_length_c   7.65057500
_cell_angle_alpha   90.00000000
_cell_angle_beta   90.00000000
_cell_angle_gamma   90.00000000
_symmetry_Int_Tables_number   1
_chemical_formula_structural   SrSb2Cl2O3
_chemical_formula_sum   'Sr4 Sb8 Cl8 O12'
_cell_volume   788.53607257
_cell_formula_units_Z   4
loop_
 _symmetry_equiv_pos_site_id
 _symmetry_equiv_pos_as_xyz
  1  'x, y, z'
loop_
 _atom_site_type_symbol
 _atom_site_label
 _atom_site_symmetry_multiplicity
 _atom_site_fract_x
 _atom_site_fract_y
 _atom_site_fract_z
 _atom_site_occupancy
  Sr  Sr0  1  0.099152  0.749999  0.051082  1
  Sr  Sr1  1  0.599153  0.749999  0.448917  1
  Sr  Sr2  1  0.400847  0.249999  0.551082  1
  Sr  Sr3  1  0.900848  0.249999  0.948917  1
  Sb  Sb4  1  0.359321  0.749999  0.151661  1
  Sb  Sb5  1  0.252899  0.249999  0.277742  1
  Sb  Sb6  1  0.752899  0.249999  0.222258  1
  Sb  Sb7  1  0.859321  0.749999  0.348339  1
  Sb  Sb8  1  0.140679  0.249999  0.651662  1
  Sb  Sb9  1  0.247101  0.749999  0.777742  1
  Sb  Sb10  1  0.747101  0.749999  0.722257  1
  Sb  Sb11  1  0.640679  0.249999  0.848338  1
  Cl  Cl12  1  0.043192  0.249999  0.116505  1
  Cl  Cl13  1  0.641758  0.749999  0.089267  1
  Cl  Cl14  1  0.141758  0.749999  0.410732  1
  Cl  Cl15  1  0.543193  0.249999  0.383496  1
  Cl  Cl16  1  0.456807  0.749999  0.616505  1
  Cl  Cl17  1  0.858242  0.249999  0.589267  1
  Cl  Cl18  1  0.358242  0.249999  0.910733  1
  Cl  Cl19  1  0.956807  0.749999  0.883496  1
  O  O20  1  0.261756  0.749999  0.038735  1
  O  O21  1  0.830834  0.006422  0.177656  1
  O  O22  1  0.830834  0.493578  0.177656  1
  O  O23  1  0.330833  0.006422  0.322344  1
  O  O24  1  0.330833  0.493578  0.322344  1
  O  O25  1  0.761756  0.749999  0.461265  1
  O  O26  1  0.238245  0.249999  0.538735  1
  O  O27  1  0.669167  0.506422  0.677655  1
  O  O28  1  0.669167  0.993579  0.677655  1
  O  O29  1  0.169166  0.506422  0.822345  1
  O  O30  1  0.169166  0.993579  0.822345  1
  O  O31  1  0.738244  0.249999  0.961264  1
