# generated using pymatgen
data_TbNdTa2Bi2O11
_symmetry_space_group_name_H-M   'P 1'
_cell_length_a   6.61575900
_cell_length_b   7.73962604
_cell_length_c   9.85745441
_cell_angle_alpha   101.36300265
_cell_angle_beta   90.18174892
_cell_angle_gamma   90.06735195
_symmetry_Int_Tables_number   1
_chemical_formula_structural   TbNdTa2Bi2O11
_chemical_formula_sum   'Tb2 Nd2 Ta4 Bi4 O22'
_cell_volume   494.83931473
_cell_formula_units_Z   2
loop_
 _symmetry_equiv_pos_site_id
 _symmetry_equiv_pos_as_xyz
  1  'x, y, z'
loop_
 _atom_site_type_symbol
 _atom_site_label
 _atom_site_symmetry_multiplicity
 _atom_site_fract_x
 _atom_site_fract_y
 _atom_site_fract_z
 _atom_site_occupancy
  Tb  Tb0  1  0.758493  0.872382  0.481899  1
  Tb  Tb1  1  0.241507  0.127618  0.518101  1
  Nd  Nd2  1  0.750764  0.368551  0.487418  1
  Nd  Nd3  1  0.249236  0.631449  0.512582  1
  Ta  Ta4  1  0.914353  0.701889  0.805207  1
  Ta  Ta5  1  0.085647  0.298111  0.194793  1
  Ta  Ta6  1  0.914491  0.201071  0.806664  1
  Ta  Ta7  1  0.085509  0.798929  0.193336  1
  Bi  Bi8  1  0.439276  0.955705  0.814313  1
  Bi  Bi9  1  0.560724  0.044295  0.185687  1
  Bi  Bi10  1  0.388940  0.457081  0.827072  1
  Bi  Bi11  1  0.611060  0.542919  0.172928  1
  O  O12  1  0.217227  0.727881  0.759792  1
  O  O13  1  0.782773  0.272119  0.240208  1
  O  O14  1  0.630901  0.662287  0.839278  1
  O  O15  1  0.369099  0.337713  0.160722  1
  O  O16  1  0.629917  0.255038  0.839513  1
  O  O17  1  0.370083  0.744962  0.160487  1
  O  O18  1  0.891820  0.141475  0.591930  1
  O  O19  1  0.108180  0.858525  0.408070  1
  O  O20  1  0.215777  0.149245  0.756197  1
  O  O21  1  0.784223  0.850755  0.243803  1
  O  O22  1  0.892649  0.654538  0.591998  1
  O  O23  1  0.107351  0.345462  0.408002  1
  O  O24  1  0.028723  0.554192  0.215137  1
  O  O25  1  0.971277  0.445808  0.784863  1
  O  O26  1  0.998824  0.761079  0.000517  1
  O  O27  1  0.001176  0.238921  0.999483  1
  O  O28  1  0.576109  0.600588  0.390736  1
  O  O29  1  0.423891  0.399412  0.609264  1
  O  O30  1  0.160984  0.051253  0.203769  1
  O  O31  1  0.839016  0.948747  0.796231  1
  O  O32  1  0.537930  0.099519  0.401855  1
  O  O33  1  0.462070  0.900481  0.598145  1
