# generated using pymatgen
data_NaY7(Si3Pt)4
_symmetry_space_group_name_H-M   'P 1'
_cell_length_a   8.16008300
_cell_length_b   8.16207937
_cell_length_c   8.17391100
_cell_angle_alpha   90.00000000
_cell_angle_beta   90.00000000
_cell_angle_gamma   119.99191339
_symmetry_Int_Tables_number   1
_chemical_formula_structural   NaY7(Si3Pt)4
_chemical_formula_sum   'Na1 Y7 Si12 Pt4'
_cell_volume   471.51043579
_cell_formula_units_Z   1
loop_
 _symmetry_equiv_pos_site_id
 _symmetry_equiv_pos_as_xyz
  1  'x, y, z'
loop_
 _atom_site_type_symbol
 _atom_site_label
 _atom_site_symmetry_multiplicity
 _atom_site_fract_x
 _atom_site_fract_y
 _atom_site_fract_z
 _atom_site_occupancy
  Na  Na0  1  0.500973  0.001947  0.750000  1
  Y  Y1  1  0.999965  0.999929  0.250000  1
  Y  Y2  1  0.000000  0.999999  0.750000  1
  Y  Y3  1  0.001534  0.500727  0.250000  1
  Y  Y4  1  0.499194  0.500727  0.250000  1
  Y  Y5  1  0.499314  0.998626  0.250000  1
  Y  Y6  1  0.500815  0.499101  0.750000  1
  Y  Y7  1  0.998283  0.499101  0.750000  1
  Si  Si8  1  0.164596  0.329190  0.998416  1
  Si  Si9  1  0.668410  0.835097  0.999756  1
  Si  Si10  1  0.164596  0.329190  0.501584  1
  Si  Si11  1  0.331547  0.164887  0.000735  1
  Si  Si12  1  0.166688  0.835097  0.999756  1
  Si  Si13  1  0.668410  0.835097  0.500244  1
  Si  Si14  1  0.835389  0.670779  0.999437  1
  Si  Si15  1  0.331547  0.164887  0.499265  1
  Si  Si16  1  0.166688  0.835097  0.500244  1
  Si  Si17  1  0.835389  0.670779  0.500563  1
  Si  Si18  1  0.833339  0.164887  0.000735  1
  Si  Si19  1  0.833339  0.164887  0.499265  1
  Pt  Pt20  1  0.331957  0.663914  0.001264  1
  Pt  Pt21  1  0.331957  0.663914  0.498736  1
  Pt  Pt22  1  0.668035  0.336069  0.005193  1
  Pt  Pt23  1  0.668035  0.336069  0.494807  1
