# generated using pymatgen
data_Hf3Zn3Cu2Pt
_symmetry_space_group_name_H-M   'P 1'
_cell_length_a   7.10997900
_cell_length_b   7.10997837
_cell_length_c   6.78573600
_cell_angle_alpha   90.00000000
_cell_angle_beta   90.00000000
_cell_angle_gamma   119.99999826
_symmetry_Int_Tables_number   1
_chemical_formula_structural   Hf3Zn3Cu2Pt
_chemical_formula_sum   'Hf6 Zn6 Cu4 Pt2'
_cell_volume   297.07369391
_cell_formula_units_Z   2
loop_
 _symmetry_equiv_pos_site_id
 _symmetry_equiv_pos_as_xyz
  1  'x, y, z'
loop_
 _atom_site_type_symbol
 _atom_site_label
 _atom_site_symmetry_multiplicity
 _atom_site_fract_x
 _atom_site_fract_y
 _atom_site_fract_z
 _atom_site_occupancy
  Hf  Hf0  1  0.737092  0.059874  0.000000  1
  Hf  Hf1  1  0.322781  0.262908  0.000000  1
  Hf  Hf2  1  0.940126  0.677219  0.000000  1
  Hf  Hf3  1  0.347112  0.268084  0.500000  1
  Hf  Hf4  1  0.731916  0.079027  0.500000  1
  Hf  Hf5  1  0.920973  0.652888  0.500000  1
  Zn  Zn6  1  0.589296  0.657069  0.749360  1
  Zn  Zn7  1  0.067773  0.410704  0.749360  1
  Zn  Zn8  1  0.342931  0.932227  0.749360  1
  Zn  Zn9  1  0.589296  0.657069  0.250640  1
  Zn  Zn10  1  0.067773  0.410704  0.250640  1
  Zn  Zn11  1  0.342931  0.932227  0.250640  1
  Cu  Cu12  1  0.333333  0.666667  0.000000  1
  Cu  Cu13  1  0.333333  0.666667  0.500000  1
  Cu  Cu14  1  0.666667  0.333333  0.777909  1
  Cu  Cu15  1  0.666667  0.333333  0.222091  1
  Pt  Pt16  1  0.000000  0.000000  0.262117  1
  Pt  Pt17  1  0.000000  0.000000  0.737883  1
