# generated using pymatgen
data_NaHo(Si7Ir3)2
_symmetry_space_group_name_H-M   'P 1'
_cell_length_a   8.00553927
_cell_length_b   8.00553928
_cell_length_c   8.00554040
_cell_angle_alpha   56.89656195
_cell_angle_beta   56.89655862
_cell_angle_gamma   56.89655611
_symmetry_Int_Tables_number   1
_chemical_formula_structural   NaHo(Si7Ir3)2
_chemical_formula_sum   'Na1 Ho1 Si14 Ir6'
_cell_volume   336.81734907
_cell_formula_units_Z   1
loop_
 _symmetry_equiv_pos_site_id
 _symmetry_equiv_pos_as_xyz
  1  'x, y, z'
loop_
 _atom_site_type_symbol
 _atom_site_label
 _atom_site_symmetry_multiplicity
 _atom_site_fract_x
 _atom_site_fract_y
 _atom_site_fract_z
 _atom_site_occupancy
  Na  Na0  1  0.000000  0.000000  0.000000  1
  Ho  Ho1  1  0.500000  0.500000  0.500000  1
  Si  Si2  1  0.749622  0.749622  0.749622  1
  Si  Si3  1  0.250378  0.250378  0.250378  1
  Si  Si4  1  0.852293  0.064282  0.675536  1
  Si  Si5  1  0.675536  0.852293  0.064282  1
  Si  Si6  1  0.064282  0.675536  0.852293  1
  Si  Si7  1  0.652297  0.828613  0.432648  1
  Si  Si8  1  0.432648  0.652297  0.828613  1
  Si  Si9  1  0.828613  0.432648  0.652297  1
  Si  Si10  1  0.171387  0.567352  0.347703  1
  Si  Si11  1  0.567352  0.347703  0.171387  1
  Si  Si12  1  0.347703  0.171387  0.567352  1
  Si  Si13  1  0.935718  0.324464  0.147707  1
  Si  Si14  1  0.324464  0.147707  0.935718  1
  Si  Si15  1  0.147707  0.935718  0.324464  1
  Ir  Ir16  1  0.074295  0.432230  0.746551  1
  Ir  Ir17  1  0.253449  0.925705  0.567770  1
  Ir  Ir18  1  0.567770  0.253449  0.925705  1
  Ir  Ir19  1  0.925705  0.567770  0.253449  1
  Ir  Ir20  1  0.432230  0.746551  0.074295  1
  Ir  Ir21  1  0.746551  0.074295  0.432230  1
