# generated using pymatgen
data_GdHoErTaO7
_symmetry_space_group_name_H-M   'P 1'
_cell_length_a   6.48350716
_cell_length_b   6.48206282
_cell_length_c   7.48826300
_cell_angle_alpha   90.00000000
_cell_angle_beta   90.00000000
_cell_angle_gamma   108.57607272
_symmetry_Int_Tables_number   1
_chemical_formula_structural   GdHoErTaO7
_chemical_formula_sum   'Gd2 Ho2 Er2 Ta2 O14'
_cell_volume   298.30981499
_cell_formula_units_Z   2
loop_
 _symmetry_equiv_pos_site_id
 _symmetry_equiv_pos_as_xyz
  1  'x, y, z'
loop_
 _atom_site_type_symbol
 _atom_site_label
 _atom_site_symmetry_multiplicity
 _atom_site_fract_x
 _atom_site_fract_y
 _atom_site_fract_z
 _atom_site_occupancy
  Gd  Gd0  1  0.531238  0.531040  0.500000  1
  Gd  Gd1  1  0.468762  0.468960  0.000000  1
  Ho  Ho2  1  0.535048  0.000339  0.758320  1
  Ho  Ho3  1  0.464952  0.999661  0.258320  1
  Er  Er4  1  0.000676  0.534515  0.241794  1
  Er  Er5  1  0.999324  0.465485  0.741794  1
  Ta  Ta6  1  0.002193  0.002232  0.500000  1
  Ta  Ta7  1  0.997807  0.997768  0.000000  1
  O  O8  1  0.931695  0.068911  0.750004  1
  O  O9  1  0.068305  0.931089  0.250004  1
  O  O10  1  0.357054  0.641795  0.249995  1
  O  O11  1  0.642946  0.358205  0.749995  1
  O  O12  1  0.367022  0.631464  0.749911  1
  O  O13  1  0.632978  0.368536  0.249911  1
  O  O14  1  0.327639  0.079398  0.974926  1
  O  O15  1  0.672361  0.920602  0.474926  1
  O  O16  1  0.309034  0.051179  0.544607  1
  O  O17  1  0.690966  0.948821  0.044607  1
  O  O18  1  0.050655  0.309313  0.455228  1
  O  O19  1  0.949345  0.690687  0.955228  1
  O  O20  1  0.921295  0.672101  0.525215  1
  O  O21  1  0.078705  0.327899  0.025215  1
