# generated using pymatgen
data_Ce3Er2CoPb3
_symmetry_space_group_name_H-M   'P 1'
_cell_length_a   9.52868800
_cell_length_b   9.30718783
_cell_length_c   6.28882200
_cell_angle_alpha   90.00000000
_cell_angle_beta   90.00000000
_cell_angle_gamma   119.23397299
_symmetry_Int_Tables_number   1
_chemical_formula_structural   Ce3Er2CoPb3
_chemical_formula_sum   'Ce6 Er4 Co2 Pb6'
_cell_volume   486.68991547
_cell_formula_units_Z   2
loop_
 _symmetry_equiv_pos_site_id
 _symmetry_equiv_pos_as_xyz
  1  'x, y, z'
loop_
 _atom_site_type_symbol
 _atom_site_label
 _atom_site_symmetry_multiplicity
 _atom_site_fract_x
 _atom_site_fract_y
 _atom_site_fract_z
 _atom_site_occupancy
  Ce  Ce0  1  0.326077  0.663040  0.500000  1
  Ce  Ce1  1  0.673923  0.336960  0.500000  1
  Ce  Ce2  1  0.000000  0.213088  0.250000  1
  Ce  Ce3  1  0.000000  0.786912  0.750000  1
  Ce  Ce4  1  0.326077  0.663040  0.000000  1
  Ce  Ce5  1  0.673923  0.336960  0.000000  1
  Er  Er6  1  0.243156  0.240102  0.750000  1
  Er  Er7  1  0.756844  0.759898  0.250000  1
  Er  Er8  1  0.243156  0.003054  0.250000  1
  Er  Er9  1  0.756844  0.996946  0.750000  1
  Co  Co10  1  0.000000  0.000000  0.000000  1
  Co  Co11  1  0.000000  0.000000  0.500000  1
  Pb  Pb12  1  0.400528  0.395854  0.250000  1
  Pb  Pb13  1  0.599472  0.604146  0.750000  1
  Pb  Pb14  1  0.000000  0.390009  0.750000  1
  Pb  Pb15  1  0.599472  0.995326  0.250000  1
  Pb  Pb16  1  0.400528  0.004674  0.750000  1
  Pb  Pb17  1  0.000000  0.609991  0.250000  1
