# generated using pymatgen
data_Eu3Pu(NiB4)4
_symmetry_space_group_name_H-M   'P 1'
_cell_length_a   6.89508439
_cell_length_b   6.89508395
_cell_length_c   6.89508409
_cell_angle_alpha   112.90549383
_cell_angle_beta   112.90549523
_cell_angle_gamma   102.80157982
_symmetry_Int_Tables_number   1
_chemical_formula_structural   Eu3Pu(NiB4)4
_chemical_formula_sum   'Eu3 Pu1 Ni4 B16'
_cell_volume   249.82292026
_cell_formula_units_Z   1
loop_
 _symmetry_equiv_pos_site_id
 _symmetry_equiv_pos_as_xyz
  1  'x, y, z'
loop_
 _atom_site_type_symbol
 _atom_site_label
 _atom_site_symmetry_multiplicity
 _atom_site_fract_x
 _atom_site_fract_y
 _atom_site_fract_z
 _atom_site_occupancy
  Eu  Eu0  1  0.799839  0.799839  0.000000  1
  Eu  Eu1  1  0.200161  0.200161  0.000000  1
  Eu  Eu2  1  0.750000  0.250000  0.500000  1
  Pu  Pu3  1  0.250000  0.750000  0.500000  1
  Ni  Ni4  1  0.274333  0.500802  0.773531  1
  Ni  Ni5  1  0.727273  0.500802  0.226469  1
  Ni  Ni6  1  0.499198  0.725667  0.226469  1
  Ni  Ni7  1  0.499198  0.272727  0.773531  1
  B  B8  1  0.278109  0.112862  0.390978  1
  B  B9  1  0.721883  0.887130  0.609022  1
  B  B10  1  0.278109  0.887130  0.165246  1
  B  B11  1  0.721883  0.112862  0.834754  1
  B  B12  1  0.112870  0.721891  0.834754  1
  B  B13  1  0.887138  0.278117  0.165246  1
  B  B14  1  0.112870  0.278117  0.390978  1
  B  B15  1  0.887138  0.721891  0.609022  1
  B  B16  1  0.114680  0.110261  0.528907  1
  B  B17  1  0.581354  0.585772  0.471093  1
  B  B18  1  0.114680  0.585772  0.004418  1
  B  B19  1  0.581354  0.110261  0.995582  1
  B  B20  1  0.889739  0.885320  0.471093  1
  B  B21  1  0.414228  0.418646  0.528907  1
  B  B22  1  0.889739  0.418646  0.004418  1
  B  B23  1  0.414228  0.885320  0.995582  1
