# generated using pymatgen
data_Yb4U4SiPd24
_symmetry_space_group_name_H-M   'P 1'
_cell_length_a   8.34253433
_cell_length_b   8.35284194
_cell_length_c   8.35284200
_cell_angle_alpha   90.02203251
_cell_angle_beta   90.01600910
_cell_angle_gamma   90.01601063
_symmetry_Int_Tables_number   1
_chemical_formula_structural   Yb4U4SiPd24
_chemical_formula_sum   'Yb4 U4 Si1 Pd24'
_cell_volume   582.05827286
_cell_formula_units_Z   1
loop_
 _symmetry_equiv_pos_site_id
 _symmetry_equiv_pos_as_xyz
  1  'x, y, z'
loop_
 _atom_site_type_symbol
 _atom_site_label
 _atom_site_symmetry_multiplicity
 _atom_site_fract_x
 _atom_site_fract_y
 _atom_site_fract_z
 _atom_site_occupancy
  Yb  Yb0  1  0.252523  0.251760  0.251760  1
  Yb  Yb1  1  0.747344  0.747014  0.747014  1
  Yb  Yb2  1  0.748181  0.747729  0.252943  1
  Yb  Yb3  1  0.748181  0.252943  0.747729  1
  U  U4  1  0.252453  0.252101  0.746802  1
  U  U5  1  0.252453  0.746802  0.252101  1
  U  U6  1  0.252685  0.749008  0.749008  1
  U  U7  1  0.743583  0.256477  0.256477  1
  Si  Si8  1  0.000130  0.998561  0.998561  1
  Pd  Pd9  1  0.257630  0.500107  0.998045  1
  Pd  Pd10  1  0.742559  0.495671  0.005601  1
  Pd  Pd11  1  0.001848  0.257441  0.499562  1
  Pd  Pd12  1  0.499795  0.257297  0.998867  1
  Pd  Pd13  1  0.007792  0.743147  0.498693  1
  Pd  Pd14  1  0.495796  0.742390  0.001466  1
  Pd  Pd15  1  0.499795  0.998867  0.257297  1
  Pd  Pd16  1  0.257630  0.998045  0.500107  1
  Pd  Pd17  1  0.495796  0.001466  0.742390  1
  Pd  Pd18  1  0.742559  0.005601  0.495671  1
  Pd  Pd19  1  0.001848  0.499562  0.257441  1
  Pd  Pd20  1  0.007792  0.498693  0.743147  1
  Pd  Pd21  1  0.253277  0.500984  0.500984  1
  Pd  Pd22  1  0.748781  0.497168  0.497168  1
  Pd  Pd23  1  0.498752  0.252276  0.500185  1
  Pd  Pd24  1  0.495632  0.747710  0.499546  1
  Pd  Pd25  1  0.498752  0.500185  0.252276  1
  Pd  Pd26  1  0.495632  0.499546  0.747710  1
  Pd  Pd27  1  0.282384  0.000859  0.000859  1
  Pd  Pd28  1  0.720075  0.001557  0.001557  1
  Pd  Pd29  1  0.999238  0.279700  0.001110  1
  Pd  Pd30  1  0.999930  0.717841  0.000380  1
  Pd  Pd31  1  0.999238  0.001110  0.279700  1
  Pd  Pd32  1  0.999930  0.000380  0.717841  1
