# generated using pymatgen
data_Tm7PaAlPd24
_symmetry_space_group_name_H-M   'P 1'
_cell_length_a   8.37016757
_cell_length_b   8.37016738
_cell_length_c   8.37016800
_cell_angle_alpha   90.25908626
_cell_angle_beta   90.25908625
_cell_angle_gamma   89.74091536
_symmetry_Int_Tables_number   1
_chemical_formula_structural   Tm7PaAlPd24
_chemical_formula_sum   'Tm7 Pa1 Al1 Pd24'
_cell_volume   586.39355716
_cell_formula_units_Z   1
loop_
 _symmetry_equiv_pos_site_id
 _symmetry_equiv_pos_as_xyz
  1  'x, y, z'
loop_
 _atom_site_type_symbol
 _atom_site_label
 _atom_site_symmetry_multiplicity
 _atom_site_fract_x
 _atom_site_fract_y
 _atom_site_fract_z
 _atom_site_occupancy
  Tm  Tm0  1  0.252439  0.747272  0.252728  1
  Tm  Tm1  1  0.747272  0.252439  0.252728  1
  Tm  Tm2  1  0.747272  0.747272  0.747561  1
  Tm  Tm3  1  0.746420  0.746420  0.253580  1
  Tm  Tm4  1  0.749180  0.252873  0.747127  1
  Tm  Tm5  1  0.252873  0.749180  0.747127  1
  Tm  Tm6  1  0.252873  0.252873  0.250820  1
  Pa  Pa7  1  0.255991  0.255991  0.744009  1
  Al  Al8  1  0.997015  0.997015  0.002985  1
  Pd  Pd9  1  0.497948  0.497948  0.746633  1
  Pd  Pd10  1  0.497948  0.253367  0.502052  1
  Pd  Pd11  1  0.253367  0.497948  0.502052  1
  Pd  Pd12  1  0.499272  0.499272  0.252135  1
  Pd  Pd13  1  0.499272  0.747865  0.500728  1
  Pd  Pd14  1  0.747865  0.499272  0.500728  1
  Pd  Pd15  1  0.002522  0.002522  0.715076  1
  Pd  Pd16  1  0.002522  0.284924  0.997478  1
  Pd  Pd17  1  0.284924  0.002522  0.997478  1
  Pd  Pd18  1  0.999303  0.999303  0.288700  1
  Pd  Pd19  1  0.999303  0.711300  0.000697  1
  Pd  Pd20  1  0.711300  0.999303  0.000697  1
  Pd  Pd21  1  0.005229  0.497628  0.740968  1
  Pd  Pd22  1  0.497628  0.259032  0.994771  1
  Pd  Pd23  1  0.259032  0.005229  0.502372  1
  Pd  Pd24  1  0.005229  0.259032  0.502372  1
  Pd  Pd25  1  0.497628  0.005229  0.740968  1
  Pd  Pd26  1  0.259032  0.497628  0.994771  1
  Pd  Pd27  1  0.999922  0.498726  0.258976  1
  Pd  Pd28  1  0.498726  0.741024  0.000078  1
  Pd  Pd29  1  0.999922  0.741024  0.501274  1
  Pd  Pd30  1  0.498726  0.999922  0.258976  1
  Pd  Pd31  1  0.741024  0.999922  0.501274  1
  Pd  Pd32  1  0.741024  0.498726  0.000078  1
