# generated using pymatgen
data_Pr5GeSe4
_symmetry_space_group_name_H-M   'P 1'
_cell_length_a   7.44656390
_cell_length_b   7.44656450
_cell_length_c   7.44656460
_cell_angle_alpha   99.37809181
_cell_angle_beta   99.37808891
_cell_angle_gamma   132.38449521
_symmetry_Int_Tables_number   1
_chemical_formula_structural   Pr5GeSe4
_chemical_formula_sum   'Pr5 Ge1 Se4'
_cell_volume   279.04574891
_cell_formula_units_Z   1
loop_
 _symmetry_equiv_pos_site_id
 _symmetry_equiv_pos_as_xyz
  1  'x, y, z'
loop_
 _atom_site_type_symbol
 _atom_site_label
 _atom_site_symmetry_multiplicity
 _atom_site_fract_x
 _atom_site_fract_y
 _atom_site_fract_z
 _atom_site_occupancy
  Pr  Pr0  1  0.402614  0.793051  0.195663  1
  Pr  Pr1  1  0.000000  0.000000  0.000000  1
  Pr  Pr2  1  0.597386  0.206949  0.804337  1
  Pr  Pr3  1  0.206949  0.402614  0.609563  1
  Pr  Pr4  1  0.793051  0.597386  0.390437  1
  Ge  Ge5  1  0.500000  0.500000  0.000000  1
  Se  Se6  1  0.099136  0.698496  0.797631  1
  Se  Se7  1  0.698496  0.900864  0.599360  1
  Se  Se8  1  0.301504  0.099136  0.400640  1
  Se  Se9  1  0.900864  0.301504  0.202369  1
