# generated using pymatgen
data_TaBe6Ga5Rh12
_symmetry_space_group_name_H-M   'P 1'
_cell_length_a   4.17609300
_cell_length_b   5.90740300
_cell_length_c   12.45727000
_cell_angle_alpha   89.99986772
_cell_angle_beta   89.99967438
_cell_angle_gamma   90.00011307
_symmetry_Int_Tables_number   1
_chemical_formula_structural   TaBe6Ga5Rh12
_chemical_formula_sum   'Ta1 Be6 Ga5 Rh12'
_cell_volume   307.31916065
_cell_formula_units_Z   1
loop_
 _symmetry_equiv_pos_site_id
 _symmetry_equiv_pos_as_xyz
  1  'x, y, z'
loop_
 _atom_site_type_symbol
 _atom_site_label
 _atom_site_symmetry_multiplicity
 _atom_site_fract_x
 _atom_site_fract_y
 _atom_site_fract_z
 _atom_site_occupancy
  Ta  Ta0  1  0.000000  0.999998  0.999997  1
  Be  Be1  1  0.000000  0.500000  0.000000  1
  Be  Be2  1  0.499884  0.000000  0.166835  1
  Be  Be3  1  0.999765  0.500000  0.341760  1
  Be  Be4  1  0.500000  0.000000  0.499999  1
  Be  Be5  1  0.000236  0.500000  0.658236  1
  Be  Be6  1  0.500116  0.000000  0.833161  1
  Ga  Ga7  1  0.499860  0.499999  0.171344  1
  Ga  Ga8  1  0.999845  0.000001  0.334649  1
  Ga  Ga9  1  0.500001  0.500000  0.499993  1
  Ga  Ga10  1  0.000150  0.000000  0.665357  1
  Ga  Ga11  1  0.500139  0.500000  0.828665  1
  Rh  Rh12  1  0.500000  0.258560  0.000002  1
  Rh  Rh13  1  0.500000  0.741440  0.000001  1
  Rh  Rh14  1  0.999872  0.253149  0.168557  1
  Rh  Rh15  1  0.999872  0.746851  0.168556  1
  Rh  Rh16  1  0.499846  0.248139  0.334143  1
  Rh  Rh17  1  0.499845  0.751860  0.334143  1
  Rh  Rh18  1  0.999999  0.250032  0.499999  1
  Rh  Rh19  1  0.000000  0.749967  0.499999  1
  Rh  Rh20  1  0.500154  0.248146  0.665855  1
  Rh  Rh21  1  0.500154  0.751856  0.665855  1
  Rh  Rh22  1  0.000127  0.253143  0.831447  1
  Rh  Rh23  1  0.000128  0.746856  0.831447  1
