# generated using pymatgen
data_V3SiNi2C
_symmetry_space_group_name_H-M   'P 1'
_cell_length_a   7.65832496
_cell_length_b   7.65812260
_cell_length_c   7.65911700
_cell_angle_alpha   59.99570023
_cell_angle_beta   59.99657443
_cell_angle_gamma   59.99068918
_symmetry_Int_Tables_number   1
_chemical_formula_structural   V3SiNi2C
_chemical_formula_sum   'V12 Si4 Ni8 C4'
_cell_volume   317.58785583
_cell_formula_units_Z   4
loop_
 _symmetry_equiv_pos_site_id
 _symmetry_equiv_pos_as_xyz
  1  'x, y, z'
loop_
 _atom_site_type_symbol
 _atom_site_label
 _atom_site_symmetry_multiplicity
 _atom_site_fract_x
 _atom_site_fract_y
 _atom_site_fract_z
 _atom_site_occupancy
  V  V0  1  0.686710  0.313126  0.313264  1
  V  V1  1  0.936839  0.936694  0.563234  1
  V  V2  1  0.686732  0.686724  0.313272  1
  V  V3  1  0.686710  0.313126  0.686900  1
  V  V4  1  0.313200  0.686573  0.313451  1
  V  V5  1  0.563290  0.936874  0.563100  1
  V  V6  1  0.563290  0.936874  0.936736  1
  V  V7  1  0.936800  0.563427  0.563224  1
  V  V8  1  0.936800  0.563427  0.936549  1
  V  V9  1  0.313161  0.313306  0.686766  1
  V  V10  1  0.563268  0.563276  0.936728  1
  V  V11  1  0.313200  0.686573  0.686776  1
  Si  Si12  1  0.125000  0.125000  0.125000  1
  Si  Si13  1  0.625000  0.125000  0.125000  1
  Si  Si14  1  0.125000  0.125000  0.625000  1
  Si  Si15  1  0.125000  0.625000  0.125000  1
  Ni  Ni16  1  0.915870  0.915963  0.252242  1
  Ni  Ni17  1  0.334130  0.334037  0.334074  1
  Ni  Ni18  1  0.252056  0.916009  0.915968  1
  Ni  Ni19  1  0.334092  0.997824  0.334042  1
  Ni  Ni20  1  0.997944  0.333991  0.334032  1
  Ni  Ni21  1  0.334130  0.334037  0.997758  1
  Ni  Ni22  1  0.915870  0.915963  0.915926  1
  Ni  Ni23  1  0.915908  0.252176  0.915958  1
  C  C24  1  0.625000  0.625000  0.625000  1
  C  C25  1  0.625000  0.625000  0.125000  1
  C  C26  1  0.125000  0.625000  0.625000  1
  C  C27  1  0.625000  0.125000  0.625000  1
