# generated using pymatgen
data_DyY2Cd3Sn2Au
_symmetry_space_group_name_H-M   'P 1'
_cell_length_a   7.50511914
_cell_length_b   7.50511956
_cell_length_c   4.53837700
_cell_angle_alpha   90.00000000
_cell_angle_beta   90.00000000
_cell_angle_gamma   120.02185802
_symmetry_Int_Tables_number   1
_chemical_formula_structural   DyY2Cd3Sn2Au
_chemical_formula_sum   'Dy1 Y2 Cd3 Sn2 Au1'
_cell_volume   221.33531302
_cell_formula_units_Z   1
loop_
 _symmetry_equiv_pos_site_id
 _symmetry_equiv_pos_as_xyz
  1  'x, y, z'
loop_
 _atom_site_type_symbol
 _atom_site_label
 _atom_site_symmetry_multiplicity
 _atom_site_fract_x
 _atom_site_fract_y
 _atom_site_fract_z
 _atom_site_occupancy
  Dy  Dy0  1  0.406195  0.406195  0.000000  1
  Y  Y1  1  0.593454  0.999981  0.000000  1
  Y  Y2  1  0.999981  0.593454  0.000000  1
  Cd  Cd3  1  0.240401  0.000034  0.500000  1
  Cd  Cd4  1  0.000034  0.240401  0.500000  1
  Cd  Cd5  1  0.759606  0.759606  0.500000  1
  Sn  Sn6  1  0.333365  0.666484  0.500000  1
  Sn  Sn7  1  0.666484  0.333365  0.500000  1
  Au  Au8  1  0.000481  0.000481  0.000000  1
