# generated using pymatgen
data_LaTb8Sm3(SiI3)4
_symmetry_space_group_name_H-M   'P 1'
_cell_length_a   10.59686327
_cell_length_b   10.59686301
_cell_length_c   10.63092879
_cell_angle_alpha   109.39252585
_cell_angle_beta   109.39253585
_cell_angle_gamma   109.53924375
_symmetry_Int_Tables_number   1
_chemical_formula_structural   LaTb8Sm3(SiI3)4
_chemical_formula_sum   'La1 Tb8 Sm3 Si4 I12'
_cell_volume   919.98609876
_cell_formula_units_Z   1
loop_
 _symmetry_equiv_pos_site_id
 _symmetry_equiv_pos_as_xyz
  1  'x, y, z'
loop_
 _atom_site_type_symbol
 _atom_site_label
 _atom_site_symmetry_multiplicity
 _atom_site_fract_x
 _atom_site_fract_y
 _atom_site_fract_z
 _atom_site_occupancy
  La  La0  1  0.236319  0.263681  0.750000  1
  Tb  Tb1  1  0.461030  0.480739  0.232348  1
  Tb  Tb2  1  0.748103  0.229831  0.268623  1
  Tb  Tb3  1  0.749450  0.019507  0.479573  1
  Tb  Tb4  1  0.229344  0.460688  0.479181  1
  Tb  Tb5  1  0.270169  0.751897  0.231377  1
  Tb  Tb6  1  0.039312  0.270656  0.020819  1
  Tb  Tb7  1  0.019261  0.038970  0.267652  1
  Tb  Tb8  1  0.480493  0.750550  0.020427  1
  Sm  Sm9  1  0.481144  0.232223  0.463066  1
  Sm  Sm10  1  0.018538  0.481462  0.750000  1
  Sm  Sm11  1  0.267777  0.018856  0.036934  1
  Si  Si12  1  0.248595  0.251405  0.250000  1
  Si  Si13  1  0.500694  0.999306  0.250000  1
  Si  Si14  1  0.997714  0.248483  0.496047  1
  Si  Si15  1  0.251517  0.502286  0.003953  1
  I  I16  1  0.253916  0.757159  0.743134  1
  I  I17  1  0.519265  0.518979  0.756183  1
  I  I18  1  0.985927  0.743278  0.997311  1
  I  I19  1  0.742841  0.246084  0.756866  1
  I  I20  1  0.981021  0.980735  0.743817  1
  I  I21  1  0.244782  0.982485  0.496744  1
  I  I22  1  0.756722  0.514073  0.502689  1
  I  I23  1  0.517515  0.255218  0.003256  1
  I  I24  1  0.755167  0.744833  0.250000  1
  I  I25  1  0.744293  0.995340  0.989755  1
  I  I26  1  0.994426  0.505574  0.250000  1
  I  I27  1  0.504660  0.755707  0.510245  1
