# generated using pymatgen
data_TbSm3(P3Rh4)2
_symmetry_space_group_name_H-M   'P 1'
_cell_length_a   4.00428700
_cell_length_b   11.39298500
_cell_length_c   13.11846400
_cell_angle_alpha   90.00000000
_cell_angle_beta   90.00000000
_cell_angle_gamma   90.00000000
_symmetry_Int_Tables_number   1
_chemical_formula_structural   TbSm3(P3Rh4)2
_chemical_formula_sum   'Tb2 Sm6 P12 Rh16'
_cell_volume   598.47458273
_cell_formula_units_Z   2
loop_
 _symmetry_equiv_pos_site_id
 _symmetry_equiv_pos_as_xyz
  1  'x, y, z'
loop_
 _atom_site_type_symbol
 _atom_site_label
 _atom_site_symmetry_multiplicity
 _atom_site_fract_x
 _atom_site_fract_y
 _atom_site_fract_z
 _atom_site_occupancy
  Tb  Tb0  1  0.500000  0.500000  0.160053  1
  Tb  Tb1  1  0.000000  0.000000  0.839947  1
  Sm  Sm2  1  0.000000  0.500000  0.523584  1
  Sm  Sm3  1  0.500000  0.000000  0.476416  1
  Sm  Sm4  1  0.500000  0.821665  0.204483  1
  Sm  Sm5  1  0.500000  0.178335  0.204483  1
  Sm  Sm6  1  0.000000  0.678335  0.795517  1
  Sm  Sm7  1  0.000000  0.321665  0.795517  1
  P  P8  1  0.500000  0.500000  0.882513  1
  P  P9  1  0.000000  0.000000  0.117487  1
  P  P10  1  0.500000  0.500000  0.364965  1
  P  P11  1  0.000000  0.000000  0.635035  1
  P  P12  1  0.500000  0.310701  0.615527  1
  P  P13  1  0.500000  0.689299  0.615527  1
  P  P14  1  0.000000  0.189299  0.384473  1
  P  P15  1  0.000000  0.810701  0.384473  1
  P  P16  1  0.500000  0.838277  0.890414  1
  P  P17  1  0.500000  0.161723  0.890414  1
  P  P18  1  0.000000  0.661723  0.109586  1
  P  P19  1  0.000000  0.338277  0.109586  1
  Rh  Rh20  1  0.500000  0.500000  0.702875  1
  Rh  Rh21  1  0.000000  0.000000  0.297125  1
  Rh  Rh22  1  0.000000  0.500000  0.984062  1
  Rh  Rh23  1  0.500000  0.000000  0.015938  1
  Rh  Rh24  1  0.500000  0.330982  0.990826  1
  Rh  Rh25  1  0.500000  0.669018  0.990826  1
  Rh  Rh26  1  0.000000  0.169018  0.009174  1
  Rh  Rh27  1  0.000000  0.830982  0.009174  1
  Rh  Rh28  1  0.500000  0.290031  0.432968  1
  Rh  Rh29  1  0.500000  0.709969  0.432968  1
  Rh  Rh30  1  0.000000  0.209969  0.567032  1
  Rh  Rh31  1  0.000000  0.790031  0.567032  1
  Rh  Rh32  1  0.500000  0.873448  0.703075  1
  Rh  Rh33  1  0.500000  0.126552  0.703075  1
  Rh  Rh34  1  0.000000  0.626552  0.296925  1
  Rh  Rh35  1  0.000000  0.373448  0.296925  1
