# generated using pymatgen
data_TmTi3(BiO4)3
_symmetry_space_group_name_H-M   'P 1'
_cell_length_a   5.35154000
_cell_length_b   5.45203834
_cell_length_c   17.22170800
_cell_angle_alpha   81.24855962
_cell_angle_beta   90.00000000
_cell_angle_gamma   90.00000000
_symmetry_Int_Tables_number   1
_chemical_formula_structural   TmTi3(BiO4)3
_chemical_formula_sum   'Tm2 Ti6 Bi6 O24'
_cell_volume   496.62438767
_cell_formula_units_Z   2
loop_
 _symmetry_equiv_pos_site_id
 _symmetry_equiv_pos_as_xyz
  1  'x, y, z'
loop_
 _atom_site_type_symbol
 _atom_site_label
 _atom_site_symmetry_multiplicity
 _atom_site_fract_x
 _atom_site_fract_y
 _atom_site_fract_z
 _atom_site_occupancy
  Tm  Tm0  1  0.270099  0.087559  0.868414  1
  Tm  Tm1  1  0.729901  0.587559  0.868414  1
  Ti  Ti2  1  0.768993  0.069357  0.983420  1
  Ti  Ti3  1  0.231007  0.569357  0.983420  1
  Ti  Ti4  1  0.765319  0.185917  0.751442  1
  Ti  Ti5  1  0.234681  0.685917  0.751442  1
  Ti  Ti6  1  0.758624  0.907378  0.260012  1
  Ti  Ti7  1  0.241376  0.407378  0.260012  1
  Bi  Bi8  1  0.271101  0.180671  0.591898  1
  Bi  Bi9  1  0.728899  0.680671  0.591898  1
  Bi  Bi10  1  0.268290  0.929061  0.132976  1
  Bi  Bi11  1  0.731710  0.429061  0.132976  1
  Bi  Bi12  1  0.236719  0.773913  0.437141  1
  Bi  Bi13  1  0.763281  0.273913  0.437141  1
  O  O14  1  0.447134  0.329521  0.953425  1
  O  O15  1  0.552866  0.829521  0.953425  1
  O  O16  1  0.505420  0.999646  0.508361  1
  O  O17  1  0.494580  0.499646  0.508361  1
  O  O18  1  0.862691  0.191607  0.874265  1
  O  O19  1  0.137309  0.691607  0.874265  1
  O  O20  1  0.676235  0.248511  0.647214  1
  O  O21  1  0.323765  0.748511  0.647214  1
  O  O22  1  0.450316  0.411469  0.789755  1
  O  O23  1  0.549684  0.911469  0.789755  1
  O  O24  1  0.929024  0.527201  0.746873  1
  O  O25  1  0.070976  0.027201  0.746873  1
  O  O26  1  0.925741  0.410226  0.000879  1
  O  O27  1  0.074259  0.910226  0.000879  1
  O  O28  1  0.994464  0.498506  0.509222  1
  O  O29  1  0.005536  0.998506  0.509222  1
  O  O30  1  0.674415  0.048662  0.094372  1
  O  O31  1  0.325585  0.548662  0.094372  1
  O  O32  1  0.783559  0.858130  0.361728  1
  O  O33  1  0.216441  0.358130  0.361728  1
  O  O34  1  0.004400  0.176782  0.222147  1
  O  O35  1  0.995600  0.676782  0.222147  1
  O  O36  1  0.512792  0.194283  0.232255  1
  O  O37  1  0.487208  0.694283  0.232255  1
