# generated using pymatgen
data_Dy4Y(Cd2Pt)2
_symmetry_space_group_name_H-M   'P 1'
_cell_length_a   3.67922100
_cell_length_b   7.96226600
_cell_length_c   18.35342600
_cell_angle_alpha   90.00000000
_cell_angle_beta   90.00000000
_cell_angle_gamma   90.00000000
_symmetry_Int_Tables_number   1
_chemical_formula_structural   Dy4Y(Cd2Pt)2
_chemical_formula_sum   'Dy8 Y2 Cd8 Pt4'
_cell_volume   537.66244509
_cell_formula_units_Z   2
loop_
 _symmetry_equiv_pos_site_id
 _symmetry_equiv_pos_as_xyz
  1  'x, y, z'
loop_
 _atom_site_type_symbol
 _atom_site_label
 _atom_site_symmetry_multiplicity
 _atom_site_fract_x
 _atom_site_fract_y
 _atom_site_fract_z
 _atom_site_occupancy
  Dy  Dy0  1  0.000000  0.114827  0.414273  1
  Dy  Dy1  1  0.000000  0.885173  0.585727  1
  Dy  Dy2  1  0.000000  0.385173  0.914273  1
  Dy  Dy3  1  0.000000  0.614827  0.085727  1
  Dy  Dy4  1  0.000000  0.242387  0.219301  1
  Dy  Dy5  1  0.000000  0.757613  0.780699  1
  Dy  Dy6  1  0.000000  0.257613  0.719301  1
  Dy  Dy7  1  0.000000  0.742387  0.280699  1
  Y  Y8  1  0.000000  0.000000  0.000000  1
  Y  Y9  1  0.000000  0.500000  0.500000  1
  Cd  Cd10  1  0.500000  0.427569  0.352756  1
  Cd  Cd11  1  0.500000  0.572431  0.647244  1
  Cd  Cd12  1  0.500000  0.072431  0.852756  1
  Cd  Cd13  1  0.500000  0.927569  0.147244  1
  Cd  Cd14  1  0.500000  0.288863  0.066600  1
  Cd  Cd15  1  0.500000  0.711137  0.933400  1
  Cd  Cd16  1  0.500000  0.211137  0.566600  1
  Cd  Cd17  1  0.500000  0.788863  0.433400  1
  Pt  Pt18  1  0.500000  0.026976  0.303766  1
  Pt  Pt19  1  0.500000  0.973024  0.696234  1
  Pt  Pt20  1  0.500000  0.473024  0.803766  1
  Pt  Pt21  1  0.500000  0.526976  0.196234  1
