# generated using pymatgen
data_Tb2HoSn3GeRh2
_symmetry_space_group_name_H-M   'P 1'
_cell_length_a   7.41763626
_cell_length_b   7.40950374
_cell_length_c   4.16023600
_cell_angle_alpha   90.00000000
_cell_angle_beta   90.00000000
_cell_angle_gamma   120.00581681
_symmetry_Int_Tables_number   1
_chemical_formula_structural   Tb2HoSn3GeRh2
_chemical_formula_sum   'Tb2 Ho1 Sn3 Ge1 Rh2'
_cell_volume   198.00574689
_cell_formula_units_Z   1
loop_
 _symmetry_equiv_pos_site_id
 _symmetry_equiv_pos_as_xyz
  1  'x, y, z'
loop_
 _atom_site_type_symbol
 _atom_site_label
 _atom_site_symmetry_multiplicity
 _atom_site_fract_x
 _atom_site_fract_y
 _atom_site_fract_z
 _atom_site_occupancy
  Tb  Tb0  1  0.009391  0.412532  0.000000  1
  Tb  Tb1  1  0.587520  0.597277  0.000000  1
  Ho  Ho2  1  0.401525  0.989069  0.000000  1
  Sn  Sn3  1  0.244507  0.257810  0.500000  1
  Sn  Sn4  1  0.014069  0.755986  0.500000  1
  Sn  Sn5  1  0.741765  0.986756  0.500000  1
  Ge  Ge6  1  0.665929  0.332316  0.500000  1
  Rh  Rh7  1  0.333682  0.668200  0.500000  1
  Rh  Rh8  1  0.001612  0.000055  0.000000  1
