# generated using pymatgen
data_Dy2Si7(MoPt3)3
_symmetry_space_group_name_H-M   'P 1'
_cell_length_a   9.82066500
_cell_length_b   9.82066579
_cell_length_c   4.00133000
_cell_angle_alpha   90.00000000
_cell_angle_beta   90.00000000
_cell_angle_gamma   120.00000069
_symmetry_Int_Tables_number   1
_chemical_formula_structural   Dy2Si7(MoPt3)3
_chemical_formula_sum   'Dy2 Si7 Mo3 Pt9'
_cell_volume   334.20798926
_cell_formula_units_Z   1
loop_
 _symmetry_equiv_pos_site_id
 _symmetry_equiv_pos_as_xyz
  1  'x, y, z'
loop_
 _atom_site_type_symbol
 _atom_site_label
 _atom_site_symmetry_multiplicity
 _atom_site_fract_x
 _atom_site_fract_y
 _atom_site_fract_z
 _atom_site_occupancy
  Dy  Dy0  1  0.000000  0.000000  0.000000  1
  Dy  Dy1  1  0.333333  0.666667  0.500000  1
  Si  Si2  1  0.263982  0.220091  0.500000  1
  Si  Si3  1  0.779909  0.043893  0.500000  1
  Si  Si4  1  0.956107  0.736018  0.500000  1
  Si  Si5  1  0.552489  0.627404  0.000000  1
  Si  Si6  1  0.372596  0.925083  0.000000  1
  Si  Si7  1  0.074917  0.447511  0.000000  1
  Si  Si8  1  0.666667  0.333333  0.000000  1
  Mo  Mo9  1  0.879463  0.451954  0.500000  1
  Mo  Mo10  1  0.572492  0.120537  0.500000  1
  Mo  Mo11  1  0.548046  0.427508  0.500000  1
  Pt  Pt12  1  0.223629  0.946525  0.500000  1
  Pt  Pt13  1  0.053475  0.277105  0.500000  1
  Pt  Pt14  1  0.722895  0.776371  0.500000  1
  Pt  Pt15  1  0.299173  0.407927  0.000000  1
  Pt  Pt16  1  0.592073  0.891247  0.000000  1
  Pt  Pt17  1  0.108753  0.700827  0.000000  1
  Pt  Pt18  1  0.385963  0.176308  0.000000  1
  Pt  Pt19  1  0.823692  0.209654  0.000000  1
  Pt  Pt20  1  0.790346  0.614037  0.000000  1
