# generated using pymatgen
data_Sc2CrReC3
_symmetry_space_group_name_H-M   'P 1'
_cell_length_a   5.73529521
_cell_length_b   5.73529458
_cell_length_c   5.38012367
_cell_angle_alpha   69.30859165
_cell_angle_beta   69.30859140
_cell_angle_gamma   31.49104104
_symmetry_Int_Tables_number   1
_chemical_formula_structural   Sc2CrReC3
_chemical_formula_sum   'Sc2 Cr1 Re1 C3'
_cell_volume   85.98920029
_cell_formula_units_Z   1
loop_
 _symmetry_equiv_pos_site_id
 _symmetry_equiv_pos_as_xyz
  1  'x, y, z'
loop_
 _atom_site_type_symbol
 _atom_site_label
 _atom_site_symmetry_multiplicity
 _atom_site_fract_x
 _atom_site_fract_y
 _atom_site_fract_z
 _atom_site_occupancy
  Sc  Sc0  1  0.612641  0.612641  0.171527  1
  Sc  Sc1  1  0.387309  0.387309  0.833191  1
  Cr  Cr2  1  0.843631  0.843631  0.322110  1
  Re  Re3  1  0.152372  0.152372  0.672023  1
  C  C4  1  0.761738  0.761738  0.729236  1
  C  C5  1  0.246689  0.246689  0.258723  1
  C  C6  1  0.995621  0.995621  0.013190  1
