# generated using pymatgen
data_TbY7Be3Si12Pd
_symmetry_space_group_name_H-M   'P 1'
_cell_length_a   7.94803600
_cell_length_b   7.94803643
_cell_length_c   8.10610100
_cell_angle_alpha   90.00000000
_cell_angle_beta   90.00000000
_cell_angle_gamma   120.00000655
_symmetry_Int_Tables_number   1
_chemical_formula_structural   TbY7Be3Si12Pd
_chemical_formula_sum   'Tb1 Y7 Be3 Si12 Pd1'
_cell_volume   443.46800076
_cell_formula_units_Z   1
loop_
 _symmetry_equiv_pos_site_id
 _symmetry_equiv_pos_as_xyz
  1  'x, y, z'
loop_
 _atom_site_type_symbol
 _atom_site_label
 _atom_site_symmetry_multiplicity
 _atom_site_fract_x
 _atom_site_fract_y
 _atom_site_fract_z
 _atom_site_occupancy
  Tb  Tb0  1  0.000000  0.000000  0.750801  1
  Y  Y1  1  0.501303  0.002605  0.247719  1
  Y  Y2  1  0.501862  0.003726  0.752301  1
  Y  Y3  1  0.997395  0.498697  0.247719  1
  Y  Y4  1  0.996274  0.498138  0.752301  1
  Y  Y5  1  0.501303  0.498697  0.247719  1
  Y  Y6  1  0.501862  0.498138  0.752301  1
  Y  Y7  1  0.000000  0.000000  0.248977  1
  Be  Be8  1  0.333333  0.666667  0.001178  1
  Be  Be9  1  0.666667  0.333333  0.001008  1
  Be  Be10  1  0.666667  0.333333  0.498140  1
  Si  Si11  1  0.172164  0.344328  0.999395  1
  Si  Si12  1  0.826787  0.653574  0.000356  1
  Si  Si13  1  0.655672  0.827836  0.999395  1
  Si  Si14  1  0.828159  0.656318  0.500086  1
  Si  Si15  1  0.346426  0.173213  0.000356  1
  Si  Si16  1  0.166187  0.332372  0.499588  1
  Si  Si17  1  0.172164  0.827836  0.999395  1
  Si  Si18  1  0.343682  0.171841  0.500086  1
  Si  Si19  1  0.826787  0.173213  0.000356  1
  Si  Si20  1  0.667628  0.833813  0.499588  1
  Si  Si21  1  0.828159  0.171841  0.500086  1
  Si  Si22  1  0.166187  0.833813  0.499588  1
  Pd  Pd23  1  0.333333  0.666667  0.501553  1
