# generated using pymatgen
data_Y3Er5(CdCo)2
_symmetry_space_group_name_H-M   'P 1'
_cell_length_a   9.46755426
_cell_length_b   9.46755428
_cell_length_c   9.46755500
_cell_angle_alpha   59.99999400
_cell_angle_beta   59.99999392
_cell_angle_gamma   59.99999199
_symmetry_Int_Tables_number   1
_chemical_formula_structural   Y3Er5(CdCo)2
_chemical_formula_sum   'Y6 Er10 Cd4 Co4'
_cell_volume   600.06511500
_cell_formula_units_Z   2
loop_
 _symmetry_equiv_pos_site_id
 _symmetry_equiv_pos_as_xyz
  1  'x, y, z'
loop_
 _atom_site_type_symbol
 _atom_site_label
 _atom_site_symmetry_multiplicity
 _atom_site_fract_x
 _atom_site_fract_y
 _atom_site_fract_z
 _atom_site_occupancy
  Y  Y0  1  0.189362  0.810638  0.810638  1
  Y  Y1  1  0.810638  0.189362  0.189362  1
  Y  Y2  1  0.810638  0.189362  0.810638  1
  Y  Y3  1  0.189362  0.810638  0.189362  1
  Y  Y4  1  0.810638  0.810638  0.189362  1
  Y  Y5  1  0.189362  0.189362  0.810638  1
  Er  Er6  1  0.596151  0.596151  0.596151  1
  Er  Er7  1  0.596151  0.596151  0.211548  1
  Er  Er8  1  0.596151  0.211548  0.596151  1
  Er  Er9  1  0.211548  0.596151  0.596151  1
  Er  Er10  1  0.062771  0.437229  0.437229  1
  Er  Er11  1  0.437229  0.062771  0.062771  1
  Er  Er12  1  0.437229  0.062771  0.437229  1
  Er  Er13  1  0.062771  0.437229  0.062771  1
  Er  Er14  1  0.437229  0.437229  0.062771  1
  Er  Er15  1  0.062771  0.062771  0.437229  1
  Cd  Cd16  1  0.830276  0.830276  0.830276  1
  Cd  Cd17  1  0.830276  0.830276  0.509170  1
  Cd  Cd18  1  0.830276  0.509170  0.830276  1
  Cd  Cd19  1  0.509170  0.830276  0.830276  1
  Co  Co20  1  0.391283  0.391283  0.391283  1
  Co  Co21  1  0.391283  0.391283  0.826150  1
  Co  Co22  1  0.391283  0.826150  0.391283  1
  Co  Co23  1  0.826150  0.391283  0.391283  1
