# generated using pymatgen
data_La14Y2Cd4Ru3Pt
_symmetry_space_group_name_H-M   'P 1'
_cell_length_a   10.04970358
_cell_length_b   10.04811146
_cell_length_c   10.04970255
_cell_angle_alpha   59.63487298
_cell_angle_beta   60.72681021
_cell_angle_gamma   59.63486723
_symmetry_Int_Tables_number   1
_chemical_formula_structural   La14Y2Cd4Ru3Pt
_chemical_formula_sum   'La14 Y2 Cd4 Ru3 Pt1'
_cell_volume   717.39546723
_cell_formula_units_Z   1
loop_
 _symmetry_equiv_pos_site_id
 _symmetry_equiv_pos_as_xyz
  1  'x, y, z'
loop_
 _atom_site_type_symbol
 _atom_site_label
 _atom_site_symmetry_multiplicity
 _atom_site_fract_x
 _atom_site_fract_y
 _atom_site_fract_z
 _atom_site_occupancy
  La  La0  1  0.441419  0.438978  0.058902  1
  La  La1  1  0.063859  0.061037  0.440000  1
  La  La2  1  0.440000  0.061037  0.063859  1
  La  La3  1  0.849889  0.842247  0.849889  1
  La  La4  1  0.687507  0.323607  0.302968  1
  La  La5  1  0.058902  0.438978  0.441419  1
  La  La6  1  0.314746  0.688632  0.684371  1
  La  La7  1  0.302968  0.323607  0.687507  1
  La  La8  1  0.856892  0.841743  0.454857  1
  La  La9  1  0.684371  0.688632  0.314746  1
  La  La10  1  0.454857  0.841743  0.856892  1
  La  La11  1  0.057375  0.441676  0.057375  1
  La  La12  1  0.840522  0.458915  0.840522  1
  La  La13  1  0.448162  0.052315  0.448162  1
  Y  Y14  1  0.308036  0.692587  0.308036  1
  Y  Y15  1  0.692284  0.309655  0.692284  1
  Cd  Cd16  1  0.081448  0.761416  0.081448  1
  Cd  Cd17  1  0.076199  0.080602  0.761530  1
  Cd  Cd18  1  0.761530  0.080602  0.076199  1
  Cd  Cd19  1  0.080426  0.075918  0.080426  1
  Ru  Ru20  1  0.631579  0.649678  0.631579  1
  Ru  Ru21  1  0.643068  0.634219  0.083503  1
  Ru  Ru22  1  0.083503  0.634219  0.643068  1
  Pt  Pt23  1  0.640455  0.077963  0.640455  1
