# generated using pymatgen
data_Hf6Al16Ir4Pt3
_symmetry_space_group_name_H-M   'P 1'
_cell_length_a   8.74122554
_cell_length_b   8.72823592
_cell_length_c   8.74122564
_cell_angle_alpha   60.04915010
_cell_angle_beta   59.90170969
_cell_angle_gamma   60.04915457
_symmetry_Int_Tables_number   1
_chemical_formula_structural   Hf6Al16Ir4Pt3
_chemical_formula_sum   'Hf6 Al16 Ir4 Pt3'
_cell_volume   471.57879372
_cell_formula_units_Z   1
loop_
 _symmetry_equiv_pos_site_id
 _symmetry_equiv_pos_as_xyz
  1  'x, y, z'
loop_
 _atom_site_type_symbol
 _atom_site_label
 _atom_site_symmetry_multiplicity
 _atom_site_fract_x
 _atom_site_fract_y
 _atom_site_fract_z
 _atom_site_occupancy
  Hf  Hf0  1  0.683007  0.316993  0.316993  1
  Hf  Hf1  1  0.316993  0.683007  0.683007  1
  Hf  Hf2  1  0.321046  0.678954  0.321046  1
  Hf  Hf3  1  0.678954  0.321046  0.678954  1
  Hf  Hf4  1  0.316993  0.316993  0.683007  1
  Hf  Hf5  1  0.683007  0.683007  0.316993  1
  Al  Al6  1  0.338295  0.339970  0.338295  1
  Al  Al7  1  0.661705  0.660030  0.661705  1
  Al  Al8  1  0.339970  0.338295  0.983440  1
  Al  Al9  1  0.338295  0.983440  0.338295  1
  Al  Al10  1  0.660030  0.661705  0.016560  1
  Al  Al11  1  0.661705  0.016560  0.661705  1
  Al  Al12  1  0.983440  0.338295  0.339970  1
  Al  Al13  1  0.016560  0.661705  0.660030  1
  Al  Al14  1  0.123598  0.115308  0.123598  1
  Al  Al15  1  0.876402  0.884692  0.876402  1
  Al  Al16  1  0.115308  0.123598  0.637497  1
  Al  Al17  1  0.123598  0.637497  0.123598  1
  Al  Al18  1  0.884692  0.876402  0.362503  1
  Al  Al19  1  0.876402  0.362503  0.876402  1
  Al  Al20  1  0.637497  0.123598  0.115308  1
  Al  Al21  1  0.362503  0.876402  0.884692  1
  Ir  Ir22  1  0.500000  0.000000  0.000000  1
  Ir  Ir23  1  0.000000  0.500000  0.500000  1
  Ir  Ir24  1  0.000000  0.000000  0.500000  1
  Ir  Ir25  1  0.500000  0.500000  0.000000  1
  Pt  Pt26  1  0.000000  0.500000  0.000000  1
  Pt  Pt27  1  0.500000  0.000000  0.500000  1
  Pt  Pt28  1  0.000000  0.000000  0.000000  1
