# generated using pymatgen
data_Pr4In2Ir2Pt
_symmetry_space_group_name_H-M   'P 1'
_cell_length_a   7.82682719
_cell_length_b   7.79348110
_cell_length_c   4.28967400
_cell_angle_alpha   90.00000000
_cell_angle_beta   90.00000000
_cell_angle_gamma   121.13608686
_symmetry_Int_Tables_number   1
_chemical_formula_structural   Pr4In2Ir2Pt
_chemical_formula_sum   'Pr4 In2 Ir2 Pt1'
_cell_volume   223.96783243
_cell_formula_units_Z   1
loop_
 _symmetry_equiv_pos_site_id
 _symmetry_equiv_pos_as_xyz
  1  'x, y, z'
loop_
 _atom_site_type_symbol
 _atom_site_label
 _atom_site_symmetry_multiplicity
 _atom_site_fract_x
 _atom_site_fract_y
 _atom_site_fract_z
 _atom_site_occupancy
  Pr  Pr0  1  0.589008  0.029988  0.000000  1
  Pr  Pr1  1  0.017129  0.583161  0.000000  1
  Pr  Pr2  1  0.385505  0.380568  0.000000  1
  Pr  Pr3  1  0.757655  0.753888  0.500000  1
  In  In4  1  0.248879  0.997787  0.500000  1
  In  In5  1  0.994413  0.247974  0.500000  1
  Ir  Ir6  1  0.667015  0.328894  0.500000  1
  Ir  Ir7  1  0.011240  0.011492  0.000000  1
  Pt  Pt8  1  0.329154  0.666246  0.500000  1
