# generated using pymatgen
data_Ba5Sr15(GeBi2)4
_symmetry_space_group_name_H-M   'P 1'
_cell_length_a   13.93893531
_cell_length_b   10.24381800
_cell_length_c   8.82785270
_cell_angle_alpha   90.00000000
_cell_angle_beta   89.88218693
_cell_angle_gamma   90.00000000
_symmetry_Int_Tables_number   1
_chemical_formula_structural   Ba5Sr15(GeBi2)4
_chemical_formula_sum   'Ba5 Sr15 Ge4 Bi8'
_cell_volume   1260.50802907
_cell_formula_units_Z   1
loop_
 _symmetry_equiv_pos_site_id
 _symmetry_equiv_pos_as_xyz
  1  'x, y, z'
loop_
 _atom_site_type_symbol
 _atom_site_label
 _atom_site_symmetry_multiplicity
 _atom_site_fract_x
 _atom_site_fract_y
 _atom_site_fract_z
 _atom_site_occupancy
  Ba  Ba0  1  0.282823  0.250000  0.671391  1
  Ba  Ba1  1  0.300822  0.750000  0.647757  1
  Ba  Ba2  1  0.800882  0.750000  0.851948  1
  Ba  Ba3  1  0.700676  0.250000  0.350525  1
  Ba  Ba4  1  0.198307  0.250000  0.149007  1
  Sr  Sr5  1  0.074368  0.527454  0.825574  1
  Sr  Sr6  1  0.576195  0.973253  0.674535  1
  Sr  Sr7  1  0.924642  0.026112  0.174704  1
  Sr  Sr8  1  0.426012  0.474814  0.324157  1
  Sr  Sr9  1  0.924642  0.473888  0.174704  1
  Sr  Sr10  1  0.426012  0.025186  0.324157  1
  Sr  Sr11  1  0.074368  0.972546  0.825574  1
  Sr  Sr12  1  0.576195  0.526747  0.674535  1
  Sr  Sr13  1  0.999528  0.750000  0.442283  1
  Sr  Sr14  1  0.500896  0.750000  0.057007  1
  Sr  Sr15  1  0.998273  0.250000  0.556471  1
  Sr  Sr16  1  0.500852  0.250000  0.944238  1
  Sr  Sr17  1  0.213876  0.750000  0.168115  1
  Sr  Sr18  1  0.714485  0.750000  0.331964  1
  Sr  Sr19  1  0.785555  0.250000  0.831639  1
  Ge  Ge20  1  0.494769  0.750000  0.441273  1
  Ge  Ge21  1  0.993549  0.750000  0.058483  1
  Ge  Ge22  1  0.509053  0.250000  0.559923  1
  Ge  Ge23  1  0.005947  0.250000  0.940335  1
  Bi  Bi24  1  0.335070  0.508689  0.948822  1
  Bi  Bi25  1  0.833926  0.994320  0.554962  1
  Bi  Bi26  1  0.665753  0.005820  0.054839  1
  Bi  Bi27  1  0.163887  0.497526  0.441230  1
  Bi  Bi28  1  0.665753  0.494180  0.054839  1
  Bi  Bi29  1  0.163887  0.002474  0.441230  1
  Bi  Bi30  1  0.335070  0.991311  0.948822  1
  Bi  Bi31  1  0.833926  0.505680  0.554962  1
