# generated using pymatgen
data_CsDy(AgBi)2
_symmetry_space_group_name_H-M   'P 1'
_cell_length_a   4.90866900
_cell_length_b   4.90866920
_cell_length_c   9.65217200
_cell_angle_alpha   90.00000000
_cell_angle_beta   90.00000000
_cell_angle_gamma   120.00000536
_symmetry_Int_Tables_number   1
_chemical_formula_structural   CsDy(AgBi)2
_chemical_formula_sum   'Cs1 Dy1 Ag2 Bi2'
_cell_volume   201.41099474
_cell_formula_units_Z   1
loop_
 _symmetry_equiv_pos_site_id
 _symmetry_equiv_pos_as_xyz
  1  'x, y, z'
loop_
 _atom_site_type_symbol
 _atom_site_label
 _atom_site_symmetry_multiplicity
 _atom_site_fract_x
 _atom_site_fract_y
 _atom_site_fract_z
 _atom_site_occupancy
  Cs  Cs0  1  0.000000  0.000000  0.500000  1
  Dy  Dy1  1  0.000000  0.000000  0.000000  1
  Ag  Ag2  1  0.666667  0.333333  0.137098  1
  Ag  Ag3  1  0.333333  0.666667  0.862902  1
  Bi  Bi4  1  0.666667  0.333333  0.793833  1
  Bi  Bi5  1  0.333333  0.666667  0.206167  1
