# generated using pymatgen
data_TiBe9W2
_symmetry_space_group_name_H-M   'P 1'
_cell_length_a   7.42059070
_cell_length_b   7.42059026
_cell_length_c   7.42059016
_cell_angle_alpha   34.79258414
_cell_angle_beta   34.79258503
_cell_angle_gamma   34.79257786
_symmetry_Int_Tables_number   1
_chemical_formula_structural   TiBe9W2
_chemical_formula_sum   'Ti1 Be9 W2'
_cell_volume   118.74897835
_cell_formula_units_Z   1
loop_
 _symmetry_equiv_pos_site_id
 _symmetry_equiv_pos_as_xyz
  1  'x, y, z'
loop_
 _atom_site_type_symbol
 _atom_site_label
 _atom_site_symmetry_multiplicity
 _atom_site_fract_x
 _atom_site_fract_y
 _atom_site_fract_z
 _atom_site_occupancy
  Ti  Ti0  1  0.000000  0.000000  0.000000  1
  Be  Be1  1  0.414903  0.921853  0.414903  1
  Be  Be2  1  0.414903  0.414903  0.921853  1
  Be  Be3  1  0.921853  0.414903  0.414903  1
  Be  Be4  1  0.585097  0.078147  0.585097  1
  Be  Be5  1  0.585097  0.585097  0.078147  1
  Be  Be6  1  0.078147  0.585097  0.585097  1
  Be  Be7  1  0.665892  0.665892  0.665892  1
  Be  Be8  1  0.334108  0.334108  0.334108  1
  Be  Be9  1  0.500000  0.500000  0.500000  1
  W  W10  1  0.856222  0.856222  0.856222  1
  W  W11  1  0.143778  0.143778  0.143778  1
