# generated using pymatgen
data_Er3Al2(ReN4)3
_symmetry_space_group_name_H-M   'P 1'
_cell_length_a   10.66640482
_cell_length_b   10.66640575
_cell_length_c   10.66640500
_cell_angle_alpha   109.47121731
_cell_angle_beta   109.47121908
_cell_angle_gamma   109.47122311
_symmetry_Int_Tables_number   1
_chemical_formula_structural   Er3Al2(ReN4)3
_chemical_formula_sum   'Er12 Al8 Re12 N48'
_cell_volume   934.18384843
_cell_formula_units_Z   4
loop_
 _symmetry_equiv_pos_site_id
 _symmetry_equiv_pos_as_xyz
  1  'x, y, z'
loop_
 _atom_site_type_symbol
 _atom_site_label
 _atom_site_symmetry_multiplicity
 _atom_site_fract_x
 _atom_site_fract_y
 _atom_site_fract_z
 _atom_site_occupancy
  Er  Er0  1  0.250000  0.375000  0.125000  1
  Er  Er1  1  0.375000  0.750000  0.125000  1
  Er  Er2  1  0.375000  0.125000  0.250000  1
  Er  Er3  1  0.875000  0.625000  0.250000  1
  Er  Er4  1  0.750000  0.125000  0.375000  1
  Er  Er5  1  0.125000  0.250000  0.375000  1
  Er  Er6  1  0.875001  0.750000  0.625000  1
  Er  Er7  1  0.250000  0.875000  0.625000  1
  Er  Er8  1  0.125000  0.375000  0.750000  1
  Er  Er9  1  0.625000  0.875001  0.750000  1
  Er  Er10  1  0.625000  0.250000  0.875000  1
  Er  Er11  1  0.750000  0.625000  0.875001  1
  Al  Al12  1  0.000000  0.000000  0.000000  1
  Al  Al13  1  0.500000  0.000000  0.000000  1
  Al  Al14  1  0.000000  0.500000  0.000000  1
  Al  Al15  1  0.500000  0.500000  0.000000  1
  Al  Al16  1  0.000000  0.000000  0.500000  1
  Al  Al17  1  0.500000  0.000000  0.500000  1
  Al  Al18  1  0.000000  0.500000  0.500000  1
  Al  Al19  1  0.500000  0.500000  0.500000  1
  Re  Re20  1  0.875001  0.250000  0.125000  1
  Re  Re21  1  0.750000  0.875000  0.125000  1
  Re  Re22  1  0.625000  0.375000  0.250000  1
  Re  Re23  1  0.125000  0.875001  0.250000  1
  Re  Re24  1  0.250000  0.625000  0.375000  1
  Re  Re25  1  0.625000  0.750000  0.375000  1
  Re  Re26  1  0.375000  0.250000  0.625000  1
  Re  Re27  1  0.750000  0.375000  0.625000  1
  Re  Re28  1  0.875000  0.125000  0.750000  1
  Re  Re29  1  0.375000  0.625000  0.750000  1
  Re  Re30  1  0.250000  0.125000  0.875001  1
  Re  Re31  1  0.125000  0.750000  0.875000  1
  N  N32  1  0.319026  0.904761  0.021945  1
  N  N33  1  0.202920  0.117185  0.021945  1
  N  N34  1  0.702919  0.680974  0.085735  1
  N  N35  1  0.882816  0.404761  0.085735  1
  N  N36  1  0.617184  0.414265  0.095240  1
  N  N37  1  0.978056  0.680975  0.095240  1
  N  N38  1  0.595240  0.914266  0.117185  1
  N  N39  1  0.021945  0.202920  0.117185  1
  N  N40  1  0.202920  0.585735  0.180975  1
  N  N41  1  0.478055  0.595240  0.180975  1
  N  N42  1  0.585735  0.180975  0.202920  1
  N  N43  1  0.117185  0.021945  0.202920  1
  N  N44  1  0.478055  0.382816  0.297081  1
  N  N45  1  0.319025  0.914265  0.297081  1
  N  N46  1  0.904761  0.021945  0.319026  1
  N  N47  1  0.914265  0.297081  0.319025  1
  N  N48  1  0.297081  0.478055  0.382816  1
  N  N49  1  0.585735  0.904760  0.382816  1
  N  N50  1  0.819025  0.521945  0.404761  1
  N  N51  1  0.085735  0.882816  0.404761  1
  N  N52  1  0.095240  0.617184  0.414265  1
  N  N53  1  0.819026  0.797081  0.414265  1
  N  N54  1  0.595240  0.180975  0.478055  1
  N  N55  1  0.382816  0.297081  0.478055  1
  N  N56  1  0.617185  0.702920  0.521945  1
  N  N57  1  0.404761  0.819025  0.521945  1
  N  N58  1  0.180975  0.202920  0.585735  1
  N  N59  1  0.904760  0.382816  0.585735  1
  N  N60  1  0.914266  0.117185  0.595240  1
  N  N61  1  0.180975  0.478055  0.595240  1
  N  N62  1  0.414265  0.095240  0.617184  1
  N  N63  1  0.702920  0.521945  0.617185  1
  N  N64  1  0.085735  0.702919  0.680974  1
  N  N65  1  0.095240  0.978056  0.680975  1
  N  N66  1  0.680974  0.085735  0.702919  1
  N  N67  1  0.521945  0.617185  0.702920  1
  N  N68  1  0.414265  0.819026  0.797081  1
  N  N69  1  0.882816  0.978056  0.797081  1
  N  N70  1  0.521945  0.404761  0.819025  1
  N  N71  1  0.797081  0.414265  0.819026  1
  N  N72  1  0.404761  0.085735  0.882816  1
  N  N73  1  0.978056  0.797081  0.882816  1
  N  N74  1  0.021945  0.319026  0.904761  1
  N  N75  1  0.382816  0.585735  0.904760  1
  N  N76  1  0.297081  0.319025  0.914265  1
  N  N77  1  0.117185  0.595240  0.914266  1
  N  N78  1  0.680975  0.095240  0.978056  1
  N  N79  1  0.797081  0.882816  0.978056  1
