# generated using pymatgen
data_TbY8ThIr4
_symmetry_space_group_name_H-M   'P 1'
_cell_length_a   6.48538493
_cell_length_b   7.24826101
_cell_length_c   8.69646740
_cell_angle_alpha   97.00334400
_cell_angle_beta   111.89300570
_cell_angle_gamma   90.00000342
_symmetry_Int_Tables_number   1
_chemical_formula_structural   TbY8ThIr4
_chemical_formula_sum   'Tb1 Y8 Th1 Ir4'
_cell_volume   376.03032857
_cell_formula_units_Z   1
loop_
 _symmetry_equiv_pos_site_id
 _symmetry_equiv_pos_as_xyz
  1  'x, y, z'
loop_
 _atom_site_type_symbol
 _atom_site_label
 _atom_site_symmetry_multiplicity
 _atom_site_fract_x
 _atom_site_fract_y
 _atom_site_fract_z
 _atom_site_occupancy
  Tb  Tb0  1  0.570936  0.250000  0.000000  1
  Y  Y1  1  0.978434  0.920125  0.185916  1
  Y  Y2  1  0.792518  0.579875  0.814084  1
  Y  Y3  1  0.015973  0.086425  0.814184  1
  Y  Y4  1  0.201788  0.413575  0.185816  1
  Y  Y5  1  0.660883  0.815345  0.445827  1
  Y  Y6  1  0.215057  0.684655  0.554173  1
  Y  Y7  1  0.353583  0.183759  0.561405  1
  Y  Y8  1  0.792177  0.316241  0.438595  1
  Th  Th9  1  0.418555  0.750000  0.000000  1
  Ir  Ir10  1  0.812574  0.576451  0.216546  1
  Ir  Ir11  1  0.596028  0.923549  0.783454  1
  Ir  Ir12  1  0.185106  0.430886  0.778718  1
  Ir  Ir13  1  0.406388  0.069114  0.221282  1
