# generated using pymatgen
data_LaNd15Cd4(IrPt)2
_symmetry_space_group_name_H-M   'P 1'
_cell_length_a   10.00861803
_cell_length_b   10.00819422
_cell_length_c   9.98907670
_cell_angle_alpha   60.08833628
_cell_angle_beta   60.08796152
_cell_angle_gamma   60.17869048
_symmetry_Int_Tables_number   1
_chemical_formula_structural   LaNd15Cd4(IrPt)2
_chemical_formula_sum   'La1 Nd15 Cd4 Ir2 Pt2'
_cell_volume   709.41795263
_cell_formula_units_Z   1
loop_
 _symmetry_equiv_pos_site_id
 _symmetry_equiv_pos_as_xyz
  1  'x, y, z'
loop_
 _atom_site_type_symbol
 _atom_site_label
 _atom_site_symmetry_multiplicity
 _atom_site_fract_x
 _atom_site_fract_y
 _atom_site_fract_z
 _atom_site_occupancy
  La  La0  1  0.348667  0.348651  0.343827  1
  Nd  Nd1  1  0.350820  0.350827  0.951595  1
  Nd  Nd2  1  0.354462  0.946971  0.349799  1
  Nd  Nd3  1  0.946978  0.354465  0.349789  1
  Nd  Nd4  1  0.807788  0.189949  0.189451  1
  Nd  Nd5  1  0.189620  0.805557  0.813313  1
  Nd  Nd6  1  0.189949  0.807782  0.189468  1
  Nd  Nd7  1  0.805552  0.189612  0.813315  1
  Nd  Nd8  1  0.190365  0.190372  0.810453  1
  Nd  Nd9  1  0.810687  0.810693  0.187630  1
  Nd  Nd10  1  0.938867  0.565159  0.561506  1
  Nd  Nd11  1  0.562777  0.938514  0.937213  1
  Nd  Nd12  1  0.565158  0.938882  0.561488  1
  Nd  Nd13  1  0.938518  0.562775  0.937223  1
  Nd  Nd14  1  0.563586  0.563567  0.938028  1
  Nd  Nd15  1  0.938461  0.938476  0.560813  1
  Cd  Cd16  1  0.580409  0.580419  0.580187  1
  Cd  Cd17  1  0.580971  0.580973  0.257975  1
  Cd  Cd18  1  0.580320  0.258861  0.580947  1
  Cd  Cd19  1  0.258871  0.580321  0.580944  1
  Ir  Ir20  1  0.141221  0.572692  0.143561  1
  Ir  Ir21  1  0.572694  0.141222  0.143565  1
  Pt  Pt22  1  0.142452  0.142447  0.145044  1
  Pt  Pt23  1  0.140807  0.140813  0.572863  1
