# generated using pymatgen
data_Hf8Fe5Co2Si14Tc
_symmetry_space_group_name_H-M   'P 1'
_cell_length_a   9.53122159
_cell_length_b   9.53114669
_cell_length_c   9.51733439
_cell_angle_alpha   94.15775255
_cell_angle_beta   94.16905857
_cell_angle_gamma   148.76025317
_symmetry_Int_Tables_number   1
_chemical_formula_structural   Hf8Fe5Co2Si14Tc
_chemical_formula_sum   'Hf8 Fe5 Co2 Si14 Tc1'
_cell_volume   431.78495759
_cell_formula_units_Z   1
loop_
 _symmetry_equiv_pos_site_id
 _symmetry_equiv_pos_as_xyz
  1  'x, y, z'
loop_
 _atom_site_type_symbol
 _atom_site_label
 _atom_site_symmetry_multiplicity
 _atom_site_fract_x
 _atom_site_fract_y
 _atom_site_fract_z
 _atom_site_occupancy
  Hf  Hf0  1  0.137274  0.137285  0.274542  1
  Hf  Hf1  1  0.861576  0.861580  0.723147  1
  Hf  Hf2  1  0.136824  0.860238  0.998804  1
  Hf  Hf3  1  0.861991  0.138575  0.998801  1
  Hf  Hf4  1  0.304846  0.500194  0.801499  1
  Hf  Hf5  1  0.698432  0.503050  0.196637  1
  Hf  Hf6  1  0.498217  0.693584  0.196669  1
  Hf  Hf7  1  0.496679  0.301315  0.801539  1
  Fe  Fe8  1  0.395196  0.895201  0.790311  1
  Fe  Fe9  1  0.900729  0.099747  0.502521  1
  Fe  Fe10  1  0.601846  0.402808  0.502528  1
  Fe  Fe11  1  0.600448  0.100474  0.200906  1
  Fe  Fe12  1  0.899828  0.399842  0.799801  1
  Co  Co13  1  0.105169  0.898218  0.500747  1
  Co  Co14  1  0.395537  0.602474  0.500750  1
  Si  Si15  1  0.289305  0.289296  0.578607  1
  Si  Si16  1  0.710353  0.710331  0.420718  1
  Si  Si17  1  0.297647  0.714982  0.993070  1
  Si  Si18  1  0.695428  0.278084  0.993045  1
  Si  Si19  1  0.079859  0.487061  0.592656  1
  Si  Si20  1  0.887901  0.483329  0.415550  1
  Si  Si21  1  0.527667  0.932264  0.415553  1
  Si  Si22  1  0.512782  0.105578  0.592676  1
  Si  Si23  1  0.249176  0.249830  0.999073  1
  Si  Si24  1  0.749912  0.749245  0.999075  1
  Si  Si25  1  0.310298  0.017897  0.302567  1
  Si  Si26  1  0.702994  0.003924  0.699315  1
  Si  Si27  1  0.996314  0.695394  0.699295  1
  Si  Si28  1  0.992246  0.284658  0.302542  1
  Tc  Tc29  1  0.103520  0.603543  0.207054  1
