# generated using pymatgen
data_Cs2Nb6SnBr18
_symmetry_space_group_name_H-M   'P 1'
_cell_length_a   11.04566798
_cell_length_b   11.04566857
_cell_length_c   11.04566706
_cell_angle_alpha   54.87597457
_cell_angle_beta   54.87597495
_cell_angle_gamma   54.87597317
_symmetry_Int_Tables_number   1
_chemical_formula_structural   Cs2Nb6SnBr18
_chemical_formula_sum   'Cs2 Nb6 Sn1 Br18'
_cell_volume   839.26362984
_cell_formula_units_Z   1
loop_
 _symmetry_equiv_pos_site_id
 _symmetry_equiv_pos_as_xyz
  1  'x, y, z'
loop_
 _atom_site_type_symbol
 _atom_site_label
 _atom_site_symmetry_multiplicity
 _atom_site_fract_x
 _atom_site_fract_y
 _atom_site_fract_z
 _atom_site_occupancy
  Cs  Cs0  1  0.722941  0.722941  0.722941  1
  Cs  Cs1  1  0.277059  0.277059  0.277059  1
  Nb  Nb2  1  0.577074  0.359619  0.692983  1
  Nb  Nb3  1  0.359619  0.692983  0.577074  1
  Nb  Nb4  1  0.692983  0.577074  0.359619  1
  Nb  Nb5  1  0.640381  0.307017  0.422926  1
  Nb  Nb6  1  0.422926  0.640381  0.307017  1
  Nb  Nb7  1  0.307017  0.422926  0.640381  1
  Sn  Sn8  1  0.000000  0.000000  0.000000  1
  Br  Br9  1  0.906850  0.359191  0.232464  1
  Br  Br10  1  0.831150  0.422099  0.565092  1
  Br  Br11  1  0.767536  0.093150  0.640809  1
  Br  Br12  1  0.093150  0.640809  0.767536  1
  Br  Br13  1  0.679256  0.171025  0.960294  1
  Br  Br14  1  0.232464  0.906850  0.359191  1
  Br  Br15  1  0.434908  0.168850  0.577901  1
  Br  Br16  1  0.640809  0.767536  0.093150  1
  Br  Br17  1  0.577901  0.434908  0.168850  1
  Br  Br18  1  0.039706  0.320744  0.828975  1
  Br  Br19  1  0.565092  0.831150  0.422099  1
  Br  Br20  1  0.359191  0.232464  0.906850  1
  Br  Br21  1  0.960294  0.679256  0.171025  1
  Br  Br22  1  0.168850  0.577901  0.434908  1
  Br  Br23  1  0.828975  0.039706  0.320744  1
  Br  Br24  1  0.422099  0.565092  0.831150  1
  Br  Br25  1  0.171025  0.960294  0.679256  1
  Br  Br26  1  0.320744  0.828975  0.039706  1
