# generated using pymatgen
data_Li2Pt(BrO3)6
_symmetry_space_group_name_H-M   'P 1'
_cell_length_a   5.58228500
_cell_length_b   9.13283591
_cell_length_c   9.13276300
_cell_angle_alpha   59.99944911
_cell_angle_beta   89.99862464
_cell_angle_gamma   89.99969500
_symmetry_Int_Tables_number   1
_chemical_formula_structural   Li2Pt(BrO3)6
_chemical_formula_sum   'Li2 Pt1 Br6 O18'
_cell_volume   403.22557371
_cell_formula_units_Z   1
loop_
 _symmetry_equiv_pos_site_id
 _symmetry_equiv_pos_as_xyz
  1  'x, y, z'
loop_
 _atom_site_type_symbol
 _atom_site_label
 _atom_site_symmetry_multiplicity
 _atom_site_fract_x
 _atom_site_fract_y
 _atom_site_fract_z
 _atom_site_occupancy
  Li  Li0  1  0.741553  0.333337  0.333338  1
  Li  Li1  1  0.208564  0.666661  0.666671  1
  Pt  Pt2  1  0.661860  0.000001  0.999997  1
  Br  Br3  1  0.813531  0.972294  0.670072  1
  Br  Br4  1  0.813535  0.357625  0.972303  1
  Br  Br5  1  0.813536  0.670077  0.357629  1
  Br  Br6  1  0.332934  0.021720  0.313580  1
  Br  Br7  1  0.332934  0.664705  0.021721  1
  Br  Br8  1  0.332930  0.313576  0.664706  1
  O  O9  1  0.485626  0.246253  0.554459  1
  O  O10  1  0.485629  0.199287  0.246253  1
  O  O11  1  0.485633  0.554466  0.199287  1
  O  O12  1  0.984524  0.752844  0.446035  1
  O  O13  1  0.984515  0.801118  0.752841  1
  O  O14  1  0.984523  0.446040  0.801123  1
  O  O15  1  0.886004  0.063700  0.801867  1
  O  O16  1  0.886011  0.134425  0.063692  1
  O  O17  1  0.886008  0.801880  0.134422  1
  O  O18  1  0.456524  0.912316  0.209410  1
  O  O19  1  0.456513  0.878281  0.912315  1
  O  O20  1  0.456522  0.209408  0.878277  1
  O  O21  1  0.947302  0.117455  0.493743  1
  O  O22  1  0.947308  0.388779  0.117468  1
  O  O23  1  0.947305  0.493753  0.388789  1
  O  O24  1  0.425757  0.885771  0.508375  1
  O  O25  1  0.425766  0.605856  0.885774  1
  O  O26  1  0.425755  0.508373  0.605852  1
