# generated using pymatgen
data_Y3Fe(Co4P3)2
_symmetry_space_group_name_H-M   'P 1'
_cell_length_a   3.70143300
_cell_length_b   10.52538700
_cell_length_c   12.18082400
_cell_angle_alpha   90.00000000
_cell_angle_beta   90.00000000
_cell_angle_gamma   90.00000000
_symmetry_Int_Tables_number   1
_chemical_formula_structural   Y3Fe(Co4P3)2
_chemical_formula_sum   'Y6 Fe2 Co16 P12'
_cell_volume   474.55290224
_cell_formula_units_Z   2
loop_
 _symmetry_equiv_pos_site_id
 _symmetry_equiv_pos_as_xyz
  1  'x, y, z'
loop_
 _atom_site_type_symbol
 _atom_site_label
 _atom_site_symmetry_multiplicity
 _atom_site_fract_x
 _atom_site_fract_y
 _atom_site_fract_z
 _atom_site_occupancy
  Y  Y0  1  0.000000  0.500000  0.521899  1
  Y  Y1  1  0.500000  0.000000  0.478101  1
  Y  Y2  1  0.500000  0.817693  0.205042  1
  Y  Y3  1  0.500000  0.182307  0.205042  1
  Y  Y4  1  0.000000  0.682307  0.794958  1
  Y  Y5  1  0.000000  0.317693  0.794958  1
  Fe  Fe6  1  0.500000  0.500000  0.157035  1
  Fe  Fe7  1  0.000000  0.000000  0.842965  1
  Co  Co8  1  0.500000  0.500000  0.701996  1
  Co  Co9  1  0.000000  0.000000  0.298004  1
  Co  Co10  1  0.000000  0.500000  0.986307  1
  Co  Co11  1  0.500000  0.000000  0.013693  1
  Co  Co12  1  0.500000  0.333022  0.994208  1
  Co  Co13  1  0.500000  0.666978  0.994208  1
  Co  Co14  1  0.000000  0.166978  0.005792  1
  Co  Co15  1  0.000000  0.833022  0.005792  1
  Co  Co16  1  0.500000  0.296864  0.430715  1
  Co  Co17  1  0.500000  0.703136  0.430715  1
  Co  Co18  1  0.000000  0.203136  0.569285  1
  Co  Co19  1  0.000000  0.796864  0.569285  1
  Co  Co20  1  0.500000  0.879167  0.709186  1
  Co  Co21  1  0.500000  0.120833  0.709186  1
  Co  Co22  1  0.000000  0.620833  0.290814  1
  Co  Co23  1  0.000000  0.379167  0.290814  1
  P  P24  1  0.500000  0.500000  0.882344  1
  P  P25  1  0.000000  0.000000  0.117656  1
  P  P26  1  0.500000  0.500000  0.342355  1
  P  P27  1  0.000000  0.000000  0.657645  1
  P  P28  1  0.500000  0.309996  0.616093  1
  P  P29  1  0.500000  0.690004  0.616093  1
  P  P30  1  0.000000  0.190004  0.383907  1
  P  P31  1  0.000000  0.809996  0.383907  1
  P  P32  1  0.500000  0.847707  0.892903  1
  P  P33  1  0.500000  0.152293  0.892903  1
  P  P34  1  0.000000  0.652293  0.107097  1
  P  P35  1  0.000000  0.347707  0.107097  1
