# generated using pymatgen
data_TmSc(Si7Rh3)2
_symmetry_space_group_name_H-M   'P 1'
_cell_length_a   7.93876630
_cell_length_b   7.93876673
_cell_length_c   7.93876806
_cell_angle_alpha   57.12532199
_cell_angle_beta   57.12531974
_cell_angle_gamma   57.12531551
_symmetry_Int_Tables_number   1
_chemical_formula_structural   TmSc(Si7Rh3)2
_chemical_formula_sum   'Tm1 Sc1 Si14 Rh6'
_cell_volume   330.35311411
_cell_formula_units_Z   1
loop_
 _symmetry_equiv_pos_site_id
 _symmetry_equiv_pos_as_xyz
  1  'x, y, z'
loop_
 _atom_site_type_symbol
 _atom_site_label
 _atom_site_symmetry_multiplicity
 _atom_site_fract_x
 _atom_site_fract_y
 _atom_site_fract_z
 _atom_site_occupancy
  Tm  Tm0  1  0.500000  0.500000  0.500000  1
  Sc  Sc1  1  0.000000  0.000000  0.000000  1
  Si  Si2  1  0.749919  0.749919  0.749919  1
  Si  Si3  1  0.250081  0.250081  0.250081  1
  Si  Si4  1  0.852193  0.065412  0.672807  1
  Si  Si5  1  0.672807  0.852193  0.065412  1
  Si  Si6  1  0.065412  0.672807  0.852193  1
  Si  Si7  1  0.648904  0.828526  0.433321  1
  Si  Si8  1  0.433321  0.648904  0.828526  1
  Si  Si9  1  0.828526  0.433321  0.648904  1
  Si  Si10  1  0.171474  0.566679  0.351096  1
  Si  Si11  1  0.566679  0.351096  0.171474  1
  Si  Si12  1  0.351096  0.171474  0.566679  1
  Si  Si13  1  0.934588  0.327193  0.147807  1
  Si  Si14  1  0.327193  0.147807  0.934588  1
  Si  Si15  1  0.147807  0.934588  0.327193  1
  Rh  Rh16  1  0.070587  0.427659  0.751111  1
  Rh  Rh17  1  0.248889  0.929413  0.572341  1
  Rh  Rh18  1  0.572341  0.248889  0.929413  1
  Rh  Rh19  1  0.929413  0.572341  0.248889  1
  Rh  Rh20  1  0.427659  0.751111  0.070587  1
  Rh  Rh21  1  0.751111  0.070587  0.427659  1
