# generated using pymatgen
data_Dy2HoLu13(InIr)4
_symmetry_space_group_name_H-M   'P 1'
_cell_length_a   9.50457131
_cell_length_b   9.50557233
_cell_length_c   9.49579504
_cell_angle_alpha   60.02705843
_cell_angle_beta   59.98906941
_cell_angle_gamma   59.93544025
_symmetry_Int_Tables_number   1
_chemical_formula_structural   Dy2HoLu13(InIr)4
_chemical_formula_sum   'Dy2 Ho1 Lu13 In4 Ir4'
_cell_volume   606.41169696
_cell_formula_units_Z   1
loop_
 _symmetry_equiv_pos_site_id
 _symmetry_equiv_pos_as_xyz
  1  'x, y, z'
loop_
 _atom_site_type_symbol
 _atom_site_label
 _atom_site_symmetry_multiplicity
 _atom_site_fract_x
 _atom_site_fract_y
 _atom_site_fract_z
 _atom_site_occupancy
  Dy  Dy0  1  0.812497  0.813124  0.186862  1
  Dy  Dy1  1  0.186862  0.187516  0.812497  1
  Ho  Ho2  1  0.190790  0.809210  0.190790  1
  Lu  Lu3  1  0.600454  0.597221  0.596809  1
  Lu  Lu4  1  0.600036  0.599618  0.204116  1
  Lu  Lu5  1  0.596809  0.205516  0.600454  1
  Lu  Lu6  1  0.204116  0.596229  0.600036  1
  Lu  Lu7  1  0.058963  0.440049  0.440214  1
  Lu  Lu8  1  0.440214  0.060773  0.058963  1
  Lu  Lu9  1  0.440348  0.059652  0.440348  1
  Lu  Lu10  1  0.059215  0.440785  0.059215  1
  Lu  Lu11  1  0.441515  0.441050  0.057978  1
  Lu  Lu12  1  0.057978  0.059458  0.441515  1
  Lu  Lu13  1  0.192946  0.806760  0.806755  1
  Lu  Lu14  1  0.806755  0.193537  0.192946  1
  Lu  Lu15  1  0.809288  0.190712  0.809288  1
  In  In16  1  0.833550  0.833425  0.833200  1
  In  In17  1  0.832486  0.833480  0.501779  1
  In  In18  1  0.833200  0.499825  0.833550  1
  In  In19  1  0.501779  0.832255  0.832486  1
  Ir  Ir20  1  0.392793  0.390837  0.388725  1
  Ir  Ir21  1  0.391261  0.392680  0.827420  1
  Ir  Ir22  1  0.388725  0.827647  0.392793  1
  Ir  Ir23  1  0.827420  0.388640  0.391261  1
