# generated using pymatgen
data_Tm4Mn3Co2Os3
_symmetry_space_group_name_H-M   'P 1'
_cell_length_a   5.21325756
_cell_length_b   5.11854037
_cell_length_c   8.56644000
_cell_angle_alpha   90.00000000
_cell_angle_beta   90.00000000
_cell_angle_gamma   120.93698112
_symmetry_Int_Tables_number   1
_chemical_formula_structural   Tm4Mn3Co2Os3
_chemical_formula_sum   'Tm4 Mn3 Co2 Os3'
_cell_volume   196.06855414
_cell_formula_units_Z   1
loop_
 _symmetry_equiv_pos_site_id
 _symmetry_equiv_pos_as_xyz
  1  'x, y, z'
loop_
 _atom_site_type_symbol
 _atom_site_label
 _atom_site_symmetry_multiplicity
 _atom_site_fract_x
 _atom_site_fract_y
 _atom_site_fract_z
 _atom_site_occupancy
  Tm  Tm0  1  0.668347  0.334101  0.567600  1
  Tm  Tm1  1  0.332802  0.664604  0.439961  1
  Tm  Tm2  1  0.332802  0.664604  0.060039  1
  Tm  Tm3  1  0.668347  0.334101  0.932400  1
  Mn  Mn4  1  0.172352  0.341018  0.750000  1
  Mn  Mn5  1  0.823394  0.663571  0.250000  1
  Mn  Mn6  1  0.823023  0.163647  0.250000  1
  Co  Co7  1  0.170942  0.835827  0.750000  1
  Co  Co8  1  0.663184  0.830587  0.750000  1
  Os  Os9  1  0.998509  0.996520  0.503186  1
  Os  Os10  1  0.998509  0.996520  0.996814  1
  Os  Os11  1  0.347787  0.174900  0.250000  1
