# generated using pymatgen
data_Yb10Pd5Au
_symmetry_space_group_name_H-M   'P 1'
_cell_length_a   8.79901488
_cell_length_b   8.79901509
_cell_length_c   8.79901421
_cell_angle_alpha   128.53486971
_cell_angle_beta   128.53487186
_cell_angle_gamma   75.76014868
_symmetry_Int_Tables_number   1
_chemical_formula_structural   Yb10Pd5Au
_chemical_formula_sum   'Yb10 Pd5 Au1'
_cell_volume   405.43838938
_cell_formula_units_Z   1
loop_
 _symmetry_equiv_pos_site_id
 _symmetry_equiv_pos_as_xyz
  1  'x, y, z'
loop_
 _atom_site_type_symbol
 _atom_site_label
 _atom_site_symmetry_multiplicity
 _atom_site_fract_x
 _atom_site_fract_y
 _atom_site_fract_z
 _atom_site_occupancy
  Yb  Yb0  1  0.525824  0.029711  0.836604  1
  Yb  Yb1  1  0.306893  0.470289  0.496113  1
  Yb  Yb2  1  0.470289  0.974176  0.163396  1
  Yb  Yb3  1  0.029711  0.193107  0.503887  1
  Yb  Yb4  1  0.193107  0.689220  0.163396  1
  Yb  Yb5  1  0.689220  0.525824  0.496113  1
  Yb  Yb6  1  0.500052  0.500052  0.000000  1
  Yb  Yb7  1  0.974176  0.810780  0.503887  1
  Yb  Yb8  1  0.810780  0.306893  0.836604  1
  Yb  Yb9  1  0.999948  0.999948  0.000000  1
  Pd  Pd10  1  0.631690  0.868310  0.500000  1
  Pd  Pd11  1  0.250000  0.250000  0.000000  1
  Pd  Pd12  1  0.368310  0.131690  0.500000  1
  Pd  Pd13  1  0.131690  0.631690  0.763379  1
  Pd  Pd14  1  0.868310  0.368310  0.236621  1
  Au  Au15  1  0.750000  0.750000  0.000000  1
