# generated using pymatgen
data_La4Nd4Cd2CoPd
_symmetry_space_group_name_H-M   'P 1'
_cell_length_a   10.00674710
_cell_length_b   10.00674799
_cell_length_c   10.04109200
_cell_angle_alpha   59.88640905
_cell_angle_beta   59.88640610
_cell_angle_gamma   60.29455979
_symmetry_Int_Tables_number   1
_chemical_formula_structural   La4Nd4Cd2CoPd
_chemical_formula_sum   'La8 Nd8 Cd4 Co2 Pd2'
_cell_volume   711.30876594
_cell_formula_units_Z   2
loop_
 _symmetry_equiv_pos_site_id
 _symmetry_equiv_pos_as_xyz
  1  'x, y, z'
loop_
 _atom_site_type_symbol
 _atom_site_label
 _atom_site_symmetry_multiplicity
 _atom_site_fract_x
 _atom_site_fract_y
 _atom_site_fract_z
 _atom_site_occupancy
  La  La0  1  0.342390  0.342390  0.362728  1
  La  La1  1  0.342390  0.342390  0.952491  1
  La  La2  1  0.339507  0.959270  0.350611  1
  La  La3  1  0.959270  0.339507  0.350611  1
  La  La4  1  0.823080  0.189763  0.189588  1
  La  La5  1  0.189763  0.823080  0.797569  1
  La  La6  1  0.189763  0.823080  0.189588  1
  La  La7  1  0.823080  0.189763  0.797569  1
  Nd  Nd8  1  0.191607  0.191607  0.808393  1
  Nd  Nd9  1  0.804922  0.804922  0.195078  1
  Nd  Nd10  1  0.933650  0.564583  0.566661  1
  Nd  Nd11  1  0.564583  0.933650  0.935107  1
  Nd  Nd12  1  0.564583  0.933650  0.566661  1
  Nd  Nd13  1  0.933650  0.564583  0.935107  1
  Nd  Nd14  1  0.562380  0.562380  0.937620  1
  Nd  Nd15  1  0.933474  0.933474  0.566526  1
  Cd  Cd16  1  0.580642  0.580642  0.578475  1
  Cd  Cd17  1  0.580642  0.580642  0.260244  1
  Cd  Cd18  1  0.580265  0.257569  0.581084  1
  Cd  Cd19  1  0.257569  0.580265  0.581084  1
  Co  Co20  1  0.140127  0.140127  0.144618  1
  Co  Co21  1  0.140127  0.140127  0.575128  1
  Pd  Pd22  1  0.146812  0.575727  0.138730  1
  Pd  Pd23  1  0.575727  0.146812  0.138730  1
