# generated using pymatgen
data_Hf8Ti11Si16Ag
_symmetry_space_group_name_H-M   'P 1'
_cell_length_a   6.61479146
_cell_length_b   6.79318824
_cell_length_c   12.96330400
_cell_angle_alpha   90.00000000
_cell_angle_beta   90.00000000
_cell_angle_gamma   90.16094065
_symmetry_Int_Tables_number   1
_chemical_formula_structural   Hf8Ti11Si16Ag
_chemical_formula_sum   'Hf8 Ti11 Si16 Ag1'
_cell_volume   582.51055442
_cell_formula_units_Z   1
loop_
 _symmetry_equiv_pos_site_id
 _symmetry_equiv_pos_as_xyz
  1  'x, y, z'
loop_
 _atom_site_type_symbol
 _atom_site_label
 _atom_site_symmetry_multiplicity
 _atom_site_fract_x
 _atom_site_fract_y
 _atom_site_fract_z
 _atom_site_occupancy
  Hf  Hf0  1  0.000178  0.174004  0.095518  1
  Hf  Hf1  1  0.001365  0.823308  0.906497  1
  Hf  Hf2  1  0.498771  0.674194  0.908454  1
  Hf  Hf3  1  0.001365  0.823308  0.593503  1
  Hf  Hf4  1  0.499059  0.327109  0.095699  1
  Hf  Hf5  1  0.000178  0.174004  0.404482  1
  Hf  Hf6  1  0.499059  0.327109  0.404301  1
  Hf  Hf7  1  0.498771  0.674194  0.591546  1
  Ti  Ti8  1  0.164059  0.495221  0.750000  1
  Ti  Ti9  1  0.835095  0.504025  0.250000  1
  Ti  Ti10  1  0.334446  0.995061  0.250000  1
  Ti  Ti11  1  0.340531  0.176319  0.625025  1
  Ti  Ti12  1  0.661308  0.825058  0.374236  1
  Ti  Ti13  1  0.162046  0.674841  0.374408  1
  Ti  Ti14  1  0.661308  0.825058  0.125764  1
  Ti  Ti15  1  0.837530  0.326108  0.625253  1
  Ti  Ti16  1  0.340531  0.176319  0.874975  1
  Ti  Ti17  1  0.837530  0.326108  0.874747  1
  Ti  Ti18  1  0.162046  0.674841  0.125592  1
  Si  Si19  1  0.045511  0.120895  0.750000  1
  Si  Si20  1  0.959521  0.881693  0.250000  1
  Si  Si21  1  0.460326  0.616548  0.250000  1
  Si  Si22  1  0.534983  0.397982  0.750000  1
  Si  Si23  1  0.287588  0.861621  0.750000  1
  Si  Si24  1  0.702805  0.134915  0.250000  1
  Si  Si25  1  0.202719  0.364095  0.250000  1
  Si  Si26  1  0.801095  0.627330  0.750000  1
  Si  Si27  1  0.169854  0.461902  0.537947  1
  Si  Si28  1  0.829742  0.536847  0.460340  1
  Si  Si29  1  0.330122  0.962882  0.461585  1
  Si  Si30  1  0.829742  0.536847  0.039660  1
  Si  Si31  1  0.672193  0.042280  0.531583  1
  Si  Si32  1  0.169854  0.461902  0.962053  1
  Si  Si33  1  0.672193  0.042280  0.968417  1
  Si  Si34  1  0.330122  0.962882  0.038415  1
  Ag  Ag35  1  0.666451  0.990908  0.750000  1
