# generated using pymatgen
data_K3Dy(AsO4)2
_symmetry_space_group_name_H-M   'P 1'
_cell_length_a   5.88253700
_cell_length_b   5.88253770
_cell_length_c   8.03119200
_cell_angle_alpha   90.00000000
_cell_angle_beta   90.00000000
_cell_angle_gamma   120.00000169
_symmetry_Int_Tables_number   1
_chemical_formula_structural   K3Dy(AsO4)2
_chemical_formula_sum   'K3 Dy1 As2 O8'
_cell_volume   240.68000927
_cell_formula_units_Z   1
loop_
 _symmetry_equiv_pos_site_id
 _symmetry_equiv_pos_as_xyz
  1  'x, y, z'
loop_
 _atom_site_type_symbol
 _atom_site_label
 _atom_site_symmetry_multiplicity
 _atom_site_fract_x
 _atom_site_fract_y
 _atom_site_fract_z
 _atom_site_occupancy
  K  K0  1  0.333333  0.666667  0.721217  1
  K  K1  1  0.666667  0.333333  0.278783  1
  K  K2  1  0.000000  0.000000  0.000000  1
  Dy  Dy3  1  0.000000  0.000000  0.500000  1
  As  As4  1  0.333333  0.666667  0.250504  1
  As  As5  1  0.666667  0.333333  0.749496  1
  O  O6  1  0.333333  0.666667  0.041209  1
  O  O7  1  0.666667  0.333333  0.958791  1
  O  O8  1  0.175062  0.824938  0.329481  1
  O  O9  1  0.824938  0.175062  0.670519  1
  O  O10  1  0.175062  0.350122  0.329481  1
  O  O11  1  0.824938  0.649878  0.670519  1
  O  O12  1  0.649878  0.824938  0.329481  1
  O  O13  1  0.350122  0.175062  0.670519  1
