# generated using pymatgen
data_Dy9Lu11(Bi2Ir)4
_symmetry_space_group_name_H-M   'P 1'
_cell_length_a   7.87731506
_cell_length_b   8.99941700
_cell_length_c   12.43625664
_cell_angle_alpha   90.00000000
_cell_angle_beta   89.94085499
_cell_angle_gamma   90.00000000
_symmetry_Int_Tables_number   1
_chemical_formula_structural   Dy9Lu11(Bi2Ir)4
_chemical_formula_sum   'Dy9 Lu11 Bi8 Ir4'
_cell_volume   881.62122254
_cell_formula_units_Z   1
loop_
 _symmetry_equiv_pos_site_id
 _symmetry_equiv_pos_as_xyz
  1  'x, y, z'
loop_
 _atom_site_type_symbol
 _atom_site_label
 _atom_site_symmetry_multiplicity
 _atom_site_fract_x
 _atom_site_fract_y
 _atom_site_fract_z
 _atom_site_occupancy
  Dy  Dy0  1  0.658303  0.750000  0.292057  1
  Dy  Dy1  1  0.376423  0.750000  0.692890  1
  Dy  Dy2  1  0.623533  0.250000  0.307279  1
  Dy  Dy3  1  0.876436  0.250000  0.807294  1
  Dy  Dy4  1  0.124202  0.750000  0.192642  1
  Dy  Dy5  1  0.945253  0.750000  0.502072  1
  Dy  Dy6  1  0.055900  0.250000  0.498725  1
  Dy  Dy7  1  0.444134  0.250000  0.998390  1
  Dy  Dy8  1  0.555452  0.750000  0.000904  1
  Lu  Lu9  1  0.842607  0.750000  0.793669  1
  Lu  Lu10  1  0.157435  0.250000  0.206246  1
  Lu  Lu11  1  0.342407  0.250000  0.706381  1
  Lu  Lu12  1  0.672193  0.042322  0.565895  1
  Lu  Lu13  1  0.327256  0.958383  0.434717  1
  Lu  Lu14  1  0.172189  0.957923  0.934169  1
  Lu  Lu15  1  0.327256  0.541617  0.434717  1
  Lu  Lu16  1  0.827892  0.042354  0.065537  1
  Lu  Lu17  1  0.672193  0.457678  0.565895  1
  Lu  Lu18  1  0.827892  0.457646  0.065537  1
  Lu  Lu19  1  0.172189  0.542077  0.934169  1
  Bi  Bi20  1  0.567327  0.490684  0.826676  1
  Bi  Bi21  1  0.431401  0.508051  0.172512  1
  Bi  Bi22  1  0.067193  0.509029  0.673325  1
  Bi  Bi23  1  0.431401  0.991949  0.172512  1
  Bi  Bi24  1  0.934075  0.490011  0.327099  1
  Bi  Bi25  1  0.567327  0.009316  0.826676  1
  Bi  Bi26  1  0.934075  0.009989  0.327099  1
  Bi  Bi27  1  0.067193  0.990971  0.673325  1
  Ir  Ir28  1  0.570284  0.750000  0.508854  1
  Ir  Ir29  1  0.428821  0.250000  0.492702  1
  Ir  Ir30  1  0.071007  0.250000  0.992657  1
  Ir  Ir31  1  0.928751  0.750000  0.007378  1
