# generated using pymatgen
data_Nd4Y2FeCl10
_symmetry_space_group_name_H-M   'P 1'
_cell_length_a   7.24389787
_cell_length_b   9.07900750
_cell_length_c   9.07536248
_cell_angle_alpha   108.98191010
_cell_angle_beta   95.29020907
_cell_angle_gamma   105.94120371
_symmetry_Int_Tables_number   1
_chemical_formula_structural   Nd4Y2FeCl10
_chemical_formula_sum   'Nd4 Y2 Fe1 Cl10'
_cell_volume   531.77519584
_cell_formula_units_Z   1
loop_
 _symmetry_equiv_pos_site_id
 _symmetry_equiv_pos_as_xyz
  1  'x, y, z'
loop_
 _atom_site_type_symbol
 _atom_site_label
 _atom_site_symmetry_multiplicity
 _atom_site_fract_x
 _atom_site_fract_y
 _atom_site_fract_z
 _atom_site_occupancy
  Nd  Nd0  1  0.470061  0.797855  0.596351  1
  Nd  Nd1  1  0.529939  0.202145  0.403649  1
  Nd  Nd2  1  0.367195  0.450791  0.745326  1
  Nd  Nd3  1  0.632805  0.549209  0.254674  1
  Y  Y4  1  0.866901  0.638943  0.685191  1
  Y  Y5  1  0.133099  0.361057  0.314809  1
  Fe  Fe6  1  0.500000  0.500000  0.500000  1
  Cl  Cl7  1  0.412495  0.135317  0.670353  1
  Cl  Cl8  1  0.587505  0.864683  0.329647  1
  Cl  Cl9  1  0.048140  0.666470  0.422879  1
  Cl  Cl10  1  0.951860  0.333530  0.577121  1
  Cl  Cl11  1  0.272240  0.748918  0.842774  1
  Cl  Cl12  1  0.727760  0.251082  0.157226  1
  Cl  Cl13  1  0.251258  0.416979  0.056530  1
  Cl  Cl14  1  0.748742  0.583021  0.943470  1
  Cl  Cl15  1  0.855107  0.941761  0.768182  1
  Cl  Cl16  1  0.144893  0.058239  0.231818  1
