# generated using pymatgen
data_Y12ErTh3(MgRh)4
_symmetry_space_group_name_H-M   'P 1'
_cell_length_a   9.80041316
_cell_length_b   9.79543054
_cell_length_c   9.79542900
_cell_angle_alpha   59.99999506
_cell_angle_beta   60.01681170
_cell_angle_gamma   60.01681238
_symmetry_Int_Tables_number   1
_chemical_formula_structural   Y12ErTh3(MgRh)4
_chemical_formula_sum   'Y12 Er1 Th3 Mg4 Rh4'
_cell_volume   665.09958177
_cell_formula_units_Z   1
loop_
 _symmetry_equiv_pos_site_id
 _symmetry_equiv_pos_as_xyz
  1  'x, y, z'
loop_
 _atom_site_type_symbol
 _atom_site_label
 _atom_site_symmetry_multiplicity
 _atom_site_fract_x
 _atom_site_fract_y
 _atom_site_fract_z
 _atom_site_occupancy
  Y  Y0  1  0.062357  0.438041  0.438041  1
  Y  Y1  1  0.437223  0.063250  0.063250  1
  Y  Y2  1  0.437223  0.063250  0.436276  1
  Y  Y3  1  0.062357  0.438041  0.061561  1
  Y  Y4  1  0.437223  0.436276  0.063250  1
  Y  Y5  1  0.062357  0.061561  0.438041  1
  Y  Y6  1  0.185212  0.814726  0.814726  1
  Y  Y7  1  0.815386  0.184474  0.184474  1
  Y  Y8  1  0.815386  0.184474  0.815665  1
  Y  Y9  1  0.185212  0.814726  0.185337  1
  Y  Y10  1  0.815386  0.815665  0.184474  1
  Y  Y11  1  0.185212  0.185337  0.814726  1
  Er  Er12  1  0.204203  0.598599  0.598599  1
  Th  Th13  1  0.595873  0.598560  0.598560  1
  Th  Th14  1  0.595873  0.598560  0.207007  1
  Th  Th15  1  0.595873  0.207007  0.598560  1
  Mg  Mg16  1  0.831727  0.829715  0.829715  1
  Mg  Mg17  1  0.831727  0.829715  0.508841  1
  Mg  Mg18  1  0.831727  0.508841  0.829715  1
  Mg  Mg19  1  0.506763  0.831079  0.831079  1
  Rh  Rh20  1  0.396511  0.393067  0.393067  1
  Rh  Rh21  1  0.396511  0.393067  0.817355  1
  Rh  Rh22  1  0.396511  0.817355  0.393067  1
  Rh  Rh23  1  0.816165  0.394612  0.394612  1
