# generated using pymatgen
data_LaTh3(Ga3Ir)6
_symmetry_space_group_name_H-M   'P 1'
_cell_length_a   7.71958714
_cell_length_b   7.71746401
_cell_length_c   9.52094100
_cell_angle_alpha   90.00000000
_cell_angle_beta   90.00000000
_cell_angle_gamma   119.73325880
_symmetry_Int_Tables_number   1
_chemical_formula_structural   LaTh3(Ga3Ir)6
_chemical_formula_sum   'La1 Th3 Ga18 Ir6'
_cell_volume   492.53857714
_cell_formula_units_Z   1
loop_
 _symmetry_equiv_pos_site_id
 _symmetry_equiv_pos_as_xyz
  1  'x, y, z'
loop_
 _atom_site_type_symbol
 _atom_site_label
 _atom_site_symmetry_multiplicity
 _atom_site_fract_x
 _atom_site_fract_y
 _atom_site_fract_z
 _atom_site_occupancy
  La  La0  1  0.330103  0.004171  0.750000  1
  Th  Th1  1  0.995913  0.670072  0.250000  1
  Th  Th2  1  0.003385  0.330261  0.750000  1
  Th  Th3  1  0.669701  0.995569  0.250000  1
  Ga  Ga4  1  0.134104  0.133462  0.250000  1
  Ga  Ga5  1  0.867616  0.867602  0.750000  1
  Ga  Ga6  1  0.003301  0.335121  0.080067  1
  Ga  Ga7  1  0.998591  0.666665  0.920992  1
  Ga  Ga8  1  0.998591  0.666665  0.579008  1
  Ga  Ga9  1  0.335159  0.003148  0.421591  1
  Ga  Ga10  1  0.003301  0.335121  0.419933  1
  Ga  Ga11  1  0.663311  0.996963  0.579053  1
  Ga  Ga12  1  0.663311  0.996963  0.920947  1
  Ga  Ga13  1  0.335159  0.003148  0.078409  1
  Ga  Ga14  1  0.335371  0.334037  0.557760  1
  Ga  Ga15  1  0.664058  0.664008  0.441497  1
  Ga  Ga16  1  0.664058  0.664008  0.058503  1
  Ga  Ga17  1  0.335371  0.334037  0.942240  1
  Ga  Ga18  1  0.341991  0.543948  0.250000  1
  Ga  Ga19  1  0.659063  0.454744  0.750000  1
  Ga  Ga20  1  0.544477  0.341267  0.250000  1
  Ga  Ga21  1  0.454955  0.658795  0.750000  1
  Ir  Ir22  1  0.674935  0.329707  0.001529  1
  Ir  Ir23  1  0.327478  0.670790  0.001553  1
  Ir  Ir24  1  0.327478  0.670790  0.498447  1
  Ir  Ir25  1  0.674935  0.329707  0.498471  1
  Ir  Ir26  1  0.997142  0.999616  0.002049  1
  Ir  Ir27  1  0.997142  0.999616  0.497951  1
