# generated using pymatgen
data_TbYTc3Ru
_symmetry_space_group_name_H-M   'P 1'
_cell_length_a   5.26333500
_cell_length_b   5.26333454
_cell_length_c   9.26375300
_cell_angle_alpha   90.00000000
_cell_angle_beta   90.00000000
_cell_angle_gamma   120.00000917
_symmetry_Int_Tables_number   1
_chemical_formula_structural   TbYTc3Ru
_chemical_formula_sum   'Tb2 Y2 Tc6 Ru2'
_cell_volume   222.24886218
_cell_formula_units_Z   2
loop_
 _symmetry_equiv_pos_site_id
 _symmetry_equiv_pos_as_xyz
  1  'x, y, z'
loop_
 _atom_site_type_symbol
 _atom_site_label
 _atom_site_symmetry_multiplicity
 _atom_site_fract_x
 _atom_site_fract_y
 _atom_site_fract_z
 _atom_site_occupancy
  Tb  Tb0  1  0.666667  0.333333  0.937071  1
  Tb  Tb1  1  0.333333  0.666667  0.062929  1
  Y  Y2  1  0.333333  0.666667  0.436757  1
  Y  Y3  1  0.666667  0.333333  0.563243  1
  Tc  Tc4  1  0.829488  0.170512  0.250237  1
  Tc  Tc5  1  0.829488  0.658975  0.250237  1
  Tc  Tc6  1  0.341025  0.170512  0.250237  1
  Tc  Tc7  1  0.170512  0.829488  0.749763  1
  Tc  Tc8  1  0.170512  0.341025  0.749763  1
  Tc  Tc9  1  0.658975  0.829488  0.749763  1
  Ru  Ru10  1  0.000000  0.000000  0.500000  1
  Ru  Ru11  1  0.000000  0.000000  0.000000  1
