# generated using pymatgen
data_Sm8SiPd23Pt
_symmetry_space_group_name_H-M   'P 1'
_cell_length_a   8.40924900
_cell_length_b   8.42417100
_cell_length_c   8.42417100
_cell_angle_alpha   90.00000000
_cell_angle_beta   90.00000000
_cell_angle_gamma   90.00000000
_symmetry_Int_Tables_number   1
_chemical_formula_structural   Sm8SiPd23Pt
_chemical_formula_sum   'Sm8 Si1 Pd23 Pt1'
_cell_volume   596.77628972
_cell_formula_units_Z   1
loop_
 _symmetry_equiv_pos_site_id
 _symmetry_equiv_pos_as_xyz
  1  'x, y, z'
loop_
 _atom_site_type_symbol
 _atom_site_label
 _atom_site_symmetry_multiplicity
 _atom_site_fract_x
 _atom_site_fract_y
 _atom_site_fract_z
 _atom_site_occupancy
  Sm  Sm0  1  0.253067  0.253279  0.253279  1
  Sm  Sm1  1  0.746251  0.746092  0.746092  1
  Sm  Sm2  1  0.746251  0.746092  0.253908  1
  Sm  Sm3  1  0.746251  0.253908  0.746092  1
  Sm  Sm4  1  0.253067  0.253279  0.746721  1
  Sm  Sm5  1  0.253067  0.746721  0.253279  1
  Sm  Sm6  1  0.253067  0.746721  0.746721  1
  Sm  Sm7  1  0.746251  0.253908  0.253908  1
  Si  Si8  1  0.004203  0.000000  0.000000  1
  Pd  Pd9  1  0.256657  0.500000  0.000000  1
  Pd  Pd10  1  0.742272  0.500000  0.000000  1
  Pd  Pd11  1  0.999829  0.257279  0.500000  1
  Pd  Pd12  1  0.499955  0.256983  0.000000  1
  Pd  Pd13  1  0.999829  0.742721  0.500000  1
  Pd  Pd14  1  0.499955  0.743017  0.000000  1
  Pd  Pd15  1  0.499955  0.000000  0.256983  1
  Pd  Pd16  1  0.256657  0.000000  0.500000  1
  Pd  Pd17  1  0.499955  0.000000  0.743017  1
  Pd  Pd18  1  0.742272  0.000000  0.500000  1
  Pd  Pd19  1  0.999829  0.500000  0.257279  1
  Pd  Pd20  1  0.999829  0.500000  0.742721  1
  Pd  Pd21  1  0.252295  0.500000  0.500000  1
  Pd  Pd22  1  0.747938  0.500000  0.500000  1
  Pd  Pd23  1  0.499875  0.252287  0.500000  1
  Pd  Pd24  1  0.499875  0.747713  0.500000  1
  Pd  Pd25  1  0.499875  0.500000  0.252287  1
  Pd  Pd26  1  0.499875  0.500000  0.747713  1
  Pd  Pd27  1  0.723313  0.000000  0.000000  1
  Pd  Pd28  1  0.999037  0.280697  0.000000  1
  Pd  Pd29  1  0.999037  0.719303  0.000000  1
  Pd  Pd30  1  0.999037  0.000000  0.280697  1
  Pd  Pd31  1  0.999037  0.000000  0.719303  1
  Pt  Pt32  1  0.282337  0.000000  0.000000  1
