# generated using pymatgen
data_Tb4Y3Co6Sn22Au
_symmetry_space_group_name_H-M   'P 1'
_cell_length_a   9.68720622
_cell_length_b   9.68765590
_cell_length_c   9.95843922
_cell_angle_alpha   89.98736655
_cell_angle_beta   90.02413179
_cell_angle_gamma   120.00091814
_symmetry_Int_Tables_number   1
_chemical_formula_structural   Tb4Y3Co6Sn22Au
_chemical_formula_sum   'Tb4 Y3 Co6 Sn22 Au1'
_cell_volume   809.34763455
_cell_formula_units_Z   1
loop_
 _symmetry_equiv_pos_site_id
 _symmetry_equiv_pos_as_xyz
  1  'x, y, z'
loop_
 _atom_site_type_symbol
 _atom_site_label
 _atom_site_symmetry_multiplicity
 _atom_site_fract_x
 _atom_site_fract_y
 _atom_site_fract_z
 _atom_site_occupancy
  Tb  Tb0  1  0.000002  0.999996  0.000023  1
  Tb  Tb1  1  0.521319  0.042622  0.693604  1
  Tb  Tb2  1  0.042611  0.521300  0.306355  1
  Tb  Tb3  1  0.957384  0.478690  0.693645  1
  Y  Y4  1  0.478644  0.521366  0.306530  1
  Y  Y5  1  0.521350  0.478636  0.693468  1
  Y  Y6  1  0.478638  0.957266  0.306483  1
  Co  Co7  1  0.832322  0.167841  0.196422  1
  Co  Co8  1  0.167757  0.832190  0.803579  1
  Co  Co9  1  0.832327  0.664455  0.196429  1
  Co  Co10  1  0.167682  0.335575  0.803589  1
  Co  Co11  1  0.335525  0.167737  0.196408  1
  Co  Co12  1  0.664440  0.832306  0.803592  1
  Sn  Sn13  1  0.346223  0.000087  0.999986  1
  Sn  Sn14  1  0.653827  0.000004  0.000013  1
  Sn  Sn15  1  0.000005  0.346193  0.000000  1
  Sn  Sn16  1  0.999972  0.653782  0.000004  1
  Sn  Sn17  1  0.653842  0.653860  0.000019  1
  Sn  Sn18  1  0.346158  0.346124  0.999986  1
  Sn  Sn19  1  0.333295  0.666654  0.816576  1
  Sn  Sn20  1  0.666705  0.333361  0.183465  1
  Sn  Sn21  1  0.783410  0.216363  0.452728  1
  Sn  Sn22  1  0.216476  0.783556  0.547180  1
  Sn  Sn23  1  0.783423  0.567087  0.452735  1
  Sn  Sn24  1  0.216565  0.432892  0.547260  1
  Sn  Sn25  1  0.432906  0.216467  0.452696  1
  Sn  Sn26  1  0.567140  0.783456  0.547210  1
  Sn  Sn27  1  0.333453  0.666709  0.117418  1
  Sn  Sn28  1  0.666586  0.333375  0.882639  1
  Sn  Sn29  1  0.113150  0.886991  0.278292  1
  Sn  Sn30  1  0.886905  0.113038  0.721687  1
  Sn  Sn31  1  0.113173  0.226173  0.278344  1
  Sn  Sn32  1  0.886817  0.773822  0.721663  1
  Sn  Sn33  1  0.773802  0.886873  0.278313  1
  Sn  Sn34  1  0.226171  0.113153  0.721657  1
  Au  Au35  1  0.999995  0.000000  0.500001  1
