# generated using pymatgen
data_Ho7TmAu4
_symmetry_space_group_name_H-M   'P 1'
_cell_length_a   7.07809066
_cell_length_b   4.92573800
_cell_length_c   8.92614510
_cell_angle_alpha   90.00000000
_cell_angle_beta   89.92142598
_cell_angle_gamma   90.00000000
_symmetry_Int_Tables_number   1
_chemical_formula_structural   Ho7TmAu4
_chemical_formula_sum   'Ho7 Tm1 Au4'
_cell_volume   311.20815086
_cell_formula_units_Z   1
loop_
 _symmetry_equiv_pos_site_id
 _symmetry_equiv_pos_as_xyz
  1  'x, y, z'
loop_
 _atom_site_type_symbol
 _atom_site_label
 _atom_site_symmetry_multiplicity
 _atom_site_fract_x
 _atom_site_fract_y
 _atom_site_fract_z
 _atom_site_occupancy
  Ho  Ho0  1  0.514078  0.750000  0.177389  1
  Ho  Ho1  1  0.013480  0.750000  0.322445  1
  Ho  Ho2  1  0.350664  0.250001  0.419478  1
  Ho  Ho3  1  0.649394  0.750000  0.580368  1
  Ho  Ho4  1  0.986278  0.250001  0.677625  1
  Ho  Ho5  1  0.486614  0.250001  0.822680  1
  Ho  Ho6  1  0.149263  0.750000  0.919963  1
  Tm  Tm7  1  0.850746  0.250001  0.080217  1
  Au  Au8  1  0.257363  0.250001  0.099097  1
  Au  Au9  1  0.758405  0.250001  0.400128  1
  Au  Au10  1  0.241701  0.750000  0.599131  1
  Au  Au11  1  0.742014  0.750000  0.901479  1
