# generated using pymatgen
data_Nd11In9(CuIr)2
_symmetry_space_group_name_H-M   'P 1'
_cell_length_a   13.46497883
_cell_length_b   13.46764582
_cell_length_c   3.81013500
_cell_angle_alpha   90.00000000
_cell_angle_beta   90.00000000
_cell_angle_gamma   111.10241391
_symmetry_Int_Tables_number   1
_chemical_formula_structural   Nd11In9(CuIr)2
_chemical_formula_sum   'Nd11 In9 Cu2 Ir2'
_cell_volume   644.60056092
_cell_formula_units_Z   1
loop_
 _symmetry_equiv_pos_site_id
 _symmetry_equiv_pos_as_xyz
  1  'x, y, z'
loop_
 _atom_site_type_symbol
 _atom_site_label
 _atom_site_symmetry_multiplicity
 _atom_site_fract_x
 _atom_site_fract_y
 _atom_site_fract_z
 _atom_site_occupancy
  Nd  Nd0  1  0.072386  0.419222  0.000000  1
  Nd  Nd1  1  0.927608  0.580719  0.000000  1
  Nd  Nd2  1  0.418023  0.075671  0.000000  1
  Nd  Nd3  1  0.581991  0.924343  0.000000  1
  Nd  Nd4  1  0.620778  0.366671  0.000000  1
  Nd  Nd5  1  0.379248  0.633407  0.000000  1
  Nd  Nd6  1  0.841064  0.159804  0.000000  1
  Nd  Nd7  1  0.158815  0.840051  0.000000  1
  Nd  Nd8  1  0.999989  0.999949  0.000000  1
  Nd  Nd9  1  0.314840  0.306422  0.000000  1
  Nd  Nd10  1  0.685147  0.693597  0.000000  1
  In  In11  1  0.839493  0.368194  0.500000  1
  In  In12  1  0.160570  0.631814  0.500000  1
  In  In13  1  0.366421  0.837646  0.500000  1
  In  In14  1  0.633645  0.162504  0.500000  1
  In  In15  1  0.076933  0.220670  0.500000  1
  In  In16  1  0.923012  0.779269  0.500000  1
  In  In17  1  0.220055  0.077769  0.500000  1
  In  In18  1  0.779936  0.922185  0.500000  1
  In  In19  1  0.499988  0.500016  0.500000  1
  Cu  Cu20  1  0.247874  0.450037  0.500000  1
  Cu  Cu21  1  0.752135  0.549997  0.500000  1
  Ir  Ir22  1  0.450500  0.246066  0.500000  1
  Ir  Ir23  1  0.549549  0.753978  0.500000  1
