# generated using pymatgen
data_Sr(ZrS2)3
_symmetry_space_group_name_H-M   'P 1'
_cell_length_a   6.31995564
_cell_length_b   6.31995733
_cell_length_c   7.51791847
_cell_angle_alpha   97.99308048
_cell_angle_beta   97.99307798
_cell_angle_gamma   120.00737859
_symmetry_Int_Tables_number   1
_chemical_formula_structural   Sr(ZrS2)3
_chemical_formula_sum   'Sr1 Zr3 S6'
_cell_volume   249.76989358
_cell_formula_units_Z   1
loop_
 _symmetry_equiv_pos_site_id
 _symmetry_equiv_pos_as_xyz
  1  'x, y, z'
loop_
 _atom_site_type_symbol
 _atom_site_label
 _atom_site_symmetry_multiplicity
 _atom_site_fract_x
 _atom_site_fract_y
 _atom_site_fract_z
 _atom_site_occupancy
  Sr  Sr0  1  0.000000  0.000000  0.500000  1
  Zr  Zr1  1  0.833466  0.166534  0.000000  1
  Zr  Zr2  1  0.500000  0.500000  0.000000  1
  Zr  Zr3  1  0.166534  0.833466  0.000000  1
  S  S4  1  0.239866  0.239866  0.212759  1
  S  S5  1  0.903706  0.568380  0.212131  1
  S  S6  1  0.568380  0.903706  0.212131  1
  S  S7  1  0.431620  0.096294  0.787870  1
  S  S8  1  0.096294  0.431620  0.787870  1
  S  S9  1  0.760136  0.760136  0.787242  1
