# generated using pymatgen
data_Mg8B23Ru4C
_symmetry_space_group_name_H-M   'P 1'
_cell_length_a   8.87131301
_cell_length_b   10.89300874
_cell_length_c   3.49136200
_cell_angle_alpha   90.00000000
_cell_angle_beta   90.00000000
_cell_angle_gamma   90.54625226
_symmetry_Int_Tables_number   1
_chemical_formula_structural   Mg8B23Ru4C
_chemical_formula_sum   'Mg8 B23 Ru4 C1'
_cell_volume   337.37344627
_cell_formula_units_Z   1
loop_
 _symmetry_equiv_pos_site_id
 _symmetry_equiv_pos_as_xyz
  1  'x, y, z'
loop_
 _atom_site_type_symbol
 _atom_site_label
 _atom_site_symmetry_multiplicity
 _atom_site_fract_x
 _atom_site_fract_y
 _atom_site_fract_z
 _atom_site_occupancy
  Mg  Mg0  1  0.654338  0.090667  0.000000  1
  Mg  Mg1  1  0.055009  0.130780  0.000000  1
  Mg  Mg2  1  0.555367  0.370820  0.000000  1
  Mg  Mg3  1  0.168995  0.413228  0.000000  1
  Mg  Mg4  1  0.828497  0.584634  0.000000  1
  Mg  Mg5  1  0.447561  0.630982  0.000000  1
  Mg  Mg6  1  0.945696  0.867977  0.000000  1
  Mg  Mg7  1  0.337517  0.912056  0.000000  1
  B  B8  1  0.439164  0.063306  0.500000  1
  B  B9  1  0.238537  0.077948  0.500000  1
  B  B10  1  0.867518  0.171009  0.500000  1
  B  B11  1  0.514497  0.211107  0.500000  1
  B  B12  1  0.199514  0.239416  0.500000  1
  B  B13  1  0.701242  0.254719  0.500000  1
  B  B14  1  0.017316  0.285861  0.500000  1
  B  B15  1  0.366624  0.320326  0.500000  1
  B  B16  1  0.743627  0.416660  0.500000  1
  B  B17  1  0.942890  0.433264  0.500000  1
  B  B18  1  0.407760  0.475977  0.500000  1
  B  B19  1  0.595681  0.525404  0.500000  1
  B  B20  1  0.056428  0.563132  0.500000  1
  B  B21  1  0.258188  0.581258  0.500000  1
  B  B22  1  0.634368  0.682765  0.500000  1
  B  B23  1  0.981265  0.711170  0.500000  1
  B  B24  1  0.299151  0.743619  0.500000  1
  B  B25  1  0.800833  0.762855  0.500000  1
  B  B26  1  0.486071  0.791003  0.500000  1
  B  B27  1  0.131596  0.822124  0.500000  1
  B  B28  1  0.765120  0.926935  0.500000  1
  B  B29  1  0.561036  0.939865  0.500000  1
  B  B30  1  0.083425  0.977186  0.500000  1
  Ru  Ru31  1  0.352861  0.178852  0.000000  1
  Ru  Ru32  1  0.855298  0.311514  0.000000  1
  Ru  Ru33  1  0.144905  0.681294  0.000000  1
  Ru  Ru34  1  0.649172  0.826973  0.000000  1
  C  C35  1  0.912931  0.023308  0.500000  1
