# generated using pymatgen
data_Tb2NiB8Rh
_symmetry_space_group_name_H-M   'P 1'
_cell_length_a   6.92348606
_cell_length_b   6.92348705
_cell_length_c   6.92348645
_cell_angle_alpha   113.36174690
_cell_angle_beta   111.18653037
_cell_angle_gamma   104.00812725
_symmetry_Int_Tables_number   1
_chemical_formula_structural   Tb2NiB8Rh
_chemical_formula_sum   'Tb4 Ni2 B16 Rh2'
_cell_volume   253.65635422
_cell_formula_units_Z   2
loop_
 _symmetry_equiv_pos_site_id
 _symmetry_equiv_pos_as_xyz
  1  'x, y, z'
loop_
 _atom_site_type_symbol
 _atom_site_label
 _atom_site_symmetry_multiplicity
 _atom_site_fract_x
 _atom_site_fract_y
 _atom_site_fract_z
 _atom_site_occupancy
  Tb  Tb0  1  0.208505  0.208505  0.000000  1
  Tb  Tb1  1  0.791495  0.791495  0.000000  1
  Tb  Tb2  1  0.748844  0.248844  0.500000  1
  Tb  Tb3  1  0.251156  0.751156  0.500000  1
  Ni  Ni4  1  0.744424  0.500000  0.244424  1
  Ni  Ni5  1  0.255576  0.500000  0.755576  1
  B  B6  1  0.108667  0.273324  0.381991  1
  B  B7  1  0.891333  0.726676  0.618009  1
  B  B8  1  0.891333  0.273324  0.164658  1
  B  B9  1  0.108667  0.726676  0.835342  1
  B  B10  1  0.730360  0.888999  0.619359  1
  B  B11  1  0.269640  0.111001  0.380641  1
  B  B12  1  0.730360  0.111001  0.841360  1
  B  B13  1  0.269640  0.888999  0.158640  1
  B  B14  1  0.412997  0.418580  0.527621  1
  B  B15  1  0.890960  0.885377  0.472379  1
  B  B16  1  0.587003  0.114623  0.005584  1
  B  B17  1  0.109040  0.581420  0.994416  1
  B  B18  1  0.587003  0.581420  0.472379  1
  B  B19  1  0.109040  0.114623  0.527621  1
  B  B20  1  0.890960  0.418580  0.005584  1
  B  B21  1  0.412997  0.885377  0.994416  1
  Rh  Rh22  1  0.500000  0.276336  0.776336  1
  Rh  Rh23  1  0.500000  0.723664  0.223664  1
