# generated using pymatgen
data_Ho4Lu5Th3Ru4
_symmetry_space_group_name_H-M   'P 1'
_cell_length_a   6.27409009
_cell_length_b   7.19320290
_cell_length_c   9.35489182
_cell_angle_alpha   89.96603218
_cell_angle_beta   89.88905502
_cell_angle_gamma   90.38098114
_symmetry_Int_Tables_number   1
_chemical_formula_structural   Ho4Lu5Th3Ru4
_chemical_formula_sum   'Ho4 Lu5 Th3 Ru4'
_cell_volume   422.18357757
_cell_formula_units_Z   1
loop_
 _symmetry_equiv_pos_site_id
 _symmetry_equiv_pos_as_xyz
  1  'x, y, z'
loop_
 _atom_site_type_symbol
 _atom_site_label
 _atom_site_symmetry_multiplicity
 _atom_site_fract_x
 _atom_site_fract_y
 _atom_site_fract_z
 _atom_site_occupancy
  Ho  Ho0  1  0.829483  0.824011  0.568797  1
  Ho  Ho1  1  0.334273  0.677134  0.436207  1
  Ho  Ho2  1  0.165566  0.175239  0.063893  1
  Ho  Ho3  1  0.364157  0.965440  0.750906  1
  Lu  Lu4  1  0.336609  0.676195  0.062719  1
  Lu  Lu5  1  0.164086  0.175239  0.435985  1
  Lu  Lu6  1  0.665976  0.323910  0.567994  1
  Lu  Lu7  1  0.830483  0.824546  0.931513  1
  Lu  Lu8  1  0.666854  0.323969  0.931688  1
  Th  Th9  1  0.852033  0.546285  0.248723  1
  Th  Th10  1  0.644776  0.044082  0.249985  1
  Th  Th11  1  0.148474  0.453947  0.750612  1
  Ru  Ru12  1  0.037278  0.870782  0.247635  1
  Ru  Ru13  1  0.464576  0.369289  0.250255  1
  Ru  Ru14  1  0.959232  0.131790  0.749279  1
  Ru  Ru15  1  0.536145  0.618143  0.753808  1
