# generated using pymatgen
data_Sr2Mn3Cd(PO4)4
_symmetry_space_group_name_H-M   'P 1'
_cell_length_a   9.00741286
_cell_length_b   9.27298230
_cell_length_c   9.23521969
_cell_angle_alpha   69.24761680
_cell_angle_beta   89.33989878
_cell_angle_gamma   89.94666120
_symmetry_Int_Tables_number   1
_chemical_formula_structural   Sr2Mn3Cd(PO4)4
_chemical_formula_sum   'Sr4 Mn6 Cd2 P8 O32'
_cell_volume   721.27853246
_cell_formula_units_Z   2
loop_
 _symmetry_equiv_pos_site_id
 _symmetry_equiv_pos_as_xyz
  1  'x, y, z'
loop_
 _atom_site_type_symbol
 _atom_site_label
 _atom_site_symmetry_multiplicity
 _atom_site_fract_x
 _atom_site_fract_y
 _atom_site_fract_z
 _atom_site_occupancy
  Sr  Sr0  1  0.255883  0.792572  0.194265  1
  Sr  Sr1  1  0.744117  0.207428  0.805735  1
  Sr  Sr2  1  0.250783  0.389396  0.608897  1
  Sr  Sr3  1  0.749217  0.610604  0.391103  1
  Mn  Mn4  1  0.242011  0.622909  0.879265  1
  Mn  Mn5  1  0.757989  0.377091  0.120735  1
  Mn  Mn6  1  0.610897  0.749339  0.981320  1
  Mn  Mn7  1  0.389103  0.250661  0.018680  1
  Mn  Mn8  1  0.717473  0.893541  0.611228  1
  Mn  Mn9  1  0.282527  0.106459  0.388772  1
  Cd  Cd10  1  0.075352  0.989769  0.753577  1
  Cd  Cd11  1  0.924648  0.010231  0.246423  1
  P  P12  1  0.073642  0.775855  0.531813  1
  P  P13  1  0.926358  0.224145  0.468187  1
  P  P14  1  0.063665  0.259336  0.944420  1
  P  P15  1  0.936335  0.740664  0.055580  1
  P  P16  1  0.426457  0.468584  0.224287  1
  P  P17  1  0.573543  0.531416  0.775713  1
  P  P18  1  0.422972  0.043904  0.767399  1
  P  P19  1  0.577028  0.956096  0.232601  1
  O  O20  1  0.110238  0.622796  0.515513  1
  O  O21  1  0.889762  0.377204  0.484487  1
  O  O22  1  0.903789  0.813905  0.505533  1
  O  O23  1  0.096211  0.186095  0.494467  1
  O  O24  1  0.118780  0.779789  0.692662  1
  O  O25  1  0.881220  0.220211  0.307338  1
  O  O26  1  0.841428  0.091840  0.599577  1
  O  O27  1  0.158572  0.908160  0.400423  1
  O  O28  1  0.089844  0.681876  0.027372  1
  O  O29  1  0.910156  0.318124  0.972628  1
  O  O30  1  0.119260  0.119701  0.083484  1
  O  O31  1  0.880740  0.880299  0.916516  1
  O  O32  1  0.047156  0.214298  0.797574  1
  O  O33  1  0.952844  0.785702  0.202426  1
  O  O34  1  0.188112  0.385117  0.906456  1
  O  O35  1  0.811888  0.614883  0.093544  1
  O  O36  1  0.350390  0.522528  0.346038  1
  O  O37  1  0.649610  0.477472  0.653962  1
  O  O38  1  0.407356  0.563650  0.739440  1
  O  O39  1  0.592644  0.436350  0.260560  1
  O  O40  1  0.652052  0.677931  0.785314  1
  O  O41  1  0.347948  0.322069  0.214686  1
  O  O42  1  0.409789  0.603660  0.061603  1
  O  O43  1  0.590211  0.396340  0.938397  1
  O  O44  1  0.382708  0.105909  0.594353  1
  O  O45  1  0.617292  0.894091  0.405647  1
  O  O46  1  0.580712  0.967497  0.789709  1
  O  O47  1  0.419288  0.032503  0.210291  1
  O  O48  1  0.307354  0.925760  0.869013  1
  O  O49  1  0.692646  0.074240  0.130987  1
  O  O50  1  0.565795  0.813816  0.179615  1
  O  O51  1  0.434205  0.186184  0.820385  1
