# generated using pymatgen
data_CeEr(Al5Os)4
_symmetry_space_group_name_H-M   'P 1'
_cell_length_a   6.86397339
_cell_length_b   6.86397901
_cell_length_c   9.14786900
_cell_angle_alpha   90.00000000
_cell_angle_beta   90.00000000
_cell_angle_gamma   96.72057569
_symmetry_Int_Tables_number   1
_chemical_formula_structural   CeEr(Al5Os)4
_chemical_formula_sum   'Ce1 Er1 Al20 Os4'
_cell_volume   428.03275243
_cell_formula_units_Z   1
loop_
 _symmetry_equiv_pos_site_id
 _symmetry_equiv_pos_as_xyz
  1  'x, y, z'
loop_
 _atom_site_type_symbol
 _atom_site_label
 _atom_site_symmetry_multiplicity
 _atom_site_fract_x
 _atom_site_fract_y
 _atom_site_fract_z
 _atom_site_occupancy
  Ce  Ce0  1  0.373021  0.626972  0.250000  1
  Er  Er1  1  0.631241  0.368759  0.750000  1
  Al  Al2  1  0.282086  0.019216  0.750000  1
  Al  Al3  1  0.017620  0.281422  0.250000  1
  Al  Al4  1  0.718579  0.982380  0.250000  1
  Al  Al5  1  0.980784  0.717914  0.750000  1
  Al  Al6  1  0.876033  0.123968  0.951194  1
  Al  Al7  1  0.122617  0.877383  0.046683  1
  Al  Al8  1  0.876033  0.123968  0.548806  1
  Al  Al9  1  0.122617  0.877383  0.453317  1
  Al  Al10  1  0.646615  0.918405  0.750000  1
  Al  Al11  1  0.912990  0.646007  0.250000  1
  Al  Al12  1  0.353993  0.087011  0.250000  1
  Al  Al13  1  0.081596  0.353385  0.750000  1
  Al  Al14  1  0.343738  0.656262  0.896952  1
  Al  Al15  1  0.657183  0.342817  0.101105  1
  Al  Al16  1  0.343738  0.656262  0.603048  1
  Al  Al17  1  0.657183  0.342817  0.398895  1
  Al  Al18  1  0.724838  0.723768  0.998096  1
  Al  Al19  1  0.724838  0.723768  0.501904  1
  Al  Al20  1  0.276232  0.275163  0.998096  1
  Al  Al21  1  0.276232  0.275163  0.501904  1
  Os  Os22  1  0.499879  0.999782  0.999583  1
  Os  Os23  1  0.000218  0.500121  0.999582  1
  Os  Os24  1  0.499879  0.999782  0.500417  1
  Os  Os25  1  0.000218  0.500121  0.500418  1
