# generated using pymatgen
data_ZrScFe3Si
_symmetry_space_group_name_H-M   'P 1'
_cell_length_a   4.98897200
_cell_length_b   4.98897331
_cell_length_c   7.98969400
_cell_angle_alpha   90.00000000
_cell_angle_beta   90.00000000
_cell_angle_gamma   119.99999133
_symmetry_Int_Tables_number   1
_chemical_formula_structural   ZrScFe3Si
_chemical_formula_sum   'Zr2 Sc2 Fe6 Si2'
_cell_volume   172.21979300
_cell_formula_units_Z   2
loop_
 _symmetry_equiv_pos_site_id
 _symmetry_equiv_pos_as_xyz
  1  'x, y, z'
loop_
 _atom_site_type_symbol
 _atom_site_label
 _atom_site_symmetry_multiplicity
 _atom_site_fract_x
 _atom_site_fract_y
 _atom_site_fract_z
 _atom_site_occupancy
  Zr  Zr0  1  0.666667  0.333333  0.563368  1
  Zr  Zr1  1  0.333333  0.666667  0.063368  1
  Sc  Sc2  1  0.666667  0.333333  0.936965  1
  Sc  Sc3  1  0.333333  0.666667  0.436965  1
  Fe  Fe4  1  0.170470  0.829530  0.749998  1
  Fe  Fe5  1  0.659062  0.829530  0.749998  1
  Fe  Fe6  1  0.829530  0.170470  0.249998  1
  Fe  Fe7  1  0.170470  0.340938  0.749998  1
  Fe  Fe8  1  0.829530  0.659062  0.249998  1
  Fe  Fe9  1  0.340938  0.170470  0.249998  1
  Si  Si10  1  0.000000  0.000000  0.499673  1
  Si  Si11  1  0.000000  0.000000  0.999673  1
