# generated using pymatgen
data_Be4TcOs
_symmetry_space_group_name_H-M   'P 1'
_cell_length_a   4.35952400
_cell_length_b   4.35952354
_cell_length_c   7.10461600
_cell_angle_alpha   90.00000000
_cell_angle_beta   90.00000000
_cell_angle_gamma   120.00000350
_symmetry_Int_Tables_number   1
_chemical_formula_structural   Be4TcOs
_chemical_formula_sum   'Be8 Tc2 Os2'
_cell_volume   116.93629398
_cell_formula_units_Z   2
loop_
 _symmetry_equiv_pos_site_id
 _symmetry_equiv_pos_as_xyz
  1  'x, y, z'
loop_
 _atom_site_type_symbol
 _atom_site_label
 _atom_site_symmetry_multiplicity
 _atom_site_fract_x
 _atom_site_fract_y
 _atom_site_fract_z
 _atom_site_occupancy
  Be  Be0  1  0.000000  0.000000  0.500000  1
  Be  Be1  1  0.000000  0.000000  0.000000  1
  Be  Be2  1  0.831065  0.168935  0.245466  1
  Be  Be3  1  0.831065  0.662128  0.245466  1
  Be  Be4  1  0.337872  0.168935  0.245466  1
  Be  Be5  1  0.168935  0.831065  0.754534  1
  Be  Be6  1  0.168935  0.337872  0.754534  1
  Be  Be7  1  0.662128  0.831065  0.754534  1
  Tc  Tc8  1  0.333333  0.666667  0.441867  1
  Tc  Tc9  1  0.666667  0.333333  0.558133  1
  Os  Os10  1  0.666667  0.333333  0.935103  1
  Os  Os11  1  0.333333  0.666667  0.064897  1
