# generated using pymatgen
data_Yb3Pr5In4
_symmetry_space_group_name_H-M   'P 1'
_cell_length_a   7.00341885
_cell_length_b   5.53048100
_cell_length_c   9.66803240
_cell_angle_alpha   90.00000000
_cell_angle_beta   90.19147863
_cell_angle_gamma   90.00000000
_symmetry_Int_Tables_number   1
_chemical_formula_structural   Yb3Pr5In4
_chemical_formula_sum   'Yb3 Pr5 In4'
_cell_volume   374.46279729
_cell_formula_units_Z   1
loop_
 _symmetry_equiv_pos_site_id
 _symmetry_equiv_pos_as_xyz
  1  'x, y, z'
loop_
 _atom_site_type_symbol
 _atom_site_label
 _atom_site_symmetry_multiplicity
 _atom_site_fract_x
 _atom_site_fract_y
 _atom_site_fract_z
 _atom_site_occupancy
  Yb  Yb0  1  0.500173  0.750001  0.242213  1
  Yb  Yb1  1  0.500435  0.250002  0.758050  1
  Yb  Yb2  1  0.000828  0.750001  0.258038  1
  Pr  Pr3  1  0.752523  0.250002  0.086370  1
  Pr  Pr4  1  0.733661  0.750001  0.580482  1
  Pr  Pr5  1  0.264457  0.250002  0.413441  1
  Pr  Pr6  1  0.246023  0.750001  0.919958  1
  Pr  Pr7  1  0.001188  0.250002  0.741941  1
  In  In8  1  0.248738  0.250002  0.082953  1
  In  In9  1  0.241365  0.750001  0.586316  1
  In  In10  1  0.759669  0.250002  0.416827  1
  In  In11  1  0.750937  0.750001  0.913411  1
