# generated using pymatgen
data_LaYPPt8
_symmetry_space_group_name_H-M   'P 1'
_cell_length_a   9.17609126
_cell_length_b   9.16750839
_cell_length_c   4.31412000
_cell_angle_alpha   90.00000000
_cell_angle_beta   90.00000000
_cell_angle_gamma   145.55311018
_symmetry_Int_Tables_number   1
_chemical_formula_structural   LaYPPt8
_chemical_formula_sum   'La1 Y1 P1 Pt8'
_cell_volume   205.27826369
_cell_formula_units_Z   1
loop_
 _symmetry_equiv_pos_site_id
 _symmetry_equiv_pos_as_xyz
  1  'x, y, z'
loop_
 _atom_site_type_symbol
 _atom_site_label
 _atom_site_symmetry_multiplicity
 _atom_site_fract_x
 _atom_site_fract_y
 _atom_site_fract_z
 _atom_site_occupancy
  La  La0  1  0.372954  0.619205  0.500000  1
  Y  Y1  1  0.623384  0.372758  0.500000  1
  P  P2  1  0.223923  0.223852  0.000000  1
  Pt  Pt3  1  0.110856  0.891582  0.000000  1
  Pt  Pt4  1  0.889335  0.109562  0.000000  1
  Pt  Pt5  1  0.488043  0.985639  0.000000  1
  Pt  Pt6  1  0.980825  0.489712  0.000000  1
  Pt  Pt7  1  0.192438  0.794227  0.500000  1
  Pt  Pt8  1  0.790353  0.196179  0.500000  1
  Pt  Pt9  1  0.005196  0.003226  0.500000  1
  Pt  Pt10  1  0.636294  0.627659  0.000000  1
