# generated using pymatgen
data_Ac2Sn4Pt3
_symmetry_space_group_name_H-M   'P 1'
_cell_length_a   14.95853300
_cell_length_b   14.95853398
_cell_length_c   4.62597800
_cell_angle_alpha   90.00000000
_cell_angle_beta   90.00000000
_cell_angle_gamma   119.99999562
_symmetry_Int_Tables_number   1
_chemical_formula_structural   Ac2Sn4Pt3
_chemical_formula_sum   'Ac8 Sn16 Pt12'
_cell_volume   896.42147075
_cell_formula_units_Z   4
loop_
 _symmetry_equiv_pos_site_id
 _symmetry_equiv_pos_as_xyz
  1  'x, y, z'
loop_
 _atom_site_type_symbol
 _atom_site_label
 _atom_site_symmetry_multiplicity
 _atom_site_fract_x
 _atom_site_fract_y
 _atom_site_fract_z
 _atom_site_occupancy
  Ac  Ac0  1  0.183434  0.000000  0.500000  1
  Ac  Ac1  1  0.816566  0.816566  0.500000  1
  Ac  Ac2  1  0.000000  0.183434  0.500000  1
  Ac  Ac3  1  0.666667  0.333333  0.000000  1
  Ac  Ac4  1  0.333333  0.666667  0.000000  1
  Ac  Ac5  1  0.563989  0.000000  0.000000  1
  Ac  Ac6  1  0.436011  0.436011  0.000000  1
  Ac  Ac7  1  0.000000  0.563989  0.000000  1
  Sn  Sn8  1  0.492794  0.126435  0.500000  1
  Sn  Sn9  1  0.873565  0.366359  0.500000  1
  Sn  Sn10  1  0.633641  0.507206  0.500000  1
  Sn  Sn11  1  0.507206  0.633641  0.500000  1
  Sn  Sn12  1  0.366359  0.873565  0.500000  1
  Sn  Sn13  1  0.126435  0.492794  0.500000  1
  Sn  Sn14  1  0.374878  0.186674  0.000000  1
  Sn  Sn15  1  0.813326  0.188205  0.000000  1
  Sn  Sn16  1  0.811795  0.625122  0.000000  1
  Sn  Sn17  1  0.625122  0.811795  0.000000  1
  Sn  Sn18  1  0.000000  0.000000  0.000000  1
  Sn  Sn19  1  0.188205  0.813326  0.000000  1
  Sn  Sn20  1  0.728118  0.000000  0.500000  1
  Sn  Sn21  1  0.271882  0.271882  0.500000  1
  Sn  Sn22  1  0.000000  0.728118  0.500000  1
  Sn  Sn23  1  0.186674  0.374878  0.000000  1
  Pt  Pt24  1  0.000000  0.360674  0.000000  1
  Pt  Pt25  1  0.360674  0.000000  0.000000  1
  Pt  Pt26  1  0.476277  0.299441  0.500000  1
  Pt  Pt27  1  0.700559  0.176836  0.500000  1
  Pt  Pt28  1  0.823164  0.523723  0.500000  1
  Pt  Pt29  1  0.523723  0.823164  0.500000  1
  Pt  Pt30  1  0.176836  0.700559  0.500000  1
  Pt  Pt31  1  0.299441  0.476277  0.500000  1
  Pt  Pt32  1  0.000000  0.820038  0.000000  1
  Pt  Pt33  1  0.179962  0.179962  0.000000  1
  Pt  Pt34  1  0.820038  0.000000  0.000000  1
  Pt  Pt35  1  0.639326  0.639326  0.000000  1
