# generated using pymatgen
data_Ho10Cd2InNi
_symmetry_space_group_name_H-M   'P 1'
_cell_length_a   9.60988914
_cell_length_b   9.65422193
_cell_length_c   9.62120500
_cell_angle_alpha   90.00000000
_cell_angle_beta   90.00000000
_cell_angle_gamma   120.15271452
_symmetry_Int_Tables_number   1
_chemical_formula_structural   Ho10Cd2InNi
_chemical_formula_sum   'Ho20 Cd4 In2 Ni2'
_cell_volume   771.83662244
_cell_formula_units_Z   2
loop_
 _symmetry_equiv_pos_site_id
 _symmetry_equiv_pos_as_xyz
  1  'x, y, z'
loop_
 _atom_site_type_symbol
 _atom_site_label
 _atom_site_symmetry_multiplicity
 _atom_site_fract_x
 _atom_site_fract_y
 _atom_site_fract_z
 _atom_site_occupancy
  Ho  Ho0  1  0.003428  0.001714  0.504448  1
  Ho  Ho1  1  0.003428  0.001714  0.995552  1
  Ho  Ho2  1  0.540831  0.453004  0.250000  1
  Ho  Ho3  1  0.540831  0.087828  0.250000  1
  Ho  Ho4  1  0.912192  0.456096  0.250000  1
  Ho  Ho5  1  0.455388  0.544662  0.750000  1
  Ho  Ho6  1  0.455388  0.910725  0.750000  1
  Ho  Ho7  1  0.088950  0.544475  0.750000  1
  Ho  Ho8  1  0.211684  0.788262  0.438915  1
  Ho  Ho9  1  0.211684  0.423423  0.438915  1
  Ho  Ho10  1  0.577610  0.788805  0.437201  1
  Ho  Ho11  1  0.788304  0.211059  0.561969  1
  Ho  Ho12  1  0.788304  0.577244  0.561969  1
  Ho  Ho13  1  0.422690  0.211344  0.564650  1
  Ho  Ho14  1  0.788304  0.211059  0.938031  1
  Ho  Ho15  1  0.788304  0.577244  0.938031  1
  Ho  Ho16  1  0.422690  0.211344  0.935350  1
  Ho  Ho17  1  0.211684  0.788262  0.061085  1
  Ho  Ho18  1  0.211684  0.423423  0.061085  1
  Ho  Ho19  1  0.577610  0.788805  0.062799  1
  Cd  Cd20  1  0.229773  0.114886  0.250000  1
  Cd  Cd21  1  0.115817  0.882416  0.750000  1
  Cd  Cd22  1  0.115817  0.233402  0.750000  1
  Cd  Cd23  1  0.767710  0.883855  0.750000  1
  In  In24  1  0.884571  0.115847  0.250000  1
  In  In25  1  0.884571  0.768723  0.250000  1
  Ni  Ni26  1  0.332668  0.666334  0.250000  1
  Ni  Ni27  1  0.668083  0.334041  0.750000  1
