# generated using pymatgen
data_Er4Tm4B24RhW3
_symmetry_space_group_name_H-M   'P 1'
_cell_length_a   3.59152200
_cell_length_b   9.21376941
_cell_length_c   11.61033195
_cell_angle_alpha   90.17169603
_cell_angle_beta   90.00000000
_cell_angle_gamma   90.00000000
_symmetry_Int_Tables_number   1
_chemical_formula_structural   Er4Tm4B24RhW3
_chemical_formula_sum   'Er4 Tm4 B24 Rh1 W3'
_cell_volume   384.20105837
_cell_formula_units_Z   1
loop_
 _symmetry_equiv_pos_site_id
 _symmetry_equiv_pos_as_xyz
  1  'x, y, z'
loop_
 _atom_site_type_symbol
 _atom_site_label
 _atom_site_symmetry_multiplicity
 _atom_site_fract_x
 _atom_site_fract_y
 _atom_site_fract_z
 _atom_site_occupancy
  Er  Er0  1  0.500000  0.318061  0.414563  1
  Er  Er1  1  0.500000  0.679603  0.588452  1
  Er  Er2  1  0.500000  0.178913  0.912719  1
  Er  Er3  1  0.500000  0.824007  0.082994  1
  Tm  Tm4  1  0.500000  0.444620  0.129391  1
  Tm  Tm5  1  0.500000  0.556185  0.873128  1
  Tm  Tm6  1  0.500000  0.054264  0.626718  1
  Tm  Tm7  1  0.500000  0.941693  0.371190  1
  B  B8  1  0.000000  0.099764  0.471134  1
  B  B9  1  0.000000  0.894610  0.526899  1
  B  B10  1  0.000000  0.398856  0.972926  1
  B  B11  1  0.000000  0.603329  0.030343  1
  B  B12  1  0.000000  0.130493  0.318322  1
  B  B13  1  0.000000  0.868000  0.682503  1
  B  B14  1  0.000000  0.369528  0.816710  1
  B  B15  1  0.000000  0.632199  0.184276  1
  B  B16  1  0.000000  0.051926  0.065368  1
  B  B17  1  0.000000  0.949320  0.934889  1
  B  B18  1  0.000000  0.449261  0.563302  1
  B  B19  1  0.000000  0.554821  0.433018  1
  B  B20  1  0.000000  0.483362  0.288551  1
  B  B21  1  0.000000  0.522210  0.712889  1
  B  B22  1  0.000000  0.021694  0.786092  1
  B  B23  1  0.000000  0.977384  0.212588  1
  B  B24  1  0.000000  0.252632  0.079205  1
  B  B25  1  0.000000  0.748891  0.922276  1
  B  B26  1  0.000000  0.246931  0.577346  1
  B  B27  1  0.000000  0.748843  0.419973  1
  B  B28  1  0.000000  0.296492  0.237960  1
  B  B29  1  0.000000  0.704641  0.764454  1
  B  B30  1  0.000000  0.205068  0.735427  1
  B  B31  1  0.000000  0.790832  0.264535  1
  Rh  Rh32  1  0.500000  0.639131  0.320473  1
  W  W33  1  0.500000  0.139785  0.181151  1
  W  W34  1  0.500000  0.861152  0.820271  1
  W  W35  1  0.500000  0.361500  0.677967  1
