# generated using pymatgen
data_NaYSi2(B12C)2
_symmetry_space_group_name_H-M   'P 1'
_cell_length_a   7.27694488
_cell_length_b   7.25798123
_cell_length_c   7.25797994
_cell_angle_alpha   132.66246011
_cell_angle_beta   110.17947826
_cell_angle_gamma   88.65457105
_symmetry_Int_Tables_number   1
_chemical_formula_structural   NaYSi2(B12C)2
_chemical_formula_sum   'Na1 Y1 Si2 B24 C2'
_cell_volume   252.00735564
_cell_formula_units_Z   1
loop_
 _symmetry_equiv_pos_site_id
 _symmetry_equiv_pos_as_xyz
  1  'x, y, z'
loop_
 _atom_site_type_symbol
 _atom_site_label
 _atom_site_symmetry_multiplicity
 _atom_site_fract_x
 _atom_site_fract_y
 _atom_site_fract_z
 _atom_site_occupancy
  Na  Na0  1  0.896067  0.242210  0.153856  1
  Y  Y1  1  0.096617  0.748670  0.847947  1
  Si  Si2  1  0.475842  0.829782  0.146059  1
  Si  Si3  1  0.689697  0.327343  0.862355  1
  B  B4  1  0.872007  0.834985  0.537019  1
  B  B5  1  0.296316  0.334194  0.462122  1
  B  B6  1  0.143985  0.167441  0.476543  1
  B  B7  1  0.689312  0.666567  0.522745  1
  B  B8  1  0.273439  0.091970  0.681469  1
  B  B9  1  0.408947  0.590895  0.318051  1
  B  B10  1  0.765030  0.914128  0.350902  1
  B  B11  1  0.561558  0.409795  0.651764  1
  B  B12  1  0.108354  0.784904  0.508246  1
  B  B13  1  0.274810  0.600209  0.491097  1
  B  B14  1  0.274810  0.283714  0.174602  1
  B  B15  1  0.108354  0.100108  0.823451  1
  B  B16  1  0.902842  0.220742  0.508392  1
  B  B17  1  0.709987  0.394691  0.492689  1
  B  B18  1  0.709987  0.717298  0.815295  1
  B  B19  1  0.902842  0.894450  0.182100  1
  B  B20  1  0.135810  0.823834  0.298845  1
  B  B21  1  0.525006  0.839619  0.702312  1
  B  B22  1  0.525006  0.322694  0.185387  1
  B  B23  1  0.135810  0.336965  0.811977  1
  B  B24  1  0.887638  0.164762  0.710133  1
  B  B25  1  0.452805  0.178525  0.289992  1
  B  B26  1  0.452805  0.662812  0.774279  1
  B  B27  1  0.887638  0.677505  0.222876  1
  C  C28  1  0.512221  0.141981  0.870240  1
  C  C29  1  0.270316  0.643065  0.127252  1
