# generated using pymatgen
data_Lu5NiRhO12
_symmetry_space_group_name_H-M   'P 1'
_cell_length_a   6.66691201
_cell_length_b   6.66691057
_cell_length_c   7.07626900
_cell_angle_alpha   74.49961967
_cell_angle_beta   74.49963202
_cell_angle_gamma   50.71373566
_symmetry_Int_Tables_number   1
_chemical_formula_structural   Lu5NiRhO12
_chemical_formula_sum   'Lu5 Ni1 Rh1 O12'
_cell_volume   232.54987322
_cell_formula_units_Z   1
loop_
 _symmetry_equiv_pos_site_id
 _symmetry_equiv_pos_as_xyz
  1  'x, y, z'
loop_
 _atom_site_type_symbol
 _atom_site_label
 _atom_site_symmetry_multiplicity
 _atom_site_fract_x
 _atom_site_fract_y
 _atom_site_fract_z
 _atom_site_occupancy
  Lu  Lu0  1  0.694153  0.688092  0.668425  1
  Lu  Lu1  1  0.707738  0.687852  0.140886  1
  Lu  Lu2  1  0.996648  0.003352  0.000000  1
  Lu  Lu3  1  0.312148  0.292262  0.859114  1
  Lu  Lu4  1  0.311908  0.305847  0.331575  1
  Ni  Ni5  1  0.745246  0.254754  0.500000  1
  Rh  Rh6  1  0.237420  0.762580  0.500000  1
  O  O7  1  0.401595  0.898058  0.926884  1
  O  O8  1  0.574259  0.097086  0.583471  1
  O  O9  1  0.902914  0.425741  0.416529  1
  O  O10  1  0.101942  0.598405  0.073116  1
  O  O11  1  0.981972  0.018550  0.317577  1
  O  O12  1  0.508536  0.490303  0.686841  1
  O  O13  1  0.907013  0.400941  0.925099  1
  O  O14  1  0.096085  0.569780  0.584136  1
  O  O15  1  0.430220  0.903915  0.415864  1
  O  O16  1  0.599059  0.092987  0.074901  1
  O  O17  1  0.509697  0.491464  0.313159  1
  O  O18  1  0.981450  0.018028  0.682423  1
