# generated using pymatgen
data_Li2Ca2Si2Sb
_symmetry_space_group_name_H-M   'P 1'
_cell_length_a   9.75502083
_cell_length_b   9.75502056
_cell_length_c   7.01240500
_cell_angle_alpha   90.00000000
_cell_angle_beta   90.00000000
_cell_angle_gamma   153.18818156
_symmetry_Int_Tables_number   1
_chemical_formula_structural   Li2Ca2Si2Sb
_chemical_formula_sum   'Li4 Ca4 Si4 Sb2'
_cell_volume   300.99499979
_cell_formula_units_Z   2
loop_
 _symmetry_equiv_pos_site_id
 _symmetry_equiv_pos_as_xyz
  1  'x, y, z'
loop_
 _atom_site_type_symbol
 _atom_site_label
 _atom_site_symmetry_multiplicity
 _atom_site_fract_x
 _atom_site_fract_y
 _atom_site_fract_z
 _atom_site_occupancy
  Li  Li0  1  0.815064  0.184936  0.445475  1
  Li  Li1  1  0.184936  0.815064  0.554525  1
  Li  Li2  1  0.815064  0.184936  0.054525  1
  Li  Li3  1  0.184936  0.815064  0.945475  1
  Ca  Ca4  1  0.550493  0.449507  0.750000  1
  Ca  Ca5  1  0.449507  0.550493  0.250000  1
  Ca  Ca6  1  0.345884  0.654116  0.750000  1
  Ca  Ca7  1  0.654116  0.345884  0.250000  1
  Si  Si8  1  0.945296  0.054704  0.919113  1
  Si  Si9  1  0.054704  0.945296  0.080887  1
  Si  Si10  1  0.945296  0.054704  0.580887  1
  Si  Si11  1  0.054704  0.945296  0.419113  1
  Sb  Sb12  1  0.719377  0.280623  0.750000  1
  Sb  Sb13  1  0.280623  0.719377  0.250000  1
