# generated using pymatgen
data_Tb13Y4Th3Sn16
_symmetry_space_group_name_H-M   'P 1'
_cell_length_a   8.11073666
_cell_length_b   8.23417549
_cell_length_c   15.56257665
_cell_angle_alpha   90.05686963
_cell_angle_beta   90.13109383
_cell_angle_gamma   89.92464203
_symmetry_Int_Tables_number   1
_chemical_formula_structural   Tb13Y4Th3Sn16
_chemical_formula_sum   'Tb13 Y4 Th3 Sn16'
_cell_volume   1039.34611651
_cell_formula_units_Z   1
loop_
 _symmetry_equiv_pos_site_id
 _symmetry_equiv_pos_as_xyz
  1  'x, y, z'
loop_
 _atom_site_type_symbol
 _atom_site_label
 _atom_site_symmetry_multiplicity
 _atom_site_fract_x
 _atom_site_fract_y
 _atom_site_fract_z
 _atom_site_occupancy
  Tb  Tb0  1  0.367013  0.834921  0.878398  1
  Tb  Tb1  1  0.866575  0.664885  0.622457  1
  Tb  Tb2  1  0.633720  0.163897  0.377068  1
  Tb  Tb3  1  0.132888  0.336483  0.122379  1
  Tb  Tb4  1  0.633109  0.162681  0.122492  1
  Tb  Tb5  1  0.134040  0.337389  0.377458  1
  Tb  Tb6  1  0.366328  0.837160  0.622570  1
  Tb  Tb7  1  0.867480  0.662753  0.877885  1
  Tb  Tb8  1  0.525616  0.322329  0.900569  1
  Tb  Tb9  1  0.024849  0.177356  0.599729  1
  Tb  Tb10  1  0.476284  0.677696  0.400983  1
  Tb  Tb11  1  0.976331  0.821587  0.100016  1
  Tb  Tb12  1  0.478743  0.677411  0.097581  1
  Y  Y13  1  0.196781  0.500567  0.750487  1
  Y  Y14  1  0.696206  0.999243  0.749790  1
  Y  Y15  1  0.802628  0.500342  0.249501  1
  Y  Y16  1  0.303004  0.001774  0.248888  1
  Th  Th17  1  0.981536  0.819476  0.402460  1
  Th  Th18  1  0.518270  0.320590  0.596497  1
  Th  Th19  1  0.018886  0.179530  0.904095  1
  Sn  Sn20  1  0.291474  0.032927  0.042636  1
  Sn  Sn21  1  0.791785  0.466579  0.457191  1
  Sn  Sn22  1  0.709120  0.967265  0.542350  1
  Sn  Sn23  1  0.210846  0.532883  0.957598  1
  Sn  Sn24  1  0.705553  0.961857  0.958706  1
  Sn  Sn25  1  0.204605  0.539838  0.540716  1
  Sn  Sn26  1  0.294934  0.039060  0.459292  1
  Sn  Sn27  1  0.792359  0.462713  0.041219  1
  Sn  Sn28  1  0.563616  0.621151  0.749052  1
  Sn  Sn29  1  0.064058  0.879705  0.751313  1
  Sn  Sn30  1  0.436134  0.380135  0.249749  1
  Sn  Sn31  1  0.935602  0.120496  0.251001  1
  Sn  Sn32  1  0.328280  0.144881  0.751619  1
  Sn  Sn33  1  0.828902  0.355252  0.748307  1
  Sn  Sn34  1  0.668838  0.852755  0.249748  1
  Sn  Sn35  1  0.173611  0.644433  0.248199  1
