# generated using pymatgen
data_Lu12Zn11GaC4
_symmetry_space_group_name_H-M   'P 1'
_cell_length_a   8.95373031
_cell_length_b   8.95373028
_cell_length_c   8.95161413
_cell_angle_alpha   59.99218017
_cell_angle_beta   59.99217977
_cell_angle_gamma   59.99999639
_symmetry_Int_Tables_number   1
_chemical_formula_structural   Lu12Zn11GaC4
_chemical_formula_sum   'Lu12 Zn11 Ga1 C4'
_cell_volume   507.39130045
_cell_formula_units_Z   1
loop_
 _symmetry_equiv_pos_site_id
 _symmetry_equiv_pos_as_xyz
  1  'x, y, z'
loop_
 _atom_site_type_symbol
 _atom_site_label
 _atom_site_symmetry_multiplicity
 _atom_site_fract_x
 _atom_site_fract_y
 _atom_site_fract_z
 _atom_site_occupancy
  Lu  Lu0  1  0.446135  0.446135  0.053771  1
  Lu  Lu1  1  0.053960  0.446135  0.053771  1
  Lu  Lu2  1  0.446135  0.053960  0.053771  1
  Lu  Lu3  1  0.054080  0.054080  0.446162  1
  Lu  Lu4  1  0.445679  0.054080  0.446162  1
  Lu  Lu5  1  0.054080  0.445679  0.446162  1
  Lu  Lu6  1  0.803273  0.803273  0.196531  1
  Lu  Lu7  1  0.196923  0.803273  0.196531  1
  Lu  Lu8  1  0.803273  0.196923  0.196531  1
  Lu  Lu9  1  0.196288  0.196288  0.803687  1
  Lu  Lu10  1  0.803737  0.196288  0.803687  1
  Lu  Lu11  1  0.196288  0.803737  0.803687  1
  Zn  Zn12  1  0.827875  0.515734  0.828518  1
  Zn  Zn13  1  0.515734  0.827875  0.828518  1
  Zn  Zn14  1  0.827875  0.827875  0.828518  1
  Zn  Zn15  1  0.421956  0.421956  0.734132  1
  Zn  Zn16  1  0.422031  0.734188  0.421748  1
  Zn  Zn17  1  0.734188  0.422031  0.421748  1
  Zn  Zn18  1  0.422031  0.422031  0.421748  1
  Zn  Zn19  1  0.624823  0.624823  0.125530  1
  Zn  Zn20  1  0.624081  0.126074  0.625764  1
  Zn  Zn21  1  0.126074  0.624081  0.625764  1
  Zn  Zn22  1  0.624081  0.624081  0.625764  1
  Ga  Ga23  1  0.828886  0.828886  0.513344  1
  C  C24  1  0.125114  0.125114  0.624658  1
  C  C25  1  0.124838  0.625726  0.124597  1
  C  C26  1  0.625726  0.124838  0.124597  1
  C  C27  1  0.124838  0.124838  0.124597  1
