# generated using pymatgen
data_YMgCuPt3
_symmetry_space_group_name_H-M   'P 1'
_cell_length_a   5.15281350
_cell_length_b   5.15281295
_cell_length_c   5.15281289
_cell_angle_alpha   63.86932902
_cell_angle_beta   63.86933113
_cell_angle_gamma   63.86933097
_symmetry_Int_Tables_number   1
_chemical_formula_structural   YMgCuPt3
_chemical_formula_sum   'Y1 Mg1 Cu1 Pt3'
_cell_volume   104.99566989
_cell_formula_units_Z   1
loop_
 _symmetry_equiv_pos_site_id
 _symmetry_equiv_pos_as_xyz
  1  'x, y, z'
loop_
 _atom_site_type_symbol
 _atom_site_label
 _atom_site_symmetry_multiplicity
 _atom_site_fract_x
 _atom_site_fract_y
 _atom_site_fract_z
 _atom_site_occupancy
  Y  Y0  1  0.751084  0.751084  0.751084  1
  Mg  Mg1  1  0.004805  0.004805  0.004805  1
  Cu  Cu2  1  0.373596  0.373596  0.373596  1
  Pt  Pt3  1  0.372484  0.875548  0.372484  1
  Pt  Pt4  1  0.372484  0.372484  0.875548  1
  Pt  Pt5  1  0.875548  0.372484  0.372484  1
