# generated using pymatgen
data_TbZr7Ti3Si16W9
_symmetry_space_group_name_H-M   'P 1'
_cell_length_a   6.77027243
_cell_length_b   6.76448916
_cell_length_c   12.60976831
_cell_angle_alpha   89.76335949
_cell_angle_beta   90.13757545
_cell_angle_gamma   89.66934216
_symmetry_Int_Tables_number   1
_chemical_formula_structural   TbZr7Ti3Si16W9
_chemical_formula_sum   'Tb1 Zr7 Ti3 Si16 W9'
_cell_volume   577.47879718
_cell_formula_units_Z   1
loop_
 _symmetry_equiv_pos_site_id
 _symmetry_equiv_pos_as_xyz
  1  'x, y, z'
loop_
 _atom_site_type_symbol
 _atom_site_label
 _atom_site_symmetry_multiplicity
 _atom_site_fract_x
 _atom_site_fract_y
 _atom_site_fract_z
 _atom_site_occupancy
  Tb  Tb0  1  0.998647  0.663395  0.030509  1
  Zr  Zr1  1  0.337607  0.998256  0.469651  1
  Zr  Zr2  1  0.501529  0.834781  0.718612  1
  Zr  Zr3  1  0.493500  0.164990  0.220030  1
  Zr  Zr4  1  0.835012  0.501926  0.281150  1
  Zr  Zr5  1  0.165074  0.494220  0.781005  1
  Zr  Zr6  1  0.656697  0.007179  0.966736  1
  Zr  Zr7  1  0.997448  0.338166  0.530829  1
  Ti  Ti8  1  0.167509  0.835800  0.249461  1
  Ti  Ti9  1  0.835155  0.167219  0.750917  1
  Ti  Ti10  1  0.666954  0.667690  0.500263  1
  Si  Si11  1  0.207998  0.129583  0.676506  1
  Si  Si12  1  0.378834  0.701557  0.929244  1
  Si  Si13  1  0.630899  0.293145  0.428524  1
  Si  Si14  1  0.700159  0.370554  0.070469  1
  Si  Si15  1  0.292116  0.630825  0.571768  1
  Si  Si16  1  0.787903  0.875633  0.181438  1
  Si  Si17  1  0.129690  0.208989  0.324060  1
  Si  Si18  1  0.870192  0.793291  0.818318  1
  Si  Si19  1  0.287865  0.967491  0.061238  1
  Si  Si20  1  0.538222  0.796426  0.315552  1
  Si  Si21  1  0.461109  0.206670  0.812548  1
  Si  Si22  1  0.795899  0.538063  0.684918  1
  Si  Si23  1  0.207846  0.460069  0.187296  1
  Si  Si24  1  0.703743  0.041215  0.564664  1
  Si  Si25  1  0.967009  0.280555  0.938801  1
  Si  Si26  1  0.040805  0.704250  0.435181  1
  W  W27  1  0.335688  0.328166  0.999100  1
  W  W28  1  0.167732  0.993182  0.864511  1
  W  W29  1  0.495538  0.668212  0.127182  1
  W  W30  1  0.502193  0.341704  0.621464  1
  W  W31  1  0.668977  0.492361  0.873205  1
  W  W32  1  0.342413  0.502850  0.378775  1
  W  W33  1  0.841270  0.996092  0.376081  1
  W  W34  1  0.996047  0.164131  0.135737  1
  W  W35  1  0.994721  0.841366  0.624255  1
