# generated using pymatgen
data_Sm3Sc4U(CrB6)4
_symmetry_space_group_name_H-M   'P 1'
_cell_length_a   3.50193700
_cell_length_b   9.02907515
_cell_length_c   11.42932719
_cell_angle_alpha   90.02103417
_cell_angle_beta   90.00000000
_cell_angle_gamma   90.00000000
_symmetry_Int_Tables_number   1
_chemical_formula_structural   Sm3Sc4U(CrB6)4
_chemical_formula_sum   'Sm3 Sc4 U1 Cr4 B24'
_cell_volume   361.38675635
_cell_formula_units_Z   1
loop_
 _symmetry_equiv_pos_site_id
 _symmetry_equiv_pos_as_xyz
  1  'x, y, z'
loop_
 _atom_site_type_symbol
 _atom_site_label
 _atom_site_symmetry_multiplicity
 _atom_site_fract_x
 _atom_site_fract_y
 _atom_site_fract_z
 _atom_site_occupancy
  Sm  Sm0  1  0.000000  0.822405  0.085568  1
  Sm  Sm1  1  0.000000  0.177501  0.914247  1
  Sm  Sm2  1  0.000000  0.320448  0.414546  1
  Sc  Sc3  1  0.000000  0.443627  0.131377  1
  Sc  Sc4  1  0.000000  0.556286  0.869831  1
  Sc  Sc5  1  0.000000  0.944362  0.370639  1
  Sc  Sc6  1  0.000000  0.056585  0.629014  1
  U  U7  1  0.000000  0.677312  0.584965  1
  Cr  Cr8  1  0.000000  0.141532  0.183034  1
  Cr  Cr9  1  0.000000  0.854868  0.813545  1
  Cr  Cr10  1  0.000000  0.641516  0.322053  1
  Cr  Cr11  1  0.000000  0.362851  0.681002  1
  B  B12  1  0.500000  0.055424  0.069120  1
  B  B13  1  0.500000  0.943482  0.929500  1
  B  B14  1  0.500000  0.557275  0.433216  1
  B  B15  1  0.500000  0.447873  0.569617  1
  B  B16  1  0.500000  0.253652  0.083739  1
  B  B17  1  0.500000  0.746527  0.915611  1
  B  B18  1  0.500000  0.752633  0.419103  1
  B  B19  1  0.500000  0.247546  0.584268  1
  B  B20  1  0.500000  0.294259  0.234530  1
  B  B21  1  0.500000  0.705175  0.763114  1
  B  B22  1  0.500000  0.793780  0.266579  1
  B  B23  1  0.500000  0.206537  0.733980  1
  B  B24  1  0.500000  0.128674  0.315711  1
  B  B25  1  0.500000  0.868408  0.681901  1
  B  B26  1  0.500000  0.628882  0.185073  1
  B  B27  1  0.500000  0.371795  0.815576  1
  B  B28  1  0.500000  0.483596  0.285885  1
  B  B29  1  0.500000  0.518837  0.712981  1
  B  B30  1  0.500000  0.982913  0.214954  1
  B  B31  1  0.500000  0.015936  0.784423  1
  B  B32  1  0.500000  0.096369  0.473996  1
  B  B33  1  0.500000  0.900725  0.526759  1
  B  B34  1  0.500000  0.595322  0.026093  1
  B  B35  1  0.500000  0.405087  0.974451  1
