# generated using pymatgen
data_CeZrTcOs3
_symmetry_space_group_name_H-M   'P 1'
_cell_length_a   5.25572743
_cell_length_b   5.35552501
_cell_length_c   8.86535925
_cell_angle_alpha   89.99999946
_cell_angle_beta   90.26951878
_cell_angle_gamma   120.63013561
_symmetry_Int_Tables_number   1
_chemical_formula_structural   CeZrTcOs3
_chemical_formula_sum   'Ce2 Zr2 Tc2 Os6'
_cell_volume   214.71509284
_cell_formula_units_Z   2
loop_
 _symmetry_equiv_pos_site_id
 _symmetry_equiv_pos_as_xyz
  1  'x, y, z'
loop_
 _atom_site_type_symbol
 _atom_site_label
 _atom_site_symmetry_multiplicity
 _atom_site_fract_x
 _atom_site_fract_y
 _atom_site_fract_z
 _atom_site_occupancy
  Ce  Ce0  1  0.333606  0.666804  0.440317  1
  Ce  Ce1  1  0.666743  0.333371  0.558554  1
  Zr  Zr2  1  0.664556  0.332277  0.933198  1
  Zr  Zr3  1  0.334603  0.667302  0.069791  1
  Tc  Tc4  1  0.997747  0.998874  0.000084  1
  Tc  Tc5  1  0.658868  0.829434  0.759640  1
  Os  Os6  1  0.002746  0.001373  0.498969  1
  Os  Os7  1  0.829267  0.170048  0.240870  1
  Os  Os8  1  0.829267  0.659219  0.240870  1
  Os  Os9  1  0.341641  0.170821  0.239391  1
  Os  Os10  1  0.170478  0.828746  0.759160  1
  Os  Os11  1  0.170478  0.341732  0.759160  1
