# generated using pymatgen
data_EuSb12(IrRu)2
_symmetry_space_group_name_H-M   'P 1'
_cell_length_a   8.14718603
_cell_length_b   8.14718633
_cell_length_c   8.13382599
_cell_angle_alpha   109.47056108
_cell_angle_beta   109.46160456
_cell_angle_gamma   109.54793738
_symmetry_Int_Tables_number   1
_chemical_formula_structural   EuSb12(IrRu)2
_chemical_formula_sum   'Eu1 Sb12 Ir2 Ru2'
_cell_volume   415.27082775
_cell_formula_units_Z   1
loop_
 _symmetry_equiv_pos_site_id
 _symmetry_equiv_pos_as_xyz
  1  'x, y, z'
loop_
 _atom_site_type_symbol
 _atom_site_label
 _atom_site_symmetry_multiplicity
 _atom_site_fract_x
 _atom_site_fract_y
 _atom_site_fract_z
 _atom_site_occupancy
  Eu  Eu0  1  0.000000  0.000000  0.000000  1
  Sb  Sb1  1  0.661537  0.841999  0.503536  1
  Sb  Sb2  1  0.338463  0.158001  0.496464  1
  Sb  Sb3  1  0.845863  0.183876  0.342590  1
  Sb  Sb4  1  0.816140  0.661557  0.158208  1
  Sb  Sb5  1  0.841287  0.503274  0.657410  1
  Sb  Sb6  1  0.183860  0.338443  0.841792  1
  Sb  Sb7  1  0.154137  0.816124  0.657410  1
  Sb  Sb8  1  0.503348  0.657932  0.841792  1
  Sb  Sb9  1  0.496652  0.342068  0.158208  1
  Sb  Sb10  1  0.158713  0.496726  0.342590  1
  Sb  Sb11  1  0.341920  0.845188  0.187108  1
  Sb  Sb12  1  0.658080  0.154812  0.812892  1
  Ir  Ir13  1  0.500000  0.000000  0.000000  1
  Ir  Ir14  1  0.000000  0.500000  0.000000  1
  Ru  Ru15  1  0.500000  0.500000  0.500000  1
  Ru  Ru16  1  0.000000  0.000000  0.500000  1
