# generated using pymatgen
data_Tm16MgAl3Pt4
_symmetry_space_group_name_H-M   'P 1'
_cell_length_a   9.55806642
_cell_length_b   9.48285723
_cell_length_c   9.48285500
_cell_angle_alpha   60.00137989
_cell_angle_beta   60.26175530
_cell_angle_gamma   60.26174145
_symmetry_Int_Tables_number   1
_chemical_formula_structural   Tm16MgAl3Pt4
_chemical_formula_sum   'Tm16 Mg1 Al3 Pt4'
_cell_volume   610.16158414
_cell_formula_units_Z   1
loop_
 _symmetry_equiv_pos_site_id
 _symmetry_equiv_pos_as_xyz
  1  'x, y, z'
loop_
 _atom_site_type_symbol
 _atom_site_label
 _atom_site_symmetry_multiplicity
 _atom_site_fract_x
 _atom_site_fract_y
 _atom_site_fract_z
 _atom_site_occupancy
  Tm  Tm0  1  0.354491  0.352664  0.352663  1
  Tm  Tm1  1  0.354489  0.352665  0.940183  1
  Tm  Tm2  1  0.354489  0.940183  0.352665  1
  Tm  Tm3  1  0.937439  0.354188  0.354188  1
  Tm  Tm4  1  0.806558  0.193024  0.193025  1
  Tm  Tm5  1  0.190895  0.810364  0.810364  1
  Tm  Tm6  1  0.190894  0.810370  0.188371  1
  Tm  Tm7  1  0.806558  0.193024  0.807388  1
  Tm  Tm8  1  0.190893  0.188370  0.810371  1
  Tm  Tm9  1  0.806559  0.807388  0.193024  1
  Tm  Tm10  1  0.930789  0.565254  0.565254  1
  Tm  Tm11  1  0.565648  0.935011  0.935011  1
  Tm  Tm12  1  0.565645  0.935011  0.564330  1
  Tm  Tm13  1  0.930789  0.565251  0.938701  1
  Tm  Tm14  1  0.565644  0.564330  0.935011  1
  Tm  Tm15  1  0.930789  0.938702  0.565252  1
  Mg  Mg16  1  0.267394  0.577535  0.577535  1
  Al  Al17  1  0.583579  0.577790  0.577790  1
  Al  Al18  1  0.583586  0.577798  0.260831  1
  Al  Al19  1  0.583586  0.260831  0.577798  1
  Pt  Pt20  1  0.142900  0.143844  0.143843  1
  Pt  Pt21  1  0.142900  0.143846  0.569419  1
  Pt  Pt22  1  0.142901  0.569419  0.143846  1
  Pt  Pt23  1  0.570588  0.143142  0.143141  1
