# generated using pymatgen
data_Pr2Th2TlInPd4
_symmetry_space_group_name_H-M   'P 1'
_cell_length_a   8.04072200
_cell_length_b   8.02248700
_cell_length_c   3.82280800
_cell_angle_alpha   90.00000000
_cell_angle_beta   90.00000000
_cell_angle_gamma   90.00086318
_symmetry_Int_Tables_number   1
_chemical_formula_structural   Pr2Th2TlInPd4
_chemical_formula_sum   'Pr2 Th2 Tl1 In1 Pd4'
_cell_volume   246.59629956
_cell_formula_units_Z   1
loop_
 _symmetry_equiv_pos_site_id
 _symmetry_equiv_pos_as_xyz
  1  'x, y, z'
loop_
 _atom_site_type_symbol
 _atom_site_label
 _atom_site_symmetry_multiplicity
 _atom_site_fract_x
 _atom_site_fract_y
 _atom_site_fract_z
 _atom_site_occupancy
  Pr  Pr0  1  0.177399  0.324262  0.500000  1
  Pr  Pr1  1  0.674504  0.178586  0.500000  1
  Th  Th2  1  0.326514  0.826312  0.500000  1
  Th  Th3  1  0.823130  0.670754  0.500000  1
  Tl  Tl4  1  0.996451  0.002708  0.000000  1
  In  In5  1  0.497215  0.498396  0.000000  1
  Pd  Pd6  1  0.376992  0.113049  0.000000  1
  Pd  Pd7  1  0.871688  0.391771  0.000000  1
  Pd  Pd8  1  0.130908  0.635852  0.000000  1
  Pd  Pd9  1  0.625198  0.858310  0.000000  1
