# generated using pymatgen
data_Tb15Yb2(YIr4)3
_symmetry_space_group_name_H-M   'P 1'
_cell_length_a   6.38366906
_cell_length_b   10.93105018
_cell_length_c   10.93332910
_cell_angle_alpha   89.98507328
_cell_angle_beta   89.99515459
_cell_angle_gamma   89.98526651
_symmetry_Int_Tables_number   1
_chemical_formula_structural   Tb15Yb2(YIr4)3
_chemical_formula_sum   'Tb15 Yb2 Y3 Ir12'
_cell_volume   762.92991228
_cell_formula_units_Z   1
loop_
 _symmetry_equiv_pos_site_id
 _symmetry_equiv_pos_as_xyz
  1  'x, y, z'
loop_
 _atom_site_type_symbol
 _atom_site_label
 _atom_site_symmetry_multiplicity
 _atom_site_fract_x
 _atom_site_fract_y
 _atom_site_fract_z
 _atom_site_occupancy
  Tb  Tb0  1  0.382241  0.839418  0.541293  1
  Tb  Tb1  1  0.882230  0.660597  0.541323  1
  Tb  Tb2  1  0.882250  0.839430  0.958698  1
  Tb  Tb3  1  0.382302  0.660627  0.958747  1
  Tb  Tb4  1  0.883699  0.540165  0.837990  1
  Tb  Tb5  1  0.383718  0.959838  0.838027  1
  Tb  Tb6  1  0.383711  0.540146  0.661989  1
  Tb  Tb7  1  0.883738  0.959828  0.662000  1
  Tb  Tb8  1  0.616363  0.162058  0.459620  1
  Tb  Tb9  1  0.116383  0.337917  0.459700  1
  Tb  Tb10  1  0.116400  0.161971  0.040300  1
  Tb  Tb11  1  0.616448  0.337896  0.040318  1
  Tb  Tb12  1  0.117734  0.458628  0.160650  1
  Tb  Tb13  1  0.500023  0.750027  0.249992  1
  Tb  Tb14  1  0.999916  0.750070  0.250014  1
  Yb  Yb15  1  0.000006  0.249981  0.749990  1
  Yb  Yb16  1  0.500020  0.250008  0.750009  1
  Y  Y17  1  0.617833  0.041366  0.160722  1
  Y  Y18  1  0.617946  0.458646  0.339373  1
  Y  Y19  1  0.117846  0.041305  0.339326  1
  Ir  Ir20  1  0.249763  0.903140  0.096637  1
  Ir  Ir21  1  0.750009  0.596726  0.096676  1
  Ir  Ir22  1  0.749771  0.903120  0.403330  1
  Ir  Ir23  1  0.249780  0.596781  0.403329  1
  Ir  Ir24  1  0.750045  0.092356  0.907498  1
  Ir  Ir25  1  0.249947  0.407653  0.907618  1
  Ir  Ir26  1  0.250059  0.092358  0.592496  1
  Ir  Ir27  1  0.750072  0.407649  0.592495  1
  Ir  Ir28  1  0.125665  0.749999  0.749980  1
  Ir  Ir29  1  0.625690  0.749997  0.750003  1
  Ir  Ir30  1  0.874382  0.250147  0.249908  1
  Ir  Ir31  1  0.374010  0.250156  0.249954  1
