# generated using pymatgen
data_Sr2Li4Dy2Si7Ge
_symmetry_space_group_name_H-M   'P 1'
_cell_length_a   3.84627800
_cell_length_b   7.93305622
_cell_length_c   10.65225306
_cell_angle_alpha   89.44145622
_cell_angle_beta   90.00000000
_cell_angle_gamma   90.00000000
_symmetry_Int_Tables_number   1
_chemical_formula_structural   Sr2Li4Dy2Si7Ge
_chemical_formula_sum   'Sr2 Li4 Dy2 Si7 Ge1'
_cell_volume   325.01397983
_cell_formula_units_Z   1
loop_
 _symmetry_equiv_pos_site_id
 _symmetry_equiv_pos_as_xyz
  1  'x, y, z'
loop_
 _atom_site_type_symbol
 _atom_site_label
 _atom_site_symmetry_multiplicity
 _atom_site_fract_x
 _atom_site_fract_y
 _atom_site_fract_z
 _atom_site_occupancy
  Sr  Sr0  1  0.250000  0.639775  0.635293  1
  Sr  Sr1  1  0.750000  0.359475  0.365381  1
  Li  Li2  1  0.250000  0.000887  0.389025  1
  Li  Li3  1  0.750000  0.998148  0.612313  1
  Li  Li4  1  0.250000  0.494032  0.109426  1
  Li  Li5  1  0.750000  0.510883  0.889502  1
  Dy  Dy6  1  0.250000  0.124404  0.865380  1
  Dy  Dy7  1  0.750000  0.872501  0.133125  1
  Si  Si8  1  0.250000  0.741118  0.941018  1
  Si  Si9  1  0.750000  0.781859  0.418719  1
  Si  Si10  1  0.250000  0.217718  0.581499  1
  Si  Si11  1  0.750000  0.844710  0.832835  1
  Si  Si12  1  0.250000  0.151411  0.169662  1
  Si  Si13  1  0.750000  0.320876  0.688995  1
  Si  Si14  1  0.250000  0.678011  0.311776  1
  Ge  Ge15  1  0.750000  0.264192  0.056050  1
