# generated using pymatgen
data_DyY4Ho3Au4
_symmetry_space_group_name_H-M   'P 1'
_cell_length_a   4.94324900
_cell_length_b   7.13554302
_cell_length_c   8.95795900
_cell_angle_alpha   90.04385631
_cell_angle_beta   90.00000000
_cell_angle_gamma   90.00000000
_symmetry_Int_Tables_number   1
_chemical_formula_structural   DyY4Ho3Au4
_chemical_formula_sum   'Dy1 Y4 Ho3 Au4'
_cell_volume   315.97189826
_cell_formula_units_Z   1
loop_
 _symmetry_equiv_pos_site_id
 _symmetry_equiv_pos_as_xyz
  1  'x, y, z'
loop_
 _atom_site_type_symbol
 _atom_site_label
 _atom_site_symmetry_multiplicity
 _atom_site_fract_x
 _atom_site_fract_y
 _atom_site_fract_z
 _atom_site_occupancy
  Dy  Dy0  1  0.750000  0.648396  0.419433  1
  Y  Y1  1  0.250000  0.486532  0.176748  1
  Y  Y2  1  0.750000  0.513297  0.823300  1
  Y  Y3  1  0.250000  0.987034  0.323193  1
  Y  Y4  1  0.750000  0.013525  0.676933  1
  Ho  Ho5  1  0.250000  0.351652  0.580640  1
  Ho  Ho6  1  0.750000  0.148392  0.080233  1
  Ho  Ho7  1  0.250000  0.851692  0.919667  1
  Au  Au8  1  0.250000  0.256049  0.900517  1
  Au  Au9  1  0.750000  0.744010  0.098841  1
  Au  Au10  1  0.250000  0.756342  0.600000  1
  Au  Au11  1  0.750000  0.243078  0.400494  1
