# generated using pymatgen
data_Sr8Be3CuSi12
_symmetry_space_group_name_H-M   'P 1'
_cell_length_a   8.12535000
_cell_length_b   8.12535042
_cell_length_c   9.42075100
_cell_angle_alpha   90.00000000
_cell_angle_beta   90.00000000
_cell_angle_gamma   119.99999829
_symmetry_Int_Tables_number   1
_chemical_formula_structural   Sr8Be3CuSi12
_chemical_formula_sum   'Sr8 Be3 Cu1 Si12'
_cell_volume   538.64215798
_cell_formula_units_Z   1
loop_
 _symmetry_equiv_pos_site_id
 _symmetry_equiv_pos_as_xyz
  1  'x, y, z'
loop_
 _atom_site_type_symbol
 _atom_site_label
 _atom_site_symmetry_multiplicity
 _atom_site_fract_x
 _atom_site_fract_y
 _atom_site_fract_z
 _atom_site_occupancy
  Sr  Sr0  1  0.500028  0.499972  0.748954  1
  Sr  Sr1  1  0.500189  0.499811  0.251041  1
  Sr  Sr2  1  0.999944  0.499972  0.748954  1
  Sr  Sr3  1  0.999624  0.499811  0.251041  1
  Sr  Sr4  1  0.500028  0.000056  0.748954  1
  Sr  Sr5  1  0.500189  0.000376  0.251041  1
  Sr  Sr6  1  0.000000  0.000000  0.751132  1
  Sr  Sr7  1  0.000000  0.000000  0.248886  1
  Be  Be8  1  0.666667  0.333333  0.999376  1
  Be  Be9  1  0.333333  0.666667  0.000716  1
  Be  Be10  1  0.333333  0.666667  0.499585  1
  Cu  Cu11  1  0.666667  0.333333  0.500070  1
  Si  Si12  1  0.827588  0.172412  0.000058  1
  Si  Si13  1  0.172289  0.827711  0.000058  1
  Si  Si14  1  0.344823  0.172412  0.000058  1
  Si  Si15  1  0.170448  0.829552  0.499925  1
  Si  Si16  1  0.655424  0.827711  0.000058  1
  Si  Si17  1  0.830523  0.169477  0.500043  1
  Si  Si18  1  0.827588  0.655177  0.000058  1
  Si  Si19  1  0.659103  0.829552  0.499925  1
  Si  Si20  1  0.172289  0.344576  0.000058  1
  Si  Si21  1  0.338954  0.169477  0.500043  1
  Si  Si22  1  0.170448  0.340897  0.499925  1
  Si  Si23  1  0.830523  0.661046  0.500043  1
