# generated using pymatgen
data_NaY2(ZnPt2)3
_symmetry_space_group_name_H-M   'P 1'
_cell_length_a   8.85814874
_cell_length_b   8.85814970
_cell_length_c   8.85814900
_cell_angle_alpha   35.57083646
_cell_angle_beta   35.57082784
_cell_angle_gamma   35.57083578
_symmetry_Int_Tables_number   1
_chemical_formula_structural   NaY2(ZnPt2)3
_chemical_formula_sum   'Na1 Y2 Zn3 Pt6'
_cell_volume   210.21350869
_cell_formula_units_Z   1
loop_
 _symmetry_equiv_pos_site_id
 _symmetry_equiv_pos_as_xyz
  1  'x, y, z'
loop_
 _atom_site_type_symbol
 _atom_site_label
 _atom_site_symmetry_multiplicity
 _atom_site_fract_x
 _atom_site_fract_y
 _atom_site_fract_z
 _atom_site_occupancy
  Na  Na0  1  0.000000  0.000000  0.000000  1
  Y  Y1  1  0.864921  0.864921  0.864921  1
  Y  Y2  1  0.135079  0.135079  0.135079  1
  Zn  Zn3  1  0.666057  0.666057  0.666057  1
  Zn  Zn4  1  0.333943  0.333943  0.333943  1
  Zn  Zn5  1  0.500000  0.500000  0.500000  1
  Pt  Pt6  1  0.412915  0.919032  0.412915  1
  Pt  Pt7  1  0.412915  0.412915  0.919032  1
  Pt  Pt8  1  0.919032  0.412915  0.412915  1
  Pt  Pt9  1  0.587085  0.080968  0.587085  1
  Pt  Pt10  1  0.587085  0.587085  0.080968  1
  Pt  Pt11  1  0.080968  0.587085  0.587085  1
