# generated using pymatgen
data_Zr2Mn3Ni9P7
_symmetry_space_group_name_H-M   'P 1'
_cell_length_a   9.06201600
_cell_length_b   9.06201594
_cell_length_c   3.60044100
_cell_angle_alpha   90.00000000
_cell_angle_beta   90.00000000
_cell_angle_gamma   120.00000021
_symmetry_Int_Tables_number   1
_chemical_formula_structural   Zr2Mn3Ni9P7
_chemical_formula_sum   'Zr2 Mn3 Ni9 P7'
_cell_volume   256.05660085
_cell_formula_units_Z   1
loop_
 _symmetry_equiv_pos_site_id
 _symmetry_equiv_pos_as_xyz
  1  'x, y, z'
loop_
 _atom_site_type_symbol
 _atom_site_label
 _atom_site_symmetry_multiplicity
 _atom_site_fract_x
 _atom_site_fract_y
 _atom_site_fract_z
 _atom_site_occupancy
  Zr  Zr0  1  0.000000  0.000000  0.000000  1
  Zr  Zr1  1  0.666667  0.333333  0.500000  1
  Mn  Mn2  1  0.429521  0.538762  0.500000  1
  Mn  Mn3  1  0.109241  0.570479  0.500000  1
  Mn  Mn4  1  0.461238  0.890759  0.500000  1
  Ni  Ni5  1  0.393114  0.292337  0.000000  1
  Ni  Ni6  1  0.899223  0.606886  0.000000  1
  Ni  Ni7  1  0.707663  0.100777  0.000000  1
  Ni  Ni8  1  0.613358  0.787036  0.000000  1
  Ni  Ni9  1  0.173679  0.386642  0.000000  1
  Ni  Ni10  1  0.212964  0.826321  0.000000  1
  Ni  Ni11  1  0.771926  0.716718  0.500000  1
  Ni  Ni12  1  0.944791  0.228074  0.500000  1
  Ni  Ni13  1  0.283282  0.055209  0.500000  1
  P  P14  1  0.626453  0.546013  0.000000  1
  P  P15  1  0.919560  0.373547  0.000000  1
  P  P16  1  0.453987  0.080440  0.000000  1
  P  P17  1  0.744420  0.955771  0.500000  1
  P  P18  1  0.211351  0.255580  0.500000  1
  P  P19  1  0.044229  0.788649  0.500000  1
  P  P20  1  0.333333  0.666667  0.000000  1
