# generated using pymatgen
data_DyYTm8(CoSb2)2
_symmetry_space_group_name_H-M   'P 1'
_cell_length_a   7.78165400
_cell_length_b   8.72079400
_cell_length_c   12.08274300
_cell_angle_alpha   90.00000000
_cell_angle_beta   90.00000000
_cell_angle_gamma   90.00000000
_symmetry_Int_Tables_number   1
_chemical_formula_structural   DyYTm8(CoSb2)2
_chemical_formula_sum   'Dy2 Y2 Tm16 Co4 Sb8'
_cell_volume   819.96154030
_cell_formula_units_Z   2
loop_
 _symmetry_equiv_pos_site_id
 _symmetry_equiv_pos_as_xyz
  1  'x, y, z'
loop_
 _atom_site_type_symbol
 _atom_site_label
 _atom_site_symmetry_multiplicity
 _atom_site_fract_x
 _atom_site_fract_y
 _atom_site_fract_z
 _atom_site_occupancy
  Dy  Dy0  1  0.377959  0.250000  0.692831  1
  Dy  Dy1  1  0.122041  0.250000  0.192831  1
  Y  Y2  1  0.622764  0.750000  0.306427  1
  Y  Y3  1  0.877236  0.750000  0.806427  1
  Tm  Tm4  1  0.154868  0.750000  0.203442  1
  Tm  Tm5  1  0.345132  0.750000  0.703442  1
  Tm  Tm6  1  0.844849  0.250000  0.796510  1
  Tm  Tm7  1  0.655151  0.250000  0.296510  1
  Tm  Tm8  1  0.450065  0.750000  0.997956  1
  Tm  Tm9  1  0.049935  0.750000  0.497956  1
  Tm  Tm10  1  0.550198  0.250000  0.002023  1
  Tm  Tm11  1  0.949802  0.250000  0.502023  1
  Tm  Tm12  1  0.823384  0.536146  0.065490  1
  Tm  Tm13  1  0.676616  0.963854  0.565490  1
  Tm  Tm14  1  0.176975  0.036459  0.934570  1
  Tm  Tm15  1  0.323025  0.463541  0.434570  1
  Tm  Tm16  1  0.176975  0.463541  0.934570  1
  Tm  Tm17  1  0.323025  0.036459  0.434570  1
  Tm  Tm18  1  0.823384  0.963854  0.065490  1
  Tm  Tm19  1  0.676616  0.536146  0.565490  1
  Co  Co20  1  0.432159  0.750000  0.492277  1
  Co  Co21  1  0.067841  0.750000  0.992277  1
  Co  Co22  1  0.566902  0.250000  0.508553  1
  Co  Co23  1  0.933098  0.250000  0.008553  1
  Sb  Sb24  1  0.930394  0.508404  0.328120  1
  Sb  Sb25  1  0.569606  0.991596  0.828120  1
  Sb  Sb26  1  0.069562  0.008661  0.671810  1
  Sb  Sb27  1  0.430438  0.491339  0.171810  1
  Sb  Sb28  1  0.069562  0.491339  0.671810  1
  Sb  Sb29  1  0.430438  0.008661  0.171810  1
  Sb  Sb30  1  0.930394  0.991596  0.328120  1
  Sb  Sb31  1  0.569606  0.508404  0.828120  1
