# generated using pymatgen
data_Er5Cu2Sb
_symmetry_space_group_name_H-M   'P 1'
_cell_length_a   8.45104564
_cell_length_b   8.45104543
_cell_length_c   8.45104563
_cell_angle_alpha   124.66913705
_cell_angle_beta   124.66913058
_cell_angle_gamma   82.08677812
_symmetry_Int_Tables_number   1
_chemical_formula_structural   Er5Cu2Sb
_chemical_formula_sum   'Er10 Cu4 Sb2'
_cell_volume   392.55184752
_cell_formula_units_Z   2
loop_
 _symmetry_equiv_pos_site_id
 _symmetry_equiv_pos_as_xyz
  1  'x, y, z'
loop_
 _atom_site_type_symbol
 _atom_site_label
 _atom_site_symmetry_multiplicity
 _atom_site_fract_x
 _atom_site_fract_y
 _atom_site_fract_z
 _atom_site_occupancy
  Er  Er0  1  0.000000  0.000000  0.000000  1
  Er  Er1  1  0.500000  0.500000  0.000000  1
  Er  Er2  1  0.795673  0.295673  0.808723  1
  Er  Er3  1  0.204327  0.704327  0.191277  1
  Er  Er4  1  0.486949  0.986949  0.191277  1
  Er  Er5  1  0.295673  0.486949  0.500000  1
  Er  Er6  1  0.013051  0.204327  0.500000  1
  Er  Er7  1  0.513051  0.013051  0.808723  1
  Er  Er8  1  0.704327  0.513051  0.500000  1
  Er  Er9  1  0.986949  0.795673  0.500000  1
  Cu  Cu10  1  0.131456  0.631456  0.762912  1
  Cu  Cu11  1  0.868544  0.368544  0.237088  1
  Cu  Cu12  1  0.631456  0.868544  0.500000  1
  Cu  Cu13  1  0.368544  0.131456  0.500000  1
  Sb  Sb14  1  0.250000  0.250000  0.000000  1
  Sb  Sb15  1  0.750000  0.750000  0.000000  1
