# generated using pymatgen
data_Pr4NdSnBi2Br
_symmetry_space_group_name_H-M   'P 1'
_cell_length_a   9.74549434
_cell_length_b   9.65641184
_cell_length_c   6.77538723
_cell_angle_alpha   89.98479245
_cell_angle_beta   90.03013709
_cell_angle_gamma   120.30563296
_symmetry_Int_Tables_number   1
_chemical_formula_structural   Pr4NdSnBi2Br
_chemical_formula_sum   'Pr8 Nd2 Sn2 Bi4 Br2'
_cell_volume   550.47622685
_cell_formula_units_Z   2
loop_
 _symmetry_equiv_pos_site_id
 _symmetry_equiv_pos_as_xyz
  1  'x, y, z'
loop_
 _atom_site_type_symbol
 _atom_site_label
 _atom_site_symmetry_multiplicity
 _atom_site_fract_x
 _atom_site_fract_y
 _atom_site_fract_z
 _atom_site_occupancy
  Pr  Pr0  1  0.275106  0.000000  0.749487  1
  Pr  Pr1  1  0.724894  0.000000  0.250513  1
  Pr  Pr2  1  0.995435  0.267177  0.749576  1
  Pr  Pr3  1  0.004565  0.732823  0.250424  1
  Pr  Pr4  1  0.728257  0.732823  0.749576  1
  Pr  Pr5  1  0.271743  0.267177  0.250424  1
  Pr  Pr6  1  0.664392  0.328783  0.000000  1
  Pr  Pr7  1  0.335608  0.671217  0.000000  1
  Nd  Nd8  1  0.335670  0.671340  0.500000  1
  Nd  Nd9  1  0.664330  0.328660  0.500000  1
  Sn  Sn10  1  0.613447  0.000000  0.748795  1
  Sn  Sn11  1  0.386553  0.000000  0.251205  1
  Bi  Bi12  1  0.998920  0.615059  0.748880  1
  Bi  Bi13  1  0.001080  0.384941  0.251120  1
  Bi  Bi14  1  0.383861  0.384941  0.748880  1
  Bi  Bi15  1  0.616139  0.615059  0.251120  1
  Br  Br16  1  0.000000  0.000000  0.500000  1
  Br  Br17  1  0.000000  0.000000  0.000000  1
