# generated using pymatgen
data_Ca8ZnIn4Hg3
_symmetry_space_group_name_H-M   'P 1'
_cell_length_a   7.79255103
_cell_length_b   7.78562500
_cell_length_c   7.53886500
_cell_angle_alpha   90.00011775
_cell_angle_beta   90.00513949
_cell_angle_gamma   90.00007358
_symmetry_Int_Tables_number   1
_chemical_formula_structural   Ca8ZnIn4Hg3
_chemical_formula_sum   'Ca8 Zn1 In4 Hg3'
_cell_volume   457.38203398
_cell_formula_units_Z   1
loop_
 _symmetry_equiv_pos_site_id
 _symmetry_equiv_pos_as_xyz
  1  'x, y, z'
loop_
 _atom_site_type_symbol
 _atom_site_label
 _atom_site_symmetry_multiplicity
 _atom_site_fract_x
 _atom_site_fract_y
 _atom_site_fract_z
 _atom_site_occupancy
  Ca  Ca0  1  0.498655  0.500335  0.247929  1
  Ca  Ca1  1  0.499429  0.999390  0.248250  1
  Ca  Ca2  1  0.001082  0.500486  0.252921  1
  Ca  Ca3  1  0.000764  0.999305  0.252822  1
  Ca  Ca4  1  0.000927  0.999332  0.747098  1
  Ca  Ca5  1  0.000677  0.501212  0.747154  1
  Ca  Ca6  1  0.499290  0.501048  0.752086  1
  Ca  Ca7  1  0.499416  0.999095  0.751832  1
  Zn  Zn8  1  0.256117  0.750329  0.500213  1
  In  In9  1  0.752835  0.749864  0.999975  1
  In  In10  1  0.746115  0.749865  0.499668  1
  In  In11  1  0.253152  0.250538  0.499683  1
  In  In12  1  0.247079  0.249887  0.000519  1
  Hg  Hg13  1  0.755538  0.249840  0.999963  1
  Hg  Hg14  1  0.244727  0.749771  0.999995  1
  Hg  Hg15  1  0.744197  0.249706  0.499892  1
