# generated using pymatgen
data_La6Th2Cd2IrRu
_symmetry_space_group_name_H-M   'P 1'
_cell_length_a   10.08717998
_cell_length_b   10.08718034
_cell_length_c   10.09731200
_cell_angle_alpha   59.96676884
_cell_angle_beta   59.96676764
_cell_angle_gamma   60.00190408
_symmetry_Int_Tables_number   1
_chemical_formula_structural   La6Th2Cd2IrRu
_chemical_formula_sum   'La12 Th4 Cd4 Ir2 Ru2'
_cell_volume   726.13646721
_cell_formula_units_Z   2
loop_
 _symmetry_equiv_pos_site_id
 _symmetry_equiv_pos_as_xyz
  1  'x, y, z'
loop_
 _atom_site_type_symbol
 _atom_site_label
 _atom_site_symmetry_multiplicity
 _atom_site_fract_x
 _atom_site_fract_y
 _atom_site_fract_z
 _atom_site_occupancy
  La  La0  1  0.059302  0.442123  0.442388  1
  La  La1  1  0.442123  0.059302  0.056188  1
  La  La2  1  0.442123  0.059302  0.442388  1
  La  La3  1  0.059302  0.442123  0.056188  1
  La  La4  1  0.441548  0.441548  0.058452  1
  La  La5  1  0.056548  0.056548  0.443452  1
  La  La6  1  0.189641  0.809547  0.811115  1
  La  La7  1  0.809547  0.189641  0.189697  1
  La  La8  1  0.809547  0.189641  0.811115  1
  La  La9  1  0.189641  0.809547  0.189697  1
  La  La10  1  0.810192  0.810192  0.189808  1
  La  La11  1  0.189387  0.189387  0.810613  1
  Th  Th12  1  0.593225  0.593225  0.597481  1
  Th  Th13  1  0.593225  0.593225  0.216069  1
  Th  Th14  1  0.591772  0.217801  0.595213  1
  Th  Th15  1  0.217801  0.591772  0.595213  1
  Cd  Cd16  1  0.828950  0.828950  0.828802  1
  Cd  Cd17  1  0.828950  0.828950  0.513298  1
  Cd  Cd18  1  0.829167  0.512754  0.829039  1
  Cd  Cd19  1  0.512754  0.829167  0.829039  1
  Ir  Ir20  1  0.396654  0.815392  0.393977  1
  Ir  Ir21  1  0.815392  0.396654  0.393977  1
  Ru  Ru22  1  0.396605  0.396605  0.394306  1
  Ru  Ru23  1  0.396605  0.396605  0.812484  1
