# generated using pymatgen
data_Yb6YCo4Sn13
_symmetry_space_group_name_H-M   'P 1'
_cell_length_a   11.17400000
_cell_length_b   11.17400000
_cell_length_c   4.60429500
_cell_angle_alpha   90.00000000
_cell_angle_beta   90.00000000
_cell_angle_gamma   90.00000000
_symmetry_Int_Tables_number   1
_chemical_formula_structural   Yb6YCo4Sn13
_chemical_formula_sum   'Yb6 Y1 Co4 Sn13'
_cell_volume   574.88433590
_cell_formula_units_Z   1
loop_
 _symmetry_equiv_pos_site_id
 _symmetry_equiv_pos_as_xyz
  1  'x, y, z'
loop_
 _atom_site_type_symbol
 _atom_site_label
 _atom_site_symmetry_multiplicity
 _atom_site_fract_x
 _atom_site_fract_y
 _atom_site_fract_z
 _atom_site_occupancy
  Yb  Yb0  1  0.339969  0.670211  0.500000  1
  Yb  Yb1  1  0.660031  0.329789  0.500000  1
  Yb  Yb2  1  0.329789  0.339969  0.500000  1
  Yb  Yb3  1  0.670211  0.660031  0.500000  1
  Yb  Yb4  1  0.500000  0.000000  0.500000  1
  Yb  Yb5  1  0.000000  0.500000  0.500000  1
  Y  Y6  1  0.000000  0.000000  0.000000  1
  Co  Co7  1  0.118448  0.726391  0.000000  1
  Co  Co8  1  0.881552  0.273609  0.000000  1
  Co  Co9  1  0.273609  0.118448  0.000000  1
  Co  Co10  1  0.726391  0.881552  0.000000  1
  Sn  Sn11  1  0.284139  0.888284  0.000000  1
  Sn  Sn12  1  0.715861  0.111716  0.000000  1
  Sn  Sn13  1  0.111716  0.284139  0.000000  1
  Sn  Sn14  1  0.888284  0.715861  0.000000  1
  Sn  Sn15  1  0.078137  0.804051  0.500000  1
  Sn  Sn16  1  0.921863  0.195949  0.500000  1
  Sn  Sn17  1  0.195949  0.078137  0.500000  1
  Sn  Sn18  1  0.804051  0.921863  0.500000  1
  Sn  Sn19  1  0.522471  0.786474  0.000000  1
  Sn  Sn20  1  0.477529  0.213526  0.000000  1
  Sn  Sn21  1  0.213526  0.522471  0.000000  1
  Sn  Sn22  1  0.786474  0.477529  0.000000  1
  Sn  Sn23  1  0.500000  0.500000  0.000000  1
