# generated using pymatgen
data_La2Nd2PI5
_symmetry_space_group_name_H-M   'P 1'
_cell_length_a   10.05254549
_cell_length_b   10.05254606
_cell_length_c   9.20734805
_cell_angle_alpha   77.43698148
_cell_angle_beta   77.43697967
_cell_angle_gamma   24.33050773
_symmetry_Int_Tables_number   1
_chemical_formula_structural   La2Nd2PI5
_chemical_formula_sum   'La2 Nd2 P1 I5'
_cell_volume   373.72923593
_cell_formula_units_Z   1
loop_
 _symmetry_equiv_pos_site_id
 _symmetry_equiv_pos_as_xyz
  1  'x, y, z'
loop_
 _atom_site_type_symbol
 _atom_site_label
 _atom_site_symmetry_multiplicity
 _atom_site_fract_x
 _atom_site_fract_y
 _atom_site_fract_z
 _atom_site_occupancy
  La  La0  1  0.501304  0.501304  0.212973  1
  La  La1  1  0.498696  0.498696  0.787027  1
  Nd  Nd2  1  0.855133  0.855133  0.073558  1
  Nd  Nd3  1  0.144867  0.144867  0.926442  1
  P  P4  1  0.000000  0.000000  0.000000  1
  I  I5  1  0.673073  0.673073  0.171505  1
  I  I6  1  0.326927  0.326927  0.828495  1
  I  I7  1  0.666689  0.666689  0.660938  1
  I  I8  1  0.333311  0.333311  0.339062  1
  I  I9  1  0.000000  0.000000  0.500000  1
