# generated using pymatgen
data_Tb3Dy9Fe2I17
_symmetry_space_group_name_H-M   'P 1'
_cell_length_a   9.71569887
_cell_length_b   11.66482958
_cell_length_c   11.68861700
_cell_angle_alpha   93.48681270
_cell_angle_beta   104.79263144
_cell_angle_gamma   114.07511896
_symmetry_Int_Tables_number   1
_chemical_formula_structural   Tb3Dy9Fe2I17
_chemical_formula_sum   'Tb3 Dy9 Fe2 I17'
_cell_volume   1148.77232597
_cell_formula_units_Z   1
loop_
 _symmetry_equiv_pos_site_id
 _symmetry_equiv_pos_as_xyz
  1  'x, y, z'
loop_
 _atom_site_type_symbol
 _atom_site_label
 _atom_site_symmetry_multiplicity
 _atom_site_fract_x
 _atom_site_fract_y
 _atom_site_fract_z
 _atom_site_occupancy
  Tb  Tb0  1  0.053987  0.504781  0.320674  1
  Tb  Tb1  1  0.992164  0.808399  0.589165  1
  Tb  Tb2  1  0.656390  0.241265  0.280018  1
  Dy  Dy3  1  0.008150  0.190546  0.412396  1
  Dy  Dy4  1  0.217979  0.672018  0.980854  1
  Dy  Dy5  1  0.253747  0.976660  0.888365  1
  Dy  Dy6  1  0.345601  0.758182  0.719162  1
  Dy  Dy7  1  0.949299  0.498870  0.681269  1
  Dy  Dy8  1  0.745385  0.021522  0.110655  1
  Dy  Dy9  1  0.137523  0.285916  0.153924  1
  Dy  Dy10  1  0.780121  0.328368  0.016081  1
  Dy  Dy11  1  0.857767  0.713566  0.846835  1
  Fe  Fe12  1  0.103716  0.738054  0.785435  1
  Fe  Fe13  1  0.895377  0.262029  0.214495  1
  I  I14  1  0.783788  0.527950  0.417697  1
  I  I15  1  0.644806  0.419324  0.762481  1
  I  I16  1  0.843671  0.896067  0.326596  1
  I  I17  1  0.325925  0.213692  0.367960  1
  I  I18  1  0.156692  0.104741  0.673449  1
  I  I19  1  0.586039  0.053283  0.843024  1
  I  I20  1  0.760123  0.188859  0.539272  1
  I  I21  1  0.552320  0.711557  0.954772  1
  I  I22  1  0.355189  0.579112  0.236229  1
  I  I23  1  0.216400  0.470605  0.582907  1
  I  I24  1  0.055964  0.367472  0.897661  1
  I  I25  1  0.448371  0.288517  0.044799  1
  I  I26  1  0.001107  0.001282  0.000584  1
  I  I27  1  0.243707  0.812780  0.461712  1
  I  I28  1  0.414968  0.946735  0.156504  1
  I  I29  1  0.670745  0.785921  0.632202  1
  I  I30  1  0.942986  0.631927  0.102823  1
