# generated using pymatgen
data_YTh2In5
_symmetry_space_group_name_H-M   'P 1'
_cell_length_a   6.59218896
_cell_length_b   6.59218957
_cell_length_c   10.34416800
_cell_angle_alpha   90.00000000
_cell_angle_beta   90.00000000
_cell_angle_gamma   102.22887913
_symmetry_Int_Tables_number   1
_chemical_formula_structural   YTh2In5
_chemical_formula_sum   'Y2 Th4 In10'
_cell_volume   439.32600555
_cell_formula_units_Z   2
loop_
 _symmetry_equiv_pos_site_id
 _symmetry_equiv_pos_as_xyz
  1  'x, y, z'
loop_
 _atom_site_type_symbol
 _atom_site_label
 _atom_site_symmetry_multiplicity
 _atom_site_fract_x
 _atom_site_fract_y
 _atom_site_fract_z
 _atom_site_occupancy
  Y  Y0  1  0.130851  0.130851  0.750000  1
  Y  Y1  1  0.869149  0.869149  0.250000  1
  Th  Th2  1  0.705576  0.294424  0.000000  1
  Th  Th3  1  0.705576  0.294424  0.500000  1
  Th  Th4  1  0.294424  0.705576  0.000000  1
  Th  Th5  1  0.294424  0.705576  0.500000  1
  In  In6  1  0.510615  0.510615  0.750000  1
  In  In7  1  0.489385  0.489385  0.250000  1
  In  In8  1  0.811003  0.811003  0.546388  1
  In  In9  1  0.188997  0.188997  0.453612  1
  In  In10  1  0.811003  0.811003  0.953612  1
  In  In11  1  0.188997  0.188997  0.046388  1
  In  In12  1  0.992278  0.567726  0.750000  1
  In  In13  1  0.432274  0.007722  0.250000  1
  In  In14  1  0.007722  0.432274  0.250000  1
  In  In15  1  0.567726  0.992278  0.750000  1
