# generated using pymatgen
data_Gd(AlRh2)4
_symmetry_space_group_name_H-M   'P 1'
_cell_length_a   6.53931220
_cell_length_b   12.41990706
_cell_length_c   19.38336325
_cell_angle_alpha   88.57320036
_cell_angle_beta   89.20246610
_cell_angle_gamma   81.28263954
_symmetry_Int_Tables_number   1
_chemical_formula_structural   Gd(AlRh2)4
_chemical_formula_sum   'Gd1 Al4 Rh8'
_cell_volume   1555.52078977
_cell_formula_units_Z   1
loop_
 _symmetry_equiv_pos_site_id
 _symmetry_equiv_pos_as_xyz
  1  'x, y, z'
loop_
 _atom_site_type_symbol
 _atom_site_label
 _atom_site_symmetry_multiplicity
 _atom_site_fract_x
 _atom_site_fract_y
 _atom_site_fract_z
 _atom_site_occupancy
  Gd  Gd0  1  0.633866  0.264133  0.379483  1
  Al  Al1  1  0.281222  0.884734  0.603102  1
  Al  Al2  1  0.122919  0.807064  0.272917  1
  Al  Al3  1  0.454980  0.648391  0.384082  1
  Al  Al4  1  0.902761  0.460951  0.998096  1
  Rh  Rh5  1  0.193030  0.857184  0.439305  1
  Rh  Rh6  1  0.636736  0.806879  0.383971  1
  Rh  Rh7  1  0.748707  0.763405  0.810725  1
  Rh  Rh8  1  0.045400  0.573208  0.696312  1
  Rh  Rh9  1  0.109634  0.753674  0.660715  1
  Rh  Rh10  1  0.684094  0.778300  0.666969  1
  Rh  Rh11  1  0.301352  0.914673  0.715324  1
  Rh  Rh12  1  0.010478  0.555448  0.297268  1
