# generated using pymatgen
data_Er5(Hg2Pd)2
_symmetry_space_group_name_H-M   'P 1'
_cell_length_a   3.57737400
_cell_length_b   7.91715700
_cell_length_c   18.15084400
_cell_angle_alpha   90.00000000
_cell_angle_beta   90.00000000
_cell_angle_gamma   90.00000000
_symmetry_Int_Tables_number   1
_chemical_formula_structural   Er5(Hg2Pd)2
_chemical_formula_sum   'Er10 Hg8 Pd4'
_cell_volume   514.07966794
_cell_formula_units_Z   2
loop_
 _symmetry_equiv_pos_site_id
 _symmetry_equiv_pos_as_xyz
  1  'x, y, z'
loop_
 _atom_site_type_symbol
 _atom_site_label
 _atom_site_symmetry_multiplicity
 _atom_site_fract_x
 _atom_site_fract_y
 _atom_site_fract_z
 _atom_site_occupancy
  Er  Er0  1  0.000000  0.500000  0.500000  1
  Er  Er1  1  0.000000  0.000000  0.000000  1
  Er  Er2  1  0.000000  0.736946  0.283049  1
  Er  Er3  1  0.000000  0.263054  0.716951  1
  Er  Er4  1  0.000000  0.763054  0.783049  1
  Er  Er5  1  0.000000  0.236946  0.216951  1
  Er  Er6  1  0.000000  0.613169  0.082610  1
  Er  Er7  1  0.000000  0.386831  0.917390  1
  Er  Er8  1  0.000000  0.886831  0.582610  1
  Er  Er9  1  0.000000  0.113169  0.417390  1
  Hg  Hg10  1  0.500000  0.713856  0.932926  1
  Hg  Hg11  1  0.500000  0.286144  0.067074  1
  Hg  Hg12  1  0.500000  0.786144  0.432926  1
  Hg  Hg13  1  0.500000  0.213856  0.567074  1
  Hg  Hg14  1  0.500000  0.582668  0.648227  1
  Hg  Hg15  1  0.500000  0.417332  0.351773  1
  Hg  Hg16  1  0.500000  0.917332  0.148227  1
  Hg  Hg17  1  0.500000  0.082668  0.851773  1
  Pd  Pd18  1  0.500000  0.525959  0.195813  1
  Pd  Pd19  1  0.500000  0.474041  0.804187  1
  Pd  Pd20  1  0.500000  0.974041  0.695813  1
  Pd  Pd21  1  0.500000  0.025959  0.304187  1
