# generated using pymatgen
data_Ce4Y(Bi4Pd)2
_symmetry_space_group_name_H-M   'P 1'
_cell_length_a   4.60180200
_cell_length_b   4.59563000
_cell_length_c   20.53873400
_cell_angle_alpha   90.00000000
_cell_angle_beta   90.00000000
_cell_angle_gamma   90.00000000
_symmetry_Int_Tables_number   1
_chemical_formula_structural   Ce4Y(Bi4Pd)2
_chemical_formula_sum   'Ce4 Y1 Bi8 Pd2'
_cell_volume   434.35682975
_cell_formula_units_Z   1
loop_
 _symmetry_equiv_pos_site_id
 _symmetry_equiv_pos_as_xyz
  1  'x, y, z'
loop_
 _atom_site_type_symbol
 _atom_site_label
 _atom_site_symmetry_multiplicity
 _atom_site_fract_x
 _atom_site_fract_y
 _atom_site_fract_z
 _atom_site_occupancy
  Ce  Ce0  1  0.500000  0.000000  0.105574  1
  Ce  Ce1  1  0.500000  0.000000  0.644052  1
  Ce  Ce2  1  0.000000  0.500000  0.894434  1
  Ce  Ce3  1  0.000000  0.500000  0.356152  1
  Y  Y4  1  0.000000  0.000000  0.499555  1
  Bi  Bi5  1  0.500000  0.000000  0.924690  1
  Bi  Bi6  1  0.500000  0.000000  0.398452  1
  Bi  Bi7  1  0.000000  0.500000  0.075360  1
  Bi  Bi8  1  0.000000  0.500000  0.601321  1
  Bi  Bi9  1  0.500000  0.500000  0.767604  1
  Bi  Bi10  1  0.500000  0.500000  0.232697  1
  Bi  Bi11  1  0.000000  0.000000  0.767140  1
  Bi  Bi12  1  0.000000  0.000000  0.233063  1
  Pd  Pd13  1  0.500000  0.500000  0.499940  1
  Pd  Pd14  1  0.000000  0.000000  0.999968  1
