# generated using pymatgen
data_Y3Lu7Cd3Os
_symmetry_space_group_name_H-M   'P 1'
_cell_length_a   9.47205101
_cell_length_b   9.47195331
_cell_length_c   9.71158500
_cell_angle_alpha   90.00000000
_cell_angle_beta   90.00000000
_cell_angle_gamma   119.99523562
_symmetry_Int_Tables_number   1
_chemical_formula_structural   Y3Lu7Cd3Os
_chemical_formula_sum   'Y6 Lu14 Cd6 Os2'
_cell_volume   754.61454542
_cell_formula_units_Z   2
loop_
 _symmetry_equiv_pos_site_id
 _symmetry_equiv_pos_as_xyz
  1  'x, y, z'
loop_
 _atom_site_type_symbol
 _atom_site_label
 _atom_site_symmetry_multiplicity
 _atom_site_fract_x
 _atom_site_fract_y
 _atom_site_fract_z
 _atom_site_occupancy
  Y  Y0  1  0.537841  0.462185  0.250000  1
  Y  Y1  1  0.537840  0.075689  0.250000  1
  Y  Y2  1  0.924300  0.462141  0.250000  1
  Y  Y3  1  0.462159  0.537815  0.750000  1
  Y  Y4  1  0.462160  0.924311  0.750000  1
  Y  Y5  1  0.075700  0.537859  0.750000  1
  Lu  Lu6  1  0.000000  0.000000  0.500000  1
  Lu  Lu7  1  0.000000  0.000000  0.000000  1
  Lu  Lu8  1  0.209893  0.790087  0.440860  1
  Lu  Lu9  1  0.209907  0.419812  0.440859  1
  Lu  Lu10  1  0.580186  0.790085  0.440869  1
  Lu  Lu11  1  0.790107  0.209913  0.559140  1
  Lu  Lu12  1  0.790093  0.580188  0.559141  1
  Lu  Lu13  1  0.419814  0.209915  0.559131  1
  Lu  Lu14  1  0.790107  0.209913  0.940860  1
  Lu  Lu15  1  0.790093  0.580188  0.940859  1
  Lu  Lu16  1  0.419814  0.209915  0.940869  1
  Lu  Lu17  1  0.209893  0.790087  0.059140  1
  Lu  Lu18  1  0.209907  0.419812  0.059141  1
  Lu  Lu19  1  0.580186  0.790085  0.059131  1
  Cd  Cd20  1  0.886678  0.113194  0.250000  1
  Cd  Cd21  1  0.886715  0.773563  0.250000  1
  Cd  Cd22  1  0.226525  0.113441  0.250000  1
  Cd  Cd23  1  0.113322  0.886806  0.750000  1
  Cd  Cd24  1  0.113285  0.226437  0.750000  1
  Cd  Cd25  1  0.773475  0.886559  0.750000  1
  Os  Os26  1  0.333369  0.666628  0.250000  1
  Os  Os27  1  0.666631  0.333372  0.750000  1
