# generated using pymatgen
data_Hf2ZrSc(SiW)4
_symmetry_space_group_name_H-M   'P 1'
_cell_length_a   3.52093600
_cell_length_b   6.97380474
_cell_length_c   8.22643512
_cell_angle_alpha   89.92928094
_cell_angle_beta   90.00000000
_cell_angle_gamma   90.00000000
_symmetry_Int_Tables_number   1
_chemical_formula_structural   Hf2ZrSc(SiW)4
_chemical_formula_sum   'Hf2 Zr1 Sc1 Si4 W4'
_cell_volume   201.99436791
_cell_formula_units_Z   1
loop_
 _symmetry_equiv_pos_site_id
 _symmetry_equiv_pos_as_xyz
  1  'x, y, z'
loop_
 _atom_site_type_symbol
 _atom_site_label
 _atom_site_symmetry_multiplicity
 _atom_site_fract_x
 _atom_site_fract_y
 _atom_site_fract_z
 _atom_site_occupancy
  Hf  Hf0  1  0.250000  0.042031  0.334838  1
  Hf  Hf1  1  0.750000  0.957075  0.666364  1
  Zr  Zr2  1  0.750000  0.458096  0.832664  1
  Sc  Sc3  1  0.250000  0.541759  0.166012  1
  Si  Si4  1  0.250000  0.758412  0.861765  1
  Si  Si5  1  0.250000  0.256112  0.638400  1
  Si  Si6  1  0.750000  0.243099  0.140541  1
  Si  Si7  1  0.750000  0.740753  0.358595  1
  W  W8  1  0.250000  0.634465  0.561259  1
  W  W9  1  0.250000  0.131528  0.939499  1
  W  W10  1  0.750000  0.366676  0.439192  1
  W  W11  1  0.750000  0.869993  0.060871  1
