# generated using pymatgen
data_CeCd5Rh2
_symmetry_space_group_name_H-M   'P 1'
_cell_length_a   7.45391600
_cell_length_b   9.70471200
_cell_length_c   9.70471200
_cell_angle_alpha   90.00000000
_cell_angle_beta   90.00000000
_cell_angle_gamma   90.00000000
_symmetry_Int_Tables_number   1
_chemical_formula_structural   CeCd5Rh2
_chemical_formula_sum   'Ce4 Cd20 Rh8'
_cell_volume   702.02050527
_cell_formula_units_Z   4
loop_
 _symmetry_equiv_pos_site_id
 _symmetry_equiv_pos_as_xyz
  1  'x, y, z'
loop_
 _atom_site_type_symbol
 _atom_site_label
 _atom_site_symmetry_multiplicity
 _atom_site_fract_x
 _atom_site_fract_y
 _atom_site_fract_z
 _atom_site_occupancy
  Ce  Ce0  1  0.564704  0.750000  0.750000  1
  Ce  Ce1  1  0.064704  0.750000  0.750000  1
  Ce  Ce2  1  0.435296  0.250000  0.250000  1
  Ce  Ce3  1  0.935296  0.250000  0.250000  1
  Cd  Cd4  1  0.000000  0.500000  0.500000  1
  Cd  Cd5  1  0.500000  0.500000  0.000000  1
  Cd  Cd6  1  0.500000  0.000000  0.500000  1
  Cd  Cd7  1  0.000000  0.000000  0.000000  1
  Cd  Cd8  1  0.847172  0.057483  0.703821  1
  Cd  Cd9  1  0.347172  0.057483  0.796179  1
  Cd  Cd10  1  0.347172  0.442517  0.703821  1
  Cd  Cd11  1  0.847172  0.442517  0.796179  1
  Cd  Cd12  1  0.847172  0.703821  0.057483  1
  Cd  Cd13  1  0.347172  0.796179  0.057483  1
  Cd  Cd14  1  0.347172  0.703821  0.442517  1
  Cd  Cd15  1  0.847172  0.796179  0.442517  1
  Cd  Cd16  1  0.152828  0.942517  0.296179  1
  Cd  Cd17  1  0.652828  0.942517  0.203821  1
  Cd  Cd18  1  0.652828  0.557483  0.296179  1
  Cd  Cd19  1  0.152828  0.557483  0.203821  1
  Cd  Cd20  1  0.152828  0.296179  0.942517  1
  Cd  Cd21  1  0.652828  0.203821  0.942517  1
  Cd  Cd22  1  0.652828  0.296179  0.557483  1
  Cd  Cd23  1  0.152828  0.203821  0.557483  1
  Rh  Rh24  1  0.660644  0.586518  0.586518  1
  Rh  Rh25  1  0.160644  0.586518  0.913482  1
  Rh  Rh26  1  0.160644  0.913482  0.586518  1
  Rh  Rh27  1  0.660644  0.913482  0.913482  1
  Rh  Rh28  1  0.339356  0.413482  0.413482  1
  Rh  Rh29  1  0.839356  0.413482  0.086518  1
  Rh  Rh30  1  0.839356  0.086518  0.413482  1
  Rh  Rh31  1  0.339356  0.086518  0.086518  1
