# generated using pymatgen
data_TbHo2HgRu2
_symmetry_space_group_name_H-M   'P 1'
_cell_length_a   3.42283100
_cell_length_b   3.42283100
_cell_length_c   11.16319200
_cell_angle_alpha   90.00000000
_cell_angle_beta   90.00000000
_cell_angle_gamma   90.00000000
_symmetry_Int_Tables_number   1
_chemical_formula_structural   TbHo2HgRu2
_chemical_formula_sum   'Tb1 Ho2 Hg1 Ru2'
_cell_volume   130.78541287
_cell_formula_units_Z   1
loop_
 _symmetry_equiv_pos_site_id
 _symmetry_equiv_pos_as_xyz
  1  'x, y, z'
loop_
 _atom_site_type_symbol
 _atom_site_label
 _atom_site_symmetry_multiplicity
 _atom_site_fract_x
 _atom_site_fract_y
 _atom_site_fract_z
 _atom_site_occupancy
  Tb  Tb0  1  0.000000  0.000000  0.300614  1
  Ho  Ho1  1  0.000000  0.000000  0.999131  1
  Ho  Ho2  1  0.000000  0.000000  0.700550  1
  Hg  Hg3  1  0.500000  0.500000  0.502239  1
  Ru  Ru4  1  0.500000  0.500000  0.155316  1
  Ru  Ru5  1  0.500000  0.500000  0.842150  1
