# generated using pymatgen
data_DyHo(LuZn6)2
_symmetry_space_group_name_H-M   'P 1'
_cell_length_a   4.36825400
_cell_length_b   6.63769107
_cell_length_c   10.05301489
_cell_angle_alpha   90.20496970
_cell_angle_beta   90.00000000
_cell_angle_gamma   90.00000000
_symmetry_Int_Tables_number   1
_chemical_formula_structural   DyHo(LuZn6)2
_chemical_formula_sum   'Dy1 Ho1 Lu2 Zn12'
_cell_volume   291.48651376
_cell_formula_units_Z   1
loop_
 _symmetry_equiv_pos_site_id
 _symmetry_equiv_pos_as_xyz
  1  'x, y, z'
loop_
 _atom_site_type_symbol
 _atom_site_label
 _atom_site_symmetry_multiplicity
 _atom_site_fract_x
 _atom_site_fract_y
 _atom_site_fract_z
 _atom_site_occupancy
  Dy  Dy0  1  0.250000  0.279757  0.665204  1
  Ho  Ho1  1  0.750000  0.720270  0.335377  1
  Lu  Lu2  1  0.250000  0.779188  0.835795  1
  Lu  Lu3  1  0.750000  0.220380  0.164541  1
  Zn  Zn4  1  0.250000  0.534691  0.102259  1
  Zn  Zn5  1  0.250000  0.034662  0.396203  1
  Zn  Zn6  1  0.750000  0.464463  0.897324  1
  Zn  Zn7  1  0.750000  0.966179  0.602627  1
  Zn  Zn8  1  0.250000  0.919429  0.150177  1
  Zn  Zn9  1  0.250000  0.417178  0.349178  1
  Zn  Zn10  1  0.750000  0.078882  0.850731  1
  Zn  Zn11  1  0.750000  0.584191  0.650099  1
  Zn  Zn12  1  0.250000  0.210528  0.959419  1
  Zn  Zn13  1  0.250000  0.718455  0.544046  1
  Zn  Zn14  1  0.750000  0.787942  0.041546  1
  Zn  Zn15  1  0.750000  0.283804  0.455473  1
