# generated using pymatgen
data_LuZr2Sc(Al8Pt3)3
_symmetry_space_group_name_H-M   'P 1'
_cell_length_a   7.48259889
_cell_length_b   7.49044549
_cell_length_c   13.00337039
_cell_angle_alpha   84.56440452
_cell_angle_beta   78.94857133
_cell_angle_gamma   59.95935113
_symmetry_Int_Tables_number   1
_chemical_formula_structural   LuZr2Sc(Al8Pt3)3
_chemical_formula_sum   'Lu1 Zr2 Sc1 Al24 Pt9'
_cell_volume   619.21120240
_cell_formula_units_Z   1
loop_
 _symmetry_equiv_pos_site_id
 _symmetry_equiv_pos_as_xyz
  1  'x, y, z'
loop_
 _atom_site_type_symbol
 _atom_site_label
 _atom_site_symmetry_multiplicity
 _atom_site_fract_x
 _atom_site_fract_y
 _atom_site_fract_z
 _atom_site_occupancy
  Lu  Lu0  1  0.266079  0.501600  0.192844  1
  Zr  Zr1  1  0.393259  0.168150  0.810560  1
  Zr  Zr2  1  0.606920  0.831639  0.189047  1
  Sc  Sc3  1  0.733885  0.498802  0.806501  1
  Al  Al4  1  0.681932  0.833090  0.941424  1
  Al  Al5  1  0.318254  0.164689  0.056998  1
  Al  Al6  1  0.145879  0.833012  0.563469  1
  Al  Al7  1  0.854112  0.167010  0.436933  1
  Al  Al8  1  0.479696  0.166926  0.561366  1
  Al  Al9  1  0.520170  0.833021  0.438807  1
  Al  Al10  1  0.221100  0.163455  0.326088  1
  Al  Al11  1  0.778428  0.834662  0.675632  1
  Al  Al12  1  0.437604  0.504292  0.675794  1
  Al  Al13  1  0.563682  0.495734  0.325916  1
  Al  Al14  1  0.108072  0.162451  0.674578  1
  Al  Al15  1  0.889357  0.839561  0.327144  1
  Al  Al16  1  0.357120  0.496708  0.940763  1
  Al  Al17  1  0.646298  0.502777  0.056624  1
  Al  Al18  1  0.016639  0.170623  0.948720  1
  Al  Al19  1  0.982157  0.831724  0.049243  1
  Al  Al20  1  0.186556  0.499794  0.440623  1
  Al  Al21  1  0.813074  0.500264  0.560392  1
  Al  Al22  1  0.732718  0.159728  0.183428  1
  Al  Al23  1  0.269660  0.838687  0.816480  1
  Al  Al24  1  0.063555  0.625837  0.815567  1
  Al  Al25  1  0.934575  0.373476  0.184472  1
  Al  Al26  1  0.849732  0.044563  0.816000  1
  Al  Al27  1  0.149320  0.958087  0.184145  1
  Pt  Pt28  1  0.119459  0.490877  0.639660  1
  Pt  Pt29  1  0.880947  0.508949  0.360547  1
  Pt  Pt30  1  0.656604  0.172432  0.999657  1
  Pt  Pt31  1  0.342921  0.827351  0.000466  1
  Pt  Pt32  1  0.536466  0.167474  0.361307  1
  Pt  Pt33  1  0.463172  0.833002  0.638707  1
  Pt  Pt34  1  0.778310  0.176331  0.637854  1
  Pt  Pt35  1  0.221604  0.823290  0.362216  1
  Pt  Pt36  1  0.000683  0.499930  0.000029  1
