# generated using pymatgen
data_Pr3Al12OsRu3
_symmetry_space_group_name_H-M   'P 1'
_cell_length_a   8.91217800
_cell_length_b   8.91120310
_cell_length_c   9.74136174
_cell_angle_alpha   90.05945364
_cell_angle_beta   90.00000000
_cell_angle_gamma   120.00361160
_symmetry_Int_Tables_number   1
_chemical_formula_structural   Pr3Al12OsRu3
_chemical_formula_sum   'Pr6 Al24 Os2 Ru6'
_cell_volume   669.96849155
_cell_formula_units_Z   2
loop_
 _symmetry_equiv_pos_site_id
 _symmetry_equiv_pos_as_xyz
  1  'x, y, z'
loop_
 _atom_site_type_symbol
 _atom_site_label
 _atom_site_symmetry_multiplicity
 _atom_site_fract_x
 _atom_site_fract_y
 _atom_site_fract_z
 _atom_site_occupancy
  Pr  Pr0  1  0.192687  0.385372  0.249151  1
  Pr  Pr1  1  0.807313  0.614628  0.750849  1
  Pr  Pr2  1  0.615383  0.807007  0.249247  1
  Pr  Pr3  1  0.384617  0.192993  0.750753  1
  Pr  Pr4  1  0.191625  0.807007  0.249247  1
  Pr  Pr5  1  0.808375  0.192993  0.750753  1
  Al  Al6  1  0.333311  0.666622  0.007975  1
  Al  Al7  1  0.666689  0.333378  0.992025  1
  Al  Al8  1  0.666667  0.333332  0.507576  1
  Al  Al9  1  0.333333  0.666668  0.492424  1
  Al  Al10  1  0.162729  0.325457  0.575653  1
  Al  Al11  1  0.837271  0.674543  0.424347  1
  Al  Al12  1  0.674717  0.837592  0.575478  1
  Al  Al13  1  0.837064  0.674129  0.074957  1
  Al  Al14  1  0.325283  0.162408  0.424522  1
  Al  Al15  1  0.162936  0.325871  0.925043  1
  Al  Al16  1  0.162876  0.837592  0.575478  1
  Al  Al17  1  0.325554  0.162971  0.075322  1
  Al  Al18  1  0.837124  0.162408  0.424522  1
  Al  Al19  1  0.674446  0.837029  0.924678  1
  Al  Al20  1  0.837416  0.162971  0.075322  1
  Al  Al21  1  0.162584  0.837029  0.924678  1
  Al  Al22  1  0.562300  0.124600  0.250108  1
  Al  Al23  1  0.437700  0.875400  0.749892  1
  Al  Al24  1  0.875067  0.437512  0.250368  1
  Al  Al25  1  0.124933  0.562488  0.749632  1
  Al  Al26  1  0.562445  0.437512  0.250368  1
  Al  Al27  1  0.437555  0.562488  0.749632  1
  Al  Al28  1  0.999970  0.999939  0.249963  1
  Al  Al29  1  0.000030  0.000061  0.750037  1
  Os  Os30  1  0.000000  0.500000  0.000000  1
  Os  Os31  1  0.500000  0.500000  0.000000  1
  Ru  Ru32  1  0.500000  0.000000  0.000000  1
  Ru  Ru33  1  0.500000  0.000000  0.500000  1
  Ru  Ru34  1  0.000000  0.500000  0.500000  1
  Ru  Ru35  1  0.500000  0.500000  0.500000  1
  Ru  Ru36  1  0.000000  0.000000  0.000000  1
  Ru  Ru37  1  0.000000  0.000000  0.500000  1
