# generated using pymatgen
data_Zr3Si2GeW2N
_symmetry_space_group_name_H-M   'P 1'
_cell_length_a   7.74722700
_cell_length_b   7.75438571
_cell_length_c   5.36138600
_cell_angle_alpha   90.00000000
_cell_angle_beta   90.00000000
_cell_angle_gamma   119.96947033
_symmetry_Int_Tables_number   1
_chemical_formula_structural   Zr3Si2GeW2N
_chemical_formula_sum   'Zr6 Si4 Ge2 W4 N2'
_cell_volume   279.01972828
_cell_formula_units_Z   2
loop_
 _symmetry_equiv_pos_site_id
 _symmetry_equiv_pos_as_xyz
  1  'x, y, z'
loop_
 _atom_site_type_symbol
 _atom_site_label
 _atom_site_symmetry_multiplicity
 _atom_site_fract_x
 _atom_site_fract_y
 _atom_site_fract_z
 _atom_site_occupancy
  Zr  Zr0  1  0.234143  0.000000  0.750000  1
  Zr  Zr1  1  0.765857  0.000000  0.250000  1
  Zr  Zr2  1  0.003156  0.238664  0.750000  1
  Zr  Zr3  1  0.996844  0.761336  0.250000  1
  Zr  Zr4  1  0.764491  0.761336  0.750000  1
  Zr  Zr5  1  0.235509  0.238664  0.250000  1
  Si  Si6  1  0.000899  0.589523  0.750000  1
  Si  Si7  1  0.999101  0.410477  0.250000  1
  Si  Si8  1  0.411376  0.410477  0.750000  1
  Si  Si9  1  0.588624  0.589523  0.250000  1
  Ge  Ge10  1  0.591574  0.000000  0.750000  1
  Ge  Ge11  1  0.408426  0.000000  0.250000  1
  W  W12  1  0.330080  0.660161  0.500000  1
  W  W13  1  0.669920  0.339839  0.500000  1
  W  W14  1  0.669920  0.339839  0.000000  1
  W  W15  1  0.330080  0.660161  0.000000  1
  N  N16  1  0.000000  0.000000  0.500000  1
  N  N17  1  0.000000  0.000000  0.000000  1
