# generated using pymatgen
data_KTb2Ag3Se5
_symmetry_space_group_name_H-M   'P 1'
_cell_length_a   4.31234000
_cell_length_b   8.06825794
_cell_length_c   17.53734400
_cell_angle_alpha   90.00000000
_cell_angle_beta   90.00000000
_cell_angle_gamma   74.49983898
_symmetry_Int_Tables_number   1
_chemical_formula_structural   KTb2Ag3Se5
_chemical_formula_sum   'K2 Tb4 Ag6 Se10'
_cell_volume   587.98570520
_cell_formula_units_Z   2
loop_
 _symmetry_equiv_pos_site_id
 _symmetry_equiv_pos_as_xyz
  1  'x, y, z'
loop_
 _atom_site_type_symbol
 _atom_site_label
 _atom_site_symmetry_multiplicity
 _atom_site_fract_x
 _atom_site_fract_y
 _atom_site_fract_z
 _atom_site_occupancy
  K  K0  1  0.568689  0.862621  0.250000  1
  K  K1  1  0.431311  0.137378  0.750000  1
  Tb  Tb2  1  0.308427  0.383146  0.095924  1
  Tb  Tb3  1  0.308427  0.383146  0.404076  1
  Tb  Tb4  1  0.691572  0.616855  0.595924  1
  Tb  Tb5  1  0.691572  0.616855  0.904076  1
  Ag  Ag6  1  0.084233  0.831533  0.039249  1
  Ag  Ag7  1  0.838684  0.322633  0.250000  1
  Ag  Ag8  1  0.084233  0.831533  0.460751  1
  Ag  Ag9  1  0.915767  0.168466  0.539249  1
  Ag  Ag10  1  0.161317  0.677367  0.750000  1
  Ag  Ag11  1  0.915767  0.168466  0.960751  1
  Se  Se12  1  0.681441  0.637119  0.069738  1
  Se  Se13  1  0.932893  0.134214  0.119172  1
  Se  Se14  1  0.240898  0.518203  0.250000  1
  Se  Se15  1  0.932893  0.134214  0.380828  1
  Se  Se16  1  0.681441  0.637119  0.430262  1
  Se  Se17  1  0.318559  0.362882  0.569738  1
  Se  Se18  1  0.067106  0.865787  0.619173  1
  Se  Se19  1  0.759102  0.481796  0.750000  1
  Se  Se20  1  0.067106  0.865787  0.880828  1
  Se  Se21  1  0.318559  0.362882  0.930262  1
