# generated using pymatgen
data_MnV(Cu3S4)2
_symmetry_space_group_name_H-M   'P 1'
_cell_length_a   7.67845900
_cell_length_b   7.67845900
_cell_length_c   5.42402900
_cell_angle_alpha   90.00000000
_cell_angle_beta   90.00000000
_cell_angle_gamma   90.00000000
_symmetry_Int_Tables_number   1
_chemical_formula_structural   MnV(Cu3S4)2
_chemical_formula_sum   'Mn1 V1 Cu6 S8'
_cell_volume   319.79387551
_cell_formula_units_Z   1
loop_
 _symmetry_equiv_pos_site_id
 _symmetry_equiv_pos_as_xyz
  1  'x, y, z'
loop_
 _atom_site_type_symbol
 _atom_site_label
 _atom_site_symmetry_multiplicity
 _atom_site_fract_x
 _atom_site_fract_y
 _atom_site_fract_z
 _atom_site_occupancy
  Mn  Mn0  1  0.000000  0.000000  0.000000  1
  V  V1  1  0.500000  0.500000  0.000000  1
  Cu  Cu2  1  0.250918  0.749082  0.000000  1
  Cu  Cu3  1  0.749082  0.250918  0.000000  1
  Cu  Cu4  1  0.250918  0.250918  0.000000  1
  Cu  Cu5  1  0.749082  0.749082  0.000000  1
  Cu  Cu6  1  0.000000  0.000000  0.500000  1
  Cu  Cu7  1  0.500000  0.500000  0.500000  1
  S  S8  1  0.500000  0.263896  0.763562  1
  S  S9  1  0.000000  0.767983  0.768304  1
  S  S10  1  0.500000  0.736104  0.763562  1
  S  S11  1  0.000000  0.232017  0.768304  1
  S  S12  1  0.767983  0.000000  0.231696  1
  S  S13  1  0.263896  0.500000  0.236438  1
  S  S14  1  0.232017  0.000000  0.231696  1
  S  S15  1  0.736104  0.500000  0.236438  1
