# generated using pymatgen
data_Sm4Y2Zn4Pt13
_symmetry_space_group_name_H-M   'P 1'
_cell_length_a   8.32273793
_cell_length_b   8.32273790
_cell_length_c   8.32232700
_cell_angle_alpha   109.47430959
_cell_angle_beta   109.47430951
_cell_angle_gamma   109.46704055
_symmetry_Int_Tables_number   1
_chemical_formula_structural   Sm4Y2Zn4Pt13
_chemical_formula_sum   'Sm4 Y2 Zn4 Pt13'
_cell_volume   443.75638345
_cell_formula_units_Z   1
loop_
 _symmetry_equiv_pos_site_id
 _symmetry_equiv_pos_as_xyz
  1  'x, y, z'
loop_
 _atom_site_type_symbol
 _atom_site_label
 _atom_site_symmetry_multiplicity
 _atom_site_fract_x
 _atom_site_fract_y
 _atom_site_fract_z
 _atom_site_occupancy
  Sm  Sm0  1  0.700198  0.700198  0.999654  1
  Sm  Sm1  1  0.299609  0.999746  0.299355  1
  Sm  Sm2  1  0.999746  0.299609  0.299355  1
  Sm  Sm3  1  0.299457  0.299457  0.999655  1
  Y  Y4  1  0.697898  0.999804  0.697702  1
  Y  Y5  1  0.999804  0.697898  0.697702  1
  Zn  Zn6  1  0.000125  0.000125  0.501864  1
  Zn  Zn7  1  0.000130  0.500130  0.000260  1
  Zn  Zn8  1  0.500130  0.000130  0.000260  1
  Zn  Zn9  1  0.501739  0.501739  0.501865  1
  Pt  Pt10  1  0.331723  0.331723  0.663446  1
  Pt  Pt11  1  0.667720  0.000041  0.333410  1
  Pt  Pt12  1  0.000041  0.667720  0.333410  1
  Pt  Pt13  1  0.668884  0.330967  0.999850  1
  Pt  Pt14  1  0.333370  0.665693  0.333412  1
  Pt  Pt15  1  0.999819  0.332644  0.668256  1
  Pt  Pt16  1  0.330967  0.668884  0.999850  1
  Pt  Pt17  1  0.332644  0.999819  0.668256  1
  Pt  Pt18  1  0.665693  0.333370  0.333412  1
  Pt  Pt19  1  0.669746  0.669746  0.339490  1
  Pt  Pt20  1  0.668436  0.335611  0.668256  1
  Pt  Pt21  1  0.335611  0.668436  0.668256  1
  Pt  Pt22  1  0.996512  0.996512  0.993024  1
