# generated using pymatgen
data_Yb9Sc(Sn3H)2
_symmetry_space_group_name_H-M   'P 1'
_cell_length_a   9.31797320
_cell_length_b   9.31797300
_cell_length_c   9.31797181
_cell_angle_alpha   128.97469163
_cell_angle_beta   128.97469874
_cell_angle_gamma   75.05128736
_symmetry_Int_Tables_number   1
_chemical_formula_structural   Yb9Sc(Sn3H)2
_chemical_formula_sum   'Yb9 Sc1 Sn6 H2'
_cell_volume   476.11563407
_cell_formula_units_Z   1
loop_
 _symmetry_equiv_pos_site_id
 _symmetry_equiv_pos_as_xyz
  1  'x, y, z'
loop_
 _atom_site_type_symbol
 _atom_site_label
 _atom_site_symmetry_multiplicity
 _atom_site_fract_x
 _atom_site_fract_y
 _atom_site_fract_z
 _atom_site_occupancy
  Yb  Yb0  1  0.500000  0.500000  0.000000  1
  Yb  Yb1  1  0.510663  0.008846  0.823796  1
  Yb  Yb2  1  0.185051  0.686867  0.176204  1
  Yb  Yb3  1  0.008846  0.185051  0.498183  1
  Yb  Yb4  1  0.686867  0.510663  0.501817  1
  Yb  Yb5  1  0.489337  0.991154  0.176204  1
  Yb  Yb6  1  0.814949  0.313133  0.823796  1
  Yb  Yb7  1  0.991154  0.814949  0.501817  1
  Yb  Yb8  1  0.313133  0.489337  0.498183  1
  Sc  Sc9  1  0.000000  0.000000  0.000000  1
  Sn  Sn10  1  0.248038  0.248038  0.000000  1
  Sn  Sn11  1  0.751962  0.751962  0.000000  1
  Sn  Sn12  1  0.876371  0.361664  0.238037  1
  Sn  Sn13  1  0.123629  0.638336  0.761963  1
  Sn  Sn14  1  0.361664  0.123629  0.485293  1
  Sn  Sn15  1  0.638336  0.876371  0.514707  1
  H  H16  1  0.250000  0.750000  0.500000  1
  H  H17  1  0.750000  0.250000  0.500000  1
