# generated using pymatgen
data_Ce3Sm(B4Os)4
_symmetry_space_group_name_H-M   'P 1'
_cell_length_a   3.62152200
_cell_length_b   6.02366016
_cell_length_c   11.67849580
_cell_angle_alpha   89.98562484
_cell_angle_beta   90.00000000
_cell_angle_gamma   90.00000000
_symmetry_Int_Tables_number   1
_chemical_formula_structural   Ce3Sm(B4Os)4
_chemical_formula_sum   'Ce3 Sm1 B16 Os4'
_cell_volume   254.76424991
_cell_formula_units_Z   1
loop_
 _symmetry_equiv_pos_site_id
 _symmetry_equiv_pos_as_xyz
  1  'x, y, z'
loop_
 _atom_site_type_symbol
 _atom_site_label
 _atom_site_symmetry_multiplicity
 _atom_site_fract_x
 _atom_site_fract_y
 _atom_site_fract_z
 _atom_site_occupancy
  Ce  Ce0  1  0.000000  0.628601  0.350209  1
  Ce  Ce1  1  0.000000  0.371579  0.650265  1
  Ce  Ce2  1  0.000000  0.128266  0.148948  1
  Sm  Sm3  1  0.000000  0.872323  0.850757  1
  B  B4  1  0.500000  0.786881  0.185234  1
  B  B5  1  0.500000  0.215393  0.814073  1
  B  B6  1  0.500000  0.285130  0.313316  1
  B  B7  1  0.500000  0.714086  0.685702  1
  B  B8  1  0.500000  0.862413  0.031494  1
  B  B9  1  0.500000  0.138378  0.968827  1
  B  B10  1  0.500000  0.361903  0.469330  1
  B  B11  1  0.500000  0.637126  0.531231  1
  B  B12  1  0.500000  0.888001  0.454419  1
  B  B13  1  0.500000  0.111525  0.546335  1
  B  B14  1  0.500000  0.388062  0.045219  1
  B  B15  1  0.500000  0.611614  0.954044  1
  B  B16  1  0.500000  0.973609  0.309688  1
  B  B17  1  0.500000  0.026829  0.690311  1
  B  B18  1  0.500000  0.471628  0.189801  1
  B  B19  1  0.500000  0.526301  0.809723  1
  Os  Os20  1  0.000000  0.639252  0.095220  1
  Os  Os21  1  0.000000  0.360071  0.906883  1
  Os  Os22  1  0.000000  0.141281  0.405701  1
  Os  Os23  1  0.000000  0.859748  0.593268  1
