# generated using pymatgen
data_Dy3Y5Ti11NbSi16
_symmetry_space_group_name_H-M   'P 1'
_cell_length_a   7.06637292
_cell_length_b   7.06657047
_cell_length_c   12.99736342
_cell_angle_alpha   90.03529665
_cell_angle_beta   89.96959725
_cell_angle_gamma   90.01270494
_symmetry_Int_Tables_number   1
_chemical_formula_structural   Dy3Y5Ti11NbSi16
_chemical_formula_sum   'Dy3 Y5 Ti11 Nb1 Si16'
_cell_volume   649.02340003
_cell_formula_units_Z   1
loop_
 _symmetry_equiv_pos_site_id
 _symmetry_equiv_pos_as_xyz
  1  'x, y, z'
loop_
 _atom_site_type_symbol
 _atom_site_label
 _atom_site_symmetry_multiplicity
 _atom_site_fract_x
 _atom_site_fract_y
 _atom_site_fract_z
 _atom_site_occupancy
  Dy  Dy0  1  0.502453  0.159963  0.216780  1
  Dy  Dy1  1  0.497972  0.840689  0.716375  1
  Dy  Dy2  1  0.340964  0.001929  0.466607  1
  Y  Y3  1  0.997321  0.659833  0.033289  1
  Y  Y4  1  0.002054  0.340826  0.533352  1
  Y  Y5  1  0.659804  0.997287  0.966713  1
  Y  Y6  1  0.160079  0.502572  0.783176  1
  Y  Y7  1  0.840602  0.497853  0.283560  1
  Ti  Ti8  1  0.348650  0.508884  0.374384  1
  Ti  Ti9  1  0.846632  0.990662  0.376563  1
  Ti  Ti10  1  0.008253  0.152285  0.123721  1
  Ti  Ti11  1  0.990740  0.846728  0.623354  1
  Ti  Ti12  1  0.508965  0.348514  0.625535  1
  Ti  Ti13  1  0.152321  0.008271  0.876226  1
  Ti  Ti14  1  0.826540  0.173074  0.750102  1
  Ti  Ti15  1  0.173268  0.826715  0.249956  1
  Ti  Ti16  1  0.327156  0.327097  0.000067  1
  Ti  Ti17  1  0.491311  0.651758  0.126208  1
  Ti  Ti18  1  0.651733  0.491407  0.873752  1
  Nb  Nb19  1  0.673121  0.673385  0.500025  1
  Si  Si20  1  0.048061  0.709297  0.434933  1
  Si  Si21  1  0.953035  0.290776  0.935205  1
  Si  Si22  1  0.708976  0.047827  0.565139  1
  Si  Si23  1  0.209154  0.453023  0.185071  1
  Si  Si24  1  0.791676  0.546258  0.686516  1
  Si  Si25  1  0.453139  0.208924  0.814944  1
  Si  Si26  1  0.546007  0.791979  0.313563  1
  Si  Si27  1  0.290891  0.953132  0.064863  1
  Si  Si28  1  0.797786  0.870330  0.184710  1
  Si  Si29  1  0.296976  0.630076  0.565453  1
  Si  Si30  1  0.702090  0.370061  0.065211  1
  Si  Si31  1  0.629648  0.296780  0.434531  1
  Si  Si32  1  0.370224  0.702211  0.934818  1
  Si  Si33  1  0.130027  0.202052  0.315067  1
  Si  Si34  1  0.202269  0.129606  0.684951  1
  Si  Si35  1  0.870098  0.797933  0.815279  1
