# generated using pymatgen
data_Lu12AlCo3SiSn
_symmetry_space_group_name_H-M   'P 1'
_cell_length_a   8.18400794
_cell_length_b   8.18400726
_cell_length_c   8.18400706
_cell_angle_alpha   112.41956970
_cell_angle_beta   111.37347384
_cell_angle_gamma   104.72429126
_symmetry_Int_Tables_number   1
_chemical_formula_structural   Lu12AlCo3SiSn
_chemical_formula_sum   'Lu12 Al1 Co3 Si1 Sn1'
_cell_volume   419.77802657
_cell_formula_units_Z   1
loop_
 _symmetry_equiv_pos_site_id
 _symmetry_equiv_pos_as_xyz
  1  'x, y, z'
loop_
 _atom_site_type_symbol
 _atom_site_label
 _atom_site_symmetry_multiplicity
 _atom_site_fract_x
 _atom_site_fract_y
 _atom_site_fract_z
 _atom_site_occupancy
  Lu  Lu0  1  0.431641  0.233959  0.197680  1
  Lu  Lu1  1  0.559282  0.765399  0.793886  1
  Lu  Lu2  1  0.028487  0.234601  0.793886  1
  Lu  Lu3  1  0.963721  0.766041  0.197680  1
  Lu  Lu4  1  0.182575  0.285610  0.468185  1
  Lu  Lu5  1  0.810979  0.716961  0.527940  1
  Lu  Lu6  1  0.182575  0.714390  0.896965  1
  Lu  Lu7  1  0.810979  0.283039  0.094017  1
  Lu  Lu8  1  0.310971  0.618414  0.310061  1
  Lu  Lu9  1  0.691647  0.381586  0.692556  1
  Lu  Lu10  1  0.310971  0.000910  0.692556  1
  Lu  Lu11  1  0.691647  0.999090  0.310061  1
  Al  Al12  1  0.986938  0.000000  0.986938  1
  Co  Co13  1  0.658100  0.000000  0.658100  1
  Co  Co14  1  0.116752  0.612315  0.504437  1
  Co  Co15  1  0.892121  0.387685  0.504437  1
  Si  Si16  1  0.371133  0.000000  0.371133  1
  Sn  Sn17  1  0.499478  0.500000  0.999478  1
