# generated using pymatgen
data_Pu5Mo2C7
_symmetry_space_group_name_H-M   'P 1'
_cell_length_a   8.49723743
_cell_length_b   8.49723711
_cell_length_c   3.41547600
_cell_angle_alpha   90.00000000
_cell_angle_beta   90.00000000
_cell_angle_gamma   124.98218054
_symmetry_Int_Tables_number   1
_chemical_formula_structural   Pu5Mo2C7
_chemical_formula_sum   'Pu5 Mo2 C7'
_cell_volume   202.05322799
_cell_formula_units_Z   1
loop_
 _symmetry_equiv_pos_site_id
 _symmetry_equiv_pos_as_xyz
  1  'x, y, z'
loop_
 _atom_site_type_symbol
 _atom_site_label
 _atom_site_symmetry_multiplicity
 _atom_site_fract_x
 _atom_site_fract_y
 _atom_site_fract_z
 _atom_site_occupancy
  Pu  Pu0  1  0.500000  0.500000  0.000000  1
  Pu  Pu1  1  0.060469  0.319885  0.500000  1
  Pu  Pu2  1  0.939531  0.680115  0.500000  1
  Pu  Pu3  1  0.680115  0.939531  0.500000  1
  Pu  Pu4  1  0.319885  0.060469  0.500000  1
  Mo  Mo5  1  0.711131  0.288869  0.000000  1
  Mo  Mo6  1  0.288869  0.711131  0.000000  1
  C  C7  1  0.623557  0.376443  0.500000  1
  C  C8  1  0.376443  0.623557  0.500000  1
  C  C9  1  0.000000  0.000000  0.000000  1
  C  C10  1  0.173765  0.173765  0.000000  1
  C  C11  1  0.826235  0.826235  0.000000  1
  C  C12  1  0.000000  0.500000  0.000000  1
  C  C13  1  0.500000  0.000000  0.000000  1
