# generated using pymatgen
data_Ti6Tc3MoPt2
_symmetry_space_group_name_H-M   'P 1'
_cell_length_a   4.43746200
_cell_length_b   6.24540700
_cell_length_c   13.28766000
_cell_angle_alpha   90.00000000
_cell_angle_beta   90.00100375
_cell_angle_gamma   90.00000000
_symmetry_Int_Tables_number   1
_chemical_formula_structural   Ti6Tc3MoPt2
_chemical_formula_sum   'Ti12 Tc6 Mo2 Pt4'
_cell_volume   368.25097017
_cell_formula_units_Z   2
loop_
 _symmetry_equiv_pos_site_id
 _symmetry_equiv_pos_as_xyz
  1  'x, y, z'
loop_
 _atom_site_type_symbol
 _atom_site_label
 _atom_site_symmetry_multiplicity
 _atom_site_fract_x
 _atom_site_fract_y
 _atom_site_fract_z
 _atom_site_occupancy
  Ti  Ti0  1  0.500004  0.254581  0.003762  1
  Ti  Ti1  1  0.500004  0.745419  0.003762  1
  Ti  Ti2  1  0.000131  0.245425  0.162821  1
  Ti  Ti3  1  0.000131  0.754575  0.162821  1
  Ti  Ti4  1  0.500157  0.245674  0.327688  1
  Ti  Ti5  1  0.500157  0.754327  0.327688  1
  Ti  Ti6  1  0.999999  0.248717  0.499201  1
  Ti  Ti7  1  0.999999  0.751283  0.499201  1
  Ti  Ti8  1  0.499855  0.251276  0.667531  1
  Ti  Ti9  1  0.499855  0.748725  0.667531  1
  Ti  Ti10  1  0.999858  0.254309  0.838965  1
  Ti  Ti11  1  0.999858  0.745691  0.838965  1
  Tc  Tc12  1  0.999997  0.000000  0.996984  1
  Tc  Tc13  1  0.500128  0.500000  0.169647  1
  Tc  Tc14  1  0.000132  0.000000  0.339124  1
  Tc  Tc15  1  0.499996  0.500000  0.501554  1
  Tc  Tc16  1  0.999864  0.000000  0.665188  1
  Tc  Tc17  1  0.499887  0.500000  0.827517  1
  Mo  Mo18  1  0.000003  0.500000  0.997865  1
  Mo  Mo19  1  0.500112  0.000000  0.168770  1
  Pt  Pt20  1  0.000164  0.500000  0.335513  1
  Pt  Pt21  1  0.500013  0.000000  0.501248  1
  Pt  Pt22  1  0.999849  0.500000  0.665474  1
  Pt  Pt23  1  0.499845  0.000000  0.831181  1
