# generated using pymatgen
data_Sc6As5S
_symmetry_space_group_name_H-M   'P 1'
_cell_length_a   6.66333211
_cell_length_b   7.67655979
_cell_length_c   6.65993400
_cell_angle_alpha   106.78618614
_cell_angle_beta   119.98093782
_cell_angle_gamma   106.72581643
_symmetry_Int_Tables_number   1
_chemical_formula_structural   Sc6As5S
_chemical_formula_sum   'Sc6 As5 S1'
_cell_volume   241.12542605
_cell_formula_units_Z   1
loop_
 _symmetry_equiv_pos_site_id
 _symmetry_equiv_pos_as_xyz
  1  'x, y, z'
loop_
 _atom_site_type_symbol
 _atom_site_label
 _atom_site_symmetry_multiplicity
 _atom_site_fract_x
 _atom_site_fract_y
 _atom_site_fract_z
 _atom_site_occupancy
  Sc  Sc0  1  0.798242  0.546241  0.522170  1
  Sc  Sc1  1  0.131652  0.047473  0.189851  1
  Sc  Sc2  1  0.131125  0.546168  0.190117  1
  Sc  Sc3  1  0.798421  0.047345  0.522140  1
  Sc  Sc4  1  0.465266  0.046952  0.856687  1
  Sc  Sc5  1  0.463922  0.546531  0.854904  1
  As  As6  1  0.964647  0.796764  0.355814  1
  As  As7  1  0.631944  0.296951  0.689362  1
  As  As8  1  0.631521  0.797188  0.689967  1
  As  As9  1  0.298246  0.796527  0.022219  1
  As  As10  1  0.297847  0.296971  0.022659  1
  S  S11  1  0.964629  0.296608  0.355841  1
