# generated using pymatgen
data_TaSi2Ru10W3
_symmetry_space_group_name_H-M   'P 1'
_cell_length_a   4.00296500
_cell_length_b   5.40867716
_cell_length_c   10.63086031
_cell_angle_alpha   90.02760113
_cell_angle_beta   90.00000000
_cell_angle_gamma   90.00000000
_symmetry_Int_Tables_number   1
_chemical_formula_structural   TaSi2Ru10W3
_chemical_formula_sum   'Ta1 Si2 Ru10 W3'
_cell_volume   230.16602274
_cell_formula_units_Z   1
loop_
 _symmetry_equiv_pos_site_id
 _symmetry_equiv_pos_as_xyz
  1  'x, y, z'
loop_
 _atom_site_type_symbol
 _atom_site_label
 _atom_site_symmetry_multiplicity
 _atom_site_fract_x
 _atom_site_fract_y
 _atom_site_fract_z
 _atom_site_occupancy
  Ta  Ta0  1  0.500000  0.824653  0.360154  1
  Si  Si1  1  0.000000  0.503431  0.500729  1
  Si  Si2  1  0.000000  0.001559  0.999108  1
  Ru  Ru3  1  0.000000  0.500515  0.997832  1
  Ru  Ru4  1  0.000000  0.010392  0.503938  1
  Ru  Ru5  1  0.000000  0.569681  0.244070  1
  Ru  Ru6  1  0.000000  0.423001  0.750470  1
  Ru  Ru7  1  0.000000  0.075195  0.249821  1
  Ru  Ru8  1  0.000000  0.922878  0.750328  1
  Ru  Ru9  1  0.500000  0.820085  0.101552  1
  Ru  Ru10  1  0.500000  0.180386  0.893923  1
  Ru  Ru11  1  0.500000  0.324675  0.395122  1
  Ru  Ru12  1  0.500000  0.680656  0.608163  1
  W  W13  1  0.500000  0.168866  0.641280  1
  W  W14  1  0.500000  0.325427  0.144346  1
  W  W15  1  0.500000  0.668599  0.859162  1
