# generated using pymatgen
data_LiDy2Pa2Zn3Ir4
_symmetry_space_group_name_H-M   'P 1'
_cell_length_a   3.79939800
_cell_length_b   7.17538725
_cell_length_c   8.47318700
_cell_angle_alpha   92.91105004
_cell_angle_beta   90.00000000
_cell_angle_gamma   90.00000000
_symmetry_Int_Tables_number   1
_chemical_formula_structural   LiDy2Pa2Zn3Ir4
_chemical_formula_sum   'Li1 Dy2 Pa2 Zn3 Ir4'
_cell_volume   230.69922851
_cell_formula_units_Z   1
loop_
 _symmetry_equiv_pos_site_id
 _symmetry_equiv_pos_as_xyz
  1  'x, y, z'
loop_
 _atom_site_type_symbol
 _atom_site_label
 _atom_site_symmetry_multiplicity
 _atom_site_fract_x
 _atom_site_fract_y
 _atom_site_fract_z
 _atom_site_occupancy
  Li  Li0  1  0.250000  0.116433  0.941375  1
  Dy  Dy1  1  0.250000  0.057483  0.317680  1
  Dy  Dy2  1  0.750000  0.942435  0.684296  1
  Pa  Pa3  1  0.250000  0.549368  0.190288  1
  Pa  Pa4  1  0.750000  0.448394  0.807829  1
  Zn  Zn5  1  0.750000  0.883979  0.062444  1
  Zn  Zn6  1  0.250000  0.628619  0.557921  1
  Zn  Zn7  1  0.750000  0.372246  0.441444  1
  Ir  Ir8  1  0.750000  0.749756  0.358770  1
  Ir  Ir9  1  0.250000  0.251053  0.637864  1
  Ir  Ir10  1  0.750000  0.282180  0.122309  1
  Ir  Ir11  1  0.250000  0.718055  0.877780  1
