# generated using pymatgen
data_Sm2ErTm3(Co3P2)6
_symmetry_space_group_name_H-M   'P 1'
_cell_length_a   3.69758200
_cell_length_b   10.51900118
_cell_length_c   12.15737821
_cell_angle_alpha   89.97862051
_cell_angle_beta   90.00000000
_cell_angle_gamma   90.00000000
_symmetry_Int_Tables_number   1
_chemical_formula_structural   Sm2ErTm3(Co3P2)6
_chemical_formula_sum   'Sm2 Er1 Tm3 Co18 P12'
_cell_volume   472.85960526
_cell_formula_units_Z   1
loop_
 _symmetry_equiv_pos_site_id
 _symmetry_equiv_pos_as_xyz
  1  'x, y, z'
loop_
 _atom_site_type_symbol
 _atom_site_label
 _atom_site_symmetry_multiplicity
 _atom_site_fract_x
 _atom_site_fract_y
 _atom_site_fract_z
 _atom_site_occupancy
  Sm  Sm0  1  0.000000  0.499902  0.522643  1
  Sm  Sm1  1  0.500000  0.000153  0.477559  1
  Er  Er2  1  0.500000  0.817795  0.204949  1
  Tm  Tm3  1  0.500000  0.182204  0.205163  1
  Tm  Tm4  1  0.000000  0.681957  0.794936  1
  Tm  Tm5  1  0.000000  0.318002  0.794732  1
  Co  Co6  1  0.500000  0.499977  0.157613  1
  Co  Co7  1  0.000000  0.000115  0.842431  1
  Co  Co8  1  0.500000  0.499922  0.706277  1
  Co  Co9  1  0.000000  0.000405  0.293846  1
  Co  Co10  1  0.000000  0.499846  0.986529  1
  Co  Co11  1  0.500000  0.000155  0.013151  1
  Co  Co12  1  0.500000  0.333141  0.994850  1
  Co  Co13  1  0.500000  0.666674  0.994705  1
  Co  Co14  1  0.000000  0.167095  0.005052  1
  Co  Co15  1  0.000000  0.833094  0.004911  1
  Co  Co16  1  0.500000  0.296800  0.429407  1
  Co  Co17  1  0.500000  0.703133  0.429663  1
  Co  Co18  1  0.000000  0.203256  0.570654  1
  Co  Co19  1  0.000000  0.796770  0.570899  1
  Co  Co20  1  0.500000  0.878769  0.711933  1
  Co  Co21  1  0.500000  0.121296  0.711783  1
  Co  Co22  1  0.000000  0.620880  0.288289  1
  Co  Co23  1  0.000000  0.378741  0.288089  1
  P  P24  1  0.500000  0.499912  0.883120  1
  P  P25  1  0.000000  0.000324  0.116621  1
  P  P26  1  0.500000  0.500011  0.341475  1
  P  P27  1  0.000000  0.999997  0.658488  1
  P  P28  1  0.500000  0.309026  0.617820  1
  P  P29  1  0.500000  0.690892  0.618018  1
  P  P30  1  0.000000  0.191079  0.382224  1
  P  P31  1  0.000000  0.808984  0.382542  1
  P  P32  1  0.500000  0.846174  0.893226  1
  P  P33  1  0.500000  0.153887  0.893058  1
  P  P34  1  0.000000  0.653287  0.106559  1
  P  P35  1  0.000000  0.346346  0.106785  1
