# generated using pymatgen
data_LaNp5U2Bi7Sb3
_symmetry_space_group_name_H-M   'P 1'
_cell_length_a   9.76725600
_cell_length_b   9.72808963
_cell_length_c   6.32044000
_cell_angle_alpha   90.00000000
_cell_angle_beta   90.00000000
_cell_angle_gamma   120.13327231
_symmetry_Int_Tables_number   1
_chemical_formula_structural   LaNp5U2Bi7Sb3
_chemical_formula_sum   'La1 Np5 U2 Bi7 Sb3'
_cell_volume   519.38963567
_cell_formula_units_Z   1
loop_
 _symmetry_equiv_pos_site_id
 _symmetry_equiv_pos_as_xyz
  1  'x, y, z'
loop_
 _atom_site_type_symbol
 _atom_site_label
 _atom_site_symmetry_multiplicity
 _atom_site_fract_x
 _atom_site_fract_y
 _atom_site_fract_z
 _atom_site_occupancy
  La  La0  1  0.617241  0.000000  0.250000  1
  Np  Np1  1  0.374318  0.000000  0.750000  1
  Np  Np2  1  0.385317  0.384652  0.250000  1
  Np  Np3  1  0.000665  0.615348  0.250000  1
  Np  Np4  1  0.998240  0.377595  0.750000  1
  Np  Np5  1  0.620645  0.622405  0.750000  1
  U  U6  1  0.002097  0.000000  0.955945  1
  U  U7  1  0.002097  0.000000  0.544055  1
  Bi  Bi8  1  0.665745  0.336218  0.501689  1
  Bi  Bi9  1  0.329523  0.663782  0.998311  1
  Bi  Bi10  1  0.735534  0.729595  0.250000  1
  Bi  Bi11  1  0.329523  0.663782  0.501689  1
  Bi  Bi12  1  0.665745  0.336218  0.998311  1
  Bi  Bi13  1  0.267547  0.000000  0.250000  1
  Bi  Bi14  1  0.005940  0.270405  0.250000  1
  Sb  Sb15  1  0.716212  0.000000  0.750000  1
  Sb  Sb16  1  0.285864  0.288117  0.750000  1
  Sb  Sb17  1  0.997745  0.711883  0.750000  1
