# generated using pymatgen
data_Ho4MgB4Ir9
_symmetry_space_group_name_H-M   'P 1'
_cell_length_a   10.90173327
_cell_length_b   10.90173280
_cell_length_c   10.90173320
_cell_angle_alpha   29.32269324
_cell_angle_beta   29.32269495
_cell_angle_gamma   29.32270272
_symmetry_Int_Tables_number   1
_chemical_formula_structural   Ho4MgB4Ir9
_chemical_formula_sum   'Ho4 Mg1 B4 Ir9'
_cell_volume   274.97402966
_cell_formula_units_Z   1
loop_
 _symmetry_equiv_pos_site_id
 _symmetry_equiv_pos_as_xyz
  1  'x, y, z'
loop_
 _atom_site_type_symbol
 _atom_site_label
 _atom_site_symmetry_multiplicity
 _atom_site_fract_x
 _atom_site_fract_y
 _atom_site_fract_z
 _atom_site_occupancy
  Ho  Ho0  1  0.149743  0.149743  0.149743  1
  Ho  Ho1  1  0.950213  0.950213  0.950213  1
  Ho  Ho2  1  0.850257  0.850257  0.850257  1
  Ho  Ho3  1  0.049787  0.049787  0.049787  1
  Mg  Mg4  1  0.500000  0.500000  0.500000  1
  B  B5  1  0.615790  0.615790  0.615790  1
  B  B6  1  0.717405  0.717405  0.717405  1
  B  B7  1  0.384210  0.384210  0.384210  1
  B  B8  1  0.282595  0.282595  0.282595  1
  Ir  Ir9  1  0.401386  0.905427  0.401386  1
  Ir  Ir10  1  0.905427  0.401386  0.401386  1
  Ir  Ir11  1  0.500000  0.500000  0.000000  1
  Ir  Ir12  1  0.500000  0.000000  0.500000  1
  Ir  Ir13  1  0.000000  0.500000  0.500000  1
  Ir  Ir14  1  0.598614  0.094573  0.598614  1
  Ir  Ir15  1  0.598614  0.598614  0.094573  1
  Ir  Ir16  1  0.094573  0.598614  0.598614  1
  Ir  Ir17  1  0.401386  0.401386  0.905427  1
