# generated using pymatgen
data_Dy5Ho3(TmIr2)2
_symmetry_space_group_name_H-M   'P 1'
_cell_length_a   6.47728047
_cell_length_b   7.19128530
_cell_length_c   8.47566197
_cell_angle_alpha   96.51537016
_cell_angle_beta   112.48179328
_cell_angle_gamma   90.01657101
_symmetry_Int_Tables_number   1
_chemical_formula_structural   Dy5Ho3(TmIr2)2
_chemical_formula_sum   'Dy5 Ho3 Tm2 Ir4'
_cell_volume   362.02553317
_cell_formula_units_Z   1
loop_
 _symmetry_equiv_pos_site_id
 _symmetry_equiv_pos_as_xyz
  1  'x, y, z'
loop_
 _atom_site_type_symbol
 _atom_site_label
 _atom_site_symmetry_multiplicity
 _atom_site_fract_x
 _atom_site_fract_y
 _atom_site_fract_z
 _atom_site_occupancy
  Dy  Dy0  1  0.970284  0.918934  0.181795  1
  Dy  Dy1  1  0.788310  0.581138  0.818141  1
  Dy  Dy2  1  0.029883  0.081240  0.818229  1
  Dy  Dy3  1  0.211597  0.418724  0.181887  1
  Dy  Dy4  1  0.653669  0.817255  0.441158  1
  Ho  Ho5  1  0.212637  0.682580  0.559067  1
  Ho  Ho6  1  0.346381  0.182832  0.559096  1
  Ho  Ho7  1  0.787441  0.317323  0.441000  1
  Tm  Tm8  1  0.428134  0.749984  0.999812  1
  Tm  Tm9  1  0.571789  0.249930  0.999967  1
  Ir  Ir10  1  0.823614  0.572526  0.217829  1
  Ir  Ir11  1  0.605339  0.927339  0.782276  1
  Ir  Ir12  1  0.176490  0.427250  0.781925  1
  Ir  Ir13  1  0.394433  0.072944  0.217816  1
