# generated using pymatgen
data_DyEr3Al2(ZnRh2)2
_symmetry_space_group_name_H-M   'P 1'
_cell_length_a   4.07455500
_cell_length_b   6.92858416
_cell_length_c   8.07221372
_cell_angle_alpha   89.96600842
_cell_angle_beta   90.00000000
_cell_angle_gamma   90.00000000
_symmetry_Int_Tables_number   1
_chemical_formula_structural   DyEr3Al2(ZnRh2)2
_chemical_formula_sum   'Dy1 Er3 Al2 Zn2 Rh4'
_cell_volume   227.88579582
_cell_formula_units_Z   1
loop_
 _symmetry_equiv_pos_site_id
 _symmetry_equiv_pos_as_xyz
  1  'x, y, z'
loop_
 _atom_site_type_symbol
 _atom_site_label
 _atom_site_symmetry_multiplicity
 _atom_site_fract_x
 _atom_site_fract_y
 _atom_site_fract_z
 _atom_site_occupancy
  Dy  Dy0  1  0.250000  0.536195  0.179374  1
  Er  Er1  1  0.750000  0.464023  0.819688  1
  Er  Er2  1  0.750000  0.962938  0.685948  1
  Er  Er3  1  0.250000  0.037190  0.314606  1
  Al  Al4  1  0.250000  0.638858  0.561880  1
  Al  Al5  1  0.750000  0.360767  0.439072  1
  Zn  Zn6  1  0.750000  0.859676  0.064148  1
  Zn  Zn7  1  0.250000  0.140558  0.935209  1
  Rh  Rh8  1  0.250000  0.755252  0.869642  1
  Rh  Rh9  1  0.750000  0.243565  0.129355  1
  Rh  Rh10  1  0.750000  0.735097  0.388622  1
  Rh  Rh11  1  0.250000  0.265880  0.612457  1
