# generated using pymatgen
data_Nb8Fe7Si14Pd
_symmetry_space_group_name_H-M   'P 1'
_cell_length_a   9.27942280
_cell_length_b   9.30062544
_cell_length_c   9.26023176
_cell_angle_alpha   94.36070605
_cell_angle_beta   94.23898216
_cell_angle_gamma   148.26924564
_symmetry_Int_Tables_number   1
_chemical_formula_structural   Nb8Fe7Si14Pd
_chemical_formula_sum   'Nb8 Fe7 Si14 Pd1'
_cell_volume   404.20443414
_cell_formula_units_Z   1
loop_
 _symmetry_equiv_pos_site_id
 _symmetry_equiv_pos_as_xyz
  1  'x, y, z'
loop_
 _atom_site_type_symbol
 _atom_site_label
 _atom_site_symmetry_multiplicity
 _atom_site_fract_x
 _atom_site_fract_y
 _atom_site_fract_z
 _atom_site_occupancy
  Nb  Nb0  1  0.135164  0.135164  0.270327  1
  Nb  Nb1  1  0.865038  0.865038  0.730077  1
  Nb  Nb2  1  0.866227  0.133578  0.002861  1
  Nb  Nb3  1  0.136634  0.869283  0.002861  1
  Nb  Nb4  1  0.499959  0.690455  0.193070  1
  Nb  Nb5  1  0.498320  0.308756  0.807292  1
  Nb  Nb6  1  0.308972  0.498536  0.807292  1
  Nb  Nb7  1  0.693110  0.502615  0.193070  1
  Fe  Fe8  1  0.105005  0.605005  0.210010  1
  Fe  Fe9  1  0.105286  0.899501  0.503122  1
  Fe  Fe10  1  0.397836  0.603621  0.503122  1
  Fe  Fe11  1  0.595591  0.401393  0.494794  1
  Fe  Fe12  1  0.899203  0.093401  0.494794  1
  Fe  Fe13  1  0.899462  0.399462  0.798924  1
  Fe  Fe14  1  0.597950  0.097950  0.195900  1
  Si  Si15  1  0.290389  0.290389  0.580778  1
  Si  Si16  1  0.708975  0.708975  0.417949  1
  Si  Si17  1  0.728760  0.314326  0.005921  1
  Si  Si18  1  0.277160  0.691594  0.005921  1
  Si  Si19  1  0.996952  0.293912  0.297635  1
  Si  Si20  1  0.977137  0.687446  0.701187  1
  Si  Si21  1  0.724051  0.013741  0.701187  1
  Si  Si22  1  0.300683  0.003722  0.297635  1
  Si  Si23  1  0.506305  0.909676  0.407774  1
  Si  Si24  1  0.528397  0.128650  0.586034  1
  Si  Si25  1  0.057637  0.457384  0.586034  1
  Si  Si26  1  0.901469  0.498099  0.407774  1
  Si  Si27  1  0.751065  0.751102  0.000263  1
  Si  Si28  1  0.249198  0.249161  0.000263  1
  Pd  Pd29  1  0.398064  0.898064  0.796128  1
