# generated using pymatgen
data_Ho2Lu5ThSb20
_symmetry_space_group_name_H-M   'P 1'
_cell_length_a   4.22882900
_cell_length_b   13.13845931
_cell_length_c   14.51341700
_cell_angle_alpha   78.32600528
_cell_angle_beta   90.00000000
_cell_angle_gamma   90.00000000
_symmetry_Int_Tables_number   1
_chemical_formula_structural   Ho2Lu5ThSb20
_chemical_formula_sum   'Ho2 Lu5 Th1 Sb20'
_cell_volume   789.68980988
_cell_formula_units_Z   1
loop_
 _symmetry_equiv_pos_site_id
 _symmetry_equiv_pos_as_xyz
  1  'x, y, z'
loop_
 _atom_site_type_symbol
 _atom_site_label
 _atom_site_symmetry_multiplicity
 _atom_site_fract_x
 _atom_site_fract_y
 _atom_site_fract_z
 _atom_site_occupancy
  Ho  Ho0  1  0.250000  0.950285  0.357629  1
  Ho  Ho1  1  0.750000  0.046034  0.644963  1
  Lu  Lu2  1  0.250000  0.397232  0.773778  1
  Lu  Lu3  1  0.750000  0.607255  0.227195  1
  Lu  Lu4  1  0.250000  0.661529  0.855425  1
  Lu  Lu5  1  0.750000  0.338541  0.141745  1
  Lu  Lu6  1  0.250000  0.672125  0.575683  1
  Th  Th7  1  0.750000  0.328921  0.427467  1
  Sb  Sb8  1  0.250000  0.146490  0.779653  1
  Sb  Sb9  1  0.750000  0.853318  0.219779  1
  Sb  Sb10  1  0.250000  0.137182  0.484792  1
  Sb  Sb11  1  0.750000  0.856747  0.517334  1
  Sb  Sb12  1  0.250000  0.154369  0.164912  1
  Sb  Sb13  1  0.750000  0.844320  0.832450  1
  Sb  Sb14  1  0.250000  0.420815  0.977286  1
  Sb  Sb15  1  0.750000  0.579218  0.023334  1
  Sb  Sb16  1  0.750000  0.029908  0.910778  1
  Sb  Sb17  1  0.250000  0.967788  0.087105  1
  Sb  Sb18  1  0.750000  0.137021  0.314084  1
  Sb  Sb19  1  0.250000  0.859282  0.680716  1
  Sb  Sb20  1  0.750000  0.278815  0.939033  1
  Sb  Sb21  1  0.250000  0.720792  0.061291  1
  Sb  Sb22  1  0.750000  0.286913  0.659227  1
  Sb  Sb23  1  0.250000  0.714579  0.343262  1
  Sb  Sb24  1  0.750000  0.577269  0.734858  1
  Sb  Sb25  1  0.250000  0.425150  0.262157  1
  Sb  Sb26  1  0.750000  0.574487  0.446906  1
  Sb  Sb27  1  0.250000  0.433618  0.557158  1
