# generated using pymatgen
data_Sc4CoCuOs6
_symmetry_space_group_name_H-M   'P 1'
_cell_length_a   5.21386100
_cell_length_b   5.04624825
_cell_length_c   8.60204700
_cell_angle_alpha   90.00000000
_cell_angle_beta   90.00000000
_cell_angle_gamma   120.92489785
_symmetry_Int_Tables_number   1
_chemical_formula_structural   Sc4CoCuOs6
_chemical_formula_sum   'Sc4 Co1 Cu1 Os6'
_cell_volume   194.14982686
_cell_formula_units_Z   1
loop_
 _symmetry_equiv_pos_site_id
 _symmetry_equiv_pos_as_xyz
  1  'x, y, z'
loop_
 _atom_site_type_symbol
 _atom_site_label
 _atom_site_symmetry_multiplicity
 _atom_site_fract_x
 _atom_site_fract_y
 _atom_site_fract_z
 _atom_site_occupancy
  Sc  Sc0  1  0.327989  0.661444  0.433664  1
  Sc  Sc1  1  0.665387  0.333099  0.564264  1
  Sc  Sc2  1  0.665387  0.333099  0.935736  1
  Sc  Sc3  1  0.327989  0.661444  0.066336  1
  Co  Co4  1  0.346862  0.175144  0.250000  1
  Cu  Cu5  1  0.175435  0.344459  0.750000  1
  Os  Os6  1  0.185327  0.841214  0.750000  1
  Os  Os7  1  0.830067  0.662662  0.250000  1
  Os  Os8  1  0.665631  0.842484  0.750000  1
  Os  Os9  1  0.991499  0.984978  0.001606  1
  Os  Os10  1  0.826930  0.174995  0.250000  1
  Os  Os11  1  0.991499  0.984978  0.498394  1
