# generated using pymatgen
data_DyTm3(ScPt)4
_symmetry_space_group_name_H-M   'P 1'
_cell_length_a   4.61901600
_cell_length_b   6.93118962
_cell_length_c   8.35195348
_cell_angle_alpha   90.23205780
_cell_angle_beta   90.00000000
_cell_angle_gamma   90.00000000
_symmetry_Int_Tables_number   1
_chemical_formula_structural   DyTm3(ScPt)4
_chemical_formula_sum   'Dy1 Tm3 Sc4 Pt4'
_cell_volume   267.38790073
_cell_formula_units_Z   1
loop_
 _symmetry_equiv_pos_site_id
 _symmetry_equiv_pos_as_xyz
  1  'x, y, z'
loop_
 _atom_site_type_symbol
 _atom_site_label
 _atom_site_symmetry_multiplicity
 _atom_site_fract_x
 _atom_site_fract_y
 _atom_site_fract_z
 _atom_site_occupancy
  Dy  Dy0  1  0.750000  0.515484  0.824062  1
  Tm  Tm1  1  0.250000  0.984196  0.323802  1
  Tm  Tm2  1  0.750000  0.016793  0.675151  1
  Tm  Tm3  1  0.250000  0.483582  0.176493  1
  Sc  Sc4  1  0.750000  0.642214  0.425932  1
  Sc  Sc5  1  0.250000  0.358430  0.572171  1
  Sc  Sc6  1  0.750000  0.141225  0.073906  1
  Sc  Sc7  1  0.250000  0.857753  0.926367  1
  Pt  Pt8  1  0.250000  0.245222  0.903019  1
  Pt  Pt9  1  0.750000  0.753095  0.100042  1
  Pt  Pt10  1  0.250000  0.749113  0.596638  1
  Pt  Pt11  1  0.750000  0.252890  0.402415  1
