# generated using pymatgen
data_Cs4LiInS4
_symmetry_space_group_name_H-M   'P 1'
_cell_length_a   8.49915419
_cell_length_b   8.49915391
_cell_length_c   8.49915300
_cell_angle_alpha   134.25301624
_cell_angle_beta   128.46885966
_cell_angle_gamma   71.34207035
_symmetry_Int_Tables_number   1
_chemical_formula_structural   Cs4LiInS4
_chemical_formula_sum   'Cs4 Li1 In1 S4'
_cell_volume   337.08316878
_cell_formula_units_Z   1
loop_
 _symmetry_equiv_pos_site_id
 _symmetry_equiv_pos_as_xyz
  1  'x, y, z'
loop_
 _atom_site_type_symbol
 _atom_site_label
 _atom_site_symmetry_multiplicity
 _atom_site_fract_x
 _atom_site_fract_y
 _atom_site_fract_z
 _atom_site_occupancy
  Cs  Cs0  1  0.514915  0.864009  0.676169  1
  Cs  Cs1  1  0.485085  0.161255  0.349094  1
  Cs  Cs2  1  0.812160  0.635991  0.150906  1
  Cs  Cs3  1  0.187840  0.338745  0.823831  1
  Li  Li4  1  0.000000  0.250000  0.250000  1
  In  In5  1  0.000000  0.750000  0.750000  1
  S  S6  1  0.083215  0.894635  0.175013  1
  S  S7  1  0.719622  0.408202  0.324987  1
  S  S8  1  0.916785  0.091798  0.811420  1
  S  S9  1  0.280379  0.605365  0.688580  1
