# generated using pymatgen
data_Ba2TaMoO6
_symmetry_space_group_name_H-M   'P 1'
_cell_length_a   5.90146500
_cell_length_b   5.90146506
_cell_length_c   5.90146500
_cell_angle_alpha   120.00000529
_cell_angle_beta   89.99999029
_cell_angle_gamma   119.99999968
_symmetry_Int_Tables_number   1
_chemical_formula_structural   Ba2TaMoO6
_chemical_formula_sum   'Ba2 Ta1 Mo1 O6'
_cell_volume   145.33309348
_cell_formula_units_Z   1
loop_
 _symmetry_equiv_pos_site_id
 _symmetry_equiv_pos_as_xyz
  1  'x, y, z'
loop_
 _atom_site_type_symbol
 _atom_site_label
 _atom_site_symmetry_multiplicity
 _atom_site_fract_x
 _atom_site_fract_y
 _atom_site_fract_z
 _atom_site_occupancy
  Ba  Ba0  1  0.749999  0.499999  0.250001  1
  Ba  Ba1  1  0.249998  0.499999  0.749999  1
  Ta  Ta2  1  0.500000  0.000000  0.500000  1
  Mo  Mo3  1  0.000000  0.000000  0.000000  1
  O  O4  1  0.259172  0.000000  0.259172  1
  O  O5  1  0.259173  0.518347  0.259173  1
  O  O6  1  0.740827  0.000000  0.259173  1
  O  O7  1  0.740827  0.481653  0.740827  1
  O  O8  1  0.259173  0.000000  0.740827  1
  O  O9  1  0.740827  0.000000  0.740827  1
