# generated using pymatgen
data_Ho4MoOs7
_symmetry_space_group_name_H-M   'P 1'
_cell_length_a   5.28519508
_cell_length_b   5.28519479
_cell_length_c   8.88065200
_cell_angle_alpha   90.00000000
_cell_angle_beta   90.00000000
_cell_angle_gamma   118.02487125
_symmetry_Int_Tables_number   1
_chemical_formula_structural   Ho4MoOs7
_chemical_formula_sum   'Ho4 Mo1 Os7'
_cell_volume   218.97851564
_cell_formula_units_Z   1
loop_
 _symmetry_equiv_pos_site_id
 _symmetry_equiv_pos_as_xyz
  1  'x, y, z'
loop_
 _atom_site_type_symbol
 _atom_site_label
 _atom_site_symmetry_multiplicity
 _atom_site_fract_x
 _atom_site_fract_y
 _atom_site_fract_z
 _atom_site_occupancy
  Ho  Ho0  1  0.330383  0.669617  0.438058  1
  Ho  Ho1  1  0.667073  0.332927  0.566067  1
  Ho  Ho2  1  0.667073  0.332927  0.933933  1
  Ho  Ho3  1  0.330383  0.669617  0.061942  1
  Mo  Mo4  1  0.831811  0.168189  0.250000  1
  Os  Os5  1  0.993671  0.006329  0.501723  1
  Os  Os6  1  0.993671  0.006329  0.998277  1
  Os  Os7  1  0.827204  0.653377  0.250000  1
  Os  Os8  1  0.346623  0.172796  0.250000  1
  Os  Os9  1  0.177206  0.822794  0.750000  1
  Os  Os10  1  0.173919  0.339017  0.750000  1
  Os  Os11  1  0.660983  0.826081  0.750000  1
