# generated using pymatgen
data_Hf6ZnGe(As2Ru3)2
_symmetry_space_group_name_H-M   'P 1'
_cell_length_a   7.67252846
_cell_length_b   7.67132962
_cell_length_c   7.67252816
_cell_angle_alpha   128.42505502
_cell_angle_beta   119.95820508
_cell_angle_gamma   83.06284967
_symmetry_Int_Tables_number   1
_chemical_formula_structural   Hf6ZnGe(As2Ru3)2
_chemical_formula_sum   'Hf6 Zn1 Ge1 As4 Ru6'
_cell_volume   294.32056099
_cell_formula_units_Z   1
loop_
 _symmetry_equiv_pos_site_id
 _symmetry_equiv_pos_as_xyz
  1  'x, y, z'
loop_
 _atom_site_type_symbol
 _atom_site_label
 _atom_site_symmetry_multiplicity
 _atom_site_fract_x
 _atom_site_fract_y
 _atom_site_fract_z
 _atom_site_occupancy
  Hf  Hf0  1  0.467733  0.697610  0.729876  1
  Hf  Hf1  1  0.522507  0.256420  0.233914  1
  Hf  Hf2  1  0.748834  0.832610  0.583776  1
  Hf  Hf3  1  0.248925  0.835213  0.086286  1
  Hf  Hf4  1  0.058429  0.255702  0.697273  1
  Hf  Hf5  1  0.951409  0.656058  0.204649  1
  Zn  Zn6  1  0.279406  0.268424  0.489019  1
  Ge  Ge7  1  0.725748  0.233944  0.008197  1
  As  As8  1  0.328687  0.585580  0.249009  1
  As  As9  1  0.671421  0.920607  0.259596  1
  As  As10  1  0.161011  0.920607  0.749186  1
  As  As11  1  0.836571  0.585580  0.756893  1
  Ru  Ru12  1  0.496161  0.497411  0.995116  1
  Ru  Ru13  1  0.002296  0.497411  0.501251  1
  Ru  Ru14  1  0.088167  0.252226  0.092249  1
  Ru  Ru15  1  0.894610  0.005985  0.147878  1
  Ru  Ru16  1  0.358107  0.005985  0.611376  1
  Ru  Ru17  1  0.659977  0.252226  0.664059  1
