# generated using pymatgen
data_ErTm3Zn4(IrRh)2
_symmetry_space_group_name_H-M   'P 1'
_cell_length_a   4.02777800
_cell_length_b   6.92592704
_cell_length_c   8.04753296
_cell_angle_alpha   89.80044811
_cell_angle_beta   90.00000000
_cell_angle_gamma   90.00000000
_symmetry_Int_Tables_number   1
_chemical_formula_structural   ErTm3Zn4(IrRh)2
_chemical_formula_sum   'Er1 Tm3 Zn4 Ir2 Rh2'
_cell_volume   224.49339513
_cell_formula_units_Z   1
loop_
 _symmetry_equiv_pos_site_id
 _symmetry_equiv_pos_as_xyz
  1  'x, y, z'
loop_
 _atom_site_type_symbol
 _atom_site_label
 _atom_site_symmetry_multiplicity
 _atom_site_fract_x
 _atom_site_fract_y
 _atom_site_fract_z
 _atom_site_occupancy
  Er  Er0  1  0.250000  0.534780  0.182095  1
  Tm  Tm1  1  0.750000  0.465190  0.817766  1
  Tm  Tm2  1  0.750000  0.962570  0.684082  1
  Tm  Tm3  1  0.250000  0.037466  0.316039  1
  Zn  Zn4  1  0.250000  0.638029  0.565416  1
  Zn  Zn5  1  0.750000  0.361824  0.434880  1
  Zn  Zn6  1  0.750000  0.861374  0.065725  1
  Zn  Zn7  1  0.250000  0.138702  0.934107  1
  Ir  Ir8  1  0.250000  0.756805  0.876218  1
  Ir  Ir9  1  0.750000  0.242825  0.123340  1
  Rh  Rh10  1  0.750000  0.745000  0.379226  1
  Rh  Rh11  1  0.250000  0.255435  0.621107  1
