# generated using pymatgen
data_Pr19Nd(IrRh2)4
_symmetry_space_group_name_H-M   'P 1'
_cell_length_a   11.32781403
_cell_length_b   11.32820003
_cell_length_c   6.67133700
_cell_angle_alpha   90.00000000
_cell_angle_beta   90.00000000
_cell_angle_gamma   90.00866922
_symmetry_Int_Tables_number   1
_chemical_formula_structural   Pr19Nd(IrRh2)4
_chemical_formula_sum   'Pr19 Nd1 Ir4 Rh8'
_cell_volume   856.09092678
_cell_formula_units_Z   1
loop_
 _symmetry_equiv_pos_site_id
 _symmetry_equiv_pos_as_xyz
  1  'x, y, z'
loop_
 _atom_site_type_symbol
 _atom_site_label
 _atom_site_symmetry_multiplicity
 _atom_site_fract_x
 _atom_site_fract_y
 _atom_site_fract_z
 _atom_site_occupancy
  Pr  Pr0  1  0.091188  0.291236  0.114510  1
  Pr  Pr1  1  0.791489  0.408707  0.114516  1
  Pr  Pr2  1  0.208511  0.591293  0.114516  1
  Pr  Pr3  1  0.908812  0.708764  0.114510  1
  Pr  Pr4  1  0.408699  0.791476  0.385465  1
  Pr  Pr5  1  0.591301  0.208524  0.385465  1
  Pr  Pr6  1  0.291116  0.091183  0.385589  1
  Pr  Pr7  1  0.708884  0.908817  0.385589  1
  Pr  Pr8  1  0.409575  0.208052  0.883457  1
  Pr  Pr9  1  0.708240  0.090365  0.883468  1
  Pr  Pr10  1  0.291760  0.909635  0.883468  1
  Pr  Pr11  1  0.590425  0.791948  0.883457  1
  Pr  Pr12  1  0.090330  0.708409  0.616320  1
  Pr  Pr13  1  0.909670  0.291591  0.616320  1
  Pr  Pr14  1  0.208056  0.409556  0.616487  1
  Pr  Pr15  1  0.791944  0.590444  0.616487  1
  Pr  Pr16  1  0.000000  0.000000  0.000671  1
  Pr  Pr17  1  0.500000  0.500000  0.000456  1
  Pr  Pr18  1  0.500000  0.500000  0.499577  1
  Nd  Nd19  1  0.000000  0.000000  0.499765  1
  Ir  Ir20  1  0.346382  0.653744  0.750094  1
  Ir  Ir21  1  0.152967  0.153159  0.749170  1
  Ir  Ir22  1  0.847033  0.846841  0.749170  1
  Ir  Ir23  1  0.653618  0.346256  0.750094  1
  Rh  Rh24  1  0.153962  0.846177  0.250934  1
  Rh  Rh25  1  0.345461  0.345569  0.249859  1
  Rh  Rh26  1  0.654539  0.654431  0.249859  1
  Rh  Rh27  1  0.846038  0.153823  0.250934  1
  Rh  Rh28  1  0.000000  0.500000  0.378654  1
  Rh  Rh29  1  0.500000  0.000000  0.121190  1
  Rh  Rh30  1  0.500000  0.000000  0.619220  1
  Rh  Rh31  1  0.000000  0.500000  0.880732  1
