# generated using pymatgen
data_NaNd5HoIrBr12
_symmetry_space_group_name_H-M   'P 1'
_cell_length_a   9.49421718
_cell_length_b   9.54516801
_cell_length_c   9.46581891
_cell_angle_alpha   107.47944042
_cell_angle_beta   107.34679613
_cell_angle_gamma   106.58335558
_symmetry_Int_Tables_number   1
_chemical_formula_structural   NaNd5HoIrBr12
_chemical_formula_sum   'Na1 Nd5 Ho1 Ir1 Br12'
_cell_volume   711.69194990
_cell_formula_units_Z   1
loop_
 _symmetry_equiv_pos_site_id
 _symmetry_equiv_pos_as_xyz
  1  'x, y, z'
loop_
 _atom_site_type_symbol
 _atom_site_label
 _atom_site_symmetry_multiplicity
 _atom_site_fract_x
 _atom_site_fract_y
 _atom_site_fract_z
 _atom_site_occupancy
  Na  Na0  1  0.499956  0.500549  0.499670  1
  Nd  Nd1  1  0.316927  0.029456  0.111016  1
  Nd  Nd2  1  0.032594  0.114077  0.320358  1
  Nd  Nd3  1  0.968867  0.890847  0.681948  1
  Nd  Nd4  1  0.683198  0.969790  0.889140  1
  Nd  Nd5  1  0.884805  0.669898  0.967602  1
  Ho  Ho6  1  0.112683  0.320977  0.031861  1
  Ir  Ir7  1  0.000807  0.000538  0.001634  1
  Br  Br8  1  0.216613  0.674333  0.071808  1
  Br  Br9  1  0.443035  0.373351  0.148803  1
  Br  Br10  1  0.684336  0.074770  0.221222  1
  Br  Br11  1  0.927629  0.782817  0.317514  1
  Br  Br12  1  0.153614  0.455670  0.362450  1
  Br  Br13  1  0.374987  0.156071  0.458034  1
  Br  Br14  1  0.625297  0.844813  0.542422  1
  Br  Br15  1  0.845516  0.545136  0.625034  1
  Br  Br16  1  0.075877  0.225979  0.694893  1
  Br  Br17  1  0.315882  0.926074  0.779402  1
  Br  Br18  1  0.544305  0.627745  0.844951  1
  Br  Br19  1  0.793074  0.317112  0.930243  1
