# generated using pymatgen
data_Dy3Th2SiPb3
_symmetry_space_group_name_H-M   'P 1'
_cell_length_a   9.47870335
_cell_length_b   9.46714432
_cell_length_c   6.63182800
_cell_angle_alpha   90.00000000
_cell_angle_beta   90.00000000
_cell_angle_gamma   119.95966967
_symmetry_Int_Tables_number   1
_chemical_formula_structural   Dy3Th2SiPb3
_chemical_formula_sum   'Dy6 Th4 Si2 Pb6'
_cell_volume   515.59437040
_cell_formula_units_Z   2
loop_
 _symmetry_equiv_pos_site_id
 _symmetry_equiv_pos_as_xyz
  1  'x, y, z'
loop_
 _atom_site_type_symbol
 _atom_site_label
 _atom_site_symmetry_multiplicity
 _atom_site_fract_x
 _atom_site_fract_y
 _atom_site_fract_z
 _atom_site_occupancy
  Dy  Dy0  1  0.666455  0.332632  0.499574  1
  Dy  Dy1  1  0.333545  0.666177  0.499574  1
  Dy  Dy2  1  0.333545  0.666177  0.000426  1
  Dy  Dy3  1  0.666455  0.332632  0.000426  1
  Dy  Dy4  1  0.746691  0.749381  0.250000  1
  Dy  Dy5  1  0.253309  0.002690  0.250000  1
  Th  Th6  1  0.000000  0.255096  0.250000  1
  Th  Th7  1  0.245969  0.244438  0.750000  1
  Th  Th8  1  0.754031  0.998468  0.750000  1
  Th  Th9  1  0.000000  0.753363  0.750000  1
  Si  Si10  1  0.000000  0.998032  0.486114  1
  Si  Si11  1  0.000000  0.998032  0.013886  1
  Pb  Pb12  1  0.399601  0.395571  0.250000  1
  Pb  Pb13  1  0.600399  0.995970  0.250000  1
  Pb  Pb14  1  0.000000  0.613598  0.250000  1
  Pb  Pb15  1  0.601912  0.601607  0.750000  1
  Pb  Pb16  1  0.398088  0.999695  0.750000  1
  Pb  Pb17  1  0.000000  0.396441  0.750000  1
