# generated using pymatgen
data_YEr2Sn3Ir2Rh
_symmetry_space_group_name_H-M   'P 1'
_cell_length_a   7.67549675
_cell_length_b   7.67549636
_cell_length_c   3.71636300
_cell_angle_alpha   90.00000000
_cell_angle_beta   90.00000000
_cell_angle_gamma   120.12741205
_symmetry_Int_Tables_number   1
_chemical_formula_structural   YEr2Sn3Ir2Rh
_chemical_formula_sum   'Y1 Er2 Sn3 Ir2 Rh1'
_cell_volume   189.36630399
_cell_formula_units_Z   1
loop_
 _symmetry_equiv_pos_site_id
 _symmetry_equiv_pos_as_xyz
  1  'x, y, z'
loop_
 _atom_site_type_symbol
 _atom_site_label
 _atom_site_symmetry_multiplicity
 _atom_site_fract_x
 _atom_site_fract_y
 _atom_site_fract_z
 _atom_site_occupancy
  Y  Y0  1  0.403529  0.403529  0.000000  1
  Er  Er1  1  0.000054  0.596343  0.000000  1
  Er  Er2  1  0.596343  0.000054  0.000000  1
  Sn  Sn3  1  0.734555  0.734555  0.500000  1
  Sn  Sn4  1  0.999240  0.265601  0.500000  1
  Sn  Sn5  1  0.265601  0.999240  0.500000  1
  Ir  Ir6  1  0.668826  0.332853  0.500000  1
  Ir  Ir7  1  0.332853  0.668826  0.500000  1
  Rh  Rh8  1  0.999001  0.999001  0.000000  1
