# generated using pymatgen
data_Hf5Co12P12Ru7
_symmetry_space_group_name_H-M   'P 1'
_cell_length_a   12.00716167
_cell_length_b   12.00278025
_cell_length_c   3.68649700
_cell_angle_alpha   90.00000000
_cell_angle_beta   90.00000000
_cell_angle_gamma   119.87639957
_symmetry_Int_Tables_number   1
_chemical_formula_structural   Hf5Co12P12Ru7
_chemical_formula_sum   'Hf5 Co12 P12 Ru7'
_cell_volume   460.68735144
_cell_formula_units_Z   1
loop_
 _symmetry_equiv_pos_site_id
 _symmetry_equiv_pos_as_xyz
  1  'x, y, z'
loop_
 _atom_site_type_symbol
 _atom_site_label
 _atom_site_symmetry_multiplicity
 _atom_site_fract_x
 _atom_site_fract_y
 _atom_site_fract_z
 _atom_site_occupancy
  Hf  Hf0  1  0.667095  0.333298  0.000000  1
  Hf  Hf1  1  0.338982  0.667347  0.000000  1
  Hf  Hf2  1  0.176472  0.176876  0.500000  1
  Hf  Hf3  1  0.824145  0.000095  0.500000  1
  Hf  Hf4  1  0.998665  0.823971  0.500000  1
  Co  Co5  1  0.826394  0.191160  0.000000  1
  Co  Co6  1  0.805655  0.634263  0.000000  1
  Co  Co7  1  0.366296  0.172253  0.000000  1
  Co  Co8  1  0.191329  0.826293  0.000000  1
  Co  Co9  1  0.629564  0.808421  0.000000  1
  Co  Co10  1  0.179207  0.371228  0.000000  1
  Co  Co11  1  0.516323  0.867225  0.500000  1
  Co  Co12  1  0.354392  0.487422  0.500000  1
  Co  Co13  1  0.718431  0.721394  0.500000  1
  Co  Co14  1  0.279275  0.998220  0.500000  1
  Co  Co15  1  0.002156  0.279939  0.500000  1
  Co  Co16  1  0.999526  0.999612  0.000000  1
  P  P17  1  0.353267  0.356358  0.000000  1
  P  P18  1  0.644562  0.996798  0.000000  1
  P  P19  1  0.000076  0.645812  0.000000  1
  P  P20  1  0.839066  0.314401  0.500000  1
  P  P21  1  0.682485  0.523890  0.500000  1
  P  P22  1  0.476665  0.161689  0.500000  1
  P  P23  1  0.322304  0.839890  0.500000  1
  P  P24  1  0.519463  0.685556  0.500000  1
  P  P25  1  0.167920  0.477124  0.500000  1
  P  P26  1  0.823763  0.826249  0.000000  1
  P  P27  1  0.173790  0.000192  0.000000  1
  P  P28  1  0.002330  0.175816  0.000000  1
  Ru  Ru29  1  0.545477  0.555927  0.000000  1
  Ru  Ru30  1  0.444970  0.989111  0.000000  1
  Ru  Ru31  1  0.999952  0.446578  0.000000  1
  Ru  Ru32  1  0.645889  0.126246  0.500000  1
  Ru  Ru33  1  0.869269  0.517275  0.500000  1
  Ru  Ru34  1  0.479303  0.354037  0.500000  1
  Ru  Ru35  1  0.135541  0.648037  0.500000  1
