# generated using pymatgen
data_TbNd8ThIr4
_symmetry_space_group_name_H-M   'P 1'
_cell_length_a   6.67619949
_cell_length_b   7.28741300
_cell_length_c   9.00743178
_cell_angle_alpha   96.52270065
_cell_angle_beta   111.75225536
_cell_angle_gamma   90.00000091
_symmetry_Int_Tables_number   1
_chemical_formula_structural   TbNd8ThIr4
_chemical_formula_sum   'Tb1 Nd8 Th1 Ir4'
_cell_volume   403.97152065
_cell_formula_units_Z   1
loop_
 _symmetry_equiv_pos_site_id
 _symmetry_equiv_pos_as_xyz
  1  'x, y, z'
loop_
 _atom_site_type_symbol
 _atom_site_label
 _atom_site_symmetry_multiplicity
 _atom_site_fract_x
 _atom_site_fract_y
 _atom_site_fract_z
 _atom_site_occupancy
  Tb  Tb0  1  0.564924  0.250000  0.000000  1
  Nd  Nd1  1  0.980425  0.925256  0.184446  1
  Nd  Nd2  1  0.795979  0.574744  0.815554  1
  Nd  Nd3  1  0.017671  0.081267  0.816035  1
  Nd  Nd4  1  0.201636  0.418733  0.183965  1
  Nd  Nd5  1  0.653368  0.814355  0.437344  1
  Nd  Nd6  1  0.216024  0.685645  0.562656  1
  Nd  Nd7  1  0.353512  0.185700  0.569347  1
  Nd  Nd8  1  0.784165  0.314300  0.430653  1
  Th  Th9  1  0.432226  0.750000  0.000000  1
  Ir  Ir10  1  0.803455  0.574748  0.209929  1
  Ir  Ir11  1  0.593526  0.925252  0.790071  1
  Ir  Ir12  1  0.195840  0.433065  0.788594  1
  Ir  Ir13  1  0.407246  0.066935  0.211406  1
