# generated using pymatgen
data_CaTm4Zn5
_symmetry_space_group_name_H-M   'P 1'
_cell_length_a   3.59729500
_cell_length_b   3.59729500
_cell_length_c   17.32274200
_cell_angle_alpha   90.00000000
_cell_angle_beta   90.00000000
_cell_angle_gamma   90.00000000
_symmetry_Int_Tables_number   1
_chemical_formula_structural   CaTm4Zn5
_chemical_formula_sum   'Ca1 Tm4 Zn5'
_cell_volume   224.16548535
_cell_formula_units_Z   1
loop_
 _symmetry_equiv_pos_site_id
 _symmetry_equiv_pos_as_xyz
  1  'x, y, z'
loop_
 _atom_site_type_symbol
 _atom_site_label
 _atom_site_symmetry_multiplicity
 _atom_site_fract_x
 _atom_site_fract_y
 _atom_site_fract_z
 _atom_site_occupancy
  Ca  Ca0  1  0.000000  0.000000  0.000000  1
  Tm  Tm1  1  0.000000  0.000000  0.202394  1
  Tm  Tm2  1  0.000000  0.000000  0.401563  1
  Tm  Tm3  1  0.000000  0.000000  0.598437  1
  Tm  Tm4  1  0.000000  0.000000  0.797606  1
  Zn  Zn5  1  0.500000  0.500000  0.108697  1
  Zn  Zn6  1  0.500000  0.500000  0.300858  1
  Zn  Zn7  1  0.500000  0.500000  0.500000  1
  Zn  Zn8  1  0.500000  0.500000  0.699142  1
  Zn  Zn9  1  0.500000  0.500000  0.891303  1
