# generated using pymatgen
data_La4Nd(Hg2Pt)2
_symmetry_space_group_name_H-M   'P 1'
_cell_length_a   3.84766100
_cell_length_b   8.32717700
_cell_length_c   18.86669700
_cell_angle_alpha   90.00000000
_cell_angle_beta   90.00000000
_cell_angle_gamma   90.00000000
_symmetry_Int_Tables_number   1
_chemical_formula_structural   La4Nd(Hg2Pt)2
_chemical_formula_sum   'La8 Nd2 Hg8 Pt4'
_cell_volume   604.49188080
_cell_formula_units_Z   2
loop_
 _symmetry_equiv_pos_site_id
 _symmetry_equiv_pos_as_xyz
  1  'x, y, z'
loop_
 _atom_site_type_symbol
 _atom_site_label
 _atom_site_symmetry_multiplicity
 _atom_site_fract_x
 _atom_site_fract_y
 _atom_site_fract_z
 _atom_site_occupancy
  La  La0  1  0.000000  0.114953  0.413935  1
  La  La1  1  0.000000  0.885047  0.586065  1
  La  La2  1  0.000000  0.385047  0.913935  1
  La  La3  1  0.000000  0.614953  0.086065  1
  La  La4  1  0.000000  0.237502  0.216021  1
  La  La5  1  0.000000  0.762498  0.783979  1
  La  La6  1  0.000000  0.262498  0.716021  1
  La  La7  1  0.000000  0.737502  0.283979  1
  Nd  Nd8  1  0.000000  0.000000  0.000000  1
  Nd  Nd9  1  0.000000  0.500000  0.500000  1
  Hg  Hg10  1  0.500000  0.424457  0.354033  1
  Hg  Hg11  1  0.500000  0.575543  0.645967  1
  Hg  Hg12  1  0.500000  0.075543  0.854033  1
  Hg  Hg13  1  0.500000  0.924457  0.145967  1
  Hg  Hg14  1  0.500000  0.286294  0.064617  1
  Hg  Hg15  1  0.500000  0.713706  0.935383  1
  Hg  Hg16  1  0.500000  0.213706  0.564617  1
  Hg  Hg17  1  0.500000  0.786294  0.435383  1
  Pt  Pt18  1  0.500000  0.023754  0.302631  1
  Pt  Pt19  1  0.500000  0.976246  0.697369  1
  Pt  Pt20  1  0.500000  0.476246  0.802631  1
  Pt  Pt21  1  0.500000  0.523754  0.197369  1
