# generated using pymatgen
data_Ho10CoHg3
_symmetry_space_group_name_H-M   'P 1'
_cell_length_a   9.54136100
_cell_length_b   9.54136161
_cell_length_c   9.53106200
_cell_angle_alpha   90.00000000
_cell_angle_beta   90.00000000
_cell_angle_gamma   119.99999444
_symmetry_Int_Tables_number   1
_chemical_formula_structural   Ho10CoHg3
_chemical_formula_sum   'Ho20 Co2 Hg6'
_cell_volume   751.43710104
_cell_formula_units_Z   2
loop_
 _symmetry_equiv_pos_site_id
 _symmetry_equiv_pos_as_xyz
  1  'x, y, z'
loop_
 _atom_site_type_symbol
 _atom_site_label
 _atom_site_symmetry_multiplicity
 _atom_site_fract_x
 _atom_site_fract_y
 _atom_site_fract_z
 _atom_site_occupancy
  Ho  Ho0  1  0.000000  0.000000  0.500000  1
  Ho  Ho1  1  0.000000  0.000000  0.000000  1
  Ho  Ho2  1  0.542085  0.457915  0.250000  1
  Ho  Ho3  1  0.542085  0.084169  0.250000  1
  Ho  Ho4  1  0.915831  0.457915  0.250000  1
  Ho  Ho5  1  0.457915  0.542085  0.750000  1
  Ho  Ho6  1  0.457915  0.915831  0.750000  1
  Ho  Ho7  1  0.084169  0.542085  0.750000  1
  Ho  Ho8  1  0.211620  0.788380  0.436201  1
  Ho  Ho9  1  0.211620  0.423241  0.436201  1
  Ho  Ho10  1  0.576759  0.788380  0.436201  1
  Ho  Ho11  1  0.788380  0.211620  0.563799  1
  Ho  Ho12  1  0.788380  0.576759  0.563799  1
  Ho  Ho13  1  0.423241  0.211620  0.563799  1
  Ho  Ho14  1  0.788380  0.211620  0.936201  1
  Ho  Ho15  1  0.788380  0.576759  0.936201  1
  Ho  Ho16  1  0.423241  0.211620  0.936201  1
  Ho  Ho17  1  0.211620  0.788380  0.063799  1
  Ho  Ho18  1  0.211620  0.423241  0.063799  1
  Ho  Ho19  1  0.576759  0.788380  0.063799  1
  Co  Co20  1  0.333333  0.666667  0.250000  1
  Co  Co21  1  0.666667  0.333333  0.750000  1
  Hg  Hg22  1  0.880732  0.119268  0.250000  1
  Hg  Hg23  1  0.880732  0.761464  0.250000  1
  Hg  Hg24  1  0.238536  0.119268  0.250000  1
  Hg  Hg25  1  0.119268  0.880732  0.750000  1
  Hg  Hg26  1  0.119268  0.238536  0.750000  1
  Hg  Hg27  1  0.761464  0.880732  0.750000  1
