# generated using pymatgen
data_La2Y14Cd4Ni3Os
_symmetry_space_group_name_H-M   'P 1'
_cell_length_a   9.70007766
_cell_length_b   9.70007824
_cell_length_c   9.69443039
_cell_angle_alpha   59.39930199
_cell_angle_beta   59.39929196
_cell_angle_gamma   59.50713592
_symmetry_Int_Tables_number   1
_chemical_formula_structural   La2Y14Cd4Ni3Os
_chemical_formula_sum   'La2 Y14 Cd4 Ni3 Os1'
_cell_volume   636.70790381
_cell_formula_units_Z   1
loop_
 _symmetry_equiv_pos_site_id
 _symmetry_equiv_pos_as_xyz
  1  'x, y, z'
loop_
 _atom_site_type_symbol
 _atom_site_label
 _atom_site_symmetry_multiplicity
 _atom_site_fract_x
 _atom_site_fract_y
 _atom_site_fract_z
 _atom_site_occupancy
  La  La0  1  0.596274  0.596274  0.600655  1
  La  La1  1  0.598116  0.598116  0.205478  1
  Y  Y2  1  0.602059  0.197599  0.602451  1
  Y  Y3  1  0.197599  0.602059  0.602451  1
  Y  Y4  1  0.063604  0.437764  0.436995  1
  Y  Y5  1  0.436856  0.063262  0.061101  1
  Y  Y6  1  0.437764  0.063604  0.436995  1
  Y  Y7  1  0.063262  0.436856  0.061101  1
  Y  Y8  1  0.435900  0.435900  0.063210  1
  Y  Y9  1  0.062195  0.062195  0.435860  1
  Y  Y10  1  0.185765  0.816427  0.815687  1
  Y  Y11  1  0.809728  0.186652  0.186858  1
  Y  Y12  1  0.816427  0.185765  0.815687  1
  Y  Y13  1  0.186652  0.809728  0.186858  1
  Y  Y14  1  0.816401  0.816401  0.184382  1
  Y  Y15  1  0.189425  0.189425  0.806037  1
  Cd  Cd16  1  0.832709  0.832709  0.826260  1
  Cd  Cd17  1  0.832393  0.832393  0.505093  1
  Cd  Cd18  1  0.833692  0.504183  0.829008  1
  Cd  Cd19  1  0.504183  0.833692  0.829008  1
  Ni  Ni20  1  0.391308  0.391308  0.824458  1
  Ni  Ni21  1  0.389003  0.827470  0.393696  1
  Ni  Ni22  1  0.827470  0.389003  0.393696  1
  Os  Os23  1  0.391215  0.391215  0.396974  1
