# generated using pymatgen
data_Sc22TlOs2Ru5
_symmetry_space_group_name_H-M   'P 1'
_cell_length_a   9.57665036
_cell_length_b   9.57665060
_cell_length_c   9.48346700
_cell_angle_alpha   60.32135337
_cell_angle_beta   60.32135257
_cell_angle_gamma   59.30220693
_symmetry_Int_Tables_number   1
_chemical_formula_structural   Sc22TlOs2Ru5
_chemical_formula_sum   'Sc22 Tl1 Os2 Ru5'
_cell_volume   614.62115612
_cell_formula_units_Z   1
loop_
 _symmetry_equiv_pos_site_id
 _symmetry_equiv_pos_as_xyz
  1  'x, y, z'
loop_
 _atom_site_type_symbol
 _atom_site_label
 _atom_site_symmetry_multiplicity
 _atom_site_fract_x
 _atom_site_fract_y
 _atom_site_fract_z
 _atom_site_occupancy
  Sc  Sc0  1  0.804283  0.804283  0.195717  1
  Sc  Sc1  1  0.195970  0.804030  0.196025  1
  Sc  Sc2  1  0.804030  0.195970  0.196025  1
  Sc  Sc3  1  0.195717  0.195717  0.804283  1
  Sc  Sc4  1  0.804030  0.195970  0.803975  1
  Sc  Sc5  1  0.195970  0.804030  0.803975  1
  Sc  Sc6  1  0.611654  0.611654  0.151269  1
  Sc  Sc7  1  0.599870  0.151904  0.624113  1
  Sc  Sc8  1  0.151904  0.599870  0.624113  1
  Sc  Sc9  1  0.611654  0.611654  0.625424  1
  Sc  Sc10  1  0.388346  0.388346  0.848731  1
  Sc  Sc11  1  0.400130  0.848096  0.375887  1
  Sc  Sc12  1  0.848096  0.400130  0.375887  1
  Sc  Sc13  1  0.388346  0.388346  0.374576  1
  Sc  Sc14  1  0.829908  0.829908  0.476652  1
  Sc  Sc15  1  0.842894  0.467899  0.844602  1
  Sc  Sc16  1  0.467899  0.842894  0.844602  1
  Sc  Sc17  1  0.829908  0.829908  0.863530  1
  Sc  Sc18  1  0.170092  0.170092  0.523348  1
  Sc  Sc19  1  0.157106  0.532101  0.155398  1
  Sc  Sc20  1  0.532101  0.157106  0.155398  1
  Sc  Sc21  1  0.170092  0.170092  0.136470  1
  Tl  Tl22  1  0.000000  0.000000  0.500000  1
  Os  Os23  1  0.500000  0.500000  0.500000  1
  Os  Os24  1  0.500000  0.500000  0.000000  1
  Ru  Ru25  1  0.000000  0.000000  0.000000  1
  Ru  Ru26  1  0.500000  0.000000  0.500000  1
  Ru  Ru27  1  0.000000  0.500000  0.500000  1
  Ru  Ru28  1  0.000000  0.500000  0.000000  1
  Ru  Ru29  1  0.500000  0.000000  0.000000  1
