# generated using pymatgen
data_Er4Al4OsPd3
_symmetry_space_group_name_H-M   'P 1'
_cell_length_a   4.32694900
_cell_length_b   6.84750532
_cell_length_c   7.87314354
_cell_angle_alpha   90.09319455
_cell_angle_beta   90.00000000
_cell_angle_gamma   90.00000000
_symmetry_Int_Tables_number   1
_chemical_formula_structural   Er4Al4OsPd3
_chemical_formula_sum   'Er4 Al4 Os1 Pd3'
_cell_volume   233.27153634
_cell_formula_units_Z   1
loop_
 _symmetry_equiv_pos_site_id
 _symmetry_equiv_pos_as_xyz
  1  'x, y, z'
loop_
 _atom_site_type_symbol
 _atom_site_label
 _atom_site_symmetry_multiplicity
 _atom_site_fract_x
 _atom_site_fract_y
 _atom_site_fract_z
 _atom_site_occupancy
  Er  Er0  1  0.250000  0.035159  0.322720  1
  Er  Er1  1  0.250000  0.530981  0.180214  1
  Er  Er2  1  0.750000  0.980236  0.677806  1
  Er  Er3  1  0.750000  0.463054  0.815502  1
  Al  Al4  1  0.250000  0.144105  0.936830  1
  Al  Al5  1  0.250000  0.637517  0.561136  1
  Al  Al6  1  0.750000  0.857293  0.059937  1
  Al  Al7  1  0.750000  0.354901  0.443010  1
  Os  Os8  1  0.250000  0.266202  0.623106  1
  Pd  Pd9  1  0.250000  0.770455  0.879687  1
  Pd  Pd10  1  0.750000  0.729996  0.377456  1
  Pd  Pd11  1  0.750000  0.230103  0.122594  1
