# generated using pymatgen
data_ErThSiNi9
_symmetry_space_group_name_H-M   'P 1'
_cell_length_a   3.97612300
_cell_length_b   4.98364100
_cell_length_c   8.25927700
_cell_angle_alpha   90.00000000
_cell_angle_beta   90.00000000
_cell_angle_gamma   90.00000000
_symmetry_Int_Tables_number   1
_chemical_formula_structural   ErThSiNi9
_chemical_formula_sum   'Er1 Th1 Si1 Ni9'
_cell_volume   163.66227827
_cell_formula_units_Z   1
loop_
 _symmetry_equiv_pos_site_id
 _symmetry_equiv_pos_as_xyz
  1  'x, y, z'
loop_
 _atom_site_type_symbol
 _atom_site_label
 _atom_site_symmetry_multiplicity
 _atom_site_fract_x
 _atom_site_fract_y
 _atom_site_fract_z
 _atom_site_occupancy
  Er  Er0  1  0.000000  0.500000  0.500000  1
  Th  Th1  1  0.000000  0.000000  0.000000  1
  Si  Si2  1  0.500000  0.000000  0.500000  1
  Ni  Ni3  1  0.000000  0.000000  0.343658  1
  Ni  Ni4  1  0.000000  0.500000  0.832297  1
  Ni  Ni5  1  0.000000  0.500000  0.167703  1
  Ni  Ni6  1  0.000000  0.000000  0.656342  1
  Ni  Ni7  1  0.500000  0.500000  0.000000  1
  Ni  Ni8  1  0.500000  0.256437  0.260714  1
  Ni  Ni9  1  0.500000  0.743563  0.739286  1
  Ni  Ni10  1  0.500000  0.743563  0.260714  1
  Ni  Ni11  1  0.500000  0.256437  0.739286  1
