# generated using pymatgen
data_Li2Tb3Tm(Co3P2)6
_symmetry_space_group_name_H-M   'P 1'
_cell_length_a   3.67906500
_cell_length_b   10.28616971
_cell_length_c   11.84727880
_cell_angle_alpha   89.95769297
_cell_angle_beta   90.00000000
_cell_angle_gamma   90.00000000
_symmetry_Int_Tables_number   1
_chemical_formula_structural   Li2Tb3Tm(Co3P2)6
_chemical_formula_sum   'Li2 Tb3 Tm1 Co18 P12'
_cell_volume   448.34221850
_cell_formula_units_Z   1
loop_
 _symmetry_equiv_pos_site_id
 _symmetry_equiv_pos_as_xyz
  1  'x, y, z'
loop_
 _atom_site_type_symbol
 _atom_site_label
 _atom_site_symmetry_multiplicity
 _atom_site_fract_x
 _atom_site_fract_y
 _atom_site_fract_z
 _atom_site_occupancy
  Li  Li0  1  0.250000  0.702030  0.990813  1
  Li  Li1  1  0.250000  0.797499  0.491501  1
  Tb  Tb2  1  0.250000  0.920558  0.201914  1
  Tb  Tb3  1  0.750000  0.420054  0.297422  1
  Tb  Tb4  1  0.750000  0.080242  0.797648  1
  Tm  Tm5  1  0.250000  0.579103  0.701865  1
  Co  Co6  1  0.750000  0.289258  0.008260  1
  Co  Co7  1  0.750000  0.211123  0.509593  1
  Co  Co8  1  0.250000  0.404214  0.488150  1
  Co  Co9  1  0.250000  0.096591  0.987591  1
  Co  Co10  1  0.750000  0.591211  0.515927  1
  Co  Co11  1  0.750000  0.909342  0.013760  1
  Co  Co12  1  0.250000  0.224109  0.174585  1
  Co  Co13  1  0.250000  0.276453  0.674784  1
  Co  Co14  1  0.750000  0.779366  0.825771  1
  Co  Co15  1  0.750000  0.719539  0.326515  1
  Co  Co16  1  0.250000  0.879935  0.698794  1
  Co  Co17  1  0.250000  0.618810  0.198221  1
  Co  Co18  1  0.750000  0.121092  0.300384  1
  Co  Co19  1  0.750000  0.380356  0.799221  1
  Co  Co20  1  0.250000  0.464215  0.930352  1
  Co  Co21  1  0.250000  0.036261  0.432040  1
  Co  Co22  1  0.750000  0.533135  0.065223  1
  Co  Co23  1  0.750000  0.966023  0.566671  1
  P  P24  1  0.250000  0.422417  0.110869  1
  P  P25  1  0.250000  0.077315  0.611974  1
  P  P26  1  0.750000  0.577381  0.882856  1
  P  P27  1  0.750000  0.922826  0.384820  1
  P  P28  1  0.250000  0.269064  0.866868  1
  P  P29  1  0.250000  0.231314  0.367320  1
  P  P30  1  0.750000  0.728422  0.138216  1
  P  P31  1  0.750000  0.769034  0.638473  1
  P  P32  1  0.250000  0.601765  0.393599  1
  P  P33  1  0.250000  0.898170  0.893591  1
  P  P34  1  0.750000  0.396471  0.607553  1
  P  P35  1  0.750000  0.105301  0.106855  1
