# generated using pymatgen
data_YbLuTaIr3
_symmetry_space_group_name_H-M   'P 1'
_cell_length_a   5.67174676
_cell_length_b   5.20827777
_cell_length_c   5.67174700
_cell_angle_alpha   57.00994717
_cell_angle_beta   60.00000445
_cell_angle_gamma   57.00993793
_symmetry_Int_Tables_number   1
_chemical_formula_structural   YbLuTaIr3
_chemical_formula_sum   'Yb1 Lu1 Ta1 Ir3'
_cell_volume   112.83123162
_cell_formula_units_Z   1
loop_
 _symmetry_equiv_pos_site_id
 _symmetry_equiv_pos_as_xyz
  1  'x, y, z'
loop_
 _atom_site_type_symbol
 _atom_site_label
 _atom_site_symmetry_multiplicity
 _atom_site_fract_x
 _atom_site_fract_y
 _atom_site_fract_z
 _atom_site_occupancy
  Yb  Yb0  1  0.750195  0.749416  0.750195  1
  Lu  Lu1  1  0.497489  0.507531  0.497489  1
  Ta  Ta2  1  0.126072  0.621785  0.126072  1
  Ir  Ir3  1  0.626908  0.123756  0.124668  1
  Ir  Ir4  1  0.124668  0.123756  0.124668  1
  Ir  Ir5  1  0.124668  0.123756  0.626908  1
