# generated using pymatgen
data_Tb2Y5Er(WO6)4
_symmetry_space_group_name_H-M   'P 1'
_cell_length_a   5.41096334
_cell_length_b   7.72934263
_cell_length_c   11.48747488
_cell_angle_alpha   75.50747405
_cell_angle_beta   90.00077713
_cell_angle_gamma   89.96120489
_symmetry_Int_Tables_number   1
_chemical_formula_structural   Tb2Y5Er(WO6)4
_chemical_formula_sum   'Tb2 Y5 Er1 W4 O24'
_cell_volume   465.15517468
_cell_formula_units_Z   1
loop_
 _symmetry_equiv_pos_site_id
 _symmetry_equiv_pos_as_xyz
  1  'x, y, z'
loop_
 _atom_site_type_symbol
 _atom_site_label
 _atom_site_symmetry_multiplicity
 _atom_site_fract_x
 _atom_site_fract_y
 _atom_site_fract_z
 _atom_site_occupancy
  Tb  Tb0  1  0.683796  0.499790  0.249819  1
  Tb  Tb1  1  0.316588  0.499459  0.750620  1
  Y  Y2  1  0.184526  0.206015  0.422085  1
  Y  Y3  1  0.183891  0.794403  0.077599  1
  Y  Y4  1  0.815602  0.794011  0.577842  1
  Y  Y5  1  0.740778  0.000308  0.249397  1
  Y  Y6  1  0.259396  0.000442  0.750789  1
  Er  Er7  1  0.816151  0.206644  0.921731  1
  W  W8  1  0.255923  0.276059  0.114191  1
  W  W9  1  0.255739  0.723730  0.385080  1
  W  W10  1  0.744293  0.723571  0.885053  1
  W  W11  1  0.744667  0.276025  0.615536  1
  O  O12  1  0.457970  0.209188  0.271921  1
  O  O13  1  0.457765  0.790486  0.227339  1
  O  O14  1  0.541907  0.789854  0.727694  1
  O  O15  1  0.544161  0.209184  0.773982  1
  O  O16  1  0.044400  0.061584  0.103376  1
  O  O17  1  0.044892  0.939059  0.395549  1
  O  O18  1  0.952167  0.940965  0.895736  1
  O  O19  1  0.955379  0.061068  0.604583  1
  O  O20  1  0.981892  0.289217  0.227930  1
  O  O21  1  0.981267  0.710755  0.271816  1
  O  O22  1  0.019190  0.711353  0.772299  1
  O  O23  1  0.018067  0.288818  0.729557  1
  O  O24  1  0.847460  0.364991  0.452584  1
  O  O25  1  0.847565  0.634954  0.047781  1
  O  O26  1  0.152590  0.634626  0.547883  1
  O  O27  1  0.149547  0.364158  0.951659  1
  O  O28  1  0.639670  0.508926  0.614800  1
  O  O29  1  0.642050  0.489670  0.885523  1
  O  O30  1  0.360321  0.490784  0.385320  1
  O  O31  1  0.359693  0.508774  0.113920  1
  O  O32  1  0.466842  0.153683  0.570348  1
  O  O33  1  0.466072  0.845755  0.930538  1
  O  O34  1  0.532872  0.846746  0.430434  1
  O  O35  1  0.534911  0.154947  0.067686  1
