# generated using pymatgen
data_ZrScZnCo2
_symmetry_space_group_name_H-M   'P 1'
_cell_length_a   5.00045722
_cell_length_b   5.00045685
_cell_length_c   5.00045686
_cell_angle_alpha   132.05459863
_cell_angle_beta   116.99909129
_cell_angle_gamma   82.88768290
_symmetry_Int_Tables_number   1
_chemical_formula_structural   ZrScZnCo2
_chemical_formula_sum   'Zr1 Sc1 Zn1 Co2'
_cell_volume   79.59035001
_cell_formula_units_Z   1
loop_
 _symmetry_equiv_pos_site_id
 _symmetry_equiv_pos_as_xyz
  1  'x, y, z'
loop_
 _atom_site_type_symbol
 _atom_site_label
 _atom_site_symmetry_multiplicity
 _atom_site_fract_x
 _atom_site_fract_y
 _atom_site_fract_z
 _atom_site_occupancy
  Zr  Zr0  1  0.291849  0.791848  0.500000  1
  Sc  Sc1  1  0.710508  0.210507  0.500001  1
  Zn  Zn2  1  0.000488  0.000488  0.000000  1
  Co  Co3  1  0.717217  0.498578  0.218638  1
  Co  Co4  1  0.279941  0.498578  0.781362  1
