# generated using pymatgen
data_Tb7DyRe2(TcC4)2
_symmetry_space_group_name_H-M   'P 1'
_cell_length_a   5.13948300
_cell_length_b   6.59786502
_cell_length_c   9.92671803
_cell_angle_alpha   89.99156034
_cell_angle_beta   90.00000000
_cell_angle_gamma   90.00000000
_symmetry_Int_Tables_number   1
_chemical_formula_structural   Tb7DyRe2(TcC4)2
_chemical_formula_sum   'Tb7 Dy1 Re2 Tc2 C8'
_cell_volume   336.61118381
_cell_formula_units_Z   1
loop_
 _symmetry_equiv_pos_site_id
 _symmetry_equiv_pos_as_xyz
  1  'x, y, z'
loop_
 _atom_site_type_symbol
 _atom_site_label
 _atom_site_symmetry_multiplicity
 _atom_site_fract_x
 _atom_site_fract_y
 _atom_site_fract_z
 _atom_site_occupancy
  Tb  Tb0  1  0.250000  0.679780  0.555662  1
  Tb  Tb1  1  0.750000  0.319069  0.443045  1
  Tb  Tb2  1  0.250000  0.180864  0.943103  1
  Tb  Tb3  1  0.750000  0.468502  0.783682  1
  Tb  Tb4  1  0.250000  0.031502  0.283597  1
  Tb  Tb5  1  0.750000  0.969086  0.715493  1
  Tb  Tb6  1  0.250000  0.530913  0.215378  1
  Dy  Dy7  1  0.750000  0.820613  0.055904  1
  Re  Re8  1  0.750000  0.778387  0.364431  1
  Re  Re9  1  0.250000  0.721685  0.864650  1
  Tc  Tc10  1  0.750000  0.277586  0.135210  1
  Tc  Tc11  1  0.250000  0.222248  0.635256  1
  C  C12  1  0.750000  0.178622  0.953563  1
  C  C13  1  0.250000  0.820393  0.047715  1
  C  C14  1  0.750000  0.679641  0.547617  1
  C  C15  1  0.250000  0.321105  0.453511  1
  C  C16  1  0.750000  0.043141  0.259078  1
  C  C17  1  0.250000  0.456686  0.759225  1
  C  C18  1  0.750000  0.545445  0.241852  1
  C  C19  1  0.250000  0.954734  0.742027  1
