# generated using pymatgen
data_Er14Tm2MgAg3Rh4
_symmetry_space_group_name_H-M   'P 1'
_cell_length_a   9.47191601
_cell_length_b   9.49127144
_cell_length_c   9.47591700
_cell_angle_alpha   60.05350360
_cell_angle_beta   59.98602943
_cell_angle_gamma   60.03666929
_symmetry_Int_Tables_number   1
_chemical_formula_structural   Er14Tm2MgAg3Rh4
_chemical_formula_sum   'Er14 Tm2 Mg1 Ag3 Rh4'
_cell_volume   602.72354079
_cell_formula_units_Z   1
loop_
 _symmetry_equiv_pos_site_id
 _symmetry_equiv_pos_as_xyz
  1  'x, y, z'
loop_
 _atom_site_type_symbol
 _atom_site_label
 _atom_site_symmetry_multiplicity
 _atom_site_fract_x
 _atom_site_fract_y
 _atom_site_fract_z
 _atom_site_occupancy
  Er  Er0  1  0.351365  0.949876  0.349379  1
  Er  Er1  1  0.940459  0.353313  0.353114  1
  Er  Er2  1  0.810532  0.188437  0.188903  1
  Er  Er3  1  0.185976  0.812733  0.813416  1
  Er  Er4  1  0.185976  0.812733  0.187874  1
  Er  Er5  1  0.810532  0.188437  0.812128  1
  Er  Er6  1  0.186055  0.187536  0.813204  1
  Er  Er7  1  0.810775  0.811570  0.188827  1
  Er  Er8  1  0.932238  0.565132  0.565090  1
  Er  Er9  1  0.563939  0.935624  0.935220  1
  Er  Er10  1  0.563939  0.935624  0.565216  1
  Er  Er11  1  0.932238  0.565132  0.937540  1
  Er  Er12  1  0.563560  0.565428  0.935506  1
  Er  Er13  1  0.932281  0.937352  0.565183  1
  Tm  Tm14  1  0.351474  0.349595  0.349123  1
  Tm  Tm15  1  0.351474  0.349595  0.949808  1
  Mg  Mg16  1  0.280803  0.573046  0.573074  1
  Ag  Ag17  1  0.582599  0.583279  0.583240  1
  Ag  Ag18  1  0.582599  0.583279  0.250881  1
  Ag  Ag19  1  0.582540  0.251090  0.583185  1
  Rh  Rh20  1  0.142777  0.143599  0.143129  1
  Rh  Rh21  1  0.142777  0.143599  0.570493  1
  Rh  Rh22  1  0.142951  0.570472  0.143288  1
  Rh  Rh23  1  0.570138  0.143514  0.143174  1
