# generated using pymatgen
data_Hf16Co2Ni2Mo3Au
_symmetry_space_group_name_H-M   'P 1'
_cell_length_a   8.69883127
_cell_length_b   8.69883240
_cell_length_c   8.69397738
_cell_angle_alpha   59.85646432
_cell_angle_beta   59.85645051
_cell_angle_gamma   59.97018539
_symmetry_Int_Tables_number   1
_chemical_formula_structural   Hf16Co2Ni2Mo3Au
_chemical_formula_sum   'Hf16 Co2 Ni2 Mo3 Au1'
_cell_volume   464.06858840
_cell_formula_units_Z   1
loop_
 _symmetry_equiv_pos_site_id
 _symmetry_equiv_pos_as_xyz
  1  'x, y, z'
loop_
 _atom_site_type_symbol
 _atom_site_label
 _atom_site_symmetry_multiplicity
 _atom_site_fract_x
 _atom_site_fract_y
 _atom_site_fract_z
 _atom_site_occupancy
  Hf  Hf0  1  0.696247  0.102530  0.098613  1
  Hf  Hf1  1  0.102530  0.696247  0.098613  1
  Hf  Hf2  1  0.099752  0.099752  0.700465  1
  Hf  Hf3  1  0.102261  0.102261  0.098960  1
  Hf  Hf4  1  0.315338  0.315338  0.691669  1
  Hf  Hf5  1  0.685959  0.685959  0.315369  1
  Hf  Hf6  1  0.315585  0.692710  0.315186  1
  Hf  Hf7  1  0.685036  0.315850  0.685196  1
  Hf  Hf8  1  0.692710  0.315585  0.315186  1
  Hf  Hf9  1  0.315850  0.685036  0.685196  1
  Hf  Hf10  1  0.956413  0.956413  0.542045  1
  Hf  Hf11  1  0.555498  0.555498  0.942210  1
  Hf  Hf12  1  0.953802  0.541677  0.953461  1
  Hf  Hf13  1  0.550316  0.943874  0.557268  1
  Hf  Hf14  1  0.541677  0.953802  0.953461  1
  Hf  Hf15  1  0.943874  0.550316  0.557268  1
  Co  Co16  1  0.325041  0.889299  0.890499  1
  Co  Co17  1  0.889299  0.325041  0.890499  1
  Ni  Ni18  1  0.890275  0.890275  0.325508  1
  Ni  Ni19  1  0.889180  0.889180  0.890389  1
  Mo  Mo20  1  0.996032  0.333051  0.332128  1
  Mo  Mo21  1  0.333051  0.996032  0.332128  1
  Mo  Mo22  1  0.331920  0.331920  0.996497  1
  Au  Au23  1  0.332351  0.332351  0.332180  1
