# generated using pymatgen
data_U4MnSiAs5Ru6
_symmetry_space_group_name_H-M   'P 1'
_cell_length_a   7.19572472
_cell_length_b   7.19572328
_cell_length_c   7.19572362
_cell_angle_alpha   109.38968006
_cell_angle_beta   109.51466966
_cell_angle_gamma   109.50933815
_symmetry_Int_Tables_number   1
_chemical_formula_structural   U4MnSiAs5Ru6
_chemical_formula_sum   'U4 Mn1 Si1 As5 Ru6'
_cell_volume   286.81439390
_cell_formula_units_Z   1
loop_
 _symmetry_equiv_pos_site_id
 _symmetry_equiv_pos_as_xyz
  1  'x, y, z'
loop_
 _atom_site_type_symbol
 _atom_site_label
 _atom_site_symmetry_multiplicity
 _atom_site_fract_x
 _atom_site_fract_y
 _atom_site_fract_z
 _atom_site_occupancy
  U  U0  1  0.997691  0.996067  0.496784  1
  U  U1  1  0.500717  0.003933  0.001624  1
  U  U2  1  0.997691  0.500907  0.001624  1
  U  U3  1  0.500717  0.499093  0.496784  1
  Mn  Mn4  1  0.748667  0.500000  0.248667  1
  Si  Si5  1  0.317199  0.000000  0.317199  1
  As  As6  1  0.997987  0.310398  0.308385  1
  As  As7  1  0.997987  0.689602  0.687590  1
  As  As8  1  0.315474  0.311105  0.004369  1
  As  As9  1  0.693265  0.688895  0.004369  1
  As  As10  1  0.690803  0.000000  0.690803  1
  Ru  Ru11  1  0.494672  0.751568  0.246241  1
  Ru  Ru12  1  0.494672  0.248432  0.743104  1
  Ru  Ru13  1  0.742198  0.248890  0.493308  1
  Ru  Ru14  1  0.244419  0.751110  0.493308  1
  Ru  Ru15  1  0.248394  0.500000  0.748394  1
  Ru  Ru16  1  0.017447  0.000000  0.017447  1
