# generated using pymatgen
data_Ca3In3AgHg2
_symmetry_space_group_name_H-M   'P 1'
_cell_length_a   7.98814400
_cell_length_b   7.98814245
_cell_length_c   4.29270700
_cell_angle_alpha   90.00000000
_cell_angle_beta   90.00000000
_cell_angle_gamma   119.99998985
_symmetry_Int_Tables_number   1
_chemical_formula_structural   Ca3In3AgHg2
_chemical_formula_sum   'Ca3 In3 Ag1 Hg2'
_cell_volume   237.22126030
_cell_formula_units_Z   1
loop_
 _symmetry_equiv_pos_site_id
 _symmetry_equiv_pos_as_xyz
  1  'x, y, z'
loop_
 _atom_site_type_symbol
 _atom_site_label
 _atom_site_symmetry_multiplicity
 _atom_site_fract_x
 _atom_site_fract_y
 _atom_site_fract_z
 _atom_site_occupancy
  Ca  Ca0  1  0.000000  0.593418  0.500000  1
  Ca  Ca1  1  0.406582  0.406582  0.500000  1
  Ca  Ca2  1  0.593418  0.000000  0.500000  1
  In  In3  1  0.754019  0.754019  0.000000  1
  In  In4  1  0.000000  0.245981  0.000000  1
  In  In5  1  0.245981  0.000000  0.000000  1
  Ag  Ag6  1  0.000000  0.000000  0.500000  1
  Hg  Hg7  1  0.333333  0.666667  0.000000  1
  Hg  Hg8  1  0.666667  0.333333  0.000000  1
