# generated using pymatgen
data_Ca13Yb(PbN4)2
_symmetry_space_group_name_H-M   'P 1'
_cell_length_a   3.59787500
_cell_length_b   12.09656714
_cell_length_c   11.65841614
_cell_angle_alpha   90.01774299
_cell_angle_beta   90.00000000
_cell_angle_gamma   90.00000000
_symmetry_Int_Tables_number   1
_chemical_formula_structural   Ca13Yb(PbN4)2
_chemical_formula_sum   'Ca13 Yb1 Pb2 N8'
_cell_volume   507.39682279
_cell_formula_units_Z   1
loop_
 _symmetry_equiv_pos_site_id
 _symmetry_equiv_pos_as_xyz
  1  'x, y, z'
loop_
 _atom_site_type_symbol
 _atom_site_label
 _atom_site_symmetry_multiplicity
 _atom_site_fract_x
 _atom_site_fract_y
 _atom_site_fract_z
 _atom_site_occupancy
  Ca  Ca0  1  0.500064  0.668925  0.236717  1
  Ca  Ca1  1  0.500064  0.331075  0.763283  1
  Ca  Ca2  1  0.499958  0.169820  0.262000  1
  Ca  Ca3  1  0.499958  0.830180  0.738000  1
  Ca  Ca4  1  0.500105  0.000000  0.500000  1
  Ca  Ca5  1  0.999397  0.927373  0.265879  1
  Ca  Ca6  1  0.999397  0.072627  0.734121  1
  Ca  Ca7  1  0.000566  0.427663  0.233289  1
  Ca  Ca8  1  0.000566  0.572337  0.766711  1
  Ca  Ca9  1  0.000802  0.767712  0.480680  1
  Ca  Ca10  1  0.000802  0.232288  0.519320  1
  Ca  Ca11  1  0.999259  0.268695  0.018970  1
  Ca  Ca12  1  0.999259  0.731305  0.981030  1
  Yb  Yb13  1  0.500019  0.500000  0.000000  1
  Pb  Pb14  1  0.529466  0.500000  0.500000  1
  Pb  Pb15  1  0.470329  0.000000  0.000000  1
  N  N16  1  0.000023  0.598665  0.129117  1
  N  N17  1  0.000023  0.401335  0.870883  1
  N  N18  1  0.999991  0.100321  0.369004  1
  N  N19  1  0.999991  0.899679  0.630996  1
  N  N20  1  0.499952  0.830287  0.360074  1
  N  N21  1  0.499952  0.169713  0.639926  1
  N  N22  1  0.500030  0.331971  0.138473  1
  N  N23  1  0.500030  0.668029  0.861527  1
