# generated using pymatgen
data_Th4Mg2Pd3Pt
_symmetry_space_group_name_H-M   'P 1'
_cell_length_a   3.86595100
_cell_length_b   7.92515919
_cell_length_c   7.92515919
_cell_angle_alpha   89.84569124
_cell_angle_beta   90.00000000
_cell_angle_gamma   90.00000000
_symmetry_Int_Tables_number   1
_chemical_formula_structural   Th4Mg2Pd3Pt
_chemical_formula_sum   'Th4 Mg2 Pd3 Pt1'
_cell_volume   242.81234241
_cell_formula_units_Z   1
loop_
 _symmetry_equiv_pos_site_id
 _symmetry_equiv_pos_as_xyz
  1  'x, y, z'
loop_
 _atom_site_type_symbol
 _atom_site_label
 _atom_site_symmetry_multiplicity
 _atom_site_fract_x
 _atom_site_fract_y
 _atom_site_fract_z
 _atom_site_occupancy
  Th  Th0  1  0.500000  0.172377  0.672377  1
  Th  Th1  1  0.500000  0.824810  0.324810  1
  Th  Th2  1  0.500000  0.330184  0.173616  1
  Th  Th3  1  0.500000  0.673616  0.830184  1
  Mg  Mg4  1  0.000000  0.999879  0.999974  1
  Mg  Mg5  1  0.000000  0.499974  0.499879  1
  Pd  Pd6  1  0.000000  0.367532  0.867532  1
  Pd  Pd7  1  0.000000  0.869251  0.631327  1
  Pd  Pd8  1  0.000000  0.131327  0.369251  1
  Pt  Pt9  1  0.000000  0.631051  0.131051  1
