# generated using pymatgen
data_CaGd4Si3H
_symmetry_space_group_name_H-M   'P 1'
_cell_length_a   8.71797303
_cell_length_b   8.71797358
_cell_length_c   8.71797400
_cell_angle_alpha   128.63453034
_cell_angle_beta   128.63453324
_cell_angle_gamma   75.59934340
_symmetry_Int_Tables_number   1
_chemical_formula_structural   CaGd4Si3H
_chemical_formula_sum   'Ca2 Gd8 Si6 H2'
_cell_volume   393.34504101
_cell_formula_units_Z   2
loop_
 _symmetry_equiv_pos_site_id
 _symmetry_equiv_pos_as_xyz
  1  'x, y, z'
loop_
 _atom_site_type_symbol
 _atom_site_label
 _atom_site_symmetry_multiplicity
 _atom_site_fract_x
 _atom_site_fract_y
 _atom_site_fract_z
 _atom_site_occupancy
  Ca  Ca0  1  0.500000  0.500000  0.000000  1
  Ca  Ca1  1  0.000000  0.000000  0.000000  1
  Gd  Gd2  1  0.521017  0.021017  0.838433  1
  Gd  Gd3  1  0.182585  0.682585  0.161567  1
  Gd  Gd4  1  0.021017  0.182585  0.500000  1
  Gd  Gd5  1  0.682585  0.521017  0.500000  1
  Gd  Gd6  1  0.478983  0.978983  0.161567  1
  Gd  Gd7  1  0.817415  0.317415  0.838433  1
  Gd  Gd8  1  0.978983  0.817415  0.500000  1
  Gd  Gd9  1  0.317415  0.478983  0.500000  1
  Si  Si10  1  0.250000  0.250000  0.000000  1
  Si  Si11  1  0.750000  0.750000  0.000000  1
  Si  Si12  1  0.883303  0.383303  0.266609  1
  Si  Si13  1  0.116697  0.616697  0.733391  1
  Si  Si14  1  0.383303  0.116697  0.500000  1
  Si  Si15  1  0.616697  0.883303  0.500000  1
  H  H16  1  0.250000  0.750000  0.500000  1
  H  H17  1  0.750000  0.250000  0.500000  1
