# generated using pymatgen
data_La16Cd4Co3Tc
_symmetry_space_group_name_H-M   'P 1'
_cell_length_a   10.04019110
_cell_length_b   9.93534000
_cell_length_c   9.93534100
_cell_angle_alpha   59.99999999
_cell_angle_beta   60.34485910
_cell_angle_gamma   60.34485629
_symmetry_Int_Tables_number   1
_chemical_formula_structural   La16Cd4Co3Tc
_chemical_formula_sum   'La16 Cd4 Co3 Tc1'
_cell_volume   704.42815180
_cell_formula_units_Z   1
loop_
 _symmetry_equiv_pos_site_id
 _symmetry_equiv_pos_as_xyz
  1  'x, y, z'
loop_
 _atom_site_type_symbol
 _atom_site_label
 _atom_site_symmetry_multiplicity
 _atom_site_fract_x
 _atom_site_fract_y
 _atom_site_fract_z
 _atom_site_occupancy
  La  La0  1  0.935279  0.946740  0.558990  1
  La  La1  1  0.561800  0.940223  0.557755  1
  La  La2  1  0.561800  0.940223  0.940223  1
  La  La3  1  0.682719  0.690498  0.313392  1
  La  La4  1  0.159582  0.151684  0.537048  1
  La  La5  1  0.308886  0.689603  0.689603  1
  La  La6  1  0.159582  0.151684  0.151684  1
  La  La7  1  0.538637  0.153787  0.153787  1
  La  La8  1  0.308886  0.689603  0.311908  1
  La  La9  1  0.308886  0.311908  0.689603  1
  La  La10  1  0.682719  0.313392  0.690498  1
  La  La11  1  0.935279  0.558990  0.558990  1
  La  La12  1  0.561800  0.557755  0.940223  1
  La  La13  1  0.159582  0.537048  0.151684  1
  La  La14  1  0.682719  0.313392  0.313392  1
  La  La15  1  0.935279  0.558990  0.946740  1
  Cd  Cd16  1  0.242746  0.919084  0.919084  1
  Cd  Cd17  1  0.917917  0.922097  0.922097  1
  Cd  Cd18  1  0.917917  0.922097  0.237889  1
  Cd  Cd19  1  0.917917  0.237889  0.922097  1
  Co  Co20  1  0.369874  0.357174  0.915776  1
  Co  Co21  1  0.369874  0.915776  0.357174  1
  Co  Co22  1  0.369874  0.357174  0.357174  1
  Tc  Tc23  1  0.910440  0.363186  0.363186  1
