# generated using pymatgen
data_Ta3Al2OsN
_symmetry_space_group_name_H-M   'P 1'
_cell_length_a   8.27254378
_cell_length_b   8.27254416
_cell_length_c   8.27254400
_cell_angle_alpha   60.00000064
_cell_angle_beta   59.99999911
_cell_angle_gamma   59.99999863
_symmetry_Int_Tables_number   1
_chemical_formula_structural   Ta3Al2OsN
_chemical_formula_sum   'Ta12 Al8 Os4 N4'
_cell_volume   400.31535686
_cell_formula_units_Z   4
loop_
 _symmetry_equiv_pos_site_id
 _symmetry_equiv_pos_as_xyz
  1  'x, y, z'
loop_
 _atom_site_type_symbol
 _atom_site_label
 _atom_site_symmetry_multiplicity
 _atom_site_fract_x
 _atom_site_fract_y
 _atom_site_fract_z
 _atom_site_occupancy
  Ta  Ta0  1  0.559394  0.940606  0.559394  1
  Ta  Ta1  1  0.309394  0.690606  0.690606  1
  Ta  Ta2  1  0.690606  0.309394  0.309394  1
  Ta  Ta3  1  0.309394  0.690606  0.309394  1
  Ta  Ta4  1  0.690606  0.690606  0.309394  1
  Ta  Ta5  1  0.309394  0.309394  0.690606  1
  Ta  Ta6  1  0.559394  0.559394  0.940606  1
  Ta  Ta7  1  0.940606  0.559394  0.559394  1
  Ta  Ta8  1  0.559394  0.940606  0.940606  1
  Ta  Ta9  1  0.940606  0.940606  0.559394  1
  Ta  Ta10  1  0.690606  0.309394  0.690606  1
  Ta  Ta11  1  0.940606  0.559394  0.940606  1
  Al  Al12  1  0.916230  0.916230  0.916230  1
  Al  Al13  1  0.998689  0.333770  0.333770  1
  Al  Al14  1  0.333770  0.998689  0.333770  1
  Al  Al15  1  0.333770  0.333770  0.998689  1
  Al  Al16  1  0.916230  0.251311  0.916230  1
  Al  Al17  1  0.916230  0.916230  0.251311  1
  Al  Al18  1  0.251311  0.916230  0.916230  1
  Al  Al19  1  0.333770  0.333770  0.333770  1
  Os  Os20  1  0.125000  0.125000  0.125000  1
  Os  Os21  1  0.625000  0.125000  0.125000  1
  Os  Os22  1  0.125000  0.625000  0.125000  1
  Os  Os23  1  0.125000  0.125000  0.625000  1
  N  N24  1  0.625000  0.625000  0.625000  1
  N  N25  1  0.125000  0.625000  0.625000  1
  N  N26  1  0.625000  0.125000  0.625000  1
  N  N27  1  0.625000  0.625000  0.125000  1
