# generated using pymatgen
data_Tb2YbEr2(ReO6)2
_symmetry_space_group_name_H-M   'P 1'
_cell_length_a   6.80433807
_cell_length_b   6.80433993
_cell_length_c   7.56967629
_cell_angle_alpha   73.85811813
_cell_angle_beta   73.85811483
_cell_angle_gamma   49.33931490
_symmetry_Int_Tables_number   1
_chemical_formula_structural   Tb2YbEr2(ReO6)2
_chemical_formula_sum   'Tb2 Yb1 Er2 Re2 O12'
_cell_volume   253.11132804
_cell_formula_units_Z   1
loop_
 _symmetry_equiv_pos_site_id
 _symmetry_equiv_pos_as_xyz
  1  'x, y, z'
loop_
 _atom_site_type_symbol
 _atom_site_label
 _atom_site_symmetry_multiplicity
 _atom_site_fract_x
 _atom_site_fract_y
 _atom_site_fract_z
 _atom_site_occupancy
  Tb  Tb0  1  0.695886  0.695886  0.636115  1
  Tb  Tb1  1  0.302270  0.302270  0.361105  1
  Yb  Yb2  1  0.683454  0.683454  0.177298  1
  Er  Er3  1  0.315836  0.315836  0.818452  1
  Er  Er4  1  0.003760  0.003760  0.500996  1
  Re  Re5  1  0.783630  0.215771  0.002058  1
  Re  Re6  1  0.215771  0.783630  0.002058  1
  O  O7  1  0.000126  0.000126  0.208023  1
  O  O8  1  0.998132  0.998132  0.796411  1
  O  O9  1  0.587122  0.089557  0.077077  1
  O  O10  1  0.405929  0.918104  0.912979  1
  O  O11  1  0.918104  0.405929  0.912979  1
  O  O12  1  0.089557  0.587122  0.077077  1
  O  O13  1  0.498559  0.498559  0.174311  1
  O  O14  1  0.500613  0.500613  0.823757  1
  O  O15  1  0.400271  0.905462  0.432563  1
  O  O16  1  0.594534  0.100984  0.577090  1
  O  O17  1  0.100984  0.594534  0.577090  1
  O  O18  1  0.905462  0.400271  0.432563  1
