# generated using pymatgen
data_Y10In3Ni
_symmetry_space_group_name_H-M   'P 1'
_cell_length_a   9.76239500
_cell_length_b   9.76237850
_cell_length_c   9.76301300
_cell_angle_alpha   90.00000000
_cell_angle_beta   90.00000000
_cell_angle_gamma   120.00010897
_symmetry_Int_Tables_number   1
_chemical_formula_structural   Y10In3Ni
_chemical_formula_sum   'Y20 In6 Ni2'
_cell_volume   805.79773092
_cell_formula_units_Z   2
loop_
 _symmetry_equiv_pos_site_id
 _symmetry_equiv_pos_as_xyz
  1  'x, y, z'
loop_
 _atom_site_type_symbol
 _atom_site_label
 _atom_site_symmetry_multiplicity
 _atom_site_fract_x
 _atom_site_fract_y
 _atom_site_fract_z
 _atom_site_occupancy
  Y  Y0  1  0.000000  0.000000  0.500000  1
  Y  Y1  1  0.000000  0.000000  0.000000  1
  Y  Y2  1  0.543477  0.456524  0.250000  1
  Y  Y3  1  0.543477  0.086953  0.250000  1
  Y  Y4  1  0.913047  0.456523  0.250000  1
  Y  Y5  1  0.456523  0.543476  0.750000  1
  Y  Y6  1  0.456523  0.913047  0.750000  1
  Y  Y7  1  0.086953  0.543477  0.750000  1
  Y  Y8  1  0.210185  0.789815  0.436653  1
  Y  Y9  1  0.210186  0.420372  0.436653  1
  Y  Y10  1  0.579629  0.789815  0.436653  1
  Y  Y11  1  0.789815  0.210185  0.563347  1
  Y  Y12  1  0.789814  0.579628  0.563347  1
  Y  Y13  1  0.420371  0.210185  0.563347  1
  Y  Y14  1  0.789815  0.210185  0.936653  1
  Y  Y15  1  0.789814  0.579628  0.936653  1
  Y  Y16  1  0.420371  0.210185  0.936653  1
  Y  Y17  1  0.210185  0.789815  0.063347  1
  Y  Y18  1  0.210186  0.420372  0.063347  1
  Y  Y19  1  0.579629  0.789815  0.063347  1
  In  In20  1  0.883872  0.116128  0.250000  1
  In  In21  1  0.883872  0.767744  0.250000  1
  In  In22  1  0.232257  0.116128  0.250000  1
  In  In23  1  0.116128  0.883872  0.750000  1
  In  In24  1  0.116128  0.232256  0.750000  1
  In  In25  1  0.767743  0.883872  0.750000  1
  Ni  Ni26  1  0.333333  0.666667  0.250000  1
  Ni  Ni27  1  0.666667  0.333333  0.750000  1
