# generated using pymatgen
data_Pm4Zn(FeO4)3
_symmetry_space_group_name_H-M   'P 1'
_cell_length_a   5.43894176
_cell_length_b   5.71506987
_cell_length_c   7.80914006
_cell_angle_alpha   90.08226209
_cell_angle_beta   90.02618316
_cell_angle_gamma   90.16729132
_symmetry_Int_Tables_number   1
_chemical_formula_structural   Pm4Zn(FeO4)3
_chemical_formula_sum   'Pm4 Zn1 Fe3 O12'
_cell_volume   242.73746953
_cell_formula_units_Z   1
loop_
 _symmetry_equiv_pos_site_id
 _symmetry_equiv_pos_as_xyz
  1  'x, y, z'
loop_
 _atom_site_type_symbol
 _atom_site_label
 _atom_site_symmetry_multiplicity
 _atom_site_fract_x
 _atom_site_fract_y
 _atom_site_fract_z
 _atom_site_occupancy
  Pm  Pm0  1  0.983634  0.066660  0.253094  1
  Pm  Pm1  1  0.515578  0.562850  0.253035  1
  Pm  Pm2  1  0.484421  0.437150  0.746966  1
  Pm  Pm3  1  0.016366  0.933340  0.746906  1
  Zn  Zn4  1  0.999999  0.500000  0.500000  1
  Fe  Fe5  1  0.500003  0.999998  0.000000  1
  Fe  Fe6  1  0.999999  0.500000  0.000001  1
  Fe  Fe7  1  0.500003  0.000003  0.499996  1
  O  O8  1  0.698460  0.300100  0.052414  1
  O  O9  1  0.799813  0.801404  0.053109  1
  O  O10  1  0.096764  0.471515  0.242941  1
  O  O11  1  0.401453  0.970127  0.247529  1
  O  O12  1  0.691092  0.294484  0.450294  1
  O  O13  1  0.792587  0.810369  0.451265  1
  O  O14  1  0.207412  0.189631  0.548736  1
  O  O15  1  0.308907  0.705517  0.549707  1
  O  O16  1  0.598546  0.029873  0.752471  1
  O  O17  1  0.903235  0.528484  0.757059  1
  O  O18  1  0.200186  0.198596  0.946892  1
  O  O19  1  0.301539  0.699900  0.947586  1
