# generated using pymatgen
data_Yb3Np5(ReB6)4
_symmetry_space_group_name_H-M   'P 1'
_cell_length_a   3.61797600
_cell_length_b   9.24082600
_cell_length_c   11.32372100
_cell_angle_alpha   89.99809084
_cell_angle_beta   90.00000000
_cell_angle_gamma   90.00000000
_symmetry_Int_Tables_number   1
_chemical_formula_structural   Yb3Np5(ReB6)4
_chemical_formula_sum   'Yb3 Np5 Re4 B24'
_cell_volume   378.58694572
_cell_formula_units_Z   1
loop_
 _symmetry_equiv_pos_site_id
 _symmetry_equiv_pos_as_xyz
  1  'x, y, z'
loop_
 _atom_site_type_symbol
 _atom_site_label
 _atom_site_symmetry_multiplicity
 _atom_site_fract_x
 _atom_site_fract_y
 _atom_site_fract_z
 _atom_site_occupancy
  Yb  Yb0  1  0.000000  0.338959  0.407903  1
  Yb  Yb1  1  0.000000  0.661280  0.591135  1
  Yb  Yb2  1  0.000000  0.837112  0.093244  1
  Np  Np3  1  0.000000  0.161385  0.907262  1
  Np  Np4  1  0.000000  0.957783  0.399288  1
  Np  Np5  1  0.000000  0.040788  0.599279  1
  Np  Np6  1  0.000000  0.460022  0.101223  1
  Np  Np7  1  0.000000  0.541931  0.901172  1
  Re  Re8  1  0.000000  0.647796  0.317716  1
  Re  Re9  1  0.000000  0.350580  0.684573  1
  Re  Re10  1  0.000000  0.147356  0.179993  1
  Re  Re11  1  0.000000  0.856157  0.818187  1
  B  B12  1  0.500000  0.552403  0.431317  1
  B  B13  1  0.500000  0.446790  0.569382  1
  B  B14  1  0.500000  0.053433  0.068432  1
  B  B15  1  0.500000  0.948472  0.930661  1
  B  B16  1  0.500000  0.744759  0.422440  1
  B  B17  1  0.500000  0.255370  0.577495  1
  B  B18  1  0.500000  0.244431  0.076919  1
  B  B19  1  0.500000  0.755534  0.922432  1
  B  B20  1  0.500000  0.804721  0.274772  1
  B  B21  1  0.500000  0.194713  0.726138  1
  B  B22  1  0.500000  0.304976  0.225434  1
  B  B23  1  0.500000  0.695806  0.774645  1
  B  B24  1  0.500000  0.644152  0.188560  1
  B  B25  1  0.500000  0.354889  0.812286  1
  B  B26  1  0.500000  0.144241  0.311462  1
  B  B27  1  0.500000  0.855289  0.687926  1
  B  B28  1  0.500000  0.989594  0.220069  1
  B  B29  1  0.500000  0.011661  0.779681  1
  B  B30  1  0.500000  0.489512  0.279955  1
  B  B31  1  0.500000  0.510439  0.720177  1
  B  B32  1  0.500000  0.638996  0.038567  1
  B  B33  1  0.500000  0.358983  0.961330  1
  B  B34  1  0.500000  0.137572  0.461235  1
  B  B35  1  0.500000  0.862118  0.537710  1
