# generated using pymatgen
data_Y2TmSn3RuPt2
_symmetry_space_group_name_H-M   'P 1'
_cell_length_a   7.67391600
_cell_length_b   7.65780648
_cell_length_c   3.80798500
_cell_angle_alpha   90.00000000
_cell_angle_beta   90.00000000
_cell_angle_gamma   120.06961339
_symmetry_Int_Tables_number   1
_chemical_formula_structural   Y2TmSn3RuPt2
_chemical_formula_sum   'Y2 Tm1 Sn3 Ru1 Pt2'
_cell_volume   193.66102055
_cell_formula_units_Z   1
loop_
 _symmetry_equiv_pos_site_id
 _symmetry_equiv_pos_as_xyz
  1  'x, y, z'
loop_
 _atom_site_type_symbol
 _atom_site_label
 _atom_site_symmetry_multiplicity
 _atom_site_fract_x
 _atom_site_fract_y
 _atom_site_fract_z
 _atom_site_occupancy
  Y  Y0  1  0.999991  0.402698  0.000000  1
  Y  Y1  1  0.597293  0.597302  0.000000  1
  Tm  Tm2  1  0.402362  0.000000  0.000000  1
  Sn  Sn3  1  0.000929  0.740188  0.500000  1
  Sn  Sn4  1  0.260741  0.259812  0.500000  1
  Sn  Sn5  1  0.739028  0.000000  0.500000  1
  Ru  Ru6  1  0.001697  0.000000  0.000000  1
  Pt  Pt7  1  0.333974  0.669990  0.500000  1
  Pt  Pt8  1  0.663985  0.330010  0.500000  1
