# generated using pymatgen
data_Nd6Mg2Cd21P
_symmetry_space_group_name_H-M   'P 1'
_cell_length_a   10.01000781
_cell_length_b   10.05402282
_cell_length_c   10.05402256
_cell_angle_alpha   60.20932105
_cell_angle_beta   60.14470991
_cell_angle_gamma   60.14471286
_symmetry_Int_Tables_number   1
_chemical_formula_structural   Nd6Mg2Cd21P
_chemical_formula_sum   'Nd6 Mg2 Cd21 P1'
_cell_volume   718.17609687
_cell_formula_units_Z   1
loop_
 _symmetry_equiv_pos_site_id
 _symmetry_equiv_pos_as_xyz
  1  'x, y, z'
loop_
 _atom_site_type_symbol
 _atom_site_label
 _atom_site_symmetry_multiplicity
 _atom_site_fract_x
 _atom_site_fract_y
 _atom_site_fract_z
 _atom_site_occupancy
  Nd  Nd0  1  0.797021  0.798855  0.201145  1
  Nd  Nd1  1  0.202979  0.798855  0.201145  1
  Nd  Nd2  1  0.797401  0.202599  0.202599  1
  Nd  Nd3  1  0.202979  0.201145  0.798855  1
  Nd  Nd4  1  0.797021  0.201145  0.798855  1
  Nd  Nd5  1  0.202599  0.797401  0.797401  1
  Mg  Mg6  1  0.000000  0.500000  0.500000  1
  Mg  Mg7  1  0.500000  0.500000  0.500000  1
  Cd  Cd8  1  0.834135  0.829825  0.501904  1
  Cd  Cd9  1  0.834135  0.501904  0.829825  1
  Cd  Cd10  1  0.500553  0.832793  0.832793  1
  Cd  Cd11  1  0.833860  0.832793  0.832793  1
  Cd  Cd12  1  0.165865  0.170175  0.498096  1
  Cd  Cd13  1  0.165865  0.498096  0.170175  1
  Cd  Cd14  1  0.499447  0.167207  0.167207  1
  Cd  Cd15  1  0.166140  0.167207  0.167207  1
  Cd  Cd16  1  0.621082  0.620017  0.137817  1
  Cd  Cd17  1  0.621082  0.137817  0.620017  1
  Cd  Cd18  1  0.137305  0.619836  0.619836  1
  Cd  Cd19  1  0.623022  0.619836  0.619836  1
  Cd  Cd20  1  0.378918  0.379983  0.862183  1
  Cd  Cd21  1  0.378918  0.862183  0.379983  1
  Cd  Cd22  1  0.862695  0.380164  0.380164  1
  Cd  Cd23  1  0.376978  0.380164  0.380164  1
  Cd  Cd24  1  0.000000  0.000000  0.500000  1
  Cd  Cd25  1  0.500000  0.000000  0.500000  1
  Cd  Cd26  1  0.500000  0.500000  0.000000  1
  Cd  Cd27  1  0.000000  0.500000  0.000000  1
  Cd  Cd28  1  0.500000  0.000000  0.000000  1
  P  P29  1  0.000000  0.000000  0.000000  1
