# generated using pymatgen
data_TbDyNp8O20
_symmetry_space_group_name_H-M   'P 1'
_cell_length_a   6.58514007
_cell_length_b   7.60286194
_cell_length_c   8.50510309
_cell_angle_alpha   102.88883884
_cell_angle_beta   97.35815815
_cell_angle_gamma   106.79370729
_symmetry_Int_Tables_number   1
_chemical_formula_structural   TbDyNp8O20
_chemical_formula_sum   'Tb1 Dy1 Np8 O20'
_cell_volume   388.83653370
_cell_formula_units_Z   1
loop_
 _symmetry_equiv_pos_site_id
 _symmetry_equiv_pos_as_xyz
  1  'x, y, z'
loop_
 _atom_site_type_symbol
 _atom_site_label
 _atom_site_symmetry_multiplicity
 _atom_site_fract_x
 _atom_site_fract_y
 _atom_site_fract_z
 _atom_site_occupancy
  Tb  Tb0  1  0.800694  0.601491  0.601766  1
  Dy  Dy1  1  0.999300  0.998499  0.998337  1
  Np  Np2  1  0.000711  0.500632  0.999246  1
  Np  Np3  1  0.600240  0.200202  0.200101  1
  Np  Np4  1  0.799300  0.099517  0.601090  1
  Np  Np5  1  0.602007  0.700370  0.200486  1
  Np  Np6  1  0.199887  0.399739  0.399705  1
  Np  Np7  1  0.399478  0.299815  0.799919  1
  Np  Np8  1  0.198485  0.899713  0.399269  1
  Np  Np9  1  0.399731  0.799966  0.799947  1
  O  O10  1  0.851010  0.318098  0.448776  1
  O  O11  1  0.644411  0.923552  0.054056  1
  O  O12  1  0.948952  0.769393  0.152130  1
  O  O13  1  0.851813  0.831204  0.447614  1
  O  O14  1  0.441255  0.520978  0.651391  1
  O  O15  1  0.649890  0.426148  0.049788  1
  O  O16  1  0.746115  0.368963  0.753552  1
  O  O17  1  0.253551  0.125960  0.254660  1
  O  O18  1  0.445788  0.025807  0.647559  1
  O  O19  1  0.949151  0.281417  0.151258  1
  O  O20  1  0.548556  0.973750  0.351850  1
  O  O21  1  0.058368  0.721783  0.852064  1
  O  O22  1  0.251879  0.626393  0.247966  1
  O  O23  1  0.741872  0.879181  0.748974  1
  O  O24  1  0.353756  0.574051  0.952227  1
  O  O25  1  0.053215  0.230551  0.847059  1
  O  O26  1  0.546585  0.473790  0.344761  1
  O  O27  1  0.150028  0.173663  0.550255  1
  O  O28  1  0.357510  0.078570  0.948583  1
  O  O29  1  0.156461  0.676803  0.545610  1
