# generated using pymatgen
data_NaY4S5
_symmetry_space_group_name_H-M   'P 1'
_cell_length_a   10.45400087
_cell_length_b   10.45400033
_cell_length_c   10.45400095
_cell_angle_alpha   158.40438436
_cell_angle_beta   149.12132849
_cell_angle_gamma   37.99535054
_symmetry_Int_Tables_number   1
_chemical_formula_structural   NaY4S5
_chemical_formula_sum   'Na1 Y4 S5'
_cell_volume   215.50640897
_cell_formula_units_Z   1
loop_
 _symmetry_equiv_pos_site_id
 _symmetry_equiv_pos_as_xyz
  1  'x, y, z'
loop_
 _atom_site_type_symbol
 _atom_site_label
 _atom_site_symmetry_multiplicity
 _atom_site_fract_x
 _atom_site_fract_y
 _atom_site_fract_z
 _atom_site_occupancy
  Na  Na0  1  0.500000  0.000000  0.500000  1
  Y  Y1  1  0.100892  0.600892  0.500000  1
  Y  Y2  1  0.703382  0.203382  0.500000  1
  Y  Y3  1  0.296618  0.796618  0.500000  1
  Y  Y4  1  0.899108  0.399108  0.500000  1
  S  S5  1  0.801897  0.801897  0.000000  1
  S  S6  1  0.396036  0.396036  0.000000  1
  S  S7  1  0.000000  0.000000  0.000000  1
  S  S8  1  0.603965  0.603964  0.000000  1
  S  S9  1  0.198103  0.198103  0.000000  1
