# generated using pymatgen
data_Nb2VB2Os5
_symmetry_space_group_name_H-M   'P 1'
_cell_length_a   9.43552700
_cell_length_b   9.43552700
_cell_length_c   2.97387500
_cell_angle_alpha   90.00000000
_cell_angle_beta   90.00000000
_cell_angle_gamma   90.00000000
_symmetry_Int_Tables_number   1
_chemical_formula_structural   Nb2VB2Os5
_chemical_formula_sum   'Nb4 V2 B4 Os10'
_cell_volume   264.76162224
_cell_formula_units_Z   2
loop_
 _symmetry_equiv_pos_site_id
 _symmetry_equiv_pos_as_xyz
  1  'x, y, z'
loop_
 _atom_site_type_symbol
 _atom_site_label
 _atom_site_symmetry_multiplicity
 _atom_site_fract_x
 _atom_site_fract_y
 _atom_site_fract_z
 _atom_site_occupancy
  Nb  Nb0  1  0.822467  0.677533  0.000000  1
  Nb  Nb1  1  0.177533  0.322467  0.000000  1
  Nb  Nb2  1  0.322467  0.822467  0.000000  1
  Nb  Nb3  1  0.677533  0.177533  0.000000  1
  V  V4  1  0.500000  0.500000  0.000000  1
  V  V5  1  0.000000  0.000000  0.000000  1
  B  B6  1  0.623190  0.876810  0.000000  1
  B  B7  1  0.376810  0.123190  0.000000  1
  B  B8  1  0.123190  0.623190  0.000000  1
  B  B9  1  0.876810  0.376810  0.000000  1
  Os  Os10  1  0.569285  0.713767  0.500000  1
  Os  Os11  1  0.430715  0.286233  0.500000  1
  Os  Os12  1  0.069285  0.786233  0.500000  1
  Os  Os13  1  0.930715  0.213767  0.500000  1
  Os  Os14  1  0.286233  0.569285  0.500000  1
  Os  Os15  1  0.713767  0.430715  0.500000  1
  Os  Os16  1  0.213767  0.069285  0.500000  1
  Os  Os17  1  0.786233  0.930715  0.500000  1
  Os  Os18  1  0.500000  0.000000  0.500000  1
  Os  Os19  1  0.000000  0.500000  0.500000  1
