# generated using pymatgen
data_Ho8Lu12GaBi11
_symmetry_space_group_name_H-M   'P 1'
_cell_length_a   8.08669645
_cell_length_b   9.35551800
_cell_length_c   11.83075800
_cell_angle_alpha   90.00000000
_cell_angle_beta   89.69649739
_cell_angle_gamma   90.00000000
_symmetry_Int_Tables_number   1
_chemical_formula_structural   Ho8Lu12GaBi11
_chemical_formula_sum   'Ho8 Lu12 Ga1 Bi11'
_cell_volume   895.04621026
_cell_formula_units_Z   1
loop_
 _symmetry_equiv_pos_site_id
 _symmetry_equiv_pos_as_xyz
  1  'x, y, z'
loop_
 _atom_site_type_symbol
 _atom_site_label
 _atom_site_symmetry_multiplicity
 _atom_site_fract_x
 _atom_site_fract_y
 _atom_site_fract_z
 _atom_site_occupancy
  Ho  Ho0  1  0.352112  0.250000  0.293467  1
  Ho  Ho1  1  0.653125  0.750000  0.716611  1
  Ho  Ho2  1  0.149384  0.750000  0.782389  1
  Ho  Ho3  1  0.849822  0.250000  0.215279  1
  Ho  Ho4  1  0.193755  0.250000  0.777359  1
  Ho  Ho5  1  0.810720  0.750000  0.217918  1
  Ho  Ho6  1  0.312852  0.750000  0.281968  1
  Ho  Ho7  1  0.673669  0.250000  0.710862  1
  Lu  Lu8  1  0.034943  0.250000  0.509547  1
  Lu  Lu9  1  0.981982  0.750000  0.490763  1
  Lu  Lu10  1  0.478743  0.750000  0.010778  1
  Lu  Lu11  1  0.523327  0.250000  0.988888  1
  Lu  Lu12  1  0.191288  0.067306  0.060036  1
  Lu  Lu13  1  0.809407  0.933314  0.941606  1
  Lu  Lu14  1  0.310569  0.949611  0.558370  1
  Lu  Lu15  1  0.809407  0.566686  0.941606  1
  Lu  Lu16  1  0.682402  0.072947  0.445692  1
  Lu  Lu17  1  0.191288  0.432694  0.060036  1
  Lu  Lu18  1  0.682402  0.427053  0.445692  1
  Lu  Lu19  1  0.310569  0.550389  0.558370  1
  Ga  Ga20  1  0.404477  0.250000  0.539753  1
  Bi  Bi21  1  0.597001  0.750000  0.457469  1
  Bi  Bi22  1  0.098527  0.750000  0.043464  1
  Bi  Bi23  1  0.904482  0.250000  0.953112  1
  Bi  Bi24  1  0.061014  0.003067  0.325561  1
  Bi  Bi25  1  0.936248  0.998399  0.673689  1
  Bi  Bi26  1  0.436838  0.994982  0.826463  1
  Bi  Bi27  1  0.936248  0.501601  0.673689  1
  Bi  Bi28  1  0.562771  0.004763  0.173767  1
  Bi  Bi29  1  0.061014  0.496933  0.325561  1
  Bi  Bi30  1  0.562771  0.495237  0.173767  1
  Bi  Bi31  1  0.436838  0.505018  0.826463  1
