# generated using pymatgen
data_Yb3Y(Al3Pt)6
_symmetry_space_group_name_H-M   'P 1'
_cell_length_a   7.62711354
_cell_length_b   7.63087534
_cell_length_c   9.42674400
_cell_angle_alpha   90.00000000
_cell_angle_beta   90.00000000
_cell_angle_gamma   119.68324703
_symmetry_Int_Tables_number   1
_chemical_formula_structural   Yb3Y(Al3Pt)6
_chemical_formula_sum   'Yb3 Y1 Al18 Pt6'
_cell_volume   476.65513036
_cell_formula_units_Z   1
loop_
 _symmetry_equiv_pos_site_id
 _symmetry_equiv_pos_as_xyz
  1  'x, y, z'
loop_
 _atom_site_type_symbol
 _atom_site_label
 _atom_site_symmetry_multiplicity
 _atom_site_fract_x
 _atom_site_fract_y
 _atom_site_fract_z
 _atom_site_occupancy
  Yb  Yb0  1  0.003537  0.328636  0.750000  1
  Yb  Yb1  1  0.670526  0.996099  0.250000  1
  Yb  Yb2  1  0.329792  0.004330  0.750000  1
  Y  Y3  1  0.996028  0.670121  0.250000  1
  Al  Al4  1  0.130475  0.129656  0.250000  1
  Al  Al5  1  0.868836  0.868904  0.750000  1
  Al  Al6  1  0.999389  0.334251  0.076903  1
  Al  Al7  1  0.000895  0.665245  0.922633  1
  Al  Al8  1  0.000895  0.665245  0.577367  1
  Al  Al9  1  0.335309  0.999955  0.423046  1
  Al  Al10  1  0.999389  0.334251  0.423097  1
  Al  Al11  1  0.665210  0.000651  0.576593  1
  Al  Al12  1  0.665210  0.000651  0.923407  1
  Al  Al13  1  0.335309  0.999955  0.076954  1
  Al  Al14  1  0.332204  0.332257  0.557119  1
  Al  Al15  1  0.667550  0.667884  0.442285  1
  Al  Al16  1  0.667550  0.667884  0.057715  1
  Al  Al17  1  0.332204  0.332257  0.942881  1
  Al  Al18  1  0.339339  0.545951  0.250000  1
  Al  Al19  1  0.659386  0.454278  0.750000  1
  Al  Al20  1  0.547214  0.341916  0.250000  1
  Al  Al21  1  0.453673  0.659496  0.750000  1
  Pt  Pt22  1  0.672022  0.328306  0.000085  1
  Pt  Pt23  1  0.328005  0.671946  0.000373  1
  Pt  Pt24  1  0.328005  0.671946  0.499627  1
  Pt  Pt25  1  0.672022  0.328306  0.499915  1
  Pt  Pt26  1  0.000013  0.999811  0.000284  1
  Pt  Pt27  1  0.000013  0.999811  0.499716  1
