# generated using pymatgen
data_YTmMoRuC3
_symmetry_space_group_name_H-M   'P 1'
_cell_length_a   6.02979181
_cell_length_b   6.02979153
_cell_length_c   5.69355519
_cell_angle_alpha   67.59927965
_cell_angle_beta   67.59927866
_cell_angle_gamma   32.19909446
_symmetry_Int_Tables_number   1
_chemical_formula_structural   YTmMoRuC3
_chemical_formula_sum   'Y1 Tm1 Mo1 Ru1 C3'
_cell_volume   101.25923032
_cell_formula_units_Z   1
loop_
 _symmetry_equiv_pos_site_id
 _symmetry_equiv_pos_as_xyz
  1  'x, y, z'
loop_
 _atom_site_type_symbol
 _atom_site_label
 _atom_site_symmetry_multiplicity
 _atom_site_fract_x
 _atom_site_fract_y
 _atom_site_fract_z
 _atom_site_occupancy
  Y  Y0  1  0.607976  0.607976  0.182509  1
  Tm  Tm1  1  0.389751  0.389751  0.834316  1
  Mo  Mo2  1  0.159326  0.159326  0.676537  1
  Ru  Ru3  1  0.841962  0.841962  0.317712  1
  C  C4  1  0.756591  0.756591  0.728494  1
  C  C5  1  0.246228  0.246228  0.269181  1
  C  C6  1  0.998165  0.998165  0.991251  1
