# generated using pymatgen
data_Ho3Tm2Lu11(InRh)4
_symmetry_space_group_name_H-M   'P 1'
_cell_length_a   9.49998599
_cell_length_b   9.49440036
_cell_length_c   9.49549147
_cell_angle_alpha   60.03511717
_cell_angle_beta   59.97674040
_cell_angle_gamma   60.01122435
_symmetry_Int_Tables_number   1
_chemical_formula_structural   Ho3Tm2Lu11(InRh)4
_chemical_formula_sum   'Ho3 Tm2 Lu11 In4 Rh4'
_cell_volume   605.71520696
_cell_formula_units_Z   1
loop_
 _symmetry_equiv_pos_site_id
 _symmetry_equiv_pos_as_xyz
  1  'x, y, z'
loop_
 _atom_site_type_symbol
 _atom_site_label
 _atom_site_symmetry_multiplicity
 _atom_site_fract_x
 _atom_site_fract_y
 _atom_site_fract_z
 _atom_site_occupancy
  Ho  Ho0  1  0.061461  0.061461  0.438539  1
  Ho  Ho1  1  0.437963  0.062811  0.437324  1
  Ho  Ho2  1  0.062811  0.437963  0.061901  1
  Tm  Tm3  1  0.650178  0.650155  0.048807  1
  Tm  Tm4  1  0.650155  0.650178  0.650862  1
  Lu  Lu5  1  0.049037  0.649786  0.650579  1
  Lu  Lu6  1  0.438440  0.438440  0.061560  1
  Lu  Lu7  1  0.649786  0.049037  0.650598  1
  Lu  Lu8  1  0.188494  0.811199  0.188151  1
  Lu  Lu9  1  0.188341  0.188341  0.811659  1
  Lu  Lu10  1  0.811863  0.811863  0.188137  1
  Lu  Lu11  1  0.439458  0.061202  0.060362  1
  Lu  Lu12  1  0.811378  0.188335  0.187969  1
  Lu  Lu13  1  0.061202  0.439458  0.438977  1
  Lu  Lu14  1  0.811199  0.188494  0.812157  1
  Lu  Lu15  1  0.188335  0.811378  0.812318  1
  In  In16  1  0.415854  0.416975  0.416046  1
  In  In17  1  0.749369  0.417126  0.417121  1
  In  In18  1  0.417126  0.749369  0.416383  1
  In  In19  1  0.416975  0.415854  0.751123  1
  Rh  Rh20  1  0.858469  0.857257  0.426980  1
  Rh  Rh21  1  0.857257  0.858469  0.857296  1
  Rh  Rh22  1  0.426749  0.858099  0.858171  1
  Rh  Rh23  1  0.858099  0.426749  0.856981  1
