# generated using pymatgen
data_Ac12Sn(OsBr4)3
_symmetry_space_group_name_H-M   'P 1'
_cell_length_a   11.39678968
_cell_length_b   11.39681715
_cell_length_c   11.39666500
_cell_angle_alpha   110.45159784
_cell_angle_beta   110.45032940
_cell_angle_gamma   110.44945477
_symmetry_Int_Tables_number   1
_chemical_formula_structural   Ac12Sn(OsBr4)3
_chemical_formula_sum   'Ac12 Sn1 Os3 Br12'
_cell_volume   1096.26366478
_cell_formula_units_Z   1
loop_
 _symmetry_equiv_pos_site_id
 _symmetry_equiv_pos_as_xyz
  1  'x, y, z'
loop_
 _atom_site_type_symbol
 _atom_site_label
 _atom_site_symmetry_multiplicity
 _atom_site_fract_x
 _atom_site_fract_y
 _atom_site_fract_z
 _atom_site_occupancy
  Ac  Ac0  1  0.476327  0.505298  0.227834  1
  Ac  Ac1  1  0.749954  0.229143  0.270752  1
  Ac  Ac2  1  0.750035  0.017404  0.482599  1
  Ac  Ac3  1  0.227805  0.476389  0.505332  1
  Ac  Ac4  1  0.270887  0.750044  0.229260  1
  Ac  Ac5  1  0.023615  0.272194  0.994676  1
  Ac  Ac6  1  0.994710  0.023707  0.272188  1
  Ac  Ac7  1  0.482596  0.749936  0.017375  1
  Ac  Ac8  1  0.505248  0.227786  0.476269  1
  Ac  Ac9  1  0.017400  0.482642  0.750032  1
  Ac  Ac10  1  0.272186  0.994713  0.023681  1
  Ac  Ac11  1  0.229168  0.270805  0.749998  1
  Sn  Sn12  1  0.249996  0.249983  0.250006  1
  Os  Os13  1  0.502381  0.997610  0.249983  1
  Os  Os14  1  0.997632  0.250022  0.502350  1
  Os  Os15  1  0.249999  0.502354  0.997681  1
  Br  Br16  1  0.249992  0.758636  0.741363  1
  Br  Br17  1  0.497561  0.494297  0.743949  1
  Br  Br18  1  0.002470  0.756007  0.005693  1
  Br  Br19  1  0.741373  0.249989  0.758550  1
  Br  Br20  1  0.005678  0.002410  0.756026  1
  Br  Br21  1  0.249984  0.006756  0.493252  1
  Br  Br22  1  0.744017  0.497524  0.494358  1
  Br  Br23  1  0.493238  0.250015  0.006738  1
  Br  Br24  1  0.758629  0.741441  0.250015  1
  Br  Br25  1  0.755962  0.005603  0.002422  1
  Br  Br26  1  0.006761  0.493281  0.250004  1
  Br  Br27  1  0.494399  0.744012  0.497616  1
