# generated using pymatgen
data_HoLuCoSi2Ru
_symmetry_space_group_name_H-M   'P 1'
_cell_length_a   4.21570500
_cell_length_b   7.02342814
_cell_length_c   6.83412646
_cell_angle_alpha   90.34321819
_cell_angle_beta   90.00000000
_cell_angle_gamma   90.00000000
_symmetry_Int_Tables_number   1
_chemical_formula_structural   HoLuCoSi2Ru
_chemical_formula_sum   'Ho2 Lu2 Co2 Si4 Ru2'
_cell_volume   202.34597753
_cell_formula_units_Z   2
loop_
 _symmetry_equiv_pos_site_id
 _symmetry_equiv_pos_as_xyz
  1  'x, y, z'
loop_
 _atom_site_type_symbol
 _atom_site_label
 _atom_site_symmetry_multiplicity
 _atom_site_fract_x
 _atom_site_fract_y
 _atom_site_fract_z
 _atom_site_occupancy
  Ho  Ho0  1  0.250000  0.304008  0.488602  1
  Ho  Ho1  1  0.750000  0.695992  0.511398  1
  Lu  Lu2  1  0.250000  0.183555  0.985321  1
  Lu  Lu3  1  0.750000  0.816445  0.014679  1
  Co  Co4  1  0.250000  0.935640  0.653742  1
  Co  Co5  1  0.750000  0.064360  0.346258  1
  Si  Si6  1  0.250000  0.610060  0.800221  1
  Si  Si7  1  0.750000  0.389940  0.199779  1
  Si  Si8  1  0.250000  0.898295  0.303765  1
  Si  Si9  1  0.750000  0.101705  0.696235  1
  Ru  Ru10  1  0.250000  0.567020  0.155159  1
  Ru  Ru11  1  0.750000  0.432980  0.844841  1
