# generated using pymatgen
data_NdTh3(InPt2)2
_symmetry_space_group_name_H-M   'P 1'
_cell_length_a   8.02943250
_cell_length_b   8.02943263
_cell_length_c   3.78113900
_cell_angle_alpha   90.00000000
_cell_angle_beta   90.00000000
_cell_angle_gamma   89.18448541
_symmetry_Int_Tables_number   1
_chemical_formula_structural   NdTh3(InPt2)2
_chemical_formula_sum   'Nd1 Th3 In2 Pt4'
_cell_volume   243.75209657
_cell_formula_units_Z   1
loop_
 _symmetry_equiv_pos_site_id
 _symmetry_equiv_pos_as_xyz
  1  'x, y, z'
loop_
 _atom_site_type_symbol
 _atom_site_label
 _atom_site_symmetry_multiplicity
 _atom_site_fract_x
 _atom_site_fract_y
 _atom_site_fract_z
 _atom_site_occupancy
  Nd  Nd0  1  0.674936  0.174936  0.500000  1
  Th  Th1  1  0.328867  0.828867  0.500000  1
  Th  Th2  1  0.825587  0.671698  0.500000  1
  Th  Th3  1  0.171698  0.325587  0.500000  1
  In  In4  1  0.995888  0.000371  0.000000  1
  In  In5  1  0.500371  0.495888  0.000000  1
  Pt  Pt6  1  0.363379  0.126029  0.000000  1
  Pt  Pt7  1  0.878808  0.378808  0.000000  1
  Pt  Pt8  1  0.134438  0.634438  0.000000  1
  Pt  Pt9  1  0.626029  0.863379  0.000000  1
