# generated using pymatgen
data_Cr21CuRhC6
_symmetry_space_group_name_H-M   'P 1'
_cell_length_a   7.47978677
_cell_length_b   7.47978668
_cell_length_c   7.47978700
_cell_angle_alpha   59.99999417
_cell_angle_beta   59.99999455
_cell_angle_gamma   59.99999854
_symmetry_Int_Tables_number   1
_chemical_formula_structural   Cr21CuRhC6
_chemical_formula_sum   'Cr21 Cu1 Rh1 C6'
_cell_volume   295.90521603
_cell_formula_units_Z   1
loop_
 _symmetry_equiv_pos_site_id
 _symmetry_equiv_pos_as_xyz
  1  'x, y, z'
loop_
 _atom_site_type_symbol
 _atom_site_label
 _atom_site_symmetry_multiplicity
 _atom_site_fract_x
 _atom_site_fract_y
 _atom_site_fract_z
 _atom_site_occupancy
  Cr  Cr0  1  0.250000  0.250000  0.250000  1
  Cr  Cr1  1  0.613024  0.613024  0.160926  1
  Cr  Cr2  1  0.613024  0.160926  0.613024  1
  Cr  Cr3  1  0.160926  0.613024  0.613024  1
  Cr  Cr4  1  0.613024  0.613024  0.613024  1
  Cr  Cr5  1  0.379426  0.379426  0.861723  1
  Cr  Cr6  1  0.379426  0.861723  0.379426  1
  Cr  Cr7  1  0.861723  0.379426  0.379426  1
  Cr  Cr8  1  0.379426  0.379426  0.379426  1
  Cr  Cr9  1  0.000109  0.000109  0.341482  1
  Cr  Cr10  1  0.658300  0.000109  0.341482  1
  Cr  Cr11  1  0.000109  0.658300  0.341482  1
  Cr  Cr12  1  0.658300  0.341482  0.000109  1
  Cr  Cr13  1  0.000109  0.341482  0.000109  1
  Cr  Cr14  1  0.000109  0.341482  0.658300  1
  Cr  Cr15  1  0.341482  0.658300  0.000109  1
  Cr  Cr16  1  0.341482  0.000109  0.658300  1
  Cr  Cr17  1  0.341482  0.000109  0.000109  1
  Cr  Cr18  1  0.000109  0.000109  0.658300  1
  Cr  Cr19  1  0.000109  0.658300  0.000109  1
  Cr  Cr20  1  0.658300  0.000109  0.000109  1
  Cu  Cu21  1  0.000000  0.000000  0.000000  1
  Rh  Rh22  1  0.750000  0.750000  0.750000  1
  C  C23  1  0.723490  0.723490  0.276510  1
  C  C24  1  0.276510  0.723490  0.276510  1
  C  C25  1  0.723490  0.276510  0.276510  1
  C  C26  1  0.276510  0.276510  0.723490  1
  C  C27  1  0.723490  0.276510  0.723490  1
  C  C28  1  0.276510  0.723490  0.723490  1
