# generated using pymatgen
data_NaTm(NbSe2)8
_symmetry_space_group_name_H-M   'P 1'
_cell_length_a   7.01125400
_cell_length_b   7.01125567
_cell_length_c   15.01713200
_cell_angle_alpha   90.00000000
_cell_angle_beta   90.00000000
_cell_angle_gamma   119.99999214
_symmetry_Int_Tables_number   1
_chemical_formula_structural   NaTm(NbSe2)8
_chemical_formula_sum   'Na1 Tm1 Nb8 Se16'
_cell_volume   639.30657217
_cell_formula_units_Z   1
loop_
 _symmetry_equiv_pos_site_id
 _symmetry_equiv_pos_as_xyz
  1  'x, y, z'
loop_
 _atom_site_type_symbol
 _atom_site_label
 _atom_site_symmetry_multiplicity
 _atom_site_fract_x
 _atom_site_fract_y
 _atom_site_fract_z
 _atom_site_occupancy
  Na  Na0  1  0.000000  0.000000  0.500000  1
  Tm  Tm1  1  0.000000  0.000000  0.000000  1
  Nb  Nb2  1  0.000000  0.000000  0.234131  1
  Nb  Nb3  1  0.000000  0.000000  0.765869  1
  Nb  Nb4  1  0.508332  0.491668  0.235585  1
  Nb  Nb5  1  0.508332  0.016663  0.235585  1
  Nb  Nb6  1  0.983337  0.491668  0.235585  1
  Nb  Nb7  1  0.491668  0.508332  0.764415  1
  Nb  Nb8  1  0.491668  0.983337  0.764415  1
  Nb  Nb9  1  0.016663  0.508332  0.764415  1
  Se  Se10  1  0.333333  0.666667  0.880627  1
  Se  Se11  1  0.666667  0.333333  0.119373  1
  Se  Se12  1  0.666667  0.333333  0.351381  1
  Se  Se13  1  0.333333  0.666667  0.648619  1
  Se  Se14  1  0.167226  0.832774  0.344588  1
  Se  Se15  1  0.167226  0.334454  0.344588  1
  Se  Se16  1  0.665546  0.832774  0.344588  1
  Se  Se17  1  0.832774  0.167226  0.655412  1
  Se  Se18  1  0.832774  0.665546  0.655412  1
  Se  Se19  1  0.334454  0.167226  0.655412  1
  Se  Se20  1  0.829683  0.170317  0.875307  1
  Se  Se21  1  0.829683  0.659365  0.875307  1
  Se  Se22  1  0.340635  0.170317  0.875307  1
  Se  Se23  1  0.170317  0.829683  0.124693  1
  Se  Se24  1  0.170317  0.340635  0.124693  1
  Se  Se25  1  0.659365  0.829683  0.124693  1
