# generated using pymatgen
data_K3Ba(U2Se5)4
_symmetry_space_group_name_H-M   'P 1'
_cell_length_a   7.82204209
_cell_length_b   8.82888651
_cell_length_c   12.22667316
_cell_angle_alpha   89.91827973
_cell_angle_beta   89.89467949
_cell_angle_gamma   90.17103442
_symmetry_Int_Tables_number   1
_chemical_formula_structural   K3Ba(U2Se5)4
_chemical_formula_sum   'K3 Ba1 U8 Se20'
_cell_volume   844.36703961
_cell_formula_units_Z   1
loop_
 _symmetry_equiv_pos_site_id
 _symmetry_equiv_pos_as_xyz
  1  'x, y, z'
loop_
 _atom_site_type_symbol
 _atom_site_label
 _atom_site_symmetry_multiplicity
 _atom_site_fract_x
 _atom_site_fract_y
 _atom_site_fract_z
 _atom_site_occupancy
  K  K0  1  0.054927  0.490822  0.330961  1
  K  K1  1  0.555991  0.508958  0.171940  1
  K  K2  1  0.944392  0.508922  0.665820  1
  Ba  Ba3  1  0.445354  0.491163  0.833445  1
  U  U4  1  0.025357  0.000322  0.319201  1
  U  U5  1  0.525494  0.000951  0.182734  1
  U  U6  1  0.975376  0.999796  0.681206  1
  U  U7  1  0.474831  0.998040  0.820238  1
  U  U8  1  0.069724  0.753884  0.011663  1
  U  U9  1  0.571379  0.249178  0.490723  1
  U  U10  1  0.928707  0.250414  0.990545  1
  U  U11  1  0.430521  0.750254  0.506888  1
  Se  Se12  1  0.663518  0.954370  0.405339  1
  Se  Se13  1  0.164094  0.046538  0.094444  1
  Se  Se14  1  0.337801  0.043246  0.594741  1
  Se  Se15  1  0.835987  0.955226  0.904631  1
  Se  Se16  1  0.452855  0.793362  0.001920  1
  Se  Se17  1  0.950610  0.205382  0.497771  1
  Se  Se18  1  0.548320  0.206126  0.997374  1
  Se  Se19  1  0.049351  0.794883  0.501469  1
  Se  Se20  1  0.835712  0.789782  0.187008  1
  Se  Se21  1  0.337135  0.210162  0.313978  1
  Se  Se22  1  0.164400  0.211118  0.811891  1
  Se  Se23  1  0.659220  0.784354  0.686796  1
  Se  Se24  1  0.307595  0.781126  0.283531  1
  Se  Se25  1  0.808987  0.219212  0.215416  1
  Se  Se26  1  0.689621  0.221512  0.714792  1
  Se  Se27  1  0.188224  0.778603  0.785384  1
  Se  Se28  1  0.179912  0.459685  0.066267  1
  Se  Se29  1  0.673055  0.542499  0.428212  1
  Se  Se30  1  0.824900  0.540186  0.928433  1
  Se  Se31  1  0.326652  0.459925  0.575239  1
