# generated using pymatgen
data_AlB2Mo2Ru5
_symmetry_space_group_name_H-M   'P 1'
_cell_length_a   9.32562800
_cell_length_b   9.32562800
_cell_length_c   2.90521300
_cell_angle_alpha   90.00000000
_cell_angle_beta   90.00000000
_cell_angle_gamma   90.00000000
_symmetry_Int_Tables_number   1
_chemical_formula_structural   AlB2Mo2Ru5
_chemical_formula_sum   'Al2 B4 Mo4 Ru10'
_cell_volume   252.65863975
_cell_formula_units_Z   2
loop_
 _symmetry_equiv_pos_site_id
 _symmetry_equiv_pos_as_xyz
  1  'x, y, z'
loop_
 _atom_site_type_symbol
 _atom_site_label
 _atom_site_symmetry_multiplicity
 _atom_site_fract_x
 _atom_site_fract_y
 _atom_site_fract_z
 _atom_site_occupancy
  Al  Al0  1  0.000000  0.000000  0.000000  1
  Al  Al1  1  0.500000  0.500000  0.000000  1
  B  B2  1  0.124934  0.624934  0.000000  1
  B  B3  1  0.875066  0.375066  0.000000  1
  B  B4  1  0.624934  0.875066  0.000000  1
  B  B5  1  0.375066  0.124934  0.000000  1
  Mo  Mo6  1  0.678781  0.178781  0.000000  1
  Mo  Mo7  1  0.321219  0.821219  0.000000  1
  Mo  Mo8  1  0.178781  0.321219  0.000000  1
  Mo  Mo9  1  0.821219  0.678781  0.000000  1
  Ru  Ru10  1  0.215716  0.067328  0.500000  1
  Ru  Ru11  1  0.784284  0.932672  0.500000  1
  Ru  Ru12  1  0.067328  0.784284  0.500000  1
  Ru  Ru13  1  0.715716  0.432672  0.500000  1
  Ru  Ru14  1  0.932672  0.215716  0.500000  1
  Ru  Ru15  1  0.284284  0.567328  0.500000  1
  Ru  Ru16  1  0.567328  0.715716  0.500000  1
  Ru  Ru17  1  0.432672  0.284284  0.500000  1
  Ru  Ru18  1  0.500000  0.000000  0.500000  1
  Ru  Ru19  1  0.000000  0.500000  0.500000  1
