# generated using pymatgen
data_Cs2NaPd3F12
_symmetry_space_group_name_H-M   'P 1'
_cell_length_a   7.50122106
_cell_length_b   7.89433369
_cell_length_c   10.76556211
_cell_angle_alpha   90.12149857
_cell_angle_beta   86.11629678
_cell_angle_gamma   89.79862198
_symmetry_Int_Tables_number   1
_chemical_formula_structural   Cs2NaPd3F12
_chemical_formula_sum   'Cs4 Na2 Pd6 F24'
_cell_volume   636.03613742
_cell_formula_units_Z   2
loop_
 _symmetry_equiv_pos_site_id
 _symmetry_equiv_pos_as_xyz
  1  'x, y, z'
loop_
 _atom_site_type_symbol
 _atom_site_label
 _atom_site_symmetry_multiplicity
 _atom_site_fract_x
 _atom_site_fract_y
 _atom_site_fract_z
 _atom_site_occupancy
  Cs  Cs0  1  0.506788  0.748848  0.608501  1
  Cs  Cs1  1  0.493212  0.251152  0.391499  1
  Cs  Cs2  1  0.022201  0.258135  0.141020  1
  Cs  Cs3  1  0.977799  0.741865  0.858980  1
  Na  Na4  1  0.709369  0.243097  0.747794  1
  Na  Na5  1  0.290631  0.756903  0.252206  1
  Pd  Pd6  1  0.809866  0.749183  0.215713  1
  Pd  Pd7  1  0.190134  0.250817  0.784287  1
  Pd  Pd8  1  0.000000  0.500000  0.500000  1
  Pd  Pd9  1  0.000000  0.000000  0.500000  1
  Pd  Pd10  1  0.500000  0.000000  0.000000  1
  Pd  Pd11  1  0.500000  0.500000  0.000000  1
  F  F12  1  0.046666  0.731089  0.126566  1
  F  F13  1  0.953334  0.268911  0.873434  1
  F  F14  1  0.579113  0.764753  0.313174  1
  F  F15  1  0.420887  0.235247  0.686826  1
  F  F16  1  0.762004  0.439465  0.573684  1
  F  F17  1  0.237996  0.560535  0.426316  1
  F  F18  1  0.752646  0.055811  0.559121  1
  F  F19  1  0.247354  0.944189  0.440879  1
  F  F20  1  0.636505  0.964181  0.839242  1
  F  F21  1  0.363495  0.035819  0.160758  1
  F  F22  1  0.631671  0.532614  0.837645  1
  F  F23  1  0.368329  0.467386  0.162355  1
  F  F24  1  0.583857  0.249230  0.988005  1
  F  F25  1  0.416143  0.750770  0.011995  1
  F  F26  1  0.274782  0.433103  0.907302  1
  F  F27  1  0.725218  0.566897  0.092698  1
  F  F28  1  0.268719  0.066814  0.908958  1
  F  F29  1  0.731281  0.933186  0.091042  1
  F  F30  1  0.080126  0.068764  0.674719  1
  F  F31  1  0.919874  0.931236  0.325281  1
  F  F32  1  0.951471  0.750649  0.559766  1
  F  F33  1  0.048529  0.249351  0.440234  1
  F  F34  1  0.112429  0.442308  0.668115  1
  F  F35  1  0.887571  0.557692  0.331885  1
