# generated using pymatgen
data_Er3Hf(P3Ir4)2
_symmetry_space_group_name_H-M   'P 1'
_cell_length_a   3.96789200
_cell_length_b   11.24657000
_cell_length_c   12.86094800
_cell_angle_alpha   90.00000000
_cell_angle_beta   90.00000000
_cell_angle_gamma   90.00000000
_symmetry_Int_Tables_number   1
_chemical_formula_structural   Er3Hf(P3Ir4)2
_chemical_formula_sum   'Er6 Hf2 P12 Ir16'
_cell_volume   573.92205684
_cell_formula_units_Z   2
loop_
 _symmetry_equiv_pos_site_id
 _symmetry_equiv_pos_as_xyz
  1  'x, y, z'
loop_
 _atom_site_type_symbol
 _atom_site_label
 _atom_site_symmetry_multiplicity
 _atom_site_fract_x
 _atom_site_fract_y
 _atom_site_fract_z
 _atom_site_occupancy
  Er  Er0  1  0.750000  0.250000  0.476005  1
  Er  Er1  1  0.250000  0.750000  0.523995  1
  Er  Er2  1  0.250000  0.931688  0.797679  1
  Er  Er3  1  0.250000  0.568312  0.797679  1
  Er  Er4  1  0.750000  0.068312  0.202321  1
  Er  Er5  1  0.750000  0.431688  0.202321  1
  Hf  Hf6  1  0.250000  0.250000  0.839853  1
  Hf  Hf7  1  0.750000  0.750000  0.160147  1
  P  P8  1  0.250000  0.250000  0.122776  1
  P  P9  1  0.750000  0.750000  0.877224  1
  P  P10  1  0.250000  0.250000  0.638024  1
  P  P11  1  0.750000  0.750000  0.361976  1
  P  P12  1  0.250000  0.436157  0.382334  1
  P  P13  1  0.250000  0.063843  0.382334  1
  P  P14  1  0.750000  0.563843  0.617666  1
  P  P15  1  0.750000  0.936157  0.617666  1
  P  P16  1  0.250000  0.908661  0.110117  1
  P  P17  1  0.250000  0.591339  0.110117  1
  P  P18  1  0.750000  0.091339  0.889883  1
  P  P19  1  0.750000  0.408661  0.889883  1
  Ir  Ir20  1  0.250000  0.250000  0.300573  1
  Ir  Ir21  1  0.750000  0.750000  0.699427  1
  Ir  Ir22  1  0.750000  0.250000  0.019757  1
  Ir  Ir23  1  0.250000  0.750000  0.980243  1
  Ir  Ir24  1  0.250000  0.417746  0.006933  1
  Ir  Ir25  1  0.250000  0.082254  0.006933  1
  Ir  Ir26  1  0.750000  0.582254  0.993067  1
  Ir  Ir27  1  0.750000  0.917746  0.993067  1
  Ir  Ir28  1  0.250000  0.456198  0.568055  1
  Ir  Ir29  1  0.250000  0.043802  0.568055  1
  Ir  Ir30  1  0.750000  0.543802  0.431945  1
  Ir  Ir31  1  0.750000  0.956198  0.431945  1
  Ir  Ir32  1  0.250000  0.879779  0.288370  1
  Ir  Ir33  1  0.250000  0.620221  0.288370  1
  Ir  Ir34  1  0.750000  0.120221  0.711630  1
  Ir  Ir35  1  0.750000  0.379779  0.711630  1
