# generated using pymatgen
data_Li2SiNi9(P2W)3
_symmetry_space_group_name_H-M   'P 1'
_cell_length_a   9.16147600
_cell_length_b   9.16147568
_cell_length_c   3.60959000
_cell_angle_alpha   90.00000000
_cell_angle_beta   90.00000000
_cell_angle_gamma   120.00000839
_symmetry_Int_Tables_number   1
_chemical_formula_structural   Li2SiNi9(P2W)3
_chemical_formula_sum   'Li2 Si1 Ni9 P6 W3'
_cell_volume   262.37312672
_cell_formula_units_Z   1
loop_
 _symmetry_equiv_pos_site_id
 _symmetry_equiv_pos_as_xyz
  1  'x, y, z'
loop_
 _atom_site_type_symbol
 _atom_site_label
 _atom_site_symmetry_multiplicity
 _atom_site_fract_x
 _atom_site_fract_y
 _atom_site_fract_z
 _atom_site_occupancy
  Li  Li0  1  0.333333  0.666667  0.000000  1
  Li  Li1  1  0.666667  0.333333  0.500000  1
  Si  Si2  1  0.000000  0.000000  0.000000  1
  Ni  Ni3  1  0.709664  0.873747  0.000000  1
  Ni  Ni4  1  0.164083  0.290336  0.000000  1
  Ni  Ni5  1  0.126253  0.835917  0.000000  1
  Ni  Ni6  1  0.625643  0.562406  0.000000  1
  Ni  Ni7  1  0.936762  0.374357  0.000000  1
  Ni  Ni8  1  0.437594  0.063238  0.000000  1
  Ni  Ni9  1  0.555652  0.943027  0.500000  1
  Ni  Ni10  1  0.387376  0.444348  0.500000  1
  Ni  Ni11  1  0.056973  0.612624  0.500000  1
  P  P12  1  0.582993  0.708794  0.500000  1
  P  P13  1  0.125801  0.417007  0.500000  1
  P  P14  1  0.291206  0.874199  0.500000  1
  P  P15  1  0.879411  0.581960  0.000000  1
  P  P16  1  0.702550  0.120589  0.000000  1
  P  P17  1  0.418040  0.297450  0.000000  1
  W  W18  1  0.873337  0.772205  0.500000  1
  W  W19  1  0.898867  0.126663  0.500000  1
  W  W20  1  0.227795  0.101133  0.500000  1
