# generated using pymatgen
data_LuZr7Ti8(Si4Mo)4
_symmetry_space_group_name_H-M   'P 1'
_cell_length_a   6.61793171
_cell_length_b   6.78457130
_cell_length_c   13.02140800
_cell_angle_alpha   90.05379303
_cell_angle_beta   89.93989830
_cell_angle_gamma   89.98528651
_symmetry_Int_Tables_number   1
_chemical_formula_structural   LuZr7Ti8(Si4Mo)4
_chemical_formula_sum   'Lu1 Zr7 Ti8 Si16 Mo4'
_cell_volume   584.65840094
_cell_formula_units_Z   1
loop_
 _symmetry_equiv_pos_site_id
 _symmetry_equiv_pos_as_xyz
  1  'x, y, z'
loop_
 _atom_site_type_symbol
 _atom_site_label
 _atom_site_symmetry_multiplicity
 _atom_site_fract_x
 _atom_site_fract_y
 _atom_site_fract_z
 _atom_site_occupancy
  Lu  Lu0  1  0.998327  0.171063  0.093676  1
  Zr  Zr1  1  0.499404  0.328403  0.094331  1
  Zr  Zr2  1  0.997046  0.172902  0.406123  1
  Zr  Zr3  1  0.502855  0.672347  0.593701  1
  Zr  Zr4  1  0.003030  0.826002  0.904454  1
  Zr  Zr5  1  0.502661  0.672910  0.904858  1
  Zr  Zr6  1  0.003426  0.827736  0.593882  1
  Zr  Zr7  1  0.496693  0.327836  0.406826  1
  Ti  Ti8  1  0.833537  0.330836  0.624886  1
  Ti  Ti9  1  0.333338  0.169468  0.874720  1
  Ti  Ti10  1  0.168083  0.669368  0.125397  1
  Ti  Ti11  1  0.665388  0.829681  0.375604  1
  Ti  Ti12  1  0.166832  0.669149  0.375956  1
  Ti  Ti13  1  0.665649  0.829493  0.125785  1
  Ti  Ti14  1  0.832280  0.332545  0.874272  1
  Ti  Ti15  1  0.333210  0.169652  0.624877  1
  Si  Si16  1  0.668860  0.039284  0.539461  1
  Si  Si17  1  0.169245  0.462779  0.959444  1
  Si  Si18  1  0.335150  0.959274  0.038570  1
  Si  Si19  1  0.831461  0.539133  0.460955  1
  Si  Si20  1  0.330668  0.960796  0.461075  1
  Si  Si21  1  0.831188  0.541490  0.038523  1
  Si  Si22  1  0.666278  0.037556  0.958940  1
  Si  Si23  1  0.168602  0.460806  0.539586  1
  Si  Si24  1  0.534284  0.381410  0.749631  1
  Si  Si25  1  0.034519  0.118987  0.750168  1
  Si  Si26  1  0.465073  0.618322  0.250638  1
  Si  Si27  1  0.964852  0.879762  0.251106  1
  Si  Si28  1  0.796315  0.637044  0.749326  1
  Si  Si29  1  0.296987  0.863461  0.749578  1
  Si  Si30  1  0.203975  0.363404  0.250741  1
  Si  Si31  1  0.701978  0.136535  0.250908  1
  Mo  Mo32  1  0.660706  0.007106  0.749526  1
  Mo  Mo33  1  0.160827  0.493659  0.749723  1
  Mo  Mo34  1  0.339019  0.991980  0.251231  1
  Mo  Mo35  1  0.838259  0.507819  0.251515  1
