# generated using pymatgen
data_Ti2Co(SnIr)2
_symmetry_space_group_name_H-M   'P 1'
_cell_length_a   7.59749103
_cell_length_b   7.59749085
_cell_length_c   7.59749097
_cell_angle_alpha   33.72256167
_cell_angle_beta   33.72256442
_cell_angle_gamma   33.72255836
_symmetry_Int_Tables_number   1
_chemical_formula_structural   Ti2Co(SnIr)2
_chemical_formula_sum   'Ti2 Co1 Sn2 Ir2'
_cell_volume   120.42783460
_cell_formula_units_Z   1
loop_
 _symmetry_equiv_pos_site_id
 _symmetry_equiv_pos_as_xyz
  1  'x, y, z'
loop_
 _atom_site_type_symbol
 _atom_site_label
 _atom_site_symmetry_multiplicity
 _atom_site_fract_x
 _atom_site_fract_y
 _atom_site_fract_z
 _atom_site_occupancy
  Ti  Ti0  1  0.752842  0.752842  0.752842  1
  Ti  Ti1  1  0.248094  0.248094  0.248094  1
  Co  Co2  1  0.375455  0.375455  0.375455  1
  Sn  Sn3  1  0.996118  0.996118  0.996118  1
  Sn  Sn4  1  0.502641  0.502641  0.502641  1
  Ir  Ir5  1  0.122827  0.122827  0.122827  1
  Ir  Ir6  1  0.627024  0.627024  0.627024  1
