# generated using pymatgen
data_Ta9Al3ZnGa
_symmetry_space_group_name_H-M   'P 1'
_cell_length_a   9.92124268
_cell_length_b   9.93264435
_cell_length_c   9.92124200
_cell_angle_alpha   93.84914642
_cell_angle_beta   93.78616470
_cell_angle_gamma   149.97019716
_symmetry_Int_Tables_number   1
_chemical_formula_structural   Ta9Al3ZnGa
_chemical_formula_sum   'Ta18 Al6 Zn2 Ga2'
_cell_volume   472.84616957
_cell_formula_units_Z   2
loop_
 _symmetry_equiv_pos_site_id
 _symmetry_equiv_pos_as_xyz
  1  'x, y, z'
loop_
 _atom_site_type_symbol
 _atom_site_label
 _atom_site_symmetry_multiplicity
 _atom_site_fract_x
 _atom_site_fract_y
 _atom_site_fract_z
 _atom_site_occupancy
  Ta  Ta0  1  0.565510  0.792896  0.355750  1
  Ta  Ta1  1  0.082191  0.156227  0.241016  1
  Ta  Ta2  1  0.584791  0.343773  0.925964  1
  Ta  Ta3  1  0.657008  0.582950  0.241153  1
  Ta  Ta4  1  0.342992  0.417050  0.758847  1
  Ta  Ta5  1  0.792234  0.436442  0.227457  1
  Ta  Ta6  1  0.415209  0.656227  0.074036  1
  Ta  Ta7  1  0.158201  0.917050  0.074059  1
  Ta  Ta8  1  0.708984  0.936442  0.644208  1
  Ta  Ta9  1  0.434490  0.207104  0.644250  1
  Ta  Ta10  1  0.917809  0.843773  0.758984  1
  Ta  Ta11  1  0.062854  0.707104  0.772614  1
  Ta  Ta12  1  0.207766  0.563558  0.772543  1
  Ta  Ta13  1  0.250608  0.750000  0.500608  1
  Ta  Ta14  1  0.291016  0.063558  0.355792  1
  Ta  Ta15  1  0.749392  0.250000  0.499392  1
  Ta  Ta16  1  0.841799  0.082950  0.925941  1
  Ta  Ta17  1  0.937146  0.292896  0.227386  1
  Al  Al18  1  0.374096  0.873984  0.242718  1
  Al  Al19  1  0.868734  0.626016  0.500110  1
  Al  Al20  1  0.131266  0.373984  0.499890  1
  Al  Al21  1  0.625904  0.126016  0.757282  1
  Al  Al22  1  0.000000  0.500000  0.000000  1
  Al  Al23  1  0.000000  0.000000  0.500000  1
  Zn  Zn24  1  0.500000  0.000000  0.000000  1
  Zn  Zn25  1  0.500000  0.500000  0.500000  1
  Ga  Ga26  1  0.749873  0.750000  0.999873  1
  Ga  Ga27  1  0.250127  0.250000  0.000127  1
