# generated using pymatgen
data_TmZnCdNi3
_symmetry_space_group_name_H-M   'P 1'
_cell_length_a   5.08371446
_cell_length_b   5.08371397
_cell_length_c   4.96489260
_cell_angle_alpha   59.20512074
_cell_angle_beta   59.20511969
_cell_angle_gamma   59.99999881
_symmetry_Int_Tables_number   1
_chemical_formula_structural   TmZnCdNi3
_chemical_formula_sum   'Tm1 Zn1 Cd1 Ni3'
_cell_volume   89.62587030
_cell_formula_units_Z   1
loop_
 _symmetry_equiv_pos_site_id
 _symmetry_equiv_pos_as_xyz
  1  'x, y, z'
loop_
 _atom_site_type_symbol
 _atom_site_label
 _atom_site_symmetry_multiplicity
 _atom_site_fract_x
 _atom_site_fract_y
 _atom_site_fract_z
 _atom_site_occupancy
  Tm  Tm0  1  0.247403  0.247403  0.257792  1
  Zn  Zn1  1  0.626431  0.626431  0.120707  1
  Cd  Cd2  1  0.998854  0.998854  0.003437  1
  Ni  Ni3  1  0.626043  0.125226  0.622688  1
  Ni  Ni4  1  0.125226  0.626043  0.622688  1
  Ni  Ni5  1  0.626043  0.626043  0.622688  1
