# generated using pymatgen
data_Ca11Tb8EuSn16
_symmetry_space_group_name_H-M   'P 1'
_cell_length_a   7.90103400
_cell_length_b   8.47251803
_cell_length_c   16.15780000
_cell_angle_alpha   90.00000000
_cell_angle_beta   90.00000000
_cell_angle_gamma   89.99534061
_symmetry_Int_Tables_number   1
_chemical_formula_structural   Ca11Tb8EuSn16
_chemical_formula_sum   'Ca11 Tb8 Eu1 Sn16'
_cell_volume   1081.62983735
_cell_formula_units_Z   1
loop_
 _symmetry_equiv_pos_site_id
 _symmetry_equiv_pos_as_xyz
  1  'x, y, z'
loop_
 _atom_site_type_symbol
 _atom_site_label
 _atom_site_symmetry_multiplicity
 _atom_site_fract_x
 _atom_site_fract_y
 _atom_site_fract_z
 _atom_site_occupancy
  Ca  Ca0  1  0.503673  0.686895  0.592682  1
  Ca  Ca1  1  0.003408  0.813284  0.907310  1
  Ca  Ca2  1  0.496391  0.314645  0.091719  1
  Ca  Ca3  1  0.996608  0.187260  0.408291  1
  Ca  Ca4  1  0.496391  0.314645  0.408281  1
  Ca  Ca5  1  0.996608  0.187260  0.091709  1
  Ca  Ca6  1  0.503673  0.686895  0.907318  1
  Ca  Ca7  1  0.003408  0.813284  0.592690  1
  Ca  Ca8  1  0.833823  0.510325  0.750000  1
  Ca  Ca9  1  0.333835  0.989541  0.750000  1
  Ca  Ca10  1  0.166916  0.489384  0.250000  1
  Tb  Tb11  1  0.671715  0.166843  0.622330  1
  Tb  Tb12  1  0.171985  0.332668  0.877892  1
  Tb  Tb13  1  0.328328  0.831236  0.121645  1
  Tb  Tb14  1  0.828197  0.666425  0.378157  1
  Tb  Tb15  1  0.328328  0.831236  0.378355  1
  Tb  Tb16  1  0.828197  0.666425  0.121843  1
  Tb  Tb17  1  0.671715  0.166843  0.877670  1
  Tb  Tb18  1  0.171985  0.332668  0.622108  1
  Eu  Eu19  1  0.666859  0.013529  0.250000  1
  Sn  Sn20  1  0.669973  0.963136  0.460157  1
  Sn  Sn21  1  0.169710  0.536867  0.039961  1
  Sn  Sn22  1  0.329914  0.037113  0.959732  1
  Sn  Sn23  1  0.829967  0.462527  0.540227  1
  Sn  Sn24  1  0.329914  0.037113  0.540268  1
  Sn  Sn25  1  0.829967  0.462527  0.959773  1
  Sn  Sn26  1  0.669973  0.963136  0.039843  1
  Sn  Sn27  1  0.169710  0.536867  0.460039  1
  Sn  Sn28  1  0.468601  0.374827  0.750000  1
  Sn  Sn29  1  0.968736  0.125075  0.750000  1
  Sn  Sn30  1  0.530640  0.625359  0.250000  1
  Sn  Sn31  1  0.034177  0.869800  0.250000  1
  Sn  Sn32  1  0.715370  0.873874  0.750000  1
  Sn  Sn33  1  0.215253  0.625934  0.750000  1
  Sn  Sn34  1  0.279455  0.126698  0.250000  1
  Sn  Sn35  1  0.786595  0.377860  0.250000  1
