# generated using pymatgen
data_HoEr5(B7W)2
_symmetry_space_group_name_H-M   'P 1'
_cell_length_a   8.11451933
_cell_length_b   8.11451834
_cell_length_c   9.45670000
_cell_angle_alpha   90.00000000
_cell_angle_beta   90.00000000
_cell_angle_gamma   155.57999757
_symmetry_Int_Tables_number   1
_chemical_formula_structural   HoEr5(B7W)2
_chemical_formula_sum   'Ho1 Er5 B14 W2'
_cell_volume   257.42996017
_cell_formula_units_Z   1
loop_
 _symmetry_equiv_pos_site_id
 _symmetry_equiv_pos_as_xyz
  1  'x, y, z'
loop_
 _atom_site_type_symbol
 _atom_site_label
 _atom_site_symmetry_multiplicity
 _atom_site_fract_x
 _atom_site_fract_y
 _atom_site_fract_z
 _atom_site_occupancy
  Ho  Ho0  1  0.754733  0.245267  0.750000  1
  Er  Er1  1  0.892485  0.107515  0.439797  1
  Er  Er2  1  0.107427  0.892573  0.559834  1
  Er  Er3  1  0.892485  0.107515  0.060203  1
  Er  Er4  1  0.107427  0.892573  0.940166  1
  Er  Er5  1  0.244874  0.755126  0.250000  1
  B  B6  1  0.727778  0.272222  0.466575  1
  B  B7  1  0.272323  0.727677  0.532517  1
  B  B8  1  0.727778  0.272222  0.033425  1
  B  B9  1  0.272323  0.727677  0.967483  1
  B  B10  1  0.635244  0.364756  0.146782  1
  B  B11  1  0.364864  0.635136  0.853428  1
  B  B12  1  0.635244  0.364756  0.353218  1
  B  B13  1  0.364864  0.635136  0.646572  1
  B  B14  1  0.519204  0.480796  0.091251  1
  B  B15  1  0.480792  0.519208  0.908748  1
  B  B16  1  0.519204  0.480796  0.408749  1
  B  B17  1  0.480792  0.519208  0.591252  1
  B  B18  1  0.453865  0.546135  0.250000  1
  B  B19  1  0.546191  0.453809  0.750000  1
  W  W20  1  0.052958  0.947042  0.250000  1
  W  W21  1  0.947144  0.052856  0.750000  1
