# generated using pymatgen
data_PrPbO
_symmetry_space_group_name_H-M   'P 1'
_cell_length_a   4.13071262
_cell_length_b   4.13071269
_cell_length_c   8.16739600
_cell_angle_alpha   89.80622628
_cell_angle_beta   89.80622628
_cell_angle_gamma   90.04044324
_symmetry_Int_Tables_number   1
_chemical_formula_structural   PrPbO
_chemical_formula_sum   'Pr2 Pb2 O2'
_cell_volume   139.35690877
_cell_formula_units_Z   2
loop_
 _symmetry_equiv_pos_site_id
 _symmetry_equiv_pos_as_xyz
  1  'x, y, z'
loop_
 _atom_site_type_symbol
 _atom_site_label
 _atom_site_symmetry_multiplicity
 _atom_site_fract_x
 _atom_site_fract_y
 _atom_site_fract_z
 _atom_site_occupancy
  Pr  Pr0  1  0.749313  0.749313  0.640180  1
  Pr  Pr1  1  0.250687  0.250687  0.359820  1
  Pb  Pb2  1  0.750302  0.750302  0.083101  1
  Pb  Pb3  1  0.249698  0.249698  0.916899  1
  O  O4  1  0.749964  0.250036  0.500000  1
  O  O5  1  0.250036  0.749964  0.500000  1
