# generated using pymatgen
data_Ta6Be12Co7CuSi3
_symmetry_space_group_name_H-M   'P 1'
_cell_length_a   7.60831078
_cell_length_b   7.62674263
_cell_length_c   7.60831168
_cell_angle_alpha   60.17426922
_cell_angle_beta   60.21598516
_cell_angle_gamma   60.17426769
_symmetry_Int_Tables_number   1
_chemical_formula_structural   Ta6Be12Co7CuSi3
_chemical_formula_sum   'Ta6 Be12 Co7 Cu1 Si3'
_cell_volume   313.50697026
_cell_formula_units_Z   1
loop_
 _symmetry_equiv_pos_site_id
 _symmetry_equiv_pos_as_xyz
  1  'x, y, z'
loop_
 _atom_site_type_symbol
 _atom_site_label
 _atom_site_symmetry_multiplicity
 _atom_site_fract_x
 _atom_site_fract_y
 _atom_site_fract_z
 _atom_site_occupancy
  Ta  Ta0  1  0.209835  0.206324  0.793686  1
  Ta  Ta1  1  0.200941  0.790593  0.803182  1
  Ta  Ta2  1  0.793686  0.206324  0.209835  1
  Ta  Ta3  1  0.199928  0.795073  0.199928  1
  Ta  Ta4  1  0.794658  0.202119  0.794658  1
  Ta  Ta5  1  0.803182  0.790593  0.200941  1
  Be  Be6  1  0.501619  0.001141  0.995862  1
  Be  Be7  1  0.995862  0.001141  0.501619  1
  Be  Be8  1  0.999985  0.499945  0.999985  1
  Be  Be9  1  0.501348  0.001193  0.501348  1
  Be  Be10  1  0.832583  0.519797  0.832583  1
  Be  Be11  1  0.174539  0.166970  0.483657  1
  Be  Be12  1  0.483657  0.166970  0.174539  1
  Be  Be13  1  0.169435  0.177112  0.169435  1
  Be  Be14  1  0.519013  0.836729  0.822028  1
  Be  Be15  1  0.826676  0.828024  0.826676  1
  Be  Be16  1  0.822028  0.836729  0.519013  1
  Be  Be17  1  0.169249  0.476447  0.169249  1
  Co  Co18  1  0.623889  0.129265  0.623889  1
  Co  Co19  1  0.376192  0.373982  0.871357  1
  Co  Co20  1  0.871357  0.373982  0.376192  1
  Co  Co21  1  0.376730  0.373864  0.376730  1
  Co  Co22  1  0.130668  0.626589  0.623134  1
  Co  Co23  1  0.621786  0.626802  0.621786  1
  Co  Co24  1  0.623134  0.626589  0.130668  1
  Cu  Cu25  1  0.375372  0.871945  0.375372  1
  Si  Si26  1  0.502047  0.493339  0.502047  1
  Si  Si27  1  0.501025  0.500208  0.999583  1
  Si  Si28  1  0.999583  0.500208  0.501025  1
