# generated using pymatgen
data_CoI13
_symmetry_space_group_name_H-M   'P 1'
_cell_length_a   12.04417479
_cell_length_b   10.76771644
_cell_length_c   15.19460961
_cell_angle_alpha   118.39239167
_cell_angle_beta   87.66851143
_cell_angle_gamma   109.55902487
_symmetry_Int_Tables_number   1
_chemical_formula_structural   CoI13
_chemical_formula_sum   'Co2 I26'
_cell_volume   1616.71837897
_cell_formula_units_Z   2
loop_
 _symmetry_equiv_pos_site_id
 _symmetry_equiv_pos_as_xyz
  1  'x, y, z'
loop_
 _atom_site_type_symbol
 _atom_site_label
 _atom_site_symmetry_multiplicity
 _atom_site_fract_x
 _atom_site_fract_y
 _atom_site_fract_z
 _atom_site_occupancy
  Co  Co0  1  0.337325  0.877544  0.933785  1
  Co  Co1  1  0.662675  0.122456  0.066215  1
  I  I2  1  0.349106  0.663638  0.961344  1
  I  I3  1  0.650894  0.336362  0.038656  1
  I  I4  1  0.561000  0.796154  0.398530  1
  I  I5  1  0.439000  0.203846  0.601470  1
  I  I6  1  0.720520  0.676355  0.991315  1
  I  I7  1  0.279480  0.323645  0.008685  1
  I  I8  1  0.683705  0.942658  0.132152  1
  I  I9  1  0.316295  0.057342  0.867848  1
  I  I10  1  0.444686  0.086394  0.112022  1
  I  I11  1  0.555314  0.913606  0.887978  1
  I  I12  1  0.237699  0.682176  0.745154  1
  I  I13  1  0.762301  0.317824  0.254846  1
  I  I14  1  0.127467  0.849276  0.992538  1
  I  I15  1  0.872533  0.150724  0.007462  1
  I  I16  1  0.116751  0.088584  0.207851  1
  I  I17  1  0.883249  0.911416  0.792149  1
  I  I18  1  0.271085  0.906065  0.455973  1
  I  I19  1  0.728915  0.093935  0.544027  1
  I  I20  1  0.333518  0.436273  0.668718  1
  I  I21  1  0.666482  0.563727  0.331282  1
  I  I22  1  0.872290  0.401802  0.698288  1
  I  I23  1  0.127710  0.598198  0.301712  1
  I  I24  1  0.933771  0.715519  0.604142  1
  I  I25  1  0.066229  0.284481  0.395858  1
  I  I26  1  0.232161  0.635499  0.129646  1
  I  I27  1  0.767839  0.364501  0.870354  1
