# generated using pymatgen
data_ErLu7(SiPd)8
_symmetry_space_group_name_H-M   'P 1'
_cell_length_a   4.32663300
_cell_length_b   7.48920300
_cell_length_c   13.87180400
_cell_angle_alpha   89.99934206
_cell_angle_beta   90.00000000
_cell_angle_gamma   90.00000000
_symmetry_Int_Tables_number   1
_chemical_formula_structural   ErLu7(SiPd)8
_chemical_formula_sum   'Er1 Lu7 Si8 Pd8'
_cell_volume   449.48852061
_cell_formula_units_Z   1
loop_
 _symmetry_equiv_pos_site_id
 _symmetry_equiv_pos_as_xyz
  1  'x, y, z'
loop_
 _atom_site_type_symbol
 _atom_site_label
 _atom_site_symmetry_multiplicity
 _atom_site_fract_x
 _atom_site_fract_y
 _atom_site_fract_z
 _atom_site_occupancy
  Er  Er0  1  0.499989  0.790184  0.749285  1
  Lu  Lu1  1  0.000026  0.298733  0.000299  1
  Lu  Lu2  1  0.499984  0.701189  0.499591  1
  Lu  Lu3  1  0.000025  0.291326  0.499819  1
  Lu  Lu4  1  0.499987  0.708512  0.000238  1
  Lu  Lu5  1  0.999994  0.210659  0.249303  1
  Lu  Lu6  1  0.500004  0.789638  0.250725  1
  Lu  Lu7  1  0.999984  0.211299  0.750655  1
  Si  Si8  1  0.999955  0.907686  0.593079  1
  Si  Si9  1  0.500018  0.092700  0.906823  1
  Si  Si10  1  0.999982  0.907681  0.405845  1
  Si  Si11  1  0.500017  0.092444  0.094108  1
  Si  Si12  1  0.999996  0.593240  0.142847  1
  Si  Si13  1  0.500033  0.407139  0.357148  1
  Si  Si14  1  0.999989  0.591602  0.857643  1
  Si  Si15  1  0.500011  0.406973  0.642820  1
  Pd  Pd16  1  0.499980  0.076670  0.608179  1
  Pd  Pd17  1  0.999986  0.925556  0.892041  1
  Pd  Pd18  1  0.500023  0.075303  0.390519  1
  Pd  Pd19  1  0.999995  0.924898  0.109465  1
  Pd  Pd20  1  0.499996  0.420931  0.156160  1
  Pd  Pd21  1  0.000017  0.579270  0.343911  1
  Pd  Pd22  1  0.499985  0.419159  0.844631  1
  Pd  Pd23  1  0.000023  0.577205  0.654862  1
