# generated using pymatgen
data_Be8V2CoMo
_symmetry_space_group_name_H-M   'P 1'
_cell_length_a   4.31459700
_cell_length_b   4.31459622
_cell_length_c   7.06238800
_cell_angle_alpha   90.00000000
_cell_angle_beta   90.00000000
_cell_angle_gamma   119.99999829
_symmetry_Int_Tables_number   1
_chemical_formula_structural   Be8V2CoMo
_chemical_formula_sum   'Be8 V2 Co1 Mo1'
_cell_volume   113.85775302
_cell_formula_units_Z   1
loop_
 _symmetry_equiv_pos_site_id
 _symmetry_equiv_pos_as_xyz
  1  'x, y, z'
loop_
 _atom_site_type_symbol
 _atom_site_label
 _atom_site_symmetry_multiplicity
 _atom_site_fract_x
 _atom_site_fract_y
 _atom_site_fract_z
 _atom_site_occupancy
  Be  Be0  1  0.000000  0.000000  0.002329  1
  Be  Be1  1  0.000000  0.000000  0.493552  1
  Be  Be2  1  0.830176  0.660351  0.245794  1
  Be  Be3  1  0.169322  0.830678  0.754519  1
  Be  Be4  1  0.661355  0.830678  0.754519  1
  Be  Be5  1  0.339649  0.169824  0.245794  1
  Be  Be6  1  0.830176  0.169824  0.245794  1
  Be  Be7  1  0.169322  0.338645  0.754519  1
  V  V8  1  0.666667  0.333333  0.940488  1
  V  V9  1  0.333333  0.666667  0.432825  1
  Co  Co10  1  0.333333  0.666667  0.066454  1
  Mo  Mo11  1  0.666667  0.333333  0.563413  1
