# generated using pymatgen
data_CaDyB4Rh5
_symmetry_space_group_name_H-M   'P 1'
_cell_length_a   7.48073501
_cell_length_b   6.29983842
_cell_length_c   5.59437828
_cell_angle_alpha   77.69360119
_cell_angle_beta   55.36514729
_cell_angle_gamma   46.94126518
_symmetry_Int_Tables_number   1
_chemical_formula_structural   CaDyB4Rh5
_chemical_formula_sum   'Ca1 Dy1 B4 Rh5'
_cell_volume   151.64341899
_cell_formula_units_Z   1
loop_
 _symmetry_equiv_pos_site_id
 _symmetry_equiv_pos_as_xyz
  1  'x, y, z'
loop_
 _atom_site_type_symbol
 _atom_site_label
 _atom_site_symmetry_multiplicity
 _atom_site_fract_x
 _atom_site_fract_y
 _atom_site_fract_z
 _atom_site_occupancy
  Ca  Ca0  1  0.144031  0.144031  0.855969  1
  Dy  Dy1  1  0.858762  0.858762  0.141238  1
  B  B2  1  0.788721  0.473718  0.526282  1
  B  B3  1  0.210098  0.526542  0.473458  1
  B  B4  1  0.526542  0.210098  0.789902  1
  B  B5  1  0.473718  0.788721  0.211279  1
  Rh  Rh6  1  0.498899  0.498899  0.501101  1
  Rh  Rh7  1  0.499960  0.499960  0.000040  1
  Rh  Rh8  1  0.999960  0.999960  0.500040  1
  Rh  Rh9  1  0.749655  0.749655  0.750345  1
  Rh  Rh10  1  0.249655  0.249655  0.250345  1
