# generated using pymatgen
data_Tb3Dy2(TcB3)2
_symmetry_space_group_name_H-M   'P 1'
_cell_length_a   5.53950496
_cell_length_b   5.53950462
_cell_length_c   8.51477190
_cell_angle_alpha   71.01699489
_cell_angle_beta   71.01699557
_cell_angle_gamma   59.99999485
_symmetry_Int_Tables_number   1
_chemical_formula_structural   Tb3Dy2(TcB3)2
_chemical_formula_sum   'Tb3 Dy2 Tc2 B6'
_cell_volume   209.71098148
_cell_formula_units_Z   1
loop_
 _symmetry_equiv_pos_site_id
 _symmetry_equiv_pos_as_xyz
  1  'x, y, z'
loop_
 _atom_site_type_symbol
 _atom_site_label
 _atom_site_symmetry_multiplicity
 _atom_site_fract_x
 _atom_site_fract_y
 _atom_site_fract_z
 _atom_site_occupancy
  Tb  Tb0  1  0.000000  0.000000  0.000000  1
  Tb  Tb1  1  0.248243  0.248243  0.255271  1
  Tb  Tb2  1  0.751757  0.751757  0.744729  1
  Dy  Dy3  1  0.419010  0.419010  0.742969  1
  Dy  Dy4  1  0.580990  0.580990  0.257031  1
  Tc  Tc5  1  0.111183  0.111183  0.666451  1
  Tc  Tc6  1  0.888817  0.888817  0.333549  1
  B  B7  1  0.170611  0.829389  0.500000  1
  B  B8  1  0.829389  0.500000  0.500000  1
  B  B9  1  0.500000  0.170611  0.500000  1
  B  B10  1  0.170611  0.500000  0.500000  1
  B  B11  1  0.500000  0.829389  0.500000  1
  B  B12  1  0.829389  0.170611  0.500000  1
