# generated using pymatgen
data_TbTm(LuSb)3
_symmetry_space_group_name_H-M   'P 1'
_cell_length_a   8.06586700
_cell_length_b   9.13502000
_cell_length_c   11.71672200
_cell_angle_alpha   90.00000000
_cell_angle_beta   90.00000000
_cell_angle_gamma   90.00000000
_symmetry_Int_Tables_number   1
_chemical_formula_structural   TbTm(LuSb)3
_chemical_formula_sum   'Tb4 Tm4 Lu12 Sb12'
_cell_volume   863.30982744
_cell_formula_units_Z   4
loop_
 _symmetry_equiv_pos_site_id
 _symmetry_equiv_pos_as_xyz
  1  'x, y, z'
loop_
 _atom_site_type_symbol
 _atom_site_label
 _atom_site_symmetry_multiplicity
 _atom_site_fract_x
 _atom_site_fract_y
 _atom_site_fract_z
 _atom_site_occupancy
  Tb  Tb0  1  0.175628  0.750000  0.228336  1
  Tb  Tb1  1  0.675628  0.250000  0.271664  1
  Tb  Tb2  1  0.824372  0.250000  0.771664  1
  Tb  Tb3  1  0.324372  0.750000  0.728336  1
  Tm  Tm4  1  0.660362  0.750000  0.290546  1
  Tm  Tm5  1  0.160362  0.250000  0.209454  1
  Tm  Tm6  1  0.339638  0.250000  0.709454  1
  Tm  Tm7  1  0.839638  0.750000  0.790546  1
  Lu  Lu8  1  0.809454  0.938309  0.065901  1
  Lu  Lu9  1  0.309454  0.061691  0.434099  1
  Lu  Lu10  1  0.190546  0.438309  0.934099  1
  Lu  Lu11  1  0.690546  0.561691  0.565901  1
  Lu  Lu12  1  0.190546  0.061691  0.934099  1
  Lu  Lu13  1  0.690546  0.938309  0.565901  1
  Lu  Lu14  1  0.809454  0.561691  0.065901  1
  Lu  Lu15  1  0.309454  0.438309  0.434099  1
  Lu  Lu16  1  0.524979  0.250000  0.995489  1
  Lu  Lu17  1  0.024979  0.750000  0.504511  1
  Lu  Lu18  1  0.475021  0.750000  0.004511  1
  Lu  Lu19  1  0.975021  0.250000  0.495489  1
  Sb  Sb20  1  0.936486  0.991299  0.327097  1
  Sb  Sb21  1  0.436486  0.008701  0.172903  1
  Sb  Sb22  1  0.063514  0.491299  0.672903  1
  Sb  Sb23  1  0.563514  0.508701  0.827097  1
  Sb  Sb24  1  0.063514  0.008701  0.672903  1
  Sb  Sb25  1  0.563514  0.991299  0.827097  1
  Sb  Sb26  1  0.936486  0.508701  0.327097  1
  Sb  Sb27  1  0.436486  0.491299  0.172903  1
  Sb  Sb28  1  0.902833  0.250000  0.027163  1
  Sb  Sb29  1  0.402833  0.750000  0.472837  1
  Sb  Sb30  1  0.097167  0.750000  0.972837  1
  Sb  Sb31  1  0.597167  0.250000  0.527163  1
