# generated using pymatgen
data_Ho3Tm2Be4P8Ir19
_symmetry_space_group_name_H-M   'P 1'
_cell_length_a   12.61798100
_cell_length_b   12.51045974
_cell_length_c   3.93713200
_cell_angle_alpha   90.00000000
_cell_angle_beta   90.00000000
_cell_angle_gamma   120.03739479
_symmetry_Int_Tables_number   1
_chemical_formula_structural   Ho3Tm2Be4P8Ir19
_chemical_formula_sum   'Ho3 Tm2 Be4 P8 Ir19'
_cell_volume   538.03431379
_cell_formula_units_Z   1
loop_
 _symmetry_equiv_pos_site_id
 _symmetry_equiv_pos_as_xyz
  1  'x, y, z'
loop_
 _atom_site_type_symbol
 _atom_site_label
 _atom_site_symmetry_multiplicity
 _atom_site_fract_x
 _atom_site_fract_y
 _atom_site_fract_z
 _atom_site_occupancy
  Ho  Ho0  1  0.334296  0.667102  0.500000  1
  Ho  Ho1  1  0.183367  0.191347  0.000000  1
  Ho  Ho2  1  0.808791  0.999996  0.000000  1
  Tm  Tm3  1  0.677494  0.331439  0.500000  1
  Tm  Tm4  1  0.004984  0.815142  0.000000  1
  Be  Be5  1  0.314373  0.835389  0.000000  1
  Be  Be6  1  0.164407  0.478110  0.000000  1
  Be  Be7  1  0.521106  0.684549  0.000000  1
  Be  Be8  1  0.830896  0.308159  0.000000  1
  P  P9  1  0.485446  0.176435  0.000000  1
  P  P10  1  0.697235  0.517222  0.000000  1
  P  P11  1  0.361457  0.374065  0.500000  1
  P  P12  1  0.626523  0.993513  0.500000  1
  P  P13  1  0.007495  0.631918  0.500000  1
  P  P14  1  0.818178  0.820239  0.500000  1
  P  P15  1  0.181393  0.002086  0.500000  1
  P  P16  1  0.995801  0.180672  0.500000  1
  Ir  Ir17  1  0.194116  0.820508  0.500000  1
  Ir  Ir18  1  0.177386  0.375945  0.500000  1
  Ir  Ir19  1  0.624835  0.805026  0.500000  1
  Ir  Ir20  1  0.811225  0.187370  0.500000  1
  Ir  Ir21  1  0.377179  0.190568  0.500000  1
  Ir  Ir22  1  0.809183  0.623382  0.500000  1
  Ir  Ir23  1  0.127251  0.641040  0.000000  1
  Ir  Ir24  1  0.356974  0.483853  0.000000  1
  Ir  Ir25  1  0.512323  0.868780  0.000000  1
  Ir  Ir26  1  0.633782  0.128076  0.000000  1
  Ir  Ir27  1  0.500470  0.368267  0.000000  1
  Ir  Ir28  1  0.874993  0.509861  0.000000  1
  Ir  Ir29  1  0.546786  0.554136  0.500000  1
  Ir  Ir30  1  0.443376  0.991182  0.500000  1
  Ir  Ir31  1  0.995332  0.443135  0.500000  1
  Ir  Ir32  1  0.718982  0.714485  0.000000  1
  Ir  Ir33  1  0.286712  0.006891  0.000000  1
  Ir  Ir34  1  0.995899  0.280476  0.000000  1
  Ir  Ir35  1  0.999953  0.999634  0.500000  1
