# generated using pymatgen
data_Er3Tm9OsRu3
_symmetry_space_group_name_H-M   'P 1'
_cell_length_a   7.31356265
_cell_length_b   8.96781200
_cell_length_c   6.23061214
_cell_angle_alpha   90.00000000
_cell_angle_beta   89.92827094
_cell_angle_gamma   90.00000000
_symmetry_Int_Tables_number   1
_chemical_formula_structural   Er3Tm9OsRu3
_chemical_formula_sum   'Er3 Tm9 Os1 Ru3'
_cell_volume   408.64468829
_cell_formula_units_Z   1
loop_
 _symmetry_equiv_pos_site_id
 _symmetry_equiv_pos_as_xyz
  1  'x, y, z'
loop_
 _atom_site_type_symbol
 _atom_site_label
 _atom_site_symmetry_multiplicity
 _atom_site_fract_x
 _atom_site_fract_y
 _atom_site_fract_z
 _atom_site_occupancy
  Er  Er0  1  0.040124  0.250000  0.629812  1
  Er  Er1  1  0.959460  0.750000  0.369122  1
  Er  Er2  1  0.459466  0.750000  0.131229  1
  Tm  Tm3  1  0.539602  0.250000  0.868564  1
  Tm  Tm4  1  0.174899  0.063245  0.166963  1
  Tm  Tm5  1  0.825161  0.937941  0.834200  1
  Tm  Tm6  1  0.325203  0.936959  0.666859  1
  Tm  Tm7  1  0.825161  0.562059  0.834200  1
  Tm  Tm8  1  0.675251  0.063782  0.332102  1
  Tm  Tm9  1  0.174899  0.436755  0.166963  1
  Tm  Tm10  1  0.675251  0.436218  0.332102  1
  Tm  Tm11  1  0.325203  0.563041  0.666859  1
  Os  Os12  1  0.882736  0.250000  0.039534  1
  Ru  Ru13  1  0.383631  0.250000  0.461813  1
  Ru  Ru14  1  0.616661  0.750000  0.538835  1
  Ru  Ru15  1  0.117293  0.750000  0.960844  1
