# generated using pymatgen
data_Nd20AgIr8Pt3
_symmetry_space_group_name_H-M   'P 1'
_cell_length_a   11.44166954
_cell_length_b   11.41934481
_cell_length_c   6.54484158
_cell_angle_alpha   90.02476905
_cell_angle_beta   89.93266952
_cell_angle_gamma   90.26146861
_symmetry_Int_Tables_number   1
_chemical_formula_structural   Nd20AgIr8Pt3
_chemical_formula_sum   'Nd20 Ag1 Ir8 Pt3'
_cell_volume   855.11566900
_cell_formula_units_Z   1
loop_
 _symmetry_equiv_pos_site_id
 _symmetry_equiv_pos_as_xyz
  1  'x, y, z'
loop_
 _atom_site_type_symbol
 _atom_site_label
 _atom_site_symmetry_multiplicity
 _atom_site_fract_x
 _atom_site_fract_y
 _atom_site_fract_z
 _atom_site_occupancy
  Nd  Nd0  1  0.081541  0.297475  0.138144  1
  Nd  Nd1  1  0.791172  0.406986  0.114725  1
  Nd  Nd2  1  0.207233  0.591639  0.115852  1
  Nd  Nd3  1  0.909035  0.704495  0.118949  1
  Nd  Nd4  1  0.411328  0.790980  0.385608  1
  Nd  Nd5  1  0.596003  0.207132  0.384082  1
  Nd  Nd6  1  0.300540  0.085626  0.362083  1
  Nd  Nd7  1  0.707015  0.912595  0.381013  1
  Nd  Nd8  1  0.424087  0.207894  0.877072  1
  Nd  Nd9  1  0.709255  0.091157  0.881801  1
  Nd  Nd10  1  0.298453  0.901394  0.879337  1
  Nd  Nd11  1  0.591912  0.795970  0.876902  1
  Nd  Nd12  1  0.088779  0.707695  0.623280  1
  Nd  Nd13  1  0.899826  0.296002  0.616008  1
  Nd  Nd14  1  0.206906  0.422964  0.622639  1
  Nd  Nd15  1  0.795182  0.590552  0.623145  1
  Nd  Nd16  1  0.991632  0.994731  0.000735  1
  Nd  Nd17  1  0.500704  0.502001  0.001098  1
  Nd  Nd18  1  0.500555  0.499246  0.499207  1
  Nd  Nd19  1  0.993620  0.996055  0.498708  1
  Ag  Ag20  1  0.156750  0.156067  0.750726  1
  Ir  Ir21  1  0.847978  0.152679  0.251940  1
  Ir  Ir22  1  0.346854  0.650362  0.749323  1
  Ir  Ir23  1  0.844740  0.843894  0.749549  1
  Ir  Ir24  1  0.649819  0.347635  0.750751  1
  Ir  Ir25  1  0.000593  0.500776  0.379724  1
  Ir  Ir26  1  0.499413  0.000578  0.120049  1
  Ir  Ir27  1  0.496972  0.000295  0.619773  1
  Ir  Ir28  1  0.000597  0.497194  0.880034  1
  Pt  Pt29  1  0.153746  0.846990  0.248207  1
  Pt  Pt30  1  0.342663  0.344464  0.248620  1
  Pt  Pt31  1  0.655098  0.656479  0.250916  1
