# generated using pymatgen
data_Dy5(Hg2Ir)2
_symmetry_space_group_name_H-M   'P 1'
_cell_length_a   3.68681000
_cell_length_b   7.92007100
_cell_length_c   17.92628400
_cell_angle_alpha   90.00000000
_cell_angle_beta   90.00000000
_cell_angle_gamma   90.00000000
_symmetry_Int_Tables_number   1
_chemical_formula_structural   Dy5(Hg2Ir)2
_chemical_formula_sum   'Dy10 Hg8 Ir4'
_cell_volume   523.44385311
_cell_formula_units_Z   2
loop_
 _symmetry_equiv_pos_site_id
 _symmetry_equiv_pos_as_xyz
  1  'x, y, z'
loop_
 _atom_site_type_symbol
 _atom_site_label
 _atom_site_symmetry_multiplicity
 _atom_site_fract_x
 _atom_site_fract_y
 _atom_site_fract_z
 _atom_site_occupancy
  Dy  Dy0  1  0.000000  0.110599  0.411035  1
  Dy  Dy1  1  0.000000  0.889401  0.588965  1
  Dy  Dy2  1  0.000000  0.389401  0.911035  1
  Dy  Dy3  1  0.000000  0.610599  0.088965  1
  Dy  Dy4  1  0.000000  0.241839  0.218438  1
  Dy  Dy5  1  0.000000  0.758161  0.781562  1
  Dy  Dy6  1  0.000000  0.258161  0.718438  1
  Dy  Dy7  1  0.000000  0.741839  0.281562  1
  Dy  Dy8  1  0.000000  0.000000  0.000000  1
  Dy  Dy9  1  0.000000  0.500000  0.500000  1
  Hg  Hg10  1  0.500000  0.420790  0.355569  1
  Hg  Hg11  1  0.500000  0.579210  0.644431  1
  Hg  Hg12  1  0.500000  0.079210  0.855569  1
  Hg  Hg13  1  0.500000  0.920790  0.144431  1
  Hg  Hg14  1  0.500000  0.290213  0.061779  1
  Hg  Hg15  1  0.500000  0.709787  0.938221  1
  Hg  Hg16  1  0.500000  0.209787  0.561779  1
  Hg  Hg17  1  0.500000  0.790213  0.438221  1
  Ir  Ir18  1  0.500000  0.023468  0.301748  1
  Ir  Ir19  1  0.500000  0.976532  0.698252  1
  Ir  Ir20  1  0.500000  0.476532  0.801748  1
  Ir  Ir21  1  0.500000  0.523468  0.198252  1
