# generated using pymatgen
data_Sr3Al10CoO20
_symmetry_space_group_name_H-M   'P 1'
_cell_length_a   9.53829673
_cell_length_b   9.53829490
_cell_length_c   4.97595188
_cell_angle_alpha   75.26514244
_cell_angle_beta   75.26515743
_cell_angle_gamma   72.68335589
_symmetry_Int_Tables_number   1
_chemical_formula_structural   Sr3Al10CoO20
_chemical_formula_sum   'Sr3 Al10 Co1 O20'
_cell_volume   410.07673680
_cell_formula_units_Z   1
loop_
 _symmetry_equiv_pos_site_id
 _symmetry_equiv_pos_as_xyz
  1  'x, y, z'
loop_
 _atom_site_type_symbol
 _atom_site_label
 _atom_site_symmetry_multiplicity
 _atom_site_fract_x
 _atom_site_fract_y
 _atom_site_fract_z
 _atom_site_occupancy
  Sr  Sr0  1  0.000000  0.000000  0.000000  1
  Sr  Sr1  1  0.275352  0.275352  0.715024  1
  Sr  Sr2  1  0.724648  0.724648  0.284976  1
  Al  Al3  1  0.848494  0.423964  0.830032  1
  Al  Al4  1  0.576036  0.151506  0.169968  1
  Al  Al5  1  0.151506  0.576036  0.169968  1
  Al  Al6  1  0.423964  0.848494  0.830032  1
  Al  Al7  1  0.369145  0.630855  0.500000  1
  Al  Al8  1  0.630855  0.369145  0.500000  1
  Al  Al9  1  0.993308  0.718333  0.659163  1
  Al  Al10  1  0.281667  0.006692  0.340837  1
  Al  Al11  1  0.006692  0.281667  0.340837  1
  Al  Al12  1  0.718333  0.993308  0.659163  1
  Co  Co13  1  0.500000  0.500000  0.000000  1
  O  O14  1  0.548406  0.312001  0.891280  1
  O  O15  1  0.687999  0.451594  0.108720  1
  O  O16  1  0.451594  0.687999  0.108720  1
  O  O17  1  0.312001  0.548406  0.891280  1
  O  O18  1  0.713678  0.008841  0.008825  1
  O  O19  1  0.991159  0.286322  0.991175  1
  O  O20  1  0.286322  0.991159  0.991175  1
  O  O21  1  0.008841  0.713678  0.008825  1
  O  O22  1  0.434332  0.434332  0.392726  1
  O  O23  1  0.565668  0.565668  0.607274  1
  O  O24  1  0.901245  0.901245  0.514842  1
  O  O25  1  0.098755  0.098755  0.485158  1
  O  O26  1  0.880164  0.600672  0.675216  1
  O  O27  1  0.399328  0.119836  0.324784  1
  O  O28  1  0.119836  0.399328  0.324784  1
  O  O29  1  0.600672  0.880164  0.675216  1
  O  O30  1  0.172138  0.659960  0.438036  1
  O  O31  1  0.340040  0.827862  0.561964  1
  O  O32  1  0.827862  0.340040  0.561964  1
  O  O33  1  0.659960  0.172138  0.438036  1
