# generated using pymatgen
data_Mg2Ta(Ni10B3)2
_symmetry_space_group_name_H-M   'P 1'
_cell_length_a   7.48523400
_cell_length_b   7.48523349
_cell_length_c   7.48523400
_cell_angle_alpha   120.00000225
_cell_angle_beta   90.00000000
_cell_angle_gamma   120.00000225
_symmetry_Int_Tables_number   1
_chemical_formula_structural   Mg2Ta(Ni10B3)2
_chemical_formula_sum   'Mg2 Ta1 Ni20 B6'
_cell_volume   296.55215744
_cell_formula_units_Z   1
loop_
 _symmetry_equiv_pos_site_id
 _symmetry_equiv_pos_as_xyz
  1  'x, y, z'
loop_
 _atom_site_type_symbol
 _atom_site_label
 _atom_site_symmetry_multiplicity
 _atom_site_fract_x
 _atom_site_fract_y
 _atom_site_fract_z
 _atom_site_occupancy
  Mg  Mg0  1  0.750000  0.500000  0.250000  1
  Mg  Mg1  1  0.250000  0.500000  0.750000  1
  Ta  Ta2  1  0.000000  0.000000  0.000000  1
  Ni  Ni3  1  0.340594  0.000000  0.000000  1
  Ni  Ni4  1  0.659408  0.000000  0.000000  1
  Ni  Ni5  1  0.000000  0.340594  0.000000  1
  Ni  Ni6  1  0.340594  0.340594  0.000000  1
  Ni  Ni7  1  0.000000  0.659408  0.000000  1
  Ni  Ni8  1  0.659408  0.659408  0.000000  1
  Ni  Ni9  1  0.385213  0.770425  0.155637  1
  Ni  Ni10  1  0.000000  0.000000  0.340594  1
  Ni  Ni11  1  0.000000  0.340594  0.340594  1
  Ni  Ni12  1  0.340594  0.340594  0.340594  1
  Ni  Ni13  1  0.614789  0.229577  0.385213  1
  Ni  Ni14  1  0.155637  0.770425  0.385213  1
  Ni  Ni15  1  0.614789  0.770425  0.385213  1
  Ni  Ni16  1  0.844364  0.229577  0.614788  1
  Ni  Ni17  1  0.385213  0.229577  0.614789  1
  Ni  Ni18  1  0.385213  0.770425  0.614789  1
  Ni  Ni19  1  0.000000  0.000000  0.659408  1
  Ni  Ni20  1  0.000000  0.659408  0.659408  1
  Ni  Ni21  1  0.659408  0.659408  0.659408  1
  Ni  Ni22  1  0.614788  0.229577  0.844364  1
  B  B23  1  0.271362  0.000000  0.271362  1
  B  B24  1  0.271362  0.542723  0.271362  1
  B  B25  1  0.728638  0.000000  0.271362  1
  B  B26  1  0.271362  0.000000  0.728638  1
  B  B27  1  0.728638  0.000000  0.728638  1
  B  B28  1  0.728638  0.457277  0.728638  1
