# generated using pymatgen
data_SmZn9Ag2
_symmetry_space_group_name_H-M   'P 1'
_cell_length_a   8.37360857
_cell_length_b   8.37360742
_cell_length_c   8.37438058
_cell_angle_alpha   99.80496959
_cell_angle_beta   99.42604185
_cell_angle_gamma   131.75158472
_symmetry_Int_Tables_number   1
_chemical_formula_structural   SmZn9Ag2
_chemical_formula_sum   'Sm2 Zn18 Ag4'
_cell_volume   399.80966378
_cell_formula_units_Z   2
loop_
 _symmetry_equiv_pos_site_id
 _symmetry_equiv_pos_as_xyz
  1  'x, y, z'
loop_
 _atom_site_type_symbol
 _atom_site_label
 _atom_site_symmetry_multiplicity
 _atom_site_fract_x
 _atom_site_fract_y
 _atom_site_fract_z
 _atom_site_occupancy
  Sm  Sm0  1  0.248542  0.748543  0.500000  1
  Sm  Sm1  1  0.001359  0.001359  0.999999  1
  Zn  Zn2  1  0.625594  0.378682  0.748677  1
  Zn  Zn3  1  0.125255  0.374087  0.746241  1
  Zn  Zn4  1  0.627845  0.379013  0.253758  1
  Zn  Zn5  1  0.630005  0.876917  0.251324  1
  Zn  Zn6  1  0.180482  0.098023  0.669852  1
  Zn  Zn7  1  0.758857  0.931238  0.584901  1
  Zn  Zn8  1  0.346337  0.173956  0.415099  1
  Zn  Zn9  1  0.428170  0.510630  0.330148  1
  Zn  Zn10  1  0.905280  0.819837  0.327939  1
  Zn  Zn11  1  0.491898  0.577342  0.672061  1
  Zn  Zn12  1  0.069514  0.242618  0.413012  1
  Zn  Zn13  1  0.829605  0.656502  0.586988  1
  Zn  Zn14  1  0.063717  0.645566  0.827215  1
  Zn  Zn15  1  0.490771  0.816053  0.916281  1
  Zn  Zn16  1  0.899772  0.574490  0.083719  1
  Zn  Zn17  1  0.818352  0.236503  0.172786  1
  Zn  Zn18  1  0.347416  0.933996  0.176702  1
  Zn  Zn19  1  0.757294  0.170713  0.823297  1
  Ag  Ag20  1  0.419556  0.091470  0.912764  1
  Ag  Ag21  1  0.178706  0.506792  0.087236  1
  Ag  Ag22  1  0.506341  0.506341  0.000000  1
  Ag  Ag23  1  0.749331  0.249332  0.500000  1
