# generated using pymatgen
data_Na2GeAsAu2
_symmetry_space_group_name_H-M   'P 1'
_cell_length_a   5.73162253
_cell_length_b   5.81096100
_cell_length_c   5.81096105
_cell_angle_alpha   134.40933492
_cell_angle_beta   102.43869785
_cell_angle_gamma   95.10499693
_symmetry_Int_Tables_number   1
_chemical_formula_structural   Na2GeAsAu2
_chemical_formula_sum   'Na2 Ge1 As1 Au2'
_cell_volume   126.79116726
_cell_formula_units_Z   1
loop_
 _symmetry_equiv_pos_site_id
 _symmetry_equiv_pos_as_xyz
  1  'x, y, z'
loop_
 _atom_site_type_symbol
 _atom_site_label
 _atom_site_symmetry_multiplicity
 _atom_site_fract_x
 _atom_site_fract_y
 _atom_site_fract_z
 _atom_site_occupancy
  Na  Na0  1  0.205716  0.708944  0.496772  1
  Na  Na1  1  0.602935  0.602765  0.000171  1
  Ge  Ge2  1  0.646723  0.325453  0.321270  1
  As  As3  1  0.004424  0.323194  0.681230  1
  Au  Au4  1  0.217839  0.005094  0.212745  1
  Au  Au5  1  0.780223  0.992411  0.787812  1
