# generated using pymatgen
data_CaGdMgAlIr2
_symmetry_space_group_name_H-M   'P 1'
_cell_length_a   4.12640100
_cell_length_b   7.13510000
_cell_length_c   8.21107100
_cell_angle_alpha   90.00000000
_cell_angle_beta   90.00000000
_cell_angle_gamma   90.00000000
_symmetry_Int_Tables_number   1
_chemical_formula_structural   CaGdMgAlIr2
_chemical_formula_sum   'Ca2 Gd2 Mg2 Al2 Ir4'
_cell_volume   241.75268248
_cell_formula_units_Z   2
loop_
 _symmetry_equiv_pos_site_id
 _symmetry_equiv_pos_as_xyz
  1  'x, y, z'
loop_
 _atom_site_type_symbol
 _atom_site_label
 _atom_site_symmetry_multiplicity
 _atom_site_fract_x
 _atom_site_fract_y
 _atom_site_fract_z
 _atom_site_occupancy
  Ca  Ca0  1  0.250000  0.971514  0.322247  1
  Ca  Ca1  1  0.250000  0.471514  0.177753  1
  Gd  Gd2  1  0.750000  0.029289  0.676908  1
  Gd  Gd3  1  0.750000  0.529289  0.823092  1
  Mg  Mg4  1  0.750000  0.643262  0.432940  1
  Mg  Mg5  1  0.750000  0.143262  0.067060  1
  Al  Al6  1  0.250000  0.361748  0.562353  1
  Al  Al7  1  0.250000  0.861748  0.937647  1
  Ir  Ir8  1  0.250000  0.224122  0.860749  1
  Ir  Ir9  1  0.250000  0.724122  0.639251  1
  Ir  Ir10  1  0.750000  0.770064  0.101211  1
  Ir  Ir11  1  0.750000  0.270064  0.398789  1
