# generated using pymatgen
data_Ho3Er9Co5Sb
_symmetry_space_group_name_H-M   'P 1'
_cell_length_a   8.19920623
_cell_length_b   8.19920561
_cell_length_c   8.19685996
_cell_angle_alpha   110.86167136
_cell_angle_beta   110.83326488
_cell_angle_gamma   106.76463421
_symmetry_Int_Tables_number   1
_chemical_formula_structural   Ho3Er9Co5Sb
_chemical_formula_sum   'Ho3 Er9 Co5 Sb1'
_cell_volume   423.42594629
_cell_formula_units_Z   1
loop_
 _symmetry_equiv_pos_site_id
 _symmetry_equiv_pos_as_xyz
  1  'x, y, z'
loop_
 _atom_site_type_symbol
 _atom_site_label
 _atom_site_symmetry_multiplicity
 _atom_site_fract_x
 _atom_site_fract_y
 _atom_site_fract_z
 _atom_site_occupancy
  Ho  Ho0  1  0.287615  0.184760  0.472374  1
  Ho  Ho1  1  0.712597  0.815561  0.528159  1
  Ho  Ho2  1  0.287579  0.815145  0.102724  1
  Er  Er3  1  0.712481  0.184591  0.897073  1
  Er  Er4  1  0.620629  0.312752  0.307592  1
  Er  Er5  1  0.379606  0.687453  0.692265  1
  Er  Er6  1  0.004813  0.312660  0.692265  1
  Er  Er7  1  0.994839  0.686963  0.307592  1
  Er  Er8  1  0.210559  0.404669  0.193704  1
  Er  Er9  1  0.789031  0.594840  0.806060  1
  Er  Er10  1  0.211221  0.017028  0.806060  1
  Er  Er11  1  0.789034  0.983145  0.193704  1
  Co  Co12  1  0.999604  0.373805  0.373409  1
  Co  Co13  1  0.000073  0.626070  0.626144  1
  Co  Co14  1  0.387838  0.887842  0.500599  1
  Co  Co15  1  0.612757  0.112760  0.500599  1
  Co  Co16  1  0.999759  0.999961  0.999720  1
  Sb  Sb17  1  0.499963  0.499995  0.999958  1
