# generated using pymatgen
data_LaDy2AuO7
_symmetry_space_group_name_H-M   'P 1'
_cell_length_a   6.52724565
_cell_length_b   6.52724581
_cell_length_c   7.58355200
_cell_angle_alpha   90.00000000
_cell_angle_beta   90.00000000
_cell_angle_gamma   108.86456769
_symmetry_Int_Tables_number   1
_chemical_formula_structural   LaDy2AuO7
_chemical_formula_sum   'La2 Dy4 Au2 O14'
_cell_volume   305.74177045
_cell_formula_units_Z   2
loop_
 _symmetry_equiv_pos_site_id
 _symmetry_equiv_pos_as_xyz
  1  'x, y, z'
loop_
 _atom_site_type_symbol
 _atom_site_label
 _atom_site_symmetry_multiplicity
 _atom_site_fract_x
 _atom_site_fract_y
 _atom_site_fract_z
 _atom_site_occupancy
  La  La0  1  0.000000  0.000000  0.500000  1
  La  La1  1  0.000000  0.000000  0.000000  1
  Dy  Dy2  1  0.513150  0.056585  0.250000  1
  Dy  Dy3  1  0.943415  0.486850  0.750000  1
  Dy  Dy4  1  0.486850  0.943415  0.750000  1
  Dy  Dy5  1  0.056585  0.513150  0.250000  1
  Au  Au6  1  0.500000  0.500000  0.500000  1
  Au  Au7  1  0.500000  0.500000  0.000000  1
  O  O8  1  0.438565  0.174286  0.530535  1
  O  O9  1  0.825714  0.561435  0.469465  1
  O  O10  1  0.438565  0.174286  0.969465  1
  O  O11  1  0.825714  0.561435  0.030535  1
  O  O12  1  0.561435  0.825714  0.469465  1
  O  O13  1  0.174286  0.438565  0.530535  1
  O  O14  1  0.561435  0.825714  0.030535  1
  O  O15  1  0.174286  0.438565  0.969465  1
  O  O16  1  0.160262  0.875418  0.250000  1
  O  O17  1  0.124582  0.839738  0.750000  1
  O  O18  1  0.839738  0.124582  0.750000  1
  O  O19  1  0.875418  0.160262  0.250000  1
  O  O20  1  0.395680  0.395680  0.250000  1
  O  O21  1  0.604320  0.604320  0.750000  1
