# generated using pymatgen
data_DyY5Er14(Cd3Ru)2
_symmetry_space_group_name_H-M   'P 1'
_cell_length_a   9.55176000
_cell_length_b   9.55176042
_cell_length_c   9.77418300
_cell_angle_alpha   90.00000000
_cell_angle_beta   90.00000000
_cell_angle_gamma   119.99399693
_symmetry_Int_Tables_number   1
_chemical_formula_structural   DyY5Er14(Cd3Ru)2
_chemical_formula_sum   'Dy1 Y5 Er14 Cd6 Ru2'
_cell_volume   772.33228256
_cell_formula_units_Z   1
loop_
 _symmetry_equiv_pos_site_id
 _symmetry_equiv_pos_as_xyz
  1  'x, y, z'
loop_
 _atom_site_type_symbol
 _atom_site_label
 _atom_site_symmetry_multiplicity
 _atom_site_fract_x
 _atom_site_fract_y
 _atom_site_fract_z
 _atom_site_occupancy
  Dy  Dy0  1  0.540666  0.459334  0.250000  1
  Y  Y1  1  0.540867  0.081988  0.250000  1
  Y  Y2  1  0.918012  0.459133  0.250000  1
  Y  Y3  1  0.459174  0.540826  0.750000  1
  Y  Y4  1  0.459145  0.918351  0.750000  1
  Y  Y5  1  0.081649  0.540855  0.750000  1
  Er  Er6  1  0.000036  0.999964  0.500015  1
  Er  Er7  1  0.000036  0.999964  0.999985  1
  Er  Er8  1  0.209787  0.790213  0.439992  1
  Er  Er9  1  0.210039  0.419536  0.439891  1
  Er  Er10  1  0.580464  0.789961  0.439891  1
  Er  Er11  1  0.790224  0.209776  0.560041  1
  Er  Er12  1  0.789967  0.580320  0.559824  1
  Er  Er13  1  0.419680  0.210033  0.559824  1
  Er  Er14  1  0.790224  0.209776  0.939959  1
  Er  Er15  1  0.789967  0.580320  0.940176  1
  Er  Er16  1  0.419680  0.210033  0.940176  1
  Er  Er17  1  0.209787  0.790213  0.060008  1
  Er  Er18  1  0.210039  0.419536  0.060109  1
  Er  Er19  1  0.580464  0.789961  0.060109  1
  Cd  Cd20  1  0.885682  0.114318  0.250000  1
  Cd  Cd21  1  0.885290  0.770997  0.250000  1
  Cd  Cd22  1  0.229003  0.114710  0.250000  1
  Cd  Cd23  1  0.114342  0.885658  0.750000  1
  Cd  Cd24  1  0.114286  0.228652  0.750000  1
  Cd  Cd25  1  0.771348  0.885714  0.750000  1
  Ru  Ru26  1  0.333453  0.666547  0.250000  1
  Ru  Ru27  1  0.666689  0.333311  0.750000  1
