# generated using pymatgen
data_Dy4TcI4
_symmetry_space_group_name_H-M   'P 1'
_cell_length_a   11.67871385
_cell_length_b   11.67871649
_cell_length_c   6.20422800
_cell_angle_alpha   90.03560084
_cell_angle_beta   90.03560199
_cell_angle_gamma   89.89510353
_symmetry_Int_Tables_number   1
_chemical_formula_structural   Dy4TcI4
_chemical_formula_sum   'Dy8 Tc2 I8'
_cell_volume   846.20772837
_cell_formula_units_Z   2
loop_
 _symmetry_equiv_pos_site_id
 _symmetry_equiv_pos_as_xyz
  1  'x, y, z'
loop_
 _atom_site_type_symbol
 _atom_site_label
 _atom_site_symmetry_multiplicity
 _atom_site_fract_x
 _atom_site_fract_y
 _atom_site_fract_z
 _atom_site_occupancy
  Dy  Dy0  1  0.808545  0.079082  0.001321  1
  Dy  Dy1  1  0.079082  0.808545  0.501321  1
  Dy  Dy2  1  0.078481  0.191515  0.001309  1
  Dy  Dy3  1  0.191515  0.078481  0.501309  1
  Dy  Dy4  1  0.921519  0.808485  0.998691  1
  Dy  Dy5  1  0.920918  0.191455  0.498679  1
  Dy  Dy6  1  0.191455  0.920918  0.998679  1
  Dy  Dy7  1  0.808485  0.921519  0.498691  1
  Tc  Tc8  1  0.000198  0.999802  0.250000  1
  Tc  Tc9  1  0.999802  0.000198  0.750000  1
  I  I10  1  0.653480  0.143549  0.487179  1
  I  I11  1  0.854949  0.655629  0.507446  1
  I  I12  1  0.344371  0.145051  0.992554  1
  I  I13  1  0.145051  0.344371  0.492554  1
  I  I14  1  0.655629  0.854949  0.007446  1
  I  I15  1  0.346520  0.856451  0.512821  1
  I  I16  1  0.143549  0.653480  0.987179  1
  I  I17  1  0.856451  0.346520  0.012821  1
