# generated using pymatgen
data_LaTlF4
_symmetry_space_group_name_H-M   'P 1'
_cell_length_a   3.88831500
_cell_length_b   6.52650600
_cell_length_c   16.42544900
_cell_angle_alpha   90.00000000
_cell_angle_beta   90.00000000
_cell_angle_gamma   90.00000000
_symmetry_Int_Tables_number   1
_chemical_formula_structural   LaTlF4
_chemical_formula_sum   'La4 Tl4 F16'
_cell_volume   416.83044541
_cell_formula_units_Z   4
loop_
 _symmetry_equiv_pos_site_id
 _symmetry_equiv_pos_as_xyz
  1  'x, y, z'
loop_
 _atom_site_type_symbol
 _atom_site_label
 _atom_site_symmetry_multiplicity
 _atom_site_fract_x
 _atom_site_fract_y
 _atom_site_fract_z
 _atom_site_occupancy
  La  La0  1  0.250000  0.252636  0.558230  1
  La  La1  1  0.250000  0.752636  0.941770  1
  La  La2  1  0.750000  0.747364  0.441770  1
  La  La3  1  0.750000  0.247364  0.058230  1
  Tl  Tl4  1  0.750000  0.276355  0.799251  1
  Tl  Tl5  1  0.750000  0.776355  0.700749  1
  Tl  Tl6  1  0.250000  0.723645  0.200749  1
  Tl  Tl7  1  0.250000  0.223645  0.299251  1
  F  F8  1  0.250000  0.130945  0.964354  1
  F  F9  1  0.250000  0.630945  0.535646  1
  F  F10  1  0.750000  0.869055  0.035646  1
  F  F11  1  0.750000  0.369055  0.464354  1
  F  F12  1  0.750000  0.000879  0.555276  1
  F  F13  1  0.750000  0.500879  0.944724  1
  F  F14  1  0.250000  0.999121  0.444724  1
  F  F15  1  0.250000  0.499121  0.055276  1
  F  F16  1  0.750000  0.388976  0.629933  1
  F  F17  1  0.750000  0.888976  0.870067  1
  F  F18  1  0.250000  0.611024  0.370067  1
  F  F19  1  0.250000  0.111024  0.129933  1
  F  F20  1  0.250000  0.094923  0.687388  1
  F  F21  1  0.250000  0.594923  0.812612  1
  F  F22  1  0.750000  0.905077  0.312612  1
  F  F23  1  0.750000  0.405077  0.187388  1
