# generated using pymatgen
data_Y12Co4NiSn
_symmetry_space_group_name_H-M   'P 1'
_cell_length_a   8.33797128
_cell_length_b   8.33797241
_cell_length_c   8.33797174
_cell_angle_alpha   107.17625159
_cell_angle_beta   110.58057358
_cell_angle_gamma   110.68094016
_symmetry_Int_Tables_number   1
_chemical_formula_structural   Y12Co4NiSn
_chemical_formula_sum   'Y12 Co4 Ni1 Sn1'
_cell_volume   445.69602501
_cell_formula_units_Z   1
loop_
 _symmetry_equiv_pos_site_id
 _symmetry_equiv_pos_as_xyz
  1  'x, y, z'
loop_
 _atom_site_type_symbol
 _atom_site_label
 _atom_site_symmetry_multiplicity
 _atom_site_fract_x
 _atom_site_fract_y
 _atom_site_fract_z
 _atom_site_occupancy
  Y  Y0  1  0.479191  0.292800  0.186392  1
  Y  Y1  1  0.106408  0.292800  0.813608  1
  Y  Y2  1  0.893592  0.707200  0.186392  1
  Y  Y3  1  0.520809  0.707200  0.813608  1
  Y  Y4  1  0.304693  0.618931  0.314238  1
  Y  Y5  1  0.304693  0.990456  0.685762  1
  Y  Y6  1  0.695307  0.381069  0.685762  1
  Y  Y7  1  0.695307  0.009544  0.314238  1
  Y  Y8  1  0.196518  0.210027  0.406545  1
  Y  Y9  1  0.803482  0.789973  0.593455  1
  Y  Y10  1  0.196518  0.789973  0.986490  1
  Y  Y11  1  0.803482  0.210027  0.013510  1
  Co  Co12  1  0.500000  0.611316  0.111316  1
  Co  Co13  1  0.500000  0.388684  0.888684  1
  Co  Co14  1  0.378956  0.000000  0.378956  1
  Co  Co15  1  0.621044  0.000000  0.621044  1
  Ni  Ni16  1  0.000000  0.000000  0.000000  1
  Sn  Sn17  1  0.000000  0.500000  0.500000  1
