# generated using pymatgen
data_Tb14Sm3Ho3Sn16
_symmetry_space_group_name_H-M   'P 1'
_cell_length_a   8.08090289
_cell_length_b   8.23229491
_cell_length_c   15.56316670
_cell_angle_alpha   90.01551196
_cell_angle_beta   90.20168690
_cell_angle_gamma   89.91454311
_symmetry_Int_Tables_number   1
_chemical_formula_structural   Tb14Sm3Ho3Sn16
_chemical_formula_sum   'Tb14 Sm3 Ho3 Sn16'
_cell_volume   1035.32234590
_cell_formula_units_Z   1
loop_
 _symmetry_equiv_pos_site_id
 _symmetry_equiv_pos_as_xyz
  1  'x, y, z'
loop_
 _atom_site_type_symbol
 _atom_site_label
 _atom_site_symmetry_multiplicity
 _atom_site_fract_x
 _atom_site_fract_y
 _atom_site_fract_z
 _atom_site_occupancy
  Tb  Tb0  1  0.366513  0.836786  0.878035  1
  Tb  Tb1  1  0.864422  0.663369  0.622214  1
  Tb  Tb2  1  0.635205  0.162851  0.376900  1
  Tb  Tb3  1  0.134041  0.337235  0.121908  1
  Tb  Tb4  1  0.632981  0.162939  0.122305  1
  Tb  Tb5  1  0.134607  0.337183  0.377209  1
  Tb  Tb6  1  0.366267  0.836982  0.622659  1
  Tb  Tb7  1  0.867621  0.662693  0.878216  1
  Tb  Tb8  1  0.521402  0.321829  0.902046  1
  Tb  Tb9  1  0.019585  0.179341  0.597623  1
  Tb  Tb10  1  0.480834  0.679064  0.402224  1
  Tb  Tb11  1  0.979289  0.820080  0.098169  1
  Tb  Tb12  1  0.479939  0.678361  0.097210  1
  Tb  Tb13  1  0.197900  0.502931  0.750391  1
  Sm  Sm14  1  0.983120  0.820851  0.403281  1
  Sm  Sm15  1  0.516545  0.320921  0.595905  1
  Sm  Sm16  1  0.017296  0.179113  0.904193  1
  Ho  Ho17  1  0.698089  0.997129  0.750171  1
  Ho  Ho18  1  0.802042  0.497467  0.249352  1
  Ho  Ho19  1  0.302154  0.002653  0.249623  1
  Sn  Sn20  1  0.294441  0.034138  0.043094  1
  Sn  Sn21  1  0.795145  0.462710  0.457402  1
  Sn  Sn22  1  0.705068  0.963909  0.542291  1
  Sn  Sn23  1  0.208601  0.537355  0.958711  1
  Sn  Sn24  1  0.703673  0.960400  0.959032  1
  Sn  Sn25  1  0.202726  0.540259  0.540717  1
  Sn  Sn26  1  0.297306  0.039421  0.458841  1
  Sn  Sn27  1  0.792824  0.462853  0.041765  1
  Sn  Sn28  1  0.564736  0.619299  0.750554  1
  Sn  Sn29  1  0.063843  0.880762  0.749993  1
  Sn  Sn30  1  0.436426  0.381429  0.249940  1
  Sn  Sn31  1  0.936324  0.119293  0.249408  1
  Sn  Sn32  1  0.328132  0.146480  0.750786  1
  Sn  Sn33  1  0.827926  0.352970  0.749242  1
  Sn  Sn34  1  0.670250  0.851874  0.249556  1
  Sn  Sn35  1  0.172726  0.647066  0.249032  1
