# generated using pymatgen
data_Hf18V5(MoN2)3
_symmetry_space_group_name_H-M   'P 1'
_cell_length_a   8.52653400
_cell_length_b   8.53159984
_cell_length_c   8.45491700
_cell_angle_alpha   90.00000000
_cell_angle_beta   90.00000000
_cell_angle_gamma   119.98036006
_symmetry_Int_Tables_number   1
_chemical_formula_structural   Hf18V5(MoN2)3
_chemical_formula_sum   'Hf18 V5 Mo3 N6'
_cell_volume   532.75667642
_cell_formula_units_Z   1
loop_
 _symmetry_equiv_pos_site_id
 _symmetry_equiv_pos_as_xyz
  1  'x, y, z'
loop_
 _atom_site_type_symbol
 _atom_site_label
 _atom_site_symmetry_multiplicity
 _atom_site_fract_x
 _atom_site_fract_y
 _atom_site_fract_z
 _atom_site_occupancy
  Hf  Hf0  1  0.454368  0.908736  0.250000  1
  Hf  Hf1  1  0.545606  0.091212  0.750000  1
  Hf  Hf2  1  0.091393  0.547192  0.250000  1
  Hf  Hf3  1  0.907900  0.453441  0.750000  1
  Hf  Hf4  1  0.455798  0.547192  0.250000  1
  Hf  Hf5  1  0.545543  0.453441  0.750000  1
  Hf  Hf6  1  0.206670  0.413339  0.559346  1
  Hf  Hf7  1  0.793514  0.587027  0.440533  1
  Hf  Hf8  1  0.586479  0.793250  0.558928  1
  Hf  Hf9  1  0.793514  0.587027  0.059467  1
  Hf  Hf10  1  0.414282  0.207072  0.441065  1
  Hf  Hf11  1  0.206670  0.413339  0.940654  1
  Hf  Hf12  1  0.206771  0.793250  0.558928  1
  Hf  Hf13  1  0.414282  0.207072  0.058935  1
  Hf  Hf14  1  0.792791  0.207072  0.441065  1
  Hf  Hf15  1  0.586479  0.793250  0.941072  1
  Hf  Hf16  1  0.792791  0.207072  0.058935  1
  Hf  Hf17  1  0.206771  0.793250  0.941072  1
  V  V18  1  0.894380  0.788760  0.750000  1
  V  V19  1  0.787409  0.893988  0.250000  1
  V  V20  1  0.211242  0.105945  0.750000  1
  V  V21  1  0.106579  0.893988  0.250000  1
  V  V22  1  0.894704  0.105945  0.750000  1
  Mo  Mo23  1  0.105870  0.211739  0.250000  1
  Mo  Mo24  1  0.998725  0.997448  0.996861  1
  Mo  Mo25  1  0.998725  0.997448  0.503139  1
  N  N26  1  0.499916  0.999832  0.999776  1
  N  N27  1  0.000122  0.500458  0.999607  1
  N  N28  1  0.499916  0.999832  0.500224  1
  N  N29  1  0.500335  0.500458  0.999607  1
  N  N30  1  0.000122  0.500458  0.500393  1
  N  N31  1  0.500335  0.500458  0.500393  1
