# generated using pymatgen
data_Er2Tm10AlCo4Ir
_symmetry_space_group_name_H-M   'P 1'
_cell_length_a   8.16814128
_cell_length_b   8.16590050
_cell_length_c   8.16707402
_cell_angle_alpha   111.26688676
_cell_angle_beta   110.85759700
_cell_angle_gamma   106.31832168
_symmetry_Int_Tables_number   1
_chemical_formula_structural   Er2Tm10AlCo4Ir
_chemical_formula_sum   'Er2 Tm10 Al1 Co4 Ir1'
_cell_volume   418.48131836
_cell_formula_units_Z   1
loop_
 _symmetry_equiv_pos_site_id
 _symmetry_equiv_pos_as_xyz
  1  'x, y, z'
loop_
 _atom_site_type_symbol
 _atom_site_label
 _atom_site_symmetry_multiplicity
 _atom_site_fract_x
 _atom_site_fract_y
 _atom_site_fract_z
 _atom_site_occupancy
  Er  Er0  1  0.583609  0.276298  0.306911  1
  Er  Er1  1  0.182999  0.217574  0.400776  1
  Tm  Tm2  1  0.182550  0.781732  0.964571  1
  Tm  Tm3  1  0.683134  0.488168  0.805903  1
  Tm  Tm4  1  0.682620  0.877071  0.194745  1
  Tm  Tm5  1  0.969790  0.276444  0.693704  1
  Tm  Tm6  1  0.030413  0.723253  0.306839  1
  Tm  Tm7  1  0.317205  0.122392  0.805081  1
  Tm  Tm8  1  0.317151  0.512432  0.194598  1
  Tm  Tm9  1  0.816854  0.217617  0.034265  1
  Tm  Tm10  1  0.817110  0.782485  0.599411  1
  Tm  Tm11  1  0.417198  0.723971  0.693621  1
  Al  Al12  1  0.500037  0.999829  0.500231  1
  Co  Co13  1  0.886758  0.886977  0.999351  1
  Co  Co14  1  0.373133  0.500163  0.873520  1
  Co  Co15  1  0.626642  0.500101  0.126448  1
  Co  Co16  1  0.111874  0.112517  0.998928  1
  Ir  Ir17  1  0.000921  0.500976  0.501094  1
