# generated using pymatgen
data_Dy12Y4Cd3AgIr3Pt
_symmetry_space_group_name_H-M   'P 1'
_cell_length_a   9.64916433
_cell_length_b   9.64768033
_cell_length_c   9.64767900
_cell_angle_alpha   60.05845826
_cell_angle_beta   60.05157602
_cell_angle_gamma   60.05157390
_symmetry_Int_Tables_number   1
_chemical_formula_structural   Dy12Y4Cd3AgIr3Pt
_chemical_formula_sum   'Dy12 Y4 Cd3 Ag1 Ir3 Pt1'
_cell_volume   635.84370198
_cell_formula_units_Z   1
loop_
 _symmetry_equiv_pos_site_id
 _symmetry_equiv_pos_as_xyz
  1  'x, y, z'
loop_
 _atom_site_type_symbol
 _atom_site_label
 _atom_site_symmetry_multiplicity
 _atom_site_fract_x
 _atom_site_fract_y
 _atom_site_fract_z
 _atom_site_occupancy
  Dy  Dy0  1  0.347584  0.347529  0.347529  1
  Dy  Dy1  1  0.352534  0.352524  0.948670  1
  Dy  Dy2  1  0.352534  0.948670  0.352524  1
  Dy  Dy3  1  0.948612  0.352634  0.352634  1
  Dy  Dy4  1  0.806022  0.190459  0.190459  1
  Dy  Dy5  1  0.187782  0.810317  0.810317  1
  Dy  Dy6  1  0.190509  0.805915  0.190532  1
  Dy  Dy7  1  0.810348  0.187746  0.810313  1
  Dy  Dy8  1  0.190509  0.190532  0.805915  1
  Dy  Dy9  1  0.810348  0.810313  0.187746  1
  Dy  Dy10  1  0.937129  0.561747  0.561747  1
  Dy  Dy11  1  0.563472  0.937682  0.937682  1
  Y  Y12  1  0.562632  0.936540  0.562687  1
  Y  Y13  1  0.936845  0.564254  0.936812  1
  Y  Y14  1  0.562632  0.562687  0.936540  1
  Y  Y15  1  0.936845  0.936812  0.564254  1
  Cd  Cd16  1  0.581224  0.581290  0.257665  1
  Cd  Cd17  1  0.581224  0.257665  0.581290  1
  Cd  Cd18  1  0.257718  0.581204  0.581204  1
  Ag  Ag19  1  0.582815  0.582369  0.582369  1
  Ir  Ir20  1  0.141724  0.142109  0.574674  1
  Ir  Ir21  1  0.141724  0.574674  0.142109  1
  Ir  Ir22  1  0.574637  0.141693  0.141693  1
  Pt  Pt23  1  0.142594  0.142635  0.142635  1
