# generated using pymatgen
data_Tm2Sc3Sn4
_symmetry_space_group_name_H-M   'P 1'
_cell_length_a   7.65660700
_cell_length_b   7.92435800
_cell_length_c   14.78816400
_cell_angle_alpha   90.00000000
_cell_angle_beta   90.00000000
_cell_angle_gamma   90.00000000
_symmetry_Int_Tables_number   1
_chemical_formula_structural   Tm2Sc3Sn4
_chemical_formula_sum   'Tm8 Sc12 Sn16'
_cell_volume   897.25255116
_cell_formula_units_Z   4
loop_
 _symmetry_equiv_pos_site_id
 _symmetry_equiv_pos_as_xyz
  1  'x, y, z'
loop_
 _atom_site_type_symbol
 _atom_site_label
 _atom_site_symmetry_multiplicity
 _atom_site_fract_x
 _atom_site_fract_y
 _atom_site_fract_z
 _atom_site_occupancy
  Tm  Tm0  1  0.994416  0.178327  0.093690  1
  Tm  Tm1  1  0.005584  0.821673  0.906310  1
  Tm  Tm2  1  0.505584  0.678327  0.906310  1
  Tm  Tm3  1  0.005584  0.821673  0.593690  1
  Tm  Tm4  1  0.494416  0.321673  0.093690  1
  Tm  Tm5  1  0.994416  0.178327  0.406310  1
  Tm  Tm6  1  0.494416  0.321673  0.406310  1
  Tm  Tm7  1  0.505584  0.678327  0.593690  1
  Sc  Sc8  1  0.164026  0.496670  0.750000  1
  Sc  Sc9  1  0.835974  0.503330  0.250000  1
  Sc  Sc10  1  0.335974  0.996670  0.250000  1
  Sc  Sc11  1  0.664026  0.003330  0.750000  1
  Sc  Sc12  1  0.335738  0.161455  0.627405  1
  Sc  Sc13  1  0.664262  0.838545  0.372595  1
  Sc  Sc14  1  0.164262  0.661455  0.372595  1
  Sc  Sc15  1  0.664262  0.838545  0.127405  1
  Sc  Sc16  1  0.835738  0.338545  0.627405  1
  Sc  Sc17  1  0.335738  0.161455  0.872595  1
  Sc  Sc18  1  0.835738  0.338545  0.872595  1
  Sc  Sc19  1  0.164262  0.661455  0.127405  1
  Sn  Sn20  1  0.026218  0.122901  0.750000  1
  Sn  Sn21  1  0.973782  0.877099  0.250000  1
  Sn  Sn22  1  0.473782  0.622901  0.250000  1
  Sn  Sn23  1  0.526218  0.377099  0.750000  1
  Sn  Sn24  1  0.305967  0.848693  0.750000  1
  Sn  Sn25  1  0.694033  0.151307  0.250000  1
  Sn  Sn26  1  0.194033  0.348693  0.250000  1
  Sn  Sn27  1  0.805967  0.651307  0.750000  1
  Sn  Sn28  1  0.181670  0.458625  0.542175  1
  Sn  Sn29  1  0.818330  0.541375  0.457825  1
  Sn  Sn30  1  0.318330  0.958625  0.457825  1
  Sn  Sn31  1  0.818330  0.541375  0.042175  1
  Sn  Sn32  1  0.681670  0.041375  0.542175  1
  Sn  Sn33  1  0.181670  0.458625  0.957825  1
  Sn  Sn34  1  0.681670  0.041375  0.957825  1
  Sn  Sn35  1  0.318330  0.958625  0.042175  1
