# generated using pymatgen
data_Hf8Ti9Nb(ReGe8)2
_symmetry_space_group_name_H-M   'P 1'
_cell_length_a   6.72514941
_cell_length_b   6.85070541
_cell_length_c   13.12451300
_cell_angle_alpha   90.00000000
_cell_angle_beta   90.00000000
_cell_angle_gamma   89.99969903
_symmetry_Int_Tables_number   1
_chemical_formula_structural   Hf8Ti9Nb(ReGe8)2
_chemical_formula_sum   'Hf8 Ti9 Nb1 Re2 Ge16'
_cell_volume   604.67279195
_cell_formula_units_Z   1
loop_
 _symmetry_equiv_pos_site_id
 _symmetry_equiv_pos_as_xyz
  1  'x, y, z'
loop_
 _atom_site_type_symbol
 _atom_site_label
 _atom_site_symmetry_multiplicity
 _atom_site_fract_x
 _atom_site_fract_y
 _atom_site_fract_z
 _atom_site_occupancy
  Hf  Hf0  1  0.488101  0.673415  0.591567  1
  Hf  Hf1  1  0.991106  0.823809  0.908866  1
  Hf  Hf2  1  0.513430  0.324746  0.091172  1
  Hf  Hf3  1  0.007329  0.174339  0.409292  1
  Hf  Hf4  1  0.513430  0.324746  0.408828  1
  Hf  Hf5  1  0.007329  0.174339  0.090708  1
  Hf  Hf6  1  0.488101  0.673415  0.908433  1
  Hf  Hf7  1  0.991106  0.823809  0.591134  1
  Ti  Ti8  1  0.664042  0.164106  0.625970  1
  Ti  Ti9  1  0.160374  0.336456  0.874506  1
  Ti  Ti10  1  0.337907  0.836833  0.124919  1
  Ti  Ti11  1  0.838649  0.664405  0.375495  1
  Ti  Ti12  1  0.337907  0.836833  0.375081  1
  Ti  Ti13  1  0.838649  0.664405  0.124505  1
  Ti  Ti14  1  0.664042  0.164106  0.874030  1
  Ti  Ti15  1  0.160374  0.336456  0.625494  1
  Ti  Ti16  1  0.335228  0.007599  0.750000  1
  Nb  Nb17  1  0.665051  0.994179  0.250000  1
  Re  Re18  1  0.835988  0.490594  0.750000  1
  Re  Re19  1  0.164369  0.511225  0.250000  1
  Ge  Ge20  1  0.680665  0.958171  0.461358  1
  Ge  Ge21  1  0.182678  0.541260  0.040461  1
  Ge  Ge22  1  0.318964  0.040991  0.958519  1
  Ge  Ge23  1  0.817045  0.457855  0.540400  1
  Ge  Ge24  1  0.318964  0.040991  0.541481  1
  Ge  Ge25  1  0.817045  0.457855  0.959600  1
  Ge  Ge26  1  0.680665  0.958171  0.038642  1
  Ge  Ge27  1  0.182678  0.541260  0.459539  1
  Ge  Ge28  1  0.464050  0.379645  0.750000  1
  Ge  Ge29  1  0.966345  0.115232  0.750000  1
  Ge  Ge30  1  0.534333  0.617543  0.250000  1
  Ge  Ge31  1  0.037969  0.881873  0.250000  1
  Ge  Ge32  1  0.689929  0.849810  0.750000  1
  Ge  Ge33  1  0.193719  0.650098  0.750000  1
  Ge  Ge34  1  0.303385  0.153378  0.250000  1
  Ge  Ge35  1  0.809055  0.356051  0.250000  1
