# generated using pymatgen
data_Zr2Nb12GaAs7
_symmetry_space_group_name_H-M   'P 1'
_cell_length_a   7.97596890
_cell_length_b   7.97597015
_cell_length_c   14.42275777
_cell_angle_alpha   76.13907981
_cell_angle_beta   76.13907752
_cell_angle_gamma   25.91321326
_symmetry_Int_Tables_number   1
_chemical_formula_structural   Zr2Nb12GaAs7
_chemical_formula_sum   'Zr2 Nb12 Ga1 As7'
_cell_volume   388.66060796
_cell_formula_units_Z   1
loop_
 _symmetry_equiv_pos_site_id
 _symmetry_equiv_pos_as_xyz
  1  'x, y, z'
loop_
 _atom_site_type_symbol
 _atom_site_label
 _atom_site_symmetry_multiplicity
 _atom_site_fract_x
 _atom_site_fract_y
 _atom_site_fract_z
 _atom_site_occupancy
  Zr  Zr0  1  0.176826  0.176826  0.453385  1
  Zr  Zr1  1  0.823326  0.823326  0.546012  1
  Nb  Nb2  1  0.999046  0.999046  0.000184  1
  Nb  Nb3  1  0.500211  0.500211  0.500701  1
  Nb  Nb4  1  0.430051  0.430051  0.171182  1
  Nb  Nb5  1  0.569448  0.569448  0.828541  1
  Nb  Nb6  1  0.195148  0.195148  0.696362  1
  Nb  Nb7  1  0.806311  0.806311  0.303673  1
  Nb  Nb8  1  0.211798  0.211798  0.197740  1
  Nb  Nb9  1  0.789203  0.789203  0.799040  1
  Nb  Nb10  1  0.332793  0.332793  0.969534  1
  Nb  Nb11  1  0.666847  0.666847  0.032561  1
  Nb  Nb12  1  0.000359  0.000359  0.334634  1
  Nb  Nb13  1  0.999175  0.999175  0.664497  1
  Ga  Ga14  1  0.173331  0.173331  0.893991  1
  As  As15  1  0.826250  0.826250  0.107207  1
  As  As16  1  0.372206  0.372206  0.398725  1
  As  As17  1  0.627730  0.627730  0.602933  1
  As  As18  1  0.372391  0.372391  0.669956  1
  As  As19  1  0.627787  0.627787  0.329698  1
  As  As20  1  0.063273  0.063273  0.150022  1
  As  As21  1  0.936490  0.936490  0.849422  1
