# generated using pymatgen
data_Ho5P12Ru18Rh
_symmetry_space_group_name_H-M   'P 1'
_cell_length_a   12.52634800
_cell_length_b   12.52634749
_cell_length_c   3.97250500
_cell_angle_alpha   90.00000000
_cell_angle_beta   90.00000000
_cell_angle_gamma   120.00000134
_symmetry_Int_Tables_number   1
_chemical_formula_structural   Ho5P12Ru18Rh
_chemical_formula_sum   'Ho5 P12 Ru18 Rh1'
_cell_volume   539.81382944
_cell_formula_units_Z   1
loop_
 _symmetry_equiv_pos_site_id
 _symmetry_equiv_pos_as_xyz
  1  'x, y, z'
loop_
 _atom_site_type_symbol
 _atom_site_label
 _atom_site_symmetry_multiplicity
 _atom_site_fract_x
 _atom_site_fract_y
 _atom_site_fract_z
 _atom_site_occupancy
  Ho  Ho0  1  0.666667  0.333333  0.000000  1
  Ho  Ho1  1  0.333333  0.666667  0.000000  1
  Ho  Ho2  1  0.813548  0.813548  0.500000  1
  Ho  Ho3  1  0.186452  0.000000  0.500000  1
  Ho  Ho4  1  0.000000  0.186452  0.500000  1
  P  P5  1  0.693250  0.170818  0.500000  1
  P  P6  1  0.829182  0.522433  0.500000  1
  P  P7  1  0.477567  0.306750  0.500000  1
  P  P8  1  0.170818  0.693250  0.500000  1
  P  P9  1  0.522433  0.829182  0.500000  1
  P  P10  1  0.306750  0.477567  0.500000  1
  P  P11  1  0.184796  0.184796  0.000000  1
  P  P12  1  0.815204  0.000000  0.000000  1
  P  P13  1  0.000000  0.815204  0.000000  1
  P  P14  1  0.627058  0.627058  0.000000  1
  P  P15  1  0.372942  0.000000  0.000000  1
  P  P16  1  0.000000  0.372942  0.000000  1
  Ru  Ru17  1  0.873718  0.365522  0.500000  1
  Ru  Ru18  1  0.634478  0.508197  0.500000  1
  Ru  Ru19  1  0.491803  0.126282  0.500000  1
  Ru  Ru20  1  0.365522  0.873718  0.500000  1
  Ru  Ru21  1  0.508197  0.634478  0.500000  1
  Ru  Ru22  1  0.126282  0.491803  0.500000  1
  Ru  Ru23  1  0.444988  0.444988  0.000000  1
  Ru  Ru24  1  0.555012  0.000000  0.000000  1
  Ru  Ru25  1  0.000000  0.555012  0.000000  1
  Ru  Ru26  1  0.808116  0.184876  0.000000  1
  Ru  Ru27  1  0.815124  0.623239  0.000000  1
  Ru  Ru28  1  0.376761  0.191884  0.000000  1
  Ru  Ru29  1  0.184876  0.808116  0.000000  1
  Ru  Ru30  1  0.623239  0.815124  0.000000  1
  Ru  Ru31  1  0.191884  0.376761  0.000000  1
  Ru  Ru32  1  0.281741  0.281741  0.500000  1
  Ru  Ru33  1  0.718259  0.000000  0.500000  1
  Ru  Ru34  1  0.000000  0.718259  0.500000  1
  Rh  Rh35  1  0.000000  0.000000  0.000000  1
