# generated using pymatgen
data_Pr18Nd2Si15Rh
_symmetry_space_group_name_H-M   'P 1'
_cell_length_a   7.93718591
_cell_length_b   7.94028998
_cell_length_c   15.30165304
_cell_angle_alpha   90.08079891
_cell_angle_beta   89.81464442
_cell_angle_gamma   90.17081611
_symmetry_Int_Tables_number   1
_chemical_formula_structural   Pr18Nd2Si15Rh
_chemical_formula_sum   'Pr18 Nd2 Si15 Rh1'
_cell_volume   964.35433673
_cell_formula_units_Z   1
loop_
 _symmetry_equiv_pos_site_id
 _symmetry_equiv_pos_as_xyz
  1  'x, y, z'
loop_
 _atom_site_type_symbol
 _atom_site_label
 _atom_site_symmetry_multiplicity
 _atom_site_fract_x
 _atom_site_fract_y
 _atom_site_fract_z
 _atom_site_occupancy
  Pr  Pr0  1  0.817647  0.187870  0.750384  1
  Pr  Pr1  1  0.692774  0.688205  0.500408  1
  Pr  Pr2  1  0.373852  0.010642  0.448723  1
  Pr  Pr3  1  0.490163  0.875407  0.697956  1
  Pr  Pr4  1  0.510048  0.123818  0.197792  1
  Pr  Pr5  1  0.875489  0.488368  0.300108  1
  Pr  Pr6  1  0.124385  0.509352  0.800254  1
  Pr  Pr7  1  0.626252  0.988330  0.948853  1
  Pr  Pr8  1  0.005064  0.376617  0.551906  1
  Pr  Pr9  1  0.988379  0.625204  0.051340  1
  Pr  Pr10  1  0.133842  0.986150  0.873938  1
  Pr  Pr11  1  0.516462  0.630376  0.125780  1
  Pr  Pr12  1  0.474314  0.361787  0.628363  1
  Pr  Pr13  1  0.627638  0.516166  0.873960  1
  Pr  Pr14  1  0.373166  0.483371  0.373584  1
  Pr  Pr15  1  0.872841  0.019728  0.376645  1
  Pr  Pr16  1  0.982717  0.126801  0.124282  1
  Pr  Pr17  1  0.025288  0.880013  0.625472  1
  Nd  Nd18  1  0.305869  0.306598  0.998155  1
  Nd  Nd19  1  0.190224  0.808667  0.249894  1
  Si  Si20  1  0.332524  0.695027  0.950764  1
  Si  Si21  1  0.665173  0.303684  0.451814  1
  Si  Si22  1  0.696934  0.334768  0.049847  1
  Si  Si23  1  0.304345  0.668083  0.548381  1
  Si  Si24  1  0.805175  0.832573  0.202500  1
  Si  Si25  1  0.167947  0.196886  0.298233  1
  Si  Si26  1  0.833950  0.802691  0.799170  1
  Si  Si27  1  0.288280  0.922543  0.058985  1
  Si  Si28  1  0.578300  0.787747  0.309806  1
  Si  Si29  1  0.426448  0.208052  0.812253  1
  Si  Si30  1  0.784117  0.580801  0.690361  1
  Si  Si31  1  0.212613  0.422498  0.190087  1
  Si  Si32  1  0.705489  0.074721  0.558794  1
  Si  Si33  1  0.920534  0.288562  0.941771  1
  Si  Si34  1  0.079407  0.714970  0.441152  1
  Rh  Rh35  1  0.192348  0.172925  0.698284  1
