# generated using pymatgen
data_Tm2Co9As5PRu
_symmetry_space_group_name_H-M   'P 1'
_cell_length_a   3.76378300
_cell_length_b   10.64206400
_cell_length_c   12.07279000
_cell_angle_alpha   90.00000000
_cell_angle_beta   90.00000000
_cell_angle_gamma   90.00000000
_symmetry_Int_Tables_number   1
_chemical_formula_structural   Tm2Co9As5PRu
_chemical_formula_sum   'Tm4 Co18 As10 P2 Ru2'
_cell_volume   483.56859602
_cell_formula_units_Z   2
loop_
 _symmetry_equiv_pos_site_id
 _symmetry_equiv_pos_as_xyz
  1  'x, y, z'
loop_
 _atom_site_type_symbol
 _atom_site_label
 _atom_site_symmetry_multiplicity
 _atom_site_fract_x
 _atom_site_fract_y
 _atom_site_fract_z
 _atom_site_occupancy
  Tm  Tm0  1  0.250000  0.580482  0.699836  1
  Tm  Tm1  1  0.250000  0.919518  0.199836  1
  Tm  Tm2  1  0.750000  0.421301  0.299450  1
  Tm  Tm3  1  0.750000  0.078699  0.799450  1
  Co  Co4  1  0.750000  0.286136  0.007154  1
  Co  Co5  1  0.750000  0.213864  0.507154  1
  Co  Co6  1  0.250000  0.413902  0.483718  1
  Co  Co7  1  0.250000  0.086098  0.983718  1
  Co  Co8  1  0.750000  0.591482  0.505419  1
  Co  Co9  1  0.750000  0.908518  0.005419  1
  Co  Co10  1  0.250000  0.214463  0.176155  1
  Co  Co11  1  0.250000  0.285537  0.676155  1
  Co  Co12  1  0.750000  0.788138  0.826319  1
  Co  Co13  1  0.750000  0.711862  0.326319  1
  Co  Co14  1  0.250000  0.888493  0.706578  1
  Co  Co15  1  0.250000  0.611507  0.206578  1
  Co  Co16  1  0.750000  0.114983  0.301815  1
  Co  Co17  1  0.750000  0.385017  0.801815  1
  Co  Co18  1  0.250000  0.467368  0.932209  1
  Co  Co19  1  0.250000  0.032632  0.432209  1
  Co  Co20  1  0.750000  0.533197  0.070482  1
  Co  Co21  1  0.750000  0.966803  0.570482  1
  As  As22  1  0.250000  0.414547  0.115123  1
  As  As23  1  0.250000  0.085453  0.615123  1
  As  As24  1  0.750000  0.583842  0.884928  1
  As  As25  1  0.750000  0.916158  0.384928  1
  As  As26  1  0.250000  0.267076  0.869079  1
  As  As27  1  0.250000  0.232924  0.369079  1
  As  As28  1  0.750000  0.732466  0.133743  1
  As  As29  1  0.750000  0.767534  0.633743  1
  As  As30  1  0.750000  0.400288  0.607854  1
  As  As31  1  0.750000  0.099712  0.107854  1
  P  P32  1  0.250000  0.596050  0.390119  1
  P  P33  1  0.250000  0.903950  0.890119  1
  Ru  Ru34  1  0.250000  0.719453  0.990018  1
  Ru  Ru35  1  0.250000  0.780547  0.490018  1
