# generated using pymatgen
data_La16Pr4(Ir3Ru)3
_symmetry_space_group_name_H-M   'P 1'
_cell_length_a   11.40894600
_cell_length_b   11.40894600
_cell_length_c   6.67049800
_cell_angle_alpha   90.00000000
_cell_angle_beta   90.00000000
_cell_angle_gamma   90.00000000
_symmetry_Int_Tables_number   1
_chemical_formula_structural   La16Pr4(Ir3Ru)3
_chemical_formula_sum   'La16 Pr4 Ir9 Ru3'
_cell_volume   868.25902740
_cell_formula_units_Z   1
loop_
 _symmetry_equiv_pos_site_id
 _symmetry_equiv_pos_as_xyz
  1  'x, y, z'
loop_
 _atom_site_type_symbol
 _atom_site_label
 _atom_site_symmetry_multiplicity
 _atom_site_fract_x
 _atom_site_fract_y
 _atom_site_fract_z
 _atom_site_occupancy
  La  La0  1  0.293734  0.089262  0.386696  1
  La  La1  1  0.293689  0.911445  0.887108  1
  La  La2  1  0.706311  0.088555  0.887108  1
  La  La3  1  0.706266  0.910738  0.386696  1
  La  La4  1  0.588555  0.793689  0.887108  1
  La  La5  1  0.589262  0.206266  0.386696  1
  La  La6  1  0.410738  0.793734  0.386696  1
  La  La7  1  0.411445  0.206311  0.887108  1
  La  La8  1  0.208149  0.409443  0.615669  1
  La  La9  1  0.207907  0.590694  0.112359  1
  La  La10  1  0.792093  0.409306  0.112359  1
  La  La11  1  0.791851  0.590557  0.615669  1
  La  La12  1  0.909306  0.707907  0.112359  1
  La  La13  1  0.909443  0.291851  0.615669  1
  La  La14  1  0.090557  0.708149  0.615669  1
  La  La15  1  0.090694  0.292093  0.112359  1
  Pr  Pr16  1  0.000000  0.000000  0.498373  1
  Pr  Pr17  1  0.000000  0.000000  0.998600  1
  Pr  Pr18  1  0.500000  0.500000  0.998600  1
  Pr  Pr19  1  0.500000  0.500000  0.498373  1
  Ir  Ir20  1  0.846727  0.154508  0.249889  1
  Ir  Ir21  1  0.846321  0.845573  0.749501  1
  Ir  Ir22  1  0.153679  0.154427  0.749501  1
  Ir  Ir23  1  0.153273  0.845492  0.249889  1
  Ir  Ir24  1  0.654427  0.346321  0.749501  1
  Ir  Ir25  1  0.654508  0.653273  0.249889  1
  Ir  Ir26  1  0.345492  0.346727  0.249889  1
  Ir  Ir27  1  0.345573  0.653679  0.749501  1
  Ir  Ir28  1  0.000000  0.500000  0.382392  1
  Ru  Ru29  1  0.500000  0.000000  0.116254  1
  Ru  Ru30  1  0.500000  0.000000  0.615941  1
  Ru  Ru31  1  0.000000  0.500000  0.886578  1
