# generated using pymatgen
data_NdHo2Ni9
_symmetry_space_group_name_H-M   'P 1'
_cell_length_a   8.62033902
_cell_length_b   8.62033905
_cell_length_c   8.62033843
_cell_angle_alpha   33.64560342
_cell_angle_beta   33.64560441
_cell_angle_gamma   33.64559872
_symmetry_Int_Tables_number   1
_chemical_formula_structural   NdHo2Ni9
_chemical_formula_sum   'Nd1 Ho2 Ni9'
_cell_volume   175.17968414
_cell_formula_units_Z   1
loop_
 _symmetry_equiv_pos_site_id
 _symmetry_equiv_pos_as_xyz
  1  'x, y, z'
loop_
 _atom_site_type_symbol
 _atom_site_label
 _atom_site_symmetry_multiplicity
 _atom_site_fract_x
 _atom_site_fract_y
 _atom_site_fract_z
 _atom_site_occupancy
  Nd  Nd0  1  0.000000  0.000000  0.000000  1
  Ho  Ho1  1  0.860126  0.860126  0.860126  1
  Ho  Ho2  1  0.139874  0.139874  0.139874  1
  Ni  Ni3  1  0.416234  0.917722  0.416234  1
  Ni  Ni4  1  0.583766  0.583766  0.082278  1
  Ni  Ni5  1  0.667012  0.667012  0.667012  1
  Ni  Ni6  1  0.917722  0.416234  0.416234  1
  Ni  Ni7  1  0.082278  0.583766  0.583766  1
  Ni  Ni8  1  0.332988  0.332988  0.332988  1
  Ni  Ni9  1  0.500000  0.500000  0.500000  1
  Ni  Ni10  1  0.416234  0.416234  0.917722  1
  Ni  Ni11  1  0.583766  0.082278  0.583766  1
