# generated using pymatgen
data_KNiIr(RhSe4)2
_symmetry_space_group_name_H-M   'P 1'
_cell_length_a   3.77037606
_cell_length_b   8.35998495
_cell_length_c   9.30183952
_cell_angle_alpha   81.57900351
_cell_angle_beta   78.30696078
_cell_angle_gamma   76.96764200
_symmetry_Int_Tables_number   1
_chemical_formula_structural   KNiIr(RhSe4)2
_chemical_formula_sum   'K1 Ni1 Ir1 Rh2 Se8'
_cell_volume   278.15294844
_cell_formula_units_Z   1
loop_
 _symmetry_equiv_pos_site_id
 _symmetry_equiv_pos_as_xyz
  1  'x, y, z'
loop_
 _atom_site_type_symbol
 _atom_site_label
 _atom_site_symmetry_multiplicity
 _atom_site_fract_x
 _atom_site_fract_y
 _atom_site_fract_z
 _atom_site_occupancy
  K  K0  1  0.498206  0.002189  0.001396  1
  Ni  Ni1  1  0.839101  0.496707  0.825088  1
  Ir  Ir2  1  0.629720  0.201547  0.539013  1
  Rh  Rh3  1  0.165904  0.496455  0.171737  1
  Rh  Rh4  1  0.364289  0.804092  0.467330  1
  Se  Se5  1  0.451131  0.327743  0.769995  1
  Se  Se6  1  0.545291  0.680361  0.229056  1
  Se  Se7  1  0.896918  0.633144  0.573021  1
  Se  Se8  1  0.103018  0.365916  0.428049  1
  Se  Se9  1  0.219547  0.646320  0.914585  1
  Se  Se10  1  0.793960  0.340160  0.071919  1
  Se  Se11  1  0.828078  0.987169  0.356676  1
  Se  Se12  1  0.164834  0.018197  0.652134  1
