# generated using pymatgen
data_Sc4Al19ZnOs6
_symmetry_space_group_name_H-M   'P 1'
_cell_length_a   8.90021274
_cell_length_b   8.90021274
_cell_length_c   6.16212900
_cell_angle_alpha   90.00000000
_cell_angle_beta   90.00000000
_cell_angle_gamma   89.69394449
_symmetry_Int_Tables_number   1
_chemical_formula_structural   Sc4Al19ZnOs6
_chemical_formula_sum   'Sc4 Al19 Zn1 Os6'
_cell_volume   488.11860946
_cell_formula_units_Z   1
loop_
 _symmetry_equiv_pos_site_id
 _symmetry_equiv_pos_as_xyz
  1  'x, y, z'
loop_
 _atom_site_type_symbol
 _atom_site_label
 _atom_site_symmetry_multiplicity
 _atom_site_fract_x
 _atom_site_fract_y
 _atom_site_fract_z
 _atom_site_occupancy
  Sc  Sc0  1  0.680019  0.180019  0.000156  1
  Sc  Sc1  1  0.319981  0.819981  0.000156  1
  Sc  Sc2  1  0.818257  0.681743  0.002227  1
  Sc  Sc3  1  0.181743  0.318257  0.002227  1
  Al  Al4  1  0.939298  0.203580  0.286927  1
  Al  Al5  1  0.703580  0.439298  0.286927  1
  Al  Al6  1  0.561480  0.705158  0.716436  1
  Al  Al7  1  0.294228  0.561656  0.717296  1
  Al  Al8  1  0.789347  0.939774  0.285897  1
  Al  Al9  1  0.938344  0.205772  0.717296  1
  Al  Al10  1  0.296420  0.560702  0.286927  1
  Al  Al11  1  0.060702  0.796420  0.286927  1
  Al  Al12  1  0.705772  0.438344  0.717296  1
  Al  Al13  1  0.438520  0.294842  0.716436  1
  Al  Al14  1  0.061656  0.794228  0.717296  1
  Al  Al15  1  0.205158  0.061480  0.716436  1
  Al  Al16  1  0.794842  0.938520  0.716436  1
  Al  Al17  1  0.210653  0.060226  0.285897  1
  Al  Al18  1  0.000000  0.500000  0.718253  1
  Al  Al19  1  0.000000  0.500000  0.284489  1
  Al  Al20  1  0.560226  0.710653  0.285897  1
  Al  Al21  1  0.439774  0.289347  0.285897  1
  Al  Al22  1  0.500000  0.000000  0.694675  1
  Zn  Zn23  1  0.500000  0.000000  0.259709  1
  Os  Os24  1  0.680857  0.180857  0.503583  1
  Os  Os25  1  0.821782  0.678218  0.500929  1
  Os  Os26  1  0.178218  0.321782  0.500929  1
  Os  Os27  1  0.000000  0.000000  0.001429  1
  Os  Os28  1  0.319143  0.819143  0.503583  1
  Os  Os29  1  0.500000  0.500000  0.001429  1
