# generated using pymatgen
data_Ho6Er10Cd4Ir3Os
_symmetry_space_group_name_H-M   'P 1'
_cell_length_a   9.60619204
_cell_length_b   9.60619265
_cell_length_c   9.60619320
_cell_angle_alpha   59.57025042
_cell_angle_beta   59.57024708
_cell_angle_gamma   59.57024856
_symmetry_Int_Tables_number   1
_chemical_formula_structural   Ho6Er10Cd4Ir3Os
_chemical_formula_sum   'Ho6 Er10 Cd4 Ir3 Os1'
_cell_volume   620.69059509
_cell_formula_units_Z   1
loop_
 _symmetry_equiv_pos_site_id
 _symmetry_equiv_pos_as_xyz
  1  'x, y, z'
loop_
 _atom_site_type_symbol
 _atom_site_label
 _atom_site_symmetry_multiplicity
 _atom_site_fract_x
 _atom_site_fract_y
 _atom_site_fract_z
 _atom_site_occupancy
  Ho  Ho0  1  0.188347  0.811669  0.811669  1
  Ho  Ho1  1  0.807362  0.189334  0.189334  1
  Ho  Ho2  1  0.811669  0.188347  0.811669  1
  Ho  Ho3  1  0.189334  0.807362  0.189334  1
  Ho  Ho4  1  0.811669  0.811669  0.188347  1
  Ho  Ho5  1  0.189334  0.189334  0.807362  1
  Er  Er6  1  0.599262  0.599262  0.599262  1
  Er  Er7  1  0.598754  0.598754  0.205691  1
  Er  Er8  1  0.598754  0.205691  0.598754  1
  Er  Er9  1  0.205691  0.598754  0.598754  1
  Er  Er10  1  0.061888  0.438746  0.438746  1
  Er  Er11  1  0.437824  0.060164  0.060164  1
  Er  Er12  1  0.438746  0.061888  0.438746  1
  Er  Er13  1  0.060164  0.437824  0.060164  1
  Er  Er14  1  0.438746  0.438746  0.061888  1
  Er  Er15  1  0.060164  0.060164  0.437824  1
  Cd  Cd16  1  0.829998  0.829998  0.829998  1
  Cd  Cd17  1  0.830478  0.830478  0.507310  1
  Cd  Cd18  1  0.830478  0.507310  0.830478  1
  Cd  Cd19  1  0.507310  0.830478  0.830478  1
  Ir  Ir20  1  0.392996  0.392996  0.826293  1
  Ir  Ir21  1  0.392996  0.826293  0.392996  1
  Ir  Ir22  1  0.826293  0.392996  0.392996  1
  Os  Os23  1  0.391744  0.391744  0.391744  1
