# generated using pymatgen
data_BaMgZn10
_symmetry_space_group_name_H-M   'P 1'
_cell_length_a   8.52469289
_cell_length_b   8.52469348
_cell_length_c   8.52469318
_cell_angle_alpha   99.99003890
_cell_angle_beta   99.99003724
_cell_angle_gamma   130.77166269
_symmetry_Int_Tables_number   1
_chemical_formula_structural   BaMgZn10
_chemical_formula_sum   'Ba2 Mg2 Zn20'
_cell_volume   426.52265906
_cell_formula_units_Z   2
loop_
 _symmetry_equiv_pos_site_id
 _symmetry_equiv_pos_as_xyz
  1  'x, y, z'
loop_
 _atom_site_type_symbol
 _atom_site_label
 _atom_site_symmetry_multiplicity
 _atom_site_fract_x
 _atom_site_fract_y
 _atom_site_fract_z
 _atom_site_occupancy
  Ba  Ba0  1  0.000000  0.000000  0.000000  1
  Ba  Ba1  1  0.250000  0.750000  0.500000  1
  Mg  Mg2  1  0.750000  0.250000  0.500000  1
  Mg  Mg3  1  0.500000  0.500000  0.000000  1
  Zn  Zn4  1  0.125000  0.375000  0.750000  1
  Zn  Zn5  1  0.625000  0.875000  0.250000  1
  Zn  Zn6  1  0.625000  0.375000  0.750000  1
  Zn  Zn7  1  0.625000  0.375000  0.250000  1
  Zn  Zn8  1  0.182112  0.513179  0.084577  1
  Zn  Zn9  1  0.182112  0.097534  0.668931  1
  Zn  Zn10  1  0.763179  0.932112  0.584577  1
  Zn  Zn11  1  0.763179  0.178602  0.831069  1
  Zn  Zn12  1  0.428602  0.513179  0.331069  1
  Zn  Zn13  1  0.428602  0.097534  0.915423  1
  Zn  Zn14  1  0.347534  0.932112  0.168931  1
  Zn  Zn15  1  0.347534  0.178602  0.415423  1
  Zn  Zn16  1  0.067888  0.236821  0.415423  1
  Zn  Zn17  1  0.067888  0.652466  0.831069  1
  Zn  Zn18  1  0.486821  0.817888  0.915423  1
  Zn  Zn19  1  0.486821  0.571398  0.668931  1
  Zn  Zn20  1  0.821398  0.236821  0.168931  1
  Zn  Zn21  1  0.821398  0.652466  0.584577  1
  Zn  Zn22  1  0.902466  0.817888  0.331069  1
  Zn  Zn23  1  0.902466  0.571398  0.084577  1
