# generated using pymatgen
data_PrCoSn6IrRu2
_symmetry_space_group_name_H-M   'P 1'
_cell_length_a   7.01627165
_cell_length_b   6.85737927
_cell_length_c   6.85738075
_cell_angle_alpha   89.52363025
_cell_angle_beta   119.89734138
_cell_angle_gamma   119.89732789
_symmetry_Int_Tables_number   1
_chemical_formula_structural   PrCoSn6IrRu2
_chemical_formula_sum   'Pr1 Co1 Sn6 Ir1 Ru2'
_cell_volume   234.96133645
_cell_formula_units_Z   1
loop_
 _symmetry_equiv_pos_site_id
 _symmetry_equiv_pos_as_xyz
  1  'x, y, z'
loop_
 _atom_site_type_symbol
 _atom_site_label
 _atom_site_symmetry_multiplicity
 _atom_site_fract_x
 _atom_site_fract_y
 _atom_site_fract_z
 _atom_site_occupancy
  Pr  Pr0  1  0.011956  0.011472  0.011472  1
  Co  Co1  1  0.351606  0.753494  0.753494  1
  Sn  Sn2  1  0.636410  0.107917  0.107917  1
  Sn  Sn3  1  0.352626  0.477029  0.477029  1
  Sn  Sn4  1  0.008991  0.879556  0.536322  1
  Sn  Sn5  1  0.008991  0.536322  0.879556  1
  Sn  Sn6  1  0.502545  0.507358  0.991833  1
  Sn  Sn7  1  0.502545  0.991833  0.507358  1
  Ir  Ir8  1  0.630575  0.393127  0.393127  1
  Ru  Ru9  1  0.996877  0.254749  0.587146  1
  Ru  Ru10  1  0.996877  0.587146  0.254749  1
