# generated using pymatgen
data_NdDy(Si7Rh3)2
_symmetry_space_group_name_H-M   'P 1'
_cell_length_a   8.03673047
_cell_length_b   8.03673165
_cell_length_c   8.03673184
_cell_angle_alpha   56.98746413
_cell_angle_beta   56.98745684
_cell_angle_gamma   56.98745751
_symmetry_Int_Tables_number   1
_chemical_formula_structural   NdDy(Si7Rh3)2
_chemical_formula_sum   'Nd1 Dy1 Si14 Rh6'
_cell_volume   341.55081616
_cell_formula_units_Z   1
loop_
 _symmetry_equiv_pos_site_id
 _symmetry_equiv_pos_as_xyz
  1  'x, y, z'
loop_
 _atom_site_type_symbol
 _atom_site_label
 _atom_site_symmetry_multiplicity
 _atom_site_fract_x
 _atom_site_fract_y
 _atom_site_fract_z
 _atom_site_occupancy
  Nd  Nd0  1  0.000000  0.000000  0.000000  1
  Dy  Dy1  1  0.500000  0.500000  0.500000  1
  Si  Si2  1  0.749857  0.749857  0.749857  1
  Si  Si3  1  0.250143  0.250143  0.250143  1
  Si  Si4  1  0.851021  0.064770  0.671385  1
  Si  Si5  1  0.671385  0.851021  0.064770  1
  Si  Si6  1  0.064770  0.671385  0.851021  1
  Si  Si7  1  0.647566  0.827208  0.436315  1
  Si  Si8  1  0.436315  0.647566  0.827208  1
  Si  Si9  1  0.827208  0.436315  0.647566  1
  Si  Si10  1  0.172792  0.563685  0.352434  1
  Si  Si11  1  0.563685  0.352434  0.172792  1
  Si  Si12  1  0.352434  0.172792  0.563685  1
  Si  Si13  1  0.935230  0.328615  0.148979  1
  Si  Si14  1  0.328615  0.148979  0.935230  1
  Si  Si15  1  0.148979  0.935230  0.328615  1
  Rh  Rh16  1  0.070051  0.433306  0.748123  1
  Rh  Rh17  1  0.251877  0.929949  0.566694  1
  Rh  Rh18  1  0.566694  0.251877  0.929949  1
  Rh  Rh19  1  0.929949  0.566694  0.251877  1
  Rh  Rh20  1  0.433306  0.748123  0.070051  1
  Rh  Rh21  1  0.748123  0.070051  0.433306  1
