# generated using pymatgen
data_MgU(Si2Ni)3
_symmetry_space_group_name_H-M   'P 1'
_cell_length_a   11.00746075
_cell_length_b   11.00746112
_cell_length_c   3.89553300
_cell_angle_alpha   90.00000000
_cell_angle_beta   90.00000000
_cell_angle_gamma   159.45275863
_symmetry_Int_Tables_number   1
_chemical_formula_structural   MgU(Si2Ni)3
_chemical_formula_sum   'Mg1 U1 Si6 Ni3'
_cell_volume   165.66204741
_cell_formula_units_Z   1
loop_
 _symmetry_equiv_pos_site_id
 _symmetry_equiv_pos_as_xyz
  1  'x, y, z'
loop_
 _atom_site_type_symbol
 _atom_site_label
 _atom_site_symmetry_multiplicity
 _atom_site_fract_x
 _atom_site_fract_y
 _atom_site_fract_z
 _atom_site_occupancy
  Mg  Mg0  1  0.825150  0.174850  0.000000  1
  U  U1  1  0.171319  0.828681  0.000000  1
  Si  Si2  1  0.939720  0.060280  0.500000  1
  Si  Si3  1  0.061996  0.938004  0.500000  1
  Si  Si4  1  0.561442  0.438558  0.000000  1
  Si  Si5  1  0.439782  0.560218  0.000000  1
  Si  Si6  1  0.719294  0.280706  0.500000  1
  Si  Si7  1  0.278674  0.721326  0.500000  1
  Ni  Ni8  1  0.616151  0.383849  0.500000  1
  Ni  Ni9  1  0.383288  0.616712  0.500000  1
  Ni  Ni10  1  0.003186  0.996814  0.000000  1
