# generated using pymatgen
data_Ti2Pt3Rh
_symmetry_space_group_name_H-M   'P 1'
_cell_length_a   3.99166800
_cell_length_b   5.53201369
_cell_length_c   8.33476924
_cell_angle_alpha   90.99853816
_cell_angle_beta   90.00000000
_cell_angle_gamma   90.00000000
_symmetry_Int_Tables_number   1
_chemical_formula_structural   Ti2Pt3Rh
_chemical_formula_sum   'Ti4 Pt6 Rh2'
_cell_volume   184.02010810
_cell_formula_units_Z   2
loop_
 _symmetry_equiv_pos_site_id
 _symmetry_equiv_pos_as_xyz
  1  'x, y, z'
loop_
 _atom_site_type_symbol
 _atom_site_label
 _atom_site_symmetry_multiplicity
 _atom_site_fract_x
 _atom_site_fract_y
 _atom_site_fract_z
 _atom_site_occupancy
  Ti  Ti0  1  0.750000  0.839593  0.896341  1
  Ti  Ti1  1  0.250000  0.160407  0.103659  1
  Ti  Ti2  1  0.750000  0.349548  0.601595  1
  Ti  Ti3  1  0.250000  0.650452  0.398405  1
  Pt  Pt4  1  0.750000  0.898248  0.230920  1
  Pt  Pt5  1  0.250000  0.101752  0.769080  1
  Pt  Pt6  1  0.750000  0.356937  0.924733  1
  Pt  Pt7  1  0.250000  0.643063  0.075267  1
  Pt  Pt8  1  0.750000  0.853713  0.574425  1
  Pt  Pt9  1  0.250000  0.146287  0.425575  1
  Rh  Rh10  1  0.750000  0.398075  0.269182  1
  Rh  Rh11  1  0.250000  0.601925  0.730818  1
