# generated using pymatgen
data_La3U3(Ni3Sb4)2
_symmetry_space_group_name_H-M   'P 1'
_cell_length_a   8.23525397
_cell_length_b   8.28930834
_cell_length_c   8.28930872
_cell_angle_alpha   109.92714109
_cell_angle_beta   109.63890525
_cell_angle_gamma   109.11169037
_symmetry_Int_Tables_number   1
_chemical_formula_structural   La3U3(Ni3Sb4)2
_chemical_formula_sum   'La3 U3 Ni6 Sb8'
_cell_volume   434.16147665
_cell_formula_units_Z   1
loop_
 _symmetry_equiv_pos_site_id
 _symmetry_equiv_pos_as_xyz
  1  'x, y, z'
loop_
 _atom_site_type_symbol
 _atom_site_label
 _atom_site_symmetry_multiplicity
 _atom_site_fract_x
 _atom_site_fract_y
 _atom_site_fract_z
 _atom_site_occupancy
  La  La0  1  0.872001  0.247642  0.121957  1
  La  La1  1  0.627999  0.749956  0.375641  1
  La  La2  1  0.250000  0.129541  0.879541  1
  U  U3  1  0.750000  0.369951  0.619951  1
  U  U4  1  0.121246  0.872279  0.249953  1
  U  U5  1  0.378754  0.628707  0.751033  1
  Ni  Ni6  1  0.389312  0.255019  0.617640  1
  Ni  Ni7  1  0.110688  0.728328  0.865707  1
  Ni  Ni8  1  0.250000  0.629352  0.379352  1
  Ni  Ni9  1  0.750000  0.869603  0.119603  1
  Ni  Ni10  1  0.640112  0.376626  0.286567  1
  Ni  Ni11  1  0.859888  0.146455  0.736514  1
  Sb  Sb12  1  0.663758  0.501708  0.995603  1
  Sb  Sb13  1  0.494071  0.997629  0.656325  1
  Sb  Sb14  1  0.005929  0.662254  0.503558  1
  Sb  Sb15  1  0.836242  0.831845  0.837950  1
  Sb  Sb16  1  0.494430  0.994335  0.159065  1
  Sb  Sb17  1  0.160999  0.504333  0.000801  1
  Sb  Sb18  1  0.005570  0.164634  0.499905  1
  Sb  Sb19  1  0.339001  0.339802  0.343334  1
