# generated using pymatgen
data_La3ZnAg3Sn4
_symmetry_space_group_name_H-M   'P 1'
_cell_length_a   9.03977763
_cell_length_b   8.99855968
_cell_length_c   8.99856088
_cell_angle_alpha   149.02508641
_cell_angle_beta   131.39902575
_cell_angle_gamma   58.71186705
_symmetry_Int_Tables_number   1
_chemical_formula_structural   La3ZnAg3Sn4
_chemical_formula_sum   'La3 Zn1 Ag3 Sn4'
_cell_volume   280.43032907
_cell_formula_units_Z   1
loop_
 _symmetry_equiv_pos_site_id
 _symmetry_equiv_pos_as_xyz
  1  'x, y, z'
loop_
 _atom_site_type_symbol
 _atom_site_label
 _atom_site_symmetry_multiplicity
 _atom_site_fract_x
 _atom_site_fract_y
 _atom_site_fract_z
 _atom_site_occupancy
  La  La0  1  0.372455  0.869970  0.502485  1
  La  La1  1  0.625625  0.128772  0.496853  1
  La  La2  1  0.001580  0.000153  0.001426  1
  Zn  Zn3  1  0.641751  0.332349  0.309402  1
  Ag  Ag4  1  0.361140  0.668095  0.693044  1
  Ag  Ag5  1  0.018027  0.330881  0.687147  1
  Ag  Ag6  1  0.977520  0.669441  0.308078  1
  Sn  Sn7  1  0.223278  0.218024  0.005254  1
  Sn  Sn8  1  0.778282  0.784067  0.994216  1
  Sn  Sn9  1  0.694112  0.499121  0.194991  1
  Sn  Sn10  1  0.306230  0.499127  0.807103  1
