# generated using pymatgen
data_GdTl(PSe3)2
_symmetry_space_group_name_H-M   'P 1'
_cell_length_a   7.67608600
_cell_length_b   12.63609972
_cell_length_c   12.85701100
_cell_angle_alpha   113.59980555
_cell_angle_beta   90.00000000
_cell_angle_gamma   90.00000000
_symmetry_Int_Tables_number   1
_chemical_formula_structural   GdTl(PSe3)2
_chemical_formula_sum   'Gd4 Tl4 P8 Se24'
_cell_volume   1142.77558417
_cell_formula_units_Z   4
loop_
 _symmetry_equiv_pos_site_id
 _symmetry_equiv_pos_as_xyz
  1  'x, y, z'
loop_
 _atom_site_type_symbol
 _atom_site_label
 _atom_site_symmetry_multiplicity
 _atom_site_fract_x
 _atom_site_fract_y
 _atom_site_fract_z
 _atom_site_occupancy
  Gd  Gd0  1  0.121443  0.327578  0.093782  1
  Gd  Gd1  1  0.621443  0.172422  0.906218  1
  Gd  Gd2  1  0.378557  0.827578  0.093782  1
  Gd  Gd3  1  0.878557  0.672422  0.906218  1
  Tl  Tl4  1  0.083940  0.855880  0.584521  1
  Tl  Tl5  1  0.416060  0.355880  0.584521  1
  Tl  Tl6  1  0.583940  0.644120  0.415479  1
  Tl  Tl7  1  0.916060  0.144120  0.415479  1
  P  P8  1  0.901902  0.316123  0.777044  1
  P  P9  1  0.401902  0.183877  0.222956  1
  P  P10  1  0.598098  0.816123  0.777044  1
  P  P11  1  0.121577  0.192980  0.767706  1
  P  P12  1  0.878423  0.807020  0.232294  1
  P  P13  1  0.621577  0.307020  0.232294  1
  P  P14  1  0.098098  0.683877  0.222956  1
  P  P15  1  0.378423  0.692980  0.767706  1
  Se  Se16  1  0.191302  0.300488  0.318279  1
  Se  Se17  1  0.315128  0.311561  0.889558  1
  Se  Se18  1  0.308698  0.800488  0.318279  1
  Se  Se19  1  0.722076  0.391975  0.403671  1
  Se  Se20  1  0.277924  0.608025  0.596329  1
  Se  Se21  1  0.323492  0.111213  0.039797  1
  Se  Se22  1  0.005394  0.553709  0.283772  1
  Se  Se23  1  0.222076  0.108025  0.596329  1
  Se  Se24  1  0.994606  0.446291  0.716228  1
  Se  Se25  1  0.676508  0.888787  0.960203  1
  Se  Se26  1  0.777924  0.891975  0.403671  1
  Se  Se27  1  0.500083  0.417006  0.152844  1
  Se  Se28  1  0.684872  0.688439  0.110442  1
  Se  Se29  1  0.505394  0.946291  0.716228  1
  Se  Se30  1  0.176508  0.611213  0.039797  1
  Se  Se31  1  0.494606  0.053709  0.283772  1
  Se  Se32  1  0.499917  0.582994  0.847156  1
  Se  Se33  1  0.808698  0.699512  0.681721  1
  Se  Se34  1  0.823492  0.388787  0.960203  1
  Se  Se35  1  0.815128  0.188439  0.110442  1
  Se  Se36  1  0.184872  0.811561  0.889558  1
  Se  Se37  1  0.691302  0.199512  0.681721  1
  Se  Se38  1  0.999917  0.917006  0.152844  1
  Se  Se39  1  0.000083  0.082994  0.847156  1
