# generated using pymatgen
data_DyY3Ho4(ReC2)4
_symmetry_space_group_name_H-M   'P 1'
_cell_length_a   5.11010500
_cell_length_b   6.58267000
_cell_length_c   9.85653500
_cell_angle_alpha   89.99770010
_cell_angle_beta   90.00000000
_cell_angle_gamma   90.00000000
_symmetry_Int_Tables_number   1
_chemical_formula_structural   DyY3Ho4(ReC2)4
_chemical_formula_sum   'Dy1 Y3 Ho4 Re4 C8'
_cell_volume   331.55545365
_cell_formula_units_Z   1
loop_
 _symmetry_equiv_pos_site_id
 _symmetry_equiv_pos_as_xyz
  1  'x, y, z'
loop_
 _atom_site_type_symbol
 _atom_site_label
 _atom_site_symmetry_multiplicity
 _atom_site_fract_x
 _atom_site_fract_y
 _atom_site_fract_z
 _atom_site_occupancy
  Dy  Dy0  1  0.750000  0.532960  0.215965  1
  Y  Y1  1  0.250000  0.466833  0.784013  1
  Y  Y2  1  0.750000  0.033121  0.283995  1
  Y  Y3  1  0.250000  0.966839  0.716021  1
  Ho  Ho4  1  0.250000  0.821495  0.057046  1
  Ho  Ho5  1  0.750000  0.678469  0.557005  1
  Ho  Ho6  1  0.250000  0.321412  0.442957  1
  Ho  Ho7  1  0.750000  0.178734  0.942908  1
  Re  Re8  1  0.250000  0.279380  0.133849  1
  Re  Re9  1  0.750000  0.220968  0.633601  1
  Re  Re10  1  0.250000  0.778847  0.366143  1
  Re  Re11  1  0.750000  0.721032  0.866453  1
  C  C12  1  0.250000  0.175682  0.950883  1
  C  C13  1  0.750000  0.824205  0.049447  1
  C  C14  1  0.250000  0.675471  0.549092  1
  C  C15  1  0.750000  0.324574  0.450651  1
  C  C16  1  0.250000  0.046555  0.259008  1
  C  C17  1  0.750000  0.453468  0.758986  1
  C  C18  1  0.250000  0.546527  0.240983  1
  C  C19  1  0.750000  0.953428  0.740992  1
