# generated using pymatgen
data_YTm2In3Ni2Hg
_symmetry_space_group_name_H-M   'P 1'
_cell_length_a   7.69219518
_cell_length_b   7.69077841
_cell_length_c   3.78071700
_cell_angle_alpha   90.00000000
_cell_angle_beta   90.00000000
_cell_angle_gamma   120.13886447
_symmetry_Int_Tables_number   1
_chemical_formula_structural   YTm2In3Ni2Hg
_chemical_formula_sum   'Y1 Tm2 In3 Ni2 Hg1'
_cell_volume   193.42650710
_cell_formula_units_Z   1
loop_
 _symmetry_equiv_pos_site_id
 _symmetry_equiv_pos_as_xyz
  1  'x, y, z'
loop_
 _atom_site_type_symbol
 _atom_site_label
 _atom_site_symmetry_multiplicity
 _atom_site_fract_x
 _atom_site_fract_y
 _atom_site_fract_z
 _atom_site_occupancy
  Y  Y0  1  0.391061  0.418956  0.500000  1
  Tm  Tm1  1  0.030426  0.610956  0.500000  1
  Tm  Tm2  1  0.579548  0.969644  0.500000  1
  In  In3  1  0.002580  0.250363  0.000000  1
  In  In4  1  0.247464  0.995442  0.000000  1
  In  In5  1  0.749277  0.753265  0.000000  1
  Ni  Ni6  1  0.998878  0.998608  0.500000  1
  Ni  Ni7  1  0.332035  0.670318  0.000000  1
  Hg  Hg8  1  0.668731  0.332446  0.000000  1
