# generated using pymatgen
data_Tb7Y(LuRu2)2
_symmetry_space_group_name_H-M   'P 1'
_cell_length_a   6.34758413
_cell_length_b   7.27203493
_cell_length_c   8.49889317
_cell_angle_alpha   96.75229906
_cell_angle_beta   112.08392646
_cell_angle_gamma   89.85306636
_symmetry_Int_Tables_number   1
_chemical_formula_structural   Tb7Y(LuRu2)2
_chemical_formula_sum   'Tb7 Y1 Lu2 Ru4'
_cell_volume   360.63436857
_cell_formula_units_Z   1
loop_
 _symmetry_equiv_pos_site_id
 _symmetry_equiv_pos_as_xyz
  1  'x, y, z'
loop_
 _atom_site_type_symbol
 _atom_site_label
 _atom_site_symmetry_multiplicity
 _atom_site_fract_x
 _atom_site_fract_y
 _atom_site_fract_z
 _atom_site_occupancy
  Tb  Tb0  1  0.477095  0.916583  0.184629  1
  Tb  Tb1  1  0.707560  0.416534  0.185191  1
  Tb  Tb2  1  0.292877  0.583629  0.814696  1
  Tb  Tb3  1  0.295355  0.312755  0.431842  1
  Tb  Tb4  1  0.704581  0.687132  0.568116  1
  Tb  Tb5  1  0.863324  0.187538  0.568410  1
  Tb  Tb6  1  0.136685  0.812573  0.432076  1
  Y  Y7  1  0.523346  0.082852  0.815547  1
  Lu  Lu8  1  0.075763  0.250296  0.999949  1
  Lu  Lu9  1  0.924144  0.749655  0.000062  1
  Ru  Ru10  1  0.319247  0.574652  0.216973  1
  Ru  Ru11  1  0.681586  0.426460  0.783024  1
  Ru  Ru12  1  0.100707  0.925443  0.782854  1
  Ru  Ru13  1  0.897731  0.073899  0.216630  1
