# generated using pymatgen
data_Tb7HoSc12Ga13Si3
_symmetry_space_group_name_H-M   'P 1'
_cell_length_a   7.24863948
_cell_length_b   7.51290311
_cell_length_c   14.45835475
_cell_angle_alpha   89.99807597
_cell_angle_beta   89.96289495
_cell_angle_gamma   90.12029520
_symmetry_Int_Tables_number   1
_chemical_formula_structural   Tb7HoSc12Ga13Si3
_chemical_formula_sum   'Tb7 Ho1 Sc12 Ga13 Si3'
_cell_volume   787.37589648
_cell_formula_units_Z   1
loop_
 _symmetry_equiv_pos_site_id
 _symmetry_equiv_pos_as_xyz
  1  'x, y, z'
loop_
 _atom_site_type_symbol
 _atom_site_label
 _atom_site_symmetry_multiplicity
 _atom_site_fract_x
 _atom_site_fract_y
 _atom_site_fract_z
 _atom_site_occupancy
  Tb  Tb0  1  0.011719  0.178272  0.097375  1
  Tb  Tb1  1  0.987710  0.821294  0.904529  1
  Tb  Tb2  1  0.489355  0.677325  0.904812  1
  Tb  Tb3  1  0.988122  0.820963  0.595246  1
  Tb  Tb4  1  0.511486  0.320273  0.096950  1
  Tb  Tb5  1  0.012320  0.178250  0.403016  1
  Tb  Tb6  1  0.511432  0.320311  0.403535  1
  Ho  Ho7  1  0.489469  0.678048  0.595424  1
  Sc  Sc8  1  0.160881  0.503231  0.749551  1
  Sc  Sc9  1  0.837888  0.494007  0.250316  1
  Sc  Sc10  1  0.338996  0.005134  0.250200  1
  Sc  Sc11  1  0.665213  0.995066  0.749504  1
  Sc  Sc12  1  0.331928  0.174851  0.622385  1
  Sc  Sc13  1  0.669222  0.827652  0.377800  1
  Sc  Sc14  1  0.169918  0.670900  0.376980  1
  Sc  Sc15  1  0.669702  0.827572  0.122654  1
  Sc  Sc16  1  0.827677  0.329986  0.622906  1
  Sc  Sc17  1  0.331709  0.174485  0.877107  1
  Sc  Sc18  1  0.828371  0.329700  0.876368  1
  Sc  Sc19  1  0.170060  0.671048  0.123457  1
  Ga  Ga20  1  0.033929  0.120085  0.749531  1
  Ga  Ga21  1  0.967254  0.884918  0.250438  1
  Ga  Ga22  1  0.467853  0.614010  0.250208  1
  Ga  Ga23  1  0.532995  0.387600  0.749522  1
  Ga  Ga24  1  0.284886  0.872694  0.749730  1
  Ga  Ga25  1  0.160131  0.464374  0.540675  1
  Ga  Ga26  1  0.838993  0.534781  0.458145  1
  Ga  Ga27  1  0.338915  0.963179  0.458765  1
  Ga  Ga28  1  0.839251  0.535099  0.041867  1
  Ga  Ga29  1  0.660981  0.035628  0.541096  1
  Ga  Ga30  1  0.158776  0.464427  0.959379  1
  Ga  Ga31  1  0.660351  0.036757  0.958940  1
  Ga  Ga32  1  0.338638  0.964448  0.041661  1
  Si  Si33  1  0.715048  0.123130  0.250155  1
  Si  Si34  1  0.215041  0.375258  0.250188  1
  Si  Si35  1  0.783779  0.625242  0.749583  1
