# generated using pymatgen
data_Lu5VOsO12
_symmetry_space_group_name_H-M   'P 1'
_cell_length_a   6.64485975
_cell_length_b   6.64486026
_cell_length_c   7.24543900
_cell_angle_alpha   74.10431891
_cell_angle_beta   74.10430869
_cell_angle_gamma   50.32047502
_symmetry_Int_Tables_number   1
_chemical_formula_structural   Lu5VOsO12
_chemical_formula_sum   'Lu5 V1 Os1 O12'
_cell_volume   234.67354211
_cell_formula_units_Z   1
loop_
 _symmetry_equiv_pos_site_id
 _symmetry_equiv_pos_as_xyz
  1  'x, y, z'
loop_
 _atom_site_type_symbol
 _atom_site_label
 _atom_site_symmetry_multiplicity
 _atom_site_fract_x
 _atom_site_fract_y
 _atom_site_fract_z
 _atom_site_occupancy
  Lu  Lu0  1  0.502085  0.497915  0.500000  1
  Lu  Lu1  1  0.189756  0.185303  0.174898  1
  Lu  Lu2  1  0.814697  0.810244  0.825102  1
  Lu  Lu3  1  0.802193  0.804561  0.360787  1
  Lu  Lu4  1  0.195439  0.197807  0.639213  1
  V  V5  1  0.718249  0.281751  0.000000  1
  Os  Os6  1  0.268108  0.731892  0.000000  1
  O  O7  1  0.000363  0.998499  0.185308  1
  O  O8  1  0.001501  0.999637  0.814692  1
  O  O9  1  0.502730  0.496157  0.798506  1
  O  O10  1  0.503843  0.497270  0.201494  1
  O  O11  1  0.599040  0.095041  0.573203  1
  O  O12  1  0.904959  0.400960  0.426797  1
  O  O13  1  0.403027  0.904740  0.425310  1
  O  O14  1  0.411334  0.928124  0.914762  1
  O  O15  1  0.071876  0.588666  0.085238  1
  O  O16  1  0.596832  0.081292  0.083200  1
  O  O17  1  0.918708  0.403168  0.916800  1
  O  O18  1  0.095260  0.596973  0.574690  1
