# generated using pymatgen
data_Sr6Te3N2
_symmetry_space_group_name_H-M   'P 1'
_cell_length_a   8.71837353
_cell_length_b   8.71837319
_cell_length_c   8.71837320
_cell_angle_alpha   93.93370928
_cell_angle_beta   93.93370901
_cell_angle_gamma   93.93369352
_symmetry_Int_Tables_number   1
_chemical_formula_structural   Sr6Te3N2
_chemical_formula_sum   'Sr12 Te6 N4'
_cell_volume   657.77355725
_cell_formula_units_Z   2
loop_
 _symmetry_equiv_pos_site_id
 _symmetry_equiv_pos_as_xyz
  1  'x, y, z'
loop_
 _atom_site_type_symbol
 _atom_site_label
 _atom_site_symmetry_multiplicity
 _atom_site_fract_x
 _atom_site_fract_y
 _atom_site_fract_z
 _atom_site_occupancy
  Sr  Sr0  1  0.404940  0.218438  0.520667  1
  Sr  Sr1  1  0.520667  0.404940  0.218438  1
  Sr  Sr2  1  0.218438  0.520667  0.404940  1
  Sr  Sr3  1  0.718438  0.904940  0.020667  1
  Sr  Sr4  1  0.020667  0.718438  0.904940  1
  Sr  Sr5  1  0.904940  0.020667  0.718438  1
  Sr  Sr6  1  0.595060  0.781562  0.479333  1
  Sr  Sr7  1  0.479333  0.595060  0.781562  1
  Sr  Sr8  1  0.781562  0.479333  0.595060  1
  Sr  Sr9  1  0.281562  0.095060  0.979333  1
  Sr  Sr10  1  0.979333  0.281562  0.095060  1
  Sr  Sr11  1  0.095060  0.979333  0.281562  1
  Te  Te12  1  0.750000  0.127660  0.372340  1
  Te  Te13  1  0.372340  0.750000  0.127660  1
  Te  Te14  1  0.127660  0.372340  0.750000  1
  Te  Te15  1  0.627660  0.250000  0.872340  1
  Te  Te16  1  0.872340  0.627660  0.250000  1
  Te  Te17  1  0.250000  0.872340  0.627660  1
  N  N18  1  0.500000  0.500000  0.500000  1
  N  N19  1  0.000000  0.000000  0.000000  1
  N  N20  1  0.250000  0.250000  0.250000  1
  N  N21  1  0.750000  0.750000  0.750000  1
