# generated using pymatgen
data_ZrScNb4(B2Ru5)2
_symmetry_space_group_name_H-M   'P 1'
_cell_length_a   9.47845907
_cell_length_b   9.47845986
_cell_length_c   3.07085500
_cell_angle_alpha   90.00000000
_cell_angle_beta   90.00000000
_cell_angle_gamma   90.03647458
_symmetry_Int_Tables_number   1
_chemical_formula_structural   ZrScNb4(B2Ru5)2
_chemical_formula_sum   'Zr1 Sc1 Nb4 B4 Ru10'
_cell_volume   275.88922337
_cell_formula_units_Z   1
loop_
 _symmetry_equiv_pos_site_id
 _symmetry_equiv_pos_as_xyz
  1  'x, y, z'
loop_
 _atom_site_type_symbol
 _atom_site_label
 _atom_site_symmetry_multiplicity
 _atom_site_fract_x
 _atom_site_fract_y
 _atom_site_fract_z
 _atom_site_occupancy
  Zr  Zr0  1  0.824736  0.675264  0.000000  1
  Sc  Sc1  1  0.176180  0.323820  0.000000  1
  Nb  Nb2  1  0.323020  0.824146  0.000000  1
  Nb  Nb3  1  0.675854  0.176980  0.000000  1
  Nb  Nb4  1  0.498241  0.499172  0.000000  1
  Nb  Nb5  1  0.000828  0.001759  0.000000  1
  B  B6  1  0.620779  0.879221  0.000000  1
  B  B7  1  0.377066  0.122934  0.000000  1
  B  B8  1  0.121509  0.619889  0.000000  1
  B  B9  1  0.880111  0.378491  0.000000  1
  Ru  Ru10  1  0.567753  0.719808  0.500000  1
  Ru  Ru11  1  0.434676  0.279286  0.500000  1
  Ru  Ru12  1  0.074242  0.783210  0.500000  1
  Ru  Ru13  1  0.923314  0.216582  0.500000  1
  Ru  Ru14  1  0.283418  0.576686  0.500000  1
  Ru  Ru15  1  0.716790  0.425758  0.500000  1
  Ru  Ru16  1  0.220714  0.065324  0.500000  1
  Ru  Ru17  1  0.780192  0.932247  0.500000  1
  Ru  Ru18  1  0.500376  0.999624  0.500000  1
  Ru  Ru19  1  0.000201  0.499799  0.500000  1
