# generated using pymatgen
data_NdSmBi2(Mo2O7)2
_symmetry_space_group_name_H-M   'P 1'
_cell_length_a   7.50202419
_cell_length_b   7.51969864
_cell_length_c   7.57063224
_cell_angle_alpha   120.38040107
_cell_angle_beta   120.05901413
_cell_angle_gamma   90.03520555
_symmetry_Int_Tables_number   1
_chemical_formula_structural   NdSmBi2(Mo2O7)2
_chemical_formula_sum   'Nd1 Sm1 Bi2 Mo4 O14'
_cell_volume   299.87837313
_cell_formula_units_Z   1
loop_
 _symmetry_equiv_pos_site_id
 _symmetry_equiv_pos_as_xyz
  1  'x, y, z'
loop_
 _atom_site_type_symbol
 _atom_site_label
 _atom_site_symmetry_multiplicity
 _atom_site_fract_x
 _atom_site_fract_y
 _atom_site_fract_z
 _atom_site_occupancy
  Nd  Nd0  1  0.375000  0.625000  0.750000  1
  Sm  Sm1  1  0.375000  0.625000  0.250000  1
  Bi  Bi2  1  0.875000  0.625000  0.250000  1
  Bi  Bi3  1  0.375000  0.125000  0.750000  1
  Mo  Mo4  1  0.875000  0.625000  0.750000  1
  Mo  Mo5  1  0.375000  0.125000  0.250000  1
  Mo  Mo6  1  0.875000  0.125000  0.250000  1
  Mo  Mo7  1  0.875000  0.125000  0.750000  1
  O  O8  1  0.784896  0.198423  0.996587  1
  O  O9  1  0.544075  0.463723  0.494816  1
  O  O10  1  0.206502  0.210989  0.001119  1
  O  O11  1  0.959217  0.457421  0.502320  1
  O  O12  1  0.799618  0.793899  0.582399  1
  O  O13  1  0.536748  0.037499  0.085127  1
  O  O14  1  0.252768  0.746453  0.497004  1
  O  O15  1  0.950382  0.456101  0.917601  1
  O  O16  1  0.965104  0.051577  0.503413  1
  O  O17  1  0.543498  0.039011  0.498881  1
  O  O18  1  0.213252  0.212501  0.414873  1
  O  O19  1  0.497232  0.503547  0.002996  1
  O  O20  1  0.790783  0.792579  0.997680  1
  O  O21  1  0.205925  0.786277  0.005184  1
