# generated using pymatgen
data_EuHoCo12SiP6
_symmetry_space_group_name_H-M   'P 1'
_cell_length_a   9.06033400
_cell_length_b   9.06033451
_cell_length_c   3.59725600
_cell_angle_alpha   90.00000000
_cell_angle_beta   90.00000000
_cell_angle_gamma   119.99999814
_symmetry_Int_Tables_number   1
_chemical_formula_structural   EuHoCo12SiP6
_chemical_formula_sum   'Eu1 Ho1 Co12 Si1 P6'
_cell_volume   255.73515058
_cell_formula_units_Z   1
loop_
 _symmetry_equiv_pos_site_id
 _symmetry_equiv_pos_as_xyz
  1  'x, y, z'
loop_
 _atom_site_type_symbol
 _atom_site_label
 _atom_site_symmetry_multiplicity
 _atom_site_fract_x
 _atom_site_fract_y
 _atom_site_fract_z
 _atom_site_occupancy
  Eu  Eu0  1  0.666667  0.333333  0.500000  1
  Ho  Ho1  1  0.333333  0.666667  0.000000  1
  Co  Co2  1  0.122429  0.842101  0.000000  1
  Co  Co3  1  0.383116  0.436883  0.500000  1
  Co  Co4  1  0.719672  0.877571  0.000000  1
  Co  Co5  1  0.563117  0.946232  0.500000  1
  Co  Co6  1  0.231027  0.101531  0.500000  1
  Co  Co7  1  0.870505  0.768973  0.500000  1
  Co  Co8  1  0.898469  0.129495  0.500000  1
  Co  Co9  1  0.944958  0.377082  0.000000  1
  Co  Co10  1  0.622918  0.567878  0.000000  1
  Co  Co11  1  0.432122  0.055042  0.000000  1
  Co  Co12  1  0.053768  0.616884  0.500000  1
  Co  Co13  1  0.157899  0.280328  0.000000  1
  Si  Si14  1  0.000000  0.000000  0.000000  1
  P  P15  1  0.598520  0.709388  0.500000  1
  P  P16  1  0.707758  0.110991  0.000000  1
  P  P17  1  0.889009  0.596768  0.000000  1
  P  P18  1  0.403232  0.292242  0.000000  1
  P  P19  1  0.290612  0.889133  0.500000  1
  P  P20  1  0.110867  0.401480  0.500000  1
