# generated using pymatgen
data_Sm6Cd23As
_symmetry_space_group_name_H-M   'P 1'
_cell_length_a   10.02554418
_cell_length_b   10.02554360
_cell_length_c   10.02554400
_cell_angle_alpha   59.99999868
_cell_angle_beta   60.00000060
_cell_angle_gamma   60.00000038
_symmetry_Int_Tables_number   1
_chemical_formula_structural   Sm6Cd23As
_chemical_formula_sum   'Sm6 Cd23 As1'
_cell_volume   712.53931772
_cell_formula_units_Z   1
loop_
 _symmetry_equiv_pos_site_id
 _symmetry_equiv_pos_as_xyz
  1  'x, y, z'
loop_
 _atom_site_type_symbol
 _atom_site_label
 _atom_site_symmetry_multiplicity
 _atom_site_fract_x
 _atom_site_fract_y
 _atom_site_fract_z
 _atom_site_occupancy
  Sm  Sm0  1  0.794501  0.794501  0.205499  1
  Sm  Sm1  1  0.205499  0.794501  0.205499  1
  Sm  Sm2  1  0.794501  0.205499  0.205499  1
  Sm  Sm3  1  0.205499  0.205499  0.794501  1
  Sm  Sm4  1  0.794501  0.205499  0.794501  1
  Sm  Sm5  1  0.205499  0.794501  0.794501  1
  Cd  Cd6  1  0.834458  0.834458  0.496628  1
  Cd  Cd7  1  0.834458  0.496628  0.834458  1
  Cd  Cd8  1  0.496628  0.834458  0.834458  1
  Cd  Cd9  1  0.834458  0.834458  0.834458  1
  Cd  Cd10  1  0.165542  0.165542  0.503372  1
  Cd  Cd11  1  0.165542  0.503372  0.165542  1
  Cd  Cd12  1  0.503372  0.165542  0.165542  1
  Cd  Cd13  1  0.165542  0.165542  0.165542  1
  Cd  Cd14  1  0.621529  0.621529  0.135415  1
  Cd  Cd15  1  0.621529  0.135415  0.621529  1
  Cd  Cd16  1  0.135415  0.621529  0.621529  1
  Cd  Cd17  1  0.621529  0.621529  0.621529  1
  Cd  Cd18  1  0.378471  0.378471  0.864585  1
  Cd  Cd19  1  0.378471  0.864585  0.378471  1
  Cd  Cd20  1  0.864585  0.378471  0.378471  1
  Cd  Cd21  1  0.378471  0.378471  0.378471  1
  Cd  Cd22  1  0.000000  0.000000  0.500000  1
  Cd  Cd23  1  0.500000  0.000000  0.500000  1
  Cd  Cd24  1  0.000000  0.500000  0.500000  1
  Cd  Cd25  1  0.500000  0.500000  0.000000  1
  Cd  Cd26  1  0.000000  0.500000  0.000000  1
  Cd  Cd27  1  0.500000  0.000000  0.000000  1
  Cd  Cd28  1  0.500000  0.500000  0.500000  1
  As  As29  1  0.000000  0.000000  0.000000  1
