# generated using pymatgen
data_NaLiNi6P7Ru6
_symmetry_space_group_name_H-M   'P 1'
_cell_length_a   9.25307000
_cell_length_b   9.25306991
_cell_length_c   3.67096800
_cell_angle_alpha   90.00000000
_cell_angle_beta   90.00000000
_cell_angle_gamma   120.00001367
_symmetry_Int_Tables_number   1
_chemical_formula_structural   NaLiNi6P7Ru6
_chemical_formula_sum   'Na1 Li1 Ni6 P7 Ru6'
_cell_volume   272.19670372
_cell_formula_units_Z   1
loop_
 _symmetry_equiv_pos_site_id
 _symmetry_equiv_pos_as_xyz
  1  'x, y, z'
loop_
 _atom_site_type_symbol
 _atom_site_label
 _atom_site_symmetry_multiplicity
 _atom_site_fract_x
 _atom_site_fract_y
 _atom_site_fract_z
 _atom_site_occupancy
  Na  Na0  1  0.333333  0.666667  0.500000  1
  Li  Li1  1  0.000000  0.000000  0.000000  1
  Ni  Ni2  1  0.099234  0.399242  0.000000  1
  Ni  Ni3  1  0.300008  0.900766  0.000000  1
  Ni  Ni4  1  0.600758  0.699992  0.000000  1
  Ni  Ni5  1  0.825809  0.613958  0.000000  1
  Ni  Ni6  1  0.788150  0.174191  0.000000  1
  Ni  Ni7  1  0.386042  0.211850  0.000000  1
  P  P8  1  0.666667  0.333333  0.000000  1
  P  P9  1  0.075930  0.627589  0.000000  1
  P  P10  1  0.551660  0.924070  0.000000  1
  P  P11  1  0.372411  0.448340  0.000000  1
  P  P12  1  0.790933  0.743395  0.500000  1
  P  P13  1  0.952462  0.209067  0.500000  1
  P  P14  1  0.256605  0.047538  0.500000  1
  Ru  Ru15  1  0.057198  0.772668  0.500000  1
  Ru  Ru16  1  0.715472  0.942802  0.500000  1
  Ru  Ru17  1  0.227332  0.284528  0.500000  1
  Ru  Ru18  1  0.877778  0.417846  0.500000  1
  Ru  Ru19  1  0.540069  0.122222  0.500000  1
  Ru  Ru20  1  0.582154  0.459931  0.500000  1
