# generated using pymatgen
data_Re7Si14W
_symmetry_space_group_name_H-M   'P 1'
_cell_length_a   3.15158057
_cell_length_b   8.38562466
_cell_length_c   11.76697149
_cell_angle_alpha   92.46022332
_cell_angle_beta   97.69597616
_cell_angle_gamma   90.00000282
_symmetry_Int_Tables_number   1
_chemical_formula_structural   Re7Si14W
_chemical_formula_sum   'Re7 Si14 W1'
_cell_volume   307.88684922
_cell_formula_units_Z   1
loop_
 _symmetry_equiv_pos_site_id
 _symmetry_equiv_pos_as_xyz
  1  'x, y, z'
loop_
 _atom_site_type_symbol
 _atom_site_label
 _atom_site_symmetry_multiplicity
 _atom_site_fract_x
 _atom_site_fract_y
 _atom_site_fract_z
 _atom_site_occupancy
  Re  Re0  1  0.269262  0.495006  0.538523  1
  Re  Re1  1  0.394711  0.365312  0.789421  1
  Re  Re2  1  0.520164  0.232523  0.040328  1
  Re  Re3  1  0.649898  0.114342  0.299797  1
  Re  Re4  1  0.766467  0.976156  0.532935  1
  Re  Re5  1  0.895212  0.859181  0.790423  1
  Re  Re6  1  0.019189  0.716724  0.038380  1
  Si  Si7  1  0.183343  0.902045  0.366687  1
  Si  Si8  1  0.313447  0.787948  0.626893  1
  Si  Si9  1  0.437047  0.659860  0.874095  1
  Si  Si10  1  0.561551  0.521145  0.123103  1
  Si  Si11  1  0.688838  0.397353  0.377676  1
  Si  Si12  1  0.842473  0.179552  0.684945  1
  Si  Si13  1  0.008170  0.002646  0.016340  1
  Si  Si14  1  0.102764  0.299568  0.205527  1
  Si  Si15  1  0.237251  0.196031  0.474501  1
  Si  Si16  1  0.728252  0.691750  0.456504  1
  Si  Si17  1  0.850800  0.558854  0.701600  1
  Si  Si18  1  0.976235  0.428218  0.952470  1
  Si  Si19  1  0.594311  0.841185  0.188621  1
  Si  Si20  1  0.424740  0.080365  0.849479  1
  W  W21  1  0.143745  0.607632  0.287489  1
