# generated using pymatgen
data_ReTc5(Te4Cl)2
_symmetry_space_group_name_H-M   'P 1'
_cell_length_a   12.39063400
_cell_length_b   7.05965128
_cell_length_c   11.70166181
_cell_angle_alpha   67.16248007
_cell_angle_beta   90.00000000
_cell_angle_gamma   90.00000000
_symmetry_Int_Tables_number   1
_chemical_formula_structural   ReTc5(Te4Cl)2
_chemical_formula_sum   'Re2 Tc10 Te16 Cl4'
_cell_volume   943.34622860
_cell_formula_units_Z   2
loop_
 _symmetry_equiv_pos_site_id
 _symmetry_equiv_pos_as_xyz
  1  'x, y, z'
loop_
 _atom_site_type_symbol
 _atom_site_label
 _atom_site_symmetry_multiplicity
 _atom_site_fract_x
 _atom_site_fract_y
 _atom_site_fract_z
 _atom_site_occupancy
  Re  Re0  1  0.580854  0.017447  0.358283  1
  Re  Re1  1  0.919146  0.017447  0.858283  1
  Tc  Tc2  1  0.418431  0.982643  0.642992  1
  Tc  Tc3  1  0.081569  0.982643  0.142992  1
  Tc  Tc4  1  0.367096  0.978511  0.420599  1
  Tc  Tc5  1  0.132904  0.978511  0.920599  1
  Tc  Tc6  1  0.633268  0.021492  0.579483  1
  Tc  Tc7  1  0.866732  0.021492  0.079483  1
  Tc  Tc8  1  0.513683  0.710708  0.563360  1
  Tc  Tc9  1  0.986317  0.710708  0.063360  1
  Tc  Tc10  1  0.486809  0.288903  0.436637  1
  Tc  Tc11  1  0.013191  0.288903  0.936637  1
  Te  Te12  1  0.458973  0.719362  0.328072  1
  Te  Te13  1  0.041027  0.719362  0.828072  1
  Te  Te14  1  0.540388  0.280477  0.670645  1
  Te  Te15  1  0.959612  0.280477  0.170645  1
  Te  Te16  1  0.305142  0.667436  0.630823  1
  Te  Te17  1  0.194858  0.667436  0.130823  1
  Te  Te18  1  0.696161  0.333656  0.368601  1
  Te  Te19  1  0.803839  0.333656  0.868601  1
  Te  Te20  1  0.434836  0.287552  0.211705  1
  Te  Te21  1  0.065164  0.287552  0.711705  1
  Te  Te22  1  0.564528  0.713241  0.786951  1
  Te  Te23  1  0.935472  0.713241  0.286951  1
  Te  Te24  1  0.724700  0.743308  0.504695  1
  Te  Te25  1  0.775300  0.743308  0.004695  1
  Te  Te26  1  0.276518  0.256209  0.494851  1
  Te  Te27  1  0.223482  0.256209  0.994851  1
  Cl  Cl28  1  0.179428  0.940559  0.341718  1
  Cl  Cl29  1  0.320572  0.940559  0.841718  1
  Cl  Cl30  1  0.822187  0.058495  0.660584  1
  Cl  Cl31  1  0.677813  0.058495  0.160584  1
