# generated using pymatgen
data_Ca2AlZn2
_symmetry_space_group_name_H-M   'P 1'
_cell_length_a   5.78899770
_cell_length_b   5.78899894
_cell_length_c   8.13122615
_cell_angle_alpha   79.31261514
_cell_angle_beta   79.31261563
_cell_angle_gamma   61.24982506
_symmetry_Int_Tables_number   1
_chemical_formula_structural   Ca2AlZn2
_chemical_formula_sum   'Ca4 Al2 Zn4'
_cell_volume   233.29178987
_cell_formula_units_Z   2
loop_
 _symmetry_equiv_pos_site_id
 _symmetry_equiv_pos_as_xyz
  1  'x, y, z'
loop_
 _atom_site_type_symbol
 _atom_site_label
 _atom_site_symmetry_multiplicity
 _atom_site_fract_x
 _atom_site_fract_y
 _atom_site_fract_z
 _atom_site_occupancy
  Ca  Ca0  1  0.780589  0.519118  0.348681  1
  Ca  Ca1  1  0.480882  0.219411  0.151319  1
  Ca  Ca2  1  0.219411  0.480882  0.651319  1
  Ca  Ca3  1  0.519118  0.780589  0.848681  1
  Al  Al4  1  0.130293  0.869707  0.250000  1
  Al  Al5  1  0.869707  0.130293  0.750000  1
  Zn  Zn6  1  0.004034  0.726246  0.998029  1
  Zn  Zn7  1  0.273754  0.995966  0.501971  1
  Zn  Zn8  1  0.995966  0.273754  0.001971  1
  Zn  Zn9  1  0.726246  0.004034  0.498029  1
