# generated using pymatgen
data_Nd2ScCuSe5
_symmetry_space_group_name_H-M   'P 1'
_cell_length_a   11.98616800
_cell_length_b   4.03174900
_cell_length_c   17.60569000
_cell_angle_alpha   90.00000000
_cell_angle_beta   90.00000000
_cell_angle_gamma   90.00000000
_symmetry_Int_Tables_number   1
_chemical_formula_structural   Nd2ScCuSe5
_chemical_formula_sum   'Nd8 Sc4 Cu4 Se20'
_cell_volume   850.79885743
_cell_formula_units_Z   4
loop_
 _symmetry_equiv_pos_site_id
 _symmetry_equiv_pos_as_xyz
  1  'x, y, z'
loop_
 _atom_site_type_symbol
 _atom_site_label
 _atom_site_symmetry_multiplicity
 _atom_site_fract_x
 _atom_site_fract_y
 _atom_site_fract_z
 _atom_site_occupancy
  Nd  Nd0  1  0.362229  0.250000  0.102635  1
  Nd  Nd1  1  0.011231  0.250000  0.177452  1
  Nd  Nd2  1  0.511231  0.250000  0.322549  1
  Nd  Nd3  1  0.862228  0.250000  0.397365  1
  Nd  Nd4  1  0.137772  0.749999  0.602635  1
  Nd  Nd5  1  0.488769  0.749999  0.677452  1
  Nd  Nd6  1  0.988769  0.749999  0.822549  1
  Nd  Nd7  1  0.637771  0.749999  0.897365  1
  Sc  Sc8  1  0.700886  0.749999  0.134612  1
  Sc  Sc9  1  0.200886  0.749999  0.365389  1
  Sc  Sc10  1  0.799114  0.250000  0.634612  1
  Sc  Sc11  1  0.299114  0.250000  0.865389  1
  Cu  Cu12  1  0.821757  0.250000  0.020663  1
  Cu  Cu13  1  0.321756  0.250000  0.479337  1
  Cu  Cu14  1  0.678244  0.749999  0.520663  1
  Cu  Cu15  1  0.178244  0.749999  0.979337  1
  Se  Se16  1  0.614370  0.250000  0.034497  1
  Se  Se17  1  0.903520  0.749999  0.073482  1
  Se  Se18  1  0.181206  0.749999  0.115807  1
  Se  Se19  1  0.491031  0.749999  0.195526  1
  Se  Se20  1  0.756782  0.250000  0.227797  1
  Se  Se21  1  0.256781  0.250000  0.272203  1
  Se  Se22  1  0.991030  0.749999  0.304474  1
  Se  Se23  1  0.681206  0.749999  0.384193  1
  Se  Se24  1  0.403520  0.749999  0.426518  1
  Se  Se25  1  0.114370  0.250000  0.465502  1
  Se  Se26  1  0.885630  0.749999  0.534497  1
  Se  Se27  1  0.596480  0.250000  0.573482  1
  Se  Se28  1  0.318795  0.250000  0.615807  1
  Se  Se29  1  0.008970  0.250000  0.695527  1
  Se  Se30  1  0.743219  0.749999  0.727797  1
  Se  Se31  1  0.243218  0.749999  0.772203  1
  Se  Se32  1  0.508969  0.250000  0.804474  1
  Se  Se33  1  0.818794  0.250000  0.884193  1
  Se  Se34  1  0.096480  0.250000  0.926518  1
  Se  Se35  1  0.385630  0.749999  0.965502  1
