# generated using pymatgen
data_K3ErRhO6
_symmetry_space_group_name_H-M   'P 1'
_cell_length_a   7.19524965
_cell_length_b   7.19501324
_cell_length_c   7.19499467
_cell_angle_alpha   94.68510966
_cell_angle_beta   94.68585636
_cell_angle_gamma   94.69016242
_symmetry_Int_Tables_number   1
_chemical_formula_structural   K3ErRhO6
_chemical_formula_sum   'K6 Er2 Rh2 O12'
_cell_volume   368.52941379
_cell_formula_units_Z   2
loop_
 _symmetry_equiv_pos_site_id
 _symmetry_equiv_pos_as_xyz
  1  'x, y, z'
loop_
 _atom_site_type_symbol
 _atom_site_label
 _atom_site_symmetry_multiplicity
 _atom_site_fract_x
 _atom_site_fract_y
 _atom_site_fract_z
 _atom_site_occupancy
  K  K0  1  0.384436  0.749980  0.115541  1
  K  K1  1  0.884505  0.615525  0.250012  1
  K  K2  1  0.750018  0.115508  0.384498  1
  K  K3  1  0.249981  0.884492  0.615502  1
  K  K4  1  0.115495  0.384474  0.749988  1
  K  K5  1  0.615564  0.250020  0.884458  1
  Er  Er6  1  0.250019  0.250001  0.250004  1
  Er  Er7  1  0.749981  0.749999  0.749996  1
  Rh  Rh8  1  0.000000  0.000000  0.000000  1
  Rh  Rh9  1  0.500000  0.500000  0.500000  1
  O  O10  1  0.736487  0.908741  0.030256  1
  O  O11  1  0.969785  0.263516  0.091283  1
  O  O12  1  0.530256  0.408720  0.236483  1
  O  O13  1  0.091285  0.969758  0.263523  1
  O  O14  1  0.236489  0.530233  0.408698  1
  O  O15  1  0.591284  0.763523  0.469768  1
  O  O16  1  0.408716  0.236477  0.530232  1
  O  O17  1  0.763511  0.469767  0.591301  1
  O  O18  1  0.908714  0.030242  0.736476  1
  O  O19  1  0.469743  0.591279  0.763517  1
  O  O20  1  0.030214  0.736484  0.908717  1
  O  O21  1  0.263512  0.091259  0.969743  1
