# generated using pymatgen
data_TbY4Lu7Co5Bi
_symmetry_space_group_name_H-M   'P 1'
_cell_length_a   8.20388402
_cell_length_b   8.20793179
_cell_length_c   8.20793264
_cell_angle_alpha   110.55630344
_cell_angle_beta   110.93124993
_cell_angle_gamma   106.97444227
_symmetry_Int_Tables_number   1
_chemical_formula_structural   TbY4Lu7Co5Bi
_chemical_formula_sum   'Tb1 Y4 Lu7 Co5 Bi1'
_cell_volume   424.75352011
_cell_formula_units_Z   1
loop_
 _symmetry_equiv_pos_site_id
 _symmetry_equiv_pos_as_xyz
  1  'x, y, z'
loop_
 _atom_site_type_symbol
 _atom_site_label
 _atom_site_symmetry_multiplicity
 _atom_site_fract_x
 _atom_site_fract_y
 _atom_site_fract_z
 _atom_site_occupancy
  Tb  Tb0  1  0.015416  0.209333  0.806084  1
  Y  Y1  1  0.813020  0.711757  0.526494  1
  Y  Y2  1  0.185085  0.284897  0.468650  1
  Y  Y3  1  0.185085  0.716435  0.900188  1
  Y  Y4  1  0.813020  0.286526  0.101262  1
  Lu  Lu5  1  0.686630  0.377125  0.688107  1
  Lu  Lu6  1  0.313943  0.625090  0.313226  1
  Lu  Lu7  1  0.686630  0.998523  0.309504  1
  Lu  Lu8  1  0.313943  0.000717  0.688853  1
  Lu  Lu9  1  0.595755  0.790130  0.805626  1
  Lu  Lu10  1  0.406431  0.209892  0.196539  1
  Lu  Lu11  1  0.985794  0.790254  0.195540  1
  Co  Co12  1  0.622949  0.998877  0.624071  1
  Co  Co13  1  0.374693  0.000827  0.373866  1
  Co  Co14  1  0.113822  0.613291  0.500530  1
  Co  Co15  1  0.885059  0.387726  0.497334  1
  Co  Co16  1  0.000919  0.997598  0.003320  1
  Bi  Bi17  1  0.501806  0.501001  0.000805  1
