# generated using pymatgen
data_Y2Lu14MgIn3Pt4
_symmetry_space_group_name_H-M   'P 1'
_cell_length_a   9.57768649
_cell_length_b   9.52734530
_cell_length_c   9.54268800
_cell_angle_alpha   59.94671455
_cell_angle_beta   60.12080551
_cell_angle_gamma   60.02197364
_symmetry_Int_Tables_number   1
_chemical_formula_structural   Y2Lu14MgIn3Pt4
_chemical_formula_sum   'Y2 Lu14 Mg1 In3 Pt4'
_cell_volume   616.14058081
_cell_formula_units_Z   1
loop_
 _symmetry_equiv_pos_site_id
 _symmetry_equiv_pos_as_xyz
  1  'x, y, z'
loop_
 _atom_site_type_symbol
 _atom_site_label
 _atom_site_symmetry_multiplicity
 _atom_site_fract_x
 _atom_site_fract_y
 _atom_site_fract_z
 _atom_site_occupancy
  Y  Y0  1  0.816187  0.815778  0.184017  1
  Y  Y1  1  0.185046  0.184651  0.815152  1
  Lu  Lu2  1  0.600340  0.599361  0.599484  1
  Lu  Lu3  1  0.600340  0.599361  0.200815  1
  Lu  Lu4  1  0.601968  0.198948  0.599542  1
  Lu  Lu5  1  0.194050  0.602427  0.601762  1
  Lu  Lu6  1  0.058874  0.441295  0.440471  1
  Lu  Lu7  1  0.438483  0.061198  0.060915  1
  Lu  Lu8  1  0.438483  0.061198  0.439404  1
  Lu  Lu9  1  0.058874  0.441295  0.059361  1
  Lu  Lu10  1  0.437611  0.438675  0.061857  1
  Lu  Lu11  1  0.059361  0.058809  0.440916  1
  Lu  Lu12  1  0.187826  0.812032  0.812536  1
  Lu  Lu13  1  0.812093  0.188489  0.188204  1
  Lu  Lu14  1  0.812093  0.188489  0.811215  1
  Lu  Lu15  1  0.187826  0.812032  0.187606  1
  Mg  Mg16  1  0.515975  0.827758  0.828133  1
  In  In17  1  0.832393  0.834182  0.832930  1
  In  In18  1  0.832393  0.834182  0.500495  1
  In  In19  1  0.830939  0.500016  0.834522  1
  Pt  Pt20  1  0.392185  0.393249  0.392596  1
  Pt  Pt21  1  0.392185  0.393249  0.821972  1
  Pt  Pt22  1  0.390371  0.822362  0.393635  1
  Pt  Pt23  1  0.824110  0.390968  0.392462  1
