# generated using pymatgen
data_Tb18MgIr12Pb
_symmetry_space_group_name_H-M   'P 1'
_cell_length_a   10.85869700
_cell_length_b   10.85869700
_cell_length_c   6.30665200
_cell_angle_alpha   90.00000000
_cell_angle_beta   90.00000000
_cell_angle_gamma   90.00000000
_symmetry_Int_Tables_number   1
_chemical_formula_structural   Tb18MgIr12Pb
_chemical_formula_sum   'Tb18 Mg1 Ir12 Pb1'
_cell_volume   743.62553936
_cell_formula_units_Z   1
loop_
 _symmetry_equiv_pos_site_id
 _symmetry_equiv_pos_as_xyz
  1  'x, y, z'
loop_
 _atom_site_type_symbol
 _atom_site_label
 _atom_site_symmetry_multiplicity
 _atom_site_fract_x
 _atom_site_fract_y
 _atom_site_fract_z
 _atom_site_occupancy
  Tb  Tb0  1  0.283514  0.085086  0.382040  1
  Tb  Tb1  1  0.290908  0.911422  0.878244  1
  Tb  Tb2  1  0.709092  0.088578  0.878244  1
  Tb  Tb3  1  0.716486  0.914914  0.382040  1
  Tb  Tb4  1  0.587299  0.786017  0.880203  1
  Tb  Tb5  1  0.587817  0.207271  0.379286  1
  Tb  Tb6  1  0.412183  0.792729  0.379286  1
  Tb  Tb7  1  0.412701  0.213983  0.880203  1
  Tb  Tb8  1  0.207271  0.412183  0.620714  1
  Tb  Tb9  1  0.213983  0.587299  0.119797  1
  Tb  Tb10  1  0.786017  0.412701  0.119797  1
  Tb  Tb11  1  0.792729  0.587817  0.620714  1
  Tb  Tb12  1  0.911422  0.709092  0.121756  1
  Tb  Tb13  1  0.914914  0.283514  0.617960  1
  Tb  Tb14  1  0.085086  0.716486  0.617960  1
  Tb  Tb15  1  0.088578  0.290908  0.121756  1
  Tb  Tb16  1  0.000000  0.000000  0.000000  1
  Tb  Tb17  1  0.500000  0.500000  0.500000  1
  Mg  Mg18  1  0.000000  0.000000  0.500000  1
  Ir  Ir19  1  0.847741  0.155800  0.243872  1
  Ir  Ir20  1  0.844200  0.847741  0.756128  1
  Ir  Ir21  1  0.155800  0.152259  0.756128  1
  Ir  Ir22  1  0.152259  0.844200  0.243872  1
  Ir  Ir23  1  0.659930  0.344030  0.740310  1
  Ir  Ir24  1  0.655970  0.659930  0.259690  1
  Ir  Ir25  1  0.344030  0.340070  0.259690  1
  Ir  Ir26  1  0.340070  0.655970  0.740310  1
  Ir  Ir27  1  0.500000  0.000000  0.120775  1
  Ir  Ir28  1  0.500000  0.000000  0.622245  1
  Ir  Ir29  1  0.000000  0.500000  0.879225  1
  Ir  Ir30  1  0.000000  0.500000  0.377755  1
  Pb  Pb31  1  0.500000  0.500000  0.000000  1
