# generated using pymatgen
data_TbLuSc2(CrB6)2
_symmetry_space_group_name_H-M   'P 1'
_cell_length_a   3.45414600
_cell_length_b   9.00014305
_cell_length_c   11.35194807
_cell_angle_alpha   89.98751518
_cell_angle_beta   90.00000000
_cell_angle_gamma   90.00000000
_symmetry_Int_Tables_number   1
_chemical_formula_structural   TbLuSc2(CrB6)2
_chemical_formula_sum   'Tb2 Lu2 Sc4 Cr4 B24'
_cell_volume   352.90717501
_cell_formula_units_Z   2
loop_
 _symmetry_equiv_pos_site_id
 _symmetry_equiv_pos_as_xyz
  1  'x, y, z'
loop_
 _atom_site_type_symbol
 _atom_site_label
 _atom_site_symmetry_multiplicity
 _atom_site_fract_x
 _atom_site_fract_y
 _atom_site_fract_z
 _atom_site_occupancy
  Tb  Tb0  1  0.000000  0.322465  0.414612  1
  Tb  Tb1  1  0.000000  0.677535  0.585388  1
  Lu  Lu2  1  0.000000  0.823055  0.085060  1
  Lu  Lu3  1  0.000000  0.176945  0.914940  1
  Sc  Sc4  1  0.000000  0.442902  0.129764  1
  Sc  Sc5  1  0.000000  0.557098  0.870236  1
  Sc  Sc6  1  0.000000  0.942876  0.368165  1
  Sc  Sc7  1  0.000000  0.057124  0.631835  1
  Cr  Cr8  1  0.000000  0.140564  0.180400  1
  Cr  Cr9  1  0.000000  0.859436  0.819600  1
  Cr  Cr10  1  0.000000  0.641833  0.316292  1
  Cr  Cr11  1  0.000000  0.358167  0.683708  1
  B  B12  1  0.500000  0.054125  0.066235  1
  B  B13  1  0.500000  0.945875  0.933765  1
  B  B14  1  0.500000  0.554927  0.431240  1
  B  B15  1  0.500000  0.445073  0.568760  1
  B  B16  1  0.500000  0.252409  0.080901  1
  B  B17  1  0.500000  0.747591  0.919099  1
  B  B18  1  0.500000  0.753093  0.415894  1
  B  B19  1  0.500000  0.246907  0.584106  1
  B  B20  1  0.500000  0.293795  0.234208  1
  B  B21  1  0.500000  0.706205  0.765792  1
  B  B22  1  0.500000  0.794726  0.262255  1
  B  B23  1  0.500000  0.205274  0.737745  1
  B  B24  1  0.500000  0.128995  0.315587  1
  B  B25  1  0.500000  0.871005  0.684413  1
  B  B26  1  0.500000  0.630325  0.181680  1
  B  B27  1  0.500000  0.369675  0.818320  1
  B  B28  1  0.500000  0.482567  0.285126  1
  B  B29  1  0.500000  0.517433  0.714874  1
  B  B30  1  0.500000  0.981589  0.211769  1
  B  B31  1  0.500000  0.018411  0.788231  1
  B  B32  1  0.500000  0.095591  0.474075  1
  B  B33  1  0.500000  0.904409  0.525925  1
  B  B34  1  0.500000  0.597134  0.026207  1
  B  B35  1  0.500000  0.402866  0.973793  1
