# generated using pymatgen
data_HoU(GaRu)2
_symmetry_space_group_name_H-M   'P 1'
_cell_length_a   4.64264300
_cell_length_b   6.99836742
_cell_length_c   7.14432999
_cell_angle_alpha   95.08893382
_cell_angle_beta   90.00000000
_cell_angle_gamma   90.00000000
_symmetry_Int_Tables_number   1
_chemical_formula_structural   HoU(GaRu)2
_chemical_formula_sum   'Ho2 U2 Ga4 Ru4'
_cell_volume   231.21087516
_cell_formula_units_Z   2
loop_
 _symmetry_equiv_pos_site_id
 _symmetry_equiv_pos_as_xyz
  1  'x, y, z'
loop_
 _atom_site_type_symbol
 _atom_site_label
 _atom_site_symmetry_multiplicity
 _atom_site_fract_x
 _atom_site_fract_y
 _atom_site_fract_z
 _atom_site_occupancy
  Ho  Ho0  1  0.250000  0.974547  0.296294  1
  Ho  Ho1  1  0.750000  0.025453  0.703706  1
  U  U2  1  0.250000  0.487035  0.203719  1
  U  U3  1  0.750000  0.512965  0.796281  1
  Ga  Ga4  1  0.250000  0.823441  0.889413  1
  Ga  Ga5  1  0.750000  0.176559  0.110587  1
  Ga  Ga6  1  0.250000  0.286050  0.597453  1
  Ga  Ga7  1  0.750000  0.713950  0.402547  1
  Ru  Ru8  1  0.750000  0.749802  0.042045  1
  Ru  Ru9  1  0.250000  0.250198  0.957955  1
  Ru  Ru10  1  0.750000  0.353096  0.465265  1
  Ru  Ru11  1  0.250000  0.646904  0.534735  1
