# generated using pymatgen
data_Dy2ErTmB12IrRh
_symmetry_space_group_name_H-M   'P 1'
_cell_length_a   3.63616600
_cell_length_b   9.15114758
_cell_length_c   11.50081711
_cell_angle_alpha   90.09900852
_cell_angle_beta   90.00000000
_cell_angle_gamma   90.00000000
_symmetry_Int_Tables_number   1
_chemical_formula_structural   Dy2ErTmB12IrRh
_chemical_formula_sum   'Dy4 Er2 Tm2 B24 Ir2 Rh2'
_cell_volume   382.69017236
_cell_formula_units_Z   2
loop_
 _symmetry_equiv_pos_site_id
 _symmetry_equiv_pos_as_xyz
  1  'x, y, z'
loop_
 _atom_site_type_symbol
 _atom_site_label
 _atom_site_symmetry_multiplicity
 _atom_site_fract_x
 _atom_site_fract_y
 _atom_site_fract_z
 _atom_site_occupancy
  Dy  Dy0  1  0.500000  0.323394  0.413704  1
  Dy  Dy1  1  0.500000  0.676606  0.586296  1
  Dy  Dy2  1  0.500000  0.178758  0.912875  1
  Dy  Dy3  1  0.500000  0.821242  0.087125  1
  Er  Er4  1  0.500000  0.056612  0.625864  1
  Er  Er5  1  0.500000  0.943388  0.374136  1
  Tm  Tm6  1  0.500000  0.445213  0.126259  1
  Tm  Tm7  1  0.500000  0.554787  0.873741  1
  B  B8  1  0.000000  0.109566  0.470063  1
  B  B9  1  0.000000  0.890434  0.529937  1
  B  B10  1  0.000000  0.391959  0.970721  1
  B  B11  1  0.000000  0.608041  0.029279  1
  B  B12  1  0.000000  0.132303  0.315870  1
  B  B13  1  0.000000  0.867697  0.684130  1
  B  B14  1  0.000000  0.367641  0.816313  1
  B  B15  1  0.000000  0.632359  0.183687  1
  B  B16  1  0.000000  0.054136  0.066317  1
  B  B17  1  0.000000  0.945864  0.933683  1
  B  B18  1  0.000000  0.446237  0.565838  1
  B  B19  1  0.000000  0.553763  0.434162  1
  B  B20  1  0.000000  0.482558  0.286325  1
  B  B21  1  0.000000  0.517442  0.713675  1
  B  B22  1  0.000000  0.017540  0.786429  1
  B  B23  1  0.000000  0.982460  0.213571  1
  B  B24  1  0.000000  0.250777  0.079641  1
  B  B25  1  0.000000  0.749223  0.920359  1
  B  B26  1  0.000000  0.250791  0.579692  1
  B  B27  1  0.000000  0.749209  0.420308  1
  B  B28  1  0.000000  0.294272  0.234717  1
  B  B29  1  0.000000  0.705728  0.765283  1
  B  B30  1  0.000000  0.206374  0.735303  1
  B  B31  1  0.000000  0.793626  0.264697  1
  Ir  Ir32  1  0.500000  0.139373  0.178473  1
  Ir  Ir33  1  0.500000  0.860627  0.821527  1
  Rh  Rh34  1  0.500000  0.360728  0.680398  1
  Rh  Rh35  1  0.500000  0.639272  0.319602  1
