# generated using pymatgen
data_Cs2Pd(PtSe2)2
_symmetry_space_group_name_H-M   'P 1'
_cell_length_a   9.34187553
_cell_length_b   8.06521610
_cell_length_c   6.58637879
_cell_angle_alpha   78.51299979
_cell_angle_beta   57.78432742
_cell_angle_gamma   45.00634654
_symmetry_Int_Tables_number   1
_chemical_formula_structural   Cs2Pd(PtSe2)2
_chemical_formula_sum   'Cs2 Pd1 Pt2 Se4'
_cell_volume   283.50045940
_cell_formula_units_Z   1
loop_
 _symmetry_equiv_pos_site_id
 _symmetry_equiv_pos_as_xyz
  1  'x, y, z'
loop_
 _atom_site_type_symbol
 _atom_site_label
 _atom_site_symmetry_multiplicity
 _atom_site_fract_x
 _atom_site_fract_y
 _atom_site_fract_z
 _atom_site_occupancy
  Cs  Cs0  1  0.646226  0.646226  0.353774  1
  Cs  Cs1  1  0.353774  0.353774  0.646226  1
  Pd  Pd2  1  0.000000  0.000000  0.500000  1
  Pt  Pt3  1  0.500000  0.500000  0.000000  1
  Pt  Pt4  1  0.000000  0.000000  0.000000  1
  Se  Se5  1  0.063516  0.720088  0.267881  1
  Se  Se6  1  0.720088  0.063516  0.948516  1
  Se  Se7  1  0.936484  0.279912  0.732119  1
  Se  Se8  1  0.279912  0.936484  0.051484  1
