# generated using pymatgen
data_Tb20TcBi8Rh3
_symmetry_space_group_name_H-M   'P 1'
_cell_length_a   8.03830332
_cell_length_b   9.04294600
_cell_length_c   12.49333815
_cell_angle_alpha   90.00001726
_cell_angle_beta   90.15864634
_cell_angle_gamma   90.00008787
_symmetry_Int_Tables_number   1
_chemical_formula_structural   Tb20TcBi8Rh3
_chemical_formula_sum   'Tb20 Tc1 Bi8 Rh3'
_cell_volume   908.13655492
_cell_formula_units_Z   1
loop_
 _symmetry_equiv_pos_site_id
 _symmetry_equiv_pos_as_xyz
  1  'x, y, z'
loop_
 _atom_site_type_symbol
 _atom_site_label
 _atom_site_symmetry_multiplicity
 _atom_site_fract_x
 _atom_site_fract_y
 _atom_site_fract_z
 _atom_site_occupancy
  Tb  Tb0  1  0.840939  0.749999  0.790574  1
  Tb  Tb1  1  0.155436  0.250000  0.206135  1
  Tb  Tb2  1  0.344359  0.250000  0.706571  1
  Tb  Tb3  1  0.653259  0.750000  0.294088  1
  Tb  Tb4  1  0.380063  0.750000  0.694908  1
  Tb  Tb5  1  0.623909  0.250000  0.303961  1
  Tb  Tb6  1  0.874496  0.249999  0.804797  1
  Tb  Tb7  1  0.123213  0.750001  0.193773  1
  Tb  Tb8  1  0.948138  0.750000  0.502914  1
  Tb  Tb9  1  0.050931  0.250000  0.496430  1
  Tb  Tb10  1  0.454716  0.250001  0.998213  1
  Tb  Tb11  1  0.547439  0.750000  0.002433  1
  Tb  Tb12  1  0.678849  0.040062  0.564466  1
  Tb  Tb13  1  0.322560  0.956392  0.437053  1
  Tb  Tb14  1  0.178276  0.960154  0.934202  1
  Tb  Tb15  1  0.322560  0.543609  0.437054  1
  Tb  Tb16  1  0.820180  0.041618  0.065947  1
  Tb  Tb17  1  0.678851  0.459937  0.564466  1
  Tb  Tb18  1  0.820178  0.458385  0.065948  1
  Tb  Tb19  1  0.178275  0.539845  0.934201  1
  Tc  Tc20  1  0.579236  0.750000  0.513845  1
  Bi  Bi21  1  0.571628  0.491977  0.827607  1
  Bi  Bi22  1  0.426998  0.508049  0.173118  1
  Bi  Bi23  1  0.072932  0.507972  0.672999  1
  Bi  Bi24  1  0.427001  0.991953  0.173118  1
  Bi  Bi25  1  0.928377  0.492412  0.327102  1
  Bi  Bi26  1  0.571627  0.008023  0.827608  1
  Bi  Bi27  1  0.928379  0.007588  0.327101  1
  Bi  Bi28  1  0.072934  0.992028  0.672999  1
  Rh  Rh29  1  0.426342  0.249998  0.488472  1
  Rh  Rh30  1  0.066913  0.250002  0.989369  1
  Rh  Rh31  1  0.931009  0.749998  0.008524  1
