# generated using pymatgen
data_Tb2Dy14Cd4Ni3Ru
_symmetry_space_group_name_H-M   'P 1'
_cell_length_a   9.55790055
_cell_length_b   9.55790158
_cell_length_c   9.55816406
_cell_angle_alpha   59.66091169
_cell_angle_beta   59.66090651
_cell_angle_gamma   59.65993322
_symmetry_Int_Tables_number   1
_chemical_formula_structural   Tb2Dy14Cd4Ni3Ru
_chemical_formula_sum   'Tb2 Dy14 Cd4 Ni3 Ru1'
_cell_volume   612.66409184
_cell_formula_units_Z   1
loop_
 _symmetry_equiv_pos_site_id
 _symmetry_equiv_pos_as_xyz
  1  'x, y, z'
loop_
 _atom_site_type_symbol
 _atom_site_label
 _atom_site_symmetry_multiplicity
 _atom_site_fract_x
 _atom_site_fract_y
 _atom_site_fract_z
 _atom_site_occupancy
  Tb  Tb0  1  0.597599  0.597599  0.597610  1
  Tb  Tb1  1  0.600790  0.600790  0.203051  1
  Dy  Dy2  1  0.600745  0.203073  0.600781  1
  Dy  Dy3  1  0.203073  0.600745  0.600781  1
  Dy  Dy4  1  0.060205  0.438446  0.438441  1
  Dy  Dy5  1  0.437319  0.061529  0.061518  1
  Dy  Dy6  1  0.438446  0.060205  0.438441  1
  Dy  Dy7  1  0.061529  0.437319  0.061518  1
  Dy  Dy8  1  0.438441  0.438441  0.060201  1
  Dy  Dy9  1  0.061516  0.061516  0.437322  1
  Dy  Dy10  1  0.186103  0.815702  0.815691  1
  Dy  Dy11  1  0.809656  0.187569  0.187575  1
  Dy  Dy12  1  0.815702  0.186103  0.815691  1
  Dy  Dy13  1  0.187569  0.809656  0.187575  1
  Dy  Dy14  1  0.815695  0.815695  0.186116  1
  Dy  Dy15  1  0.187589  0.187589  0.809644  1
  Cd  Cd16  1  0.830264  0.830264  0.830245  1
  Cd  Cd17  1  0.830309  0.830309  0.505709  1
  Cd  Cd18  1  0.830312  0.505711  0.830297  1
  Cd  Cd19  1  0.505711  0.830312  0.830297  1
  Ni  Ni20  1  0.392267  0.392267  0.824026  1
  Ni  Ni21  1  0.392246  0.824051  0.392283  1
  Ni  Ni22  1  0.824051  0.392246  0.392283  1
  Ru  Ru23  1  0.392865  0.392865  0.392907  1
