# generated using pymatgen
data_LiMn20MoWC6
_symmetry_space_group_name_H-M   'P 1'
_cell_length_a   7.38163763
_cell_length_b   7.37961707
_cell_length_c   7.38140970
_cell_angle_alpha   60.00519849
_cell_angle_beta   59.97961953
_cell_angle_gamma   60.00170832
_symmetry_Int_Tables_number   1
_chemical_formula_structural   LiMn20MoWC6
_chemical_formula_sum   'Li1 Mn20 Mo1 W1 C6'
_cell_volume   284.29327371
_cell_formula_units_Z   1
loop_
 _symmetry_equiv_pos_site_id
 _symmetry_equiv_pos_as_xyz
  1  'x, y, z'
loop_
 _atom_site_type_symbol
 _atom_site_label
 _atom_site_symmetry_multiplicity
 _atom_site_fract_x
 _atom_site_fract_y
 _atom_site_fract_z
 _atom_site_occupancy
  Li  Li0  1  0.000040  0.999927  0.999936  1
  Mn  Mn1  1  0.845831  0.384789  0.384651  1
  Mn  Mn2  1  0.384838  0.845806  0.384680  1
  Mn  Mn3  1  0.384633  0.384650  0.845842  1
  Mn  Mn4  1  0.384708  0.384639  0.384836  1
  Mn  Mn5  1  0.151587  0.616046  0.616230  1
  Mn  Mn6  1  0.616054  0.151612  0.616152  1
  Mn  Mn7  1  0.616223  0.616194  0.151563  1
  Mn  Mn8  1  0.616153  0.616255  0.616032  1
  Mn  Mn9  1  0.659400  0.000369  0.999995  1
  Mn  Mn10  1  0.659152  0.000321  0.340358  1
  Mn  Mn11  1  0.659526  0.340037  0.000147  1
  Mn  Mn12  1  0.000431  0.659355  0.340153  1
  Mn  Mn13  1  0.000275  0.659275  0.000104  1
  Mn  Mn14  1  0.340009  0.659624  0.000295  1
  Mn  Mn15  1  0.000020  0.340239  0.659366  1
  Mn  Mn16  1  0.340382  0.000105  0.659316  1
  Mn  Mn17  1  0.000018  0.000282  0.659614  1
  Mn  Mn18  1  0.340214  0.999987  0.000340  1
  Mn  Mn19  1  0.000103  0.340407  0.000312  1
  Mn  Mn20  1  0.000321  0.000128  0.340043  1
  Mo  Mo21  1  0.750094  0.749972  0.749963  1
  W  W22  1  0.249956  0.249993  0.250079  1
  C  C23  1  0.727944  0.272047  0.272051  1
  C  C24  1  0.727919  0.272090  0.727872  1
  C  C25  1  0.728038  0.727995  0.271971  1
  C  C26  1  0.271994  0.727991  0.728003  1
  C  C27  1  0.272130  0.727869  0.272103  1
  C  C28  1  0.272004  0.271994  0.727992  1
