# generated using pymatgen
data_ThH6Ru
_symmetry_space_group_name_H-M   'P 1'
_cell_length_a   4.63850992
_cell_length_b   4.63851130
_cell_length_c   4.63976521
_cell_angle_alpha   58.59150130
_cell_angle_beta   58.59150140
_cell_angle_gamma   58.59667025
_symmetry_Int_Tables_number   1
_chemical_formula_structural   ThH6Ru
_chemical_formula_sum   'Th1 H6 Ru1'
_cell_volume   68.31872420
_cell_formula_units_Z   1
loop_
 _symmetry_equiv_pos_site_id
 _symmetry_equiv_pos_as_xyz
  1  'x, y, z'
loop_
 _atom_site_type_symbol
 _atom_site_label
 _atom_site_symmetry_multiplicity
 _atom_site_fract_x
 _atom_site_fract_y
 _atom_site_fract_z
 _atom_site_occupancy
  Th  Th0  1  0.500000  0.500000  0.500000  1
  H  H1  1  0.559673  0.101759  0.101761  1
  H  H2  1  0.101759  0.559673  0.101761  1
  H  H3  1  0.898389  0.898389  0.440082  1
  H  H4  1  0.101611  0.101611  0.559917  1
  H  H5  1  0.898241  0.440326  0.898239  1
  H  H6  1  0.440326  0.898241  0.898239  1
  Ru  Ru7  1  0.000000  0.000000  0.000000  1
