# generated using pymatgen
data_Ti4Ir2RhW
_symmetry_space_group_name_H-M   'P 1'
_cell_length_a   6.37556500
_cell_length_b   4.36419100
_cell_length_c   8.74850500
_cell_angle_alpha   90.00000000
_cell_angle_beta   89.99738296
_cell_angle_gamma   90.00001313
_symmetry_Int_Tables_number   1
_chemical_formula_structural   Ti4Ir2RhW
_chemical_formula_sum   'Ti8 Ir4 Rh2 W2'
_cell_volume   243.42000741
_cell_formula_units_Z   2
loop_
 _symmetry_equiv_pos_site_id
 _symmetry_equiv_pos_as_xyz
  1  'x, y, z'
loop_
 _atom_site_type_symbol
 _atom_site_label
 _atom_site_symmetry_multiplicity
 _atom_site_fract_x
 _atom_site_fract_y
 _atom_site_fract_z
 _atom_site_occupancy
  Ti  Ti0  1  0.502223  0.750001  0.123863  1
  Ti  Ti1  1  0.997715  0.750001  0.123799  1
  Ti  Ti2  1  0.497764  0.250000  0.376133  1
  Ti  Ti3  1  0.002290  0.249999  0.376202  1
  Ti  Ti4  1  0.001730  0.750001  0.625429  1
  Ti  Ti5  1  0.498305  0.750001  0.625368  1
  Ti  Ti6  1  0.998269  0.249999  0.874568  1
  Ti  Ti7  1  0.501704  0.250000  0.874635  1
  Ir  Ir8  1  0.749962  0.250000  0.131493  1
  Ir  Ir9  1  0.250039  0.750001  0.368506  1
  Ir  Ir10  1  0.749947  0.250000  0.620555  1
  Ir  Ir11  1  0.250059  0.750001  0.879457  1
  Rh  Rh12  1  0.249804  0.249999  0.124990  1
  Rh  Rh13  1  0.750179  0.750001  0.375003  1
  W  W14  1  0.249825  0.249999  0.623159  1
  W  W15  1  0.750185  0.750001  0.876840  1
