# generated using pymatgen
data_Ti10Al2SnSb5
_symmetry_space_group_name_H-M   'P 1'
_cell_length_a   8.27311532
_cell_length_b   8.27311574
_cell_length_c   5.54287800
_cell_angle_alpha   90.00000000
_cell_angle_beta   90.00000000
_cell_angle_gamma   120.20062444
_symmetry_Int_Tables_number   1
_chemical_formula_structural   Ti10Al2SnSb5
_chemical_formula_sum   'Ti10 Al2 Sn1 Sb5'
_cell_volume   327.88578937
_cell_formula_units_Z   1
loop_
 _symmetry_equiv_pos_site_id
 _symmetry_equiv_pos_as_xyz
  1  'x, y, z'
loop_
 _atom_site_type_symbol
 _atom_site_label
 _atom_site_symmetry_multiplicity
 _atom_site_fract_x
 _atom_site_fract_y
 _atom_site_fract_z
 _atom_site_occupancy
  Ti  Ti0  1  0.728777  0.728777  0.750000  1
  Ti  Ti1  1  0.272631  0.998534  0.750000  1
  Ti  Ti2  1  0.998534  0.272631  0.750000  1
  Ti  Ti3  1  0.270893  0.270893  0.250000  1
  Ti  Ti4  1  0.728506  0.999689  0.250000  1
  Ti  Ti5  1  0.999689  0.728506  0.250000  1
  Ti  Ti6  1  0.667665  0.333267  0.999522  1
  Ti  Ti7  1  0.333267  0.667665  0.999522  1
  Ti  Ti8  1  0.333267  0.667665  0.500478  1
  Ti  Ti9  1  0.667665  0.333267  0.500478  1
  Al  Al10  1  0.001342  0.001342  0.998924  1
  Al  Al11  1  0.001342  0.001342  0.501076  1
  Sn  Sn12  1  0.384173  0.384173  0.750000  1
  Sb  Sb13  1  0.613700  0.999986  0.750000  1
  Sb  Sb14  1  0.999986  0.613700  0.750000  1
  Sb  Sb15  1  0.610820  0.610820  0.250000  1
  Sb  Sb16  1  0.387067  0.000673  0.250000  1
  Sb  Sb17  1  0.000673  0.387067  0.250000  1
