# generated using pymatgen
data_Ho3(ErOs)2
_symmetry_space_group_name_H-M   'P 1'
_cell_length_a   6.31721430
_cell_length_b   7.33453687
_cell_length_c   8.38103466
_cell_angle_alpha   96.93980095
_cell_angle_beta   112.14027999
_cell_angle_gamma   89.99999820
_symmetry_Int_Tables_number   1
_chemical_formula_structural   Ho3(ErOs)2
_chemical_formula_sum   'Ho6 Er4 Os4'
_cell_volume   356.61855560
_cell_formula_units_Z   2
loop_
 _symmetry_equiv_pos_site_id
 _symmetry_equiv_pos_as_xyz
  1  'x, y, z'
loop_
 _atom_site_type_symbol
 _atom_site_label
 _atom_site_symmetry_multiplicity
 _atom_site_fract_x
 _atom_site_fract_y
 _atom_site_fract_z
 _atom_site_occupancy
  Ho  Ho0  1  0.792308  0.583866  0.816070  1
  Ho  Ho1  1  0.976238  0.916134  0.183930  1
  Ho  Ho2  1  0.207714  0.415879  0.183928  1
  Ho  Ho3  1  0.023786  0.084121  0.816072  1
  Ho  Ho4  1  0.204030  0.683617  0.564443  1
  Ho  Ho5  1  0.639587  0.816383  0.435557  1
  Er  Er6  1  0.796012  0.316378  0.435507  1
  Er  Er7  1  0.360505  0.183622  0.564493  1
  Er  Er8  1  0.420555  0.750000  0.000000  1
  Er  Er9  1  0.579517  0.250000  0.000000  1
  Os  Os10  1  0.602103  0.923236  0.780516  1
  Os  Os11  1  0.821587  0.576764  0.219484  1
  Os  Os12  1  0.397914  0.077210  0.219771  1
  Os  Os13  1  0.178143  0.422790  0.780229  1
