# generated using pymatgen
data_Dy3Tm7(RuRh)2
_symmetry_space_group_name_H-M   'P 1'
_cell_length_a   6.33797016
_cell_length_b   7.21111040
_cell_length_c   8.42555291
_cell_angle_alpha   96.87261886
_cell_angle_beta   112.08137381
_cell_angle_gamma   90.09242636
_symmetry_Int_Tables_number   1
_chemical_formula_structural   Dy3Tm7(RuRh)2
_chemical_formula_sum   'Dy3 Tm7 Ru2 Rh2'
_cell_volume   353.81585349
_cell_formula_units_Z   1
loop_
 _symmetry_equiv_pos_site_id
 _symmetry_equiv_pos_as_xyz
  1  'x, y, z'
loop_
 _atom_site_type_symbol
 _atom_site_label
 _atom_site_symmetry_multiplicity
 _atom_site_fract_x
 _atom_site_fract_y
 _atom_site_fract_z
 _atom_site_occupancy
  Dy  Dy0  1  0.789832  0.081305  0.809648  1
  Dy  Dy1  1  0.979177  0.418805  0.189131  1
  Dy  Dy2  1  0.212968  0.915625  0.186732  1
  Tm  Tm3  1  0.024980  0.584862  0.813487  1
  Tm  Tm4  1  0.207219  0.183723  0.565692  1
  Tm  Tm5  1  0.643183  0.318001  0.435292  1
  Tm  Tm6  1  0.792694  0.812040  0.437139  1
  Tm  Tm7  1  0.354634  0.686400  0.564175  1
  Tm  Tm8  1  0.420619  0.250464  0.999454  1
  Tm  Tm9  1  0.575932  0.749512  0.999506  1
  Ru  Ru10  1  0.399118  0.573922  0.219936  1
  Ru  Ru11  1  0.178326  0.924309  0.778601  1
  Rh  Rh12  1  0.601345  0.425923  0.778126  1
  Rh  Rh13  1  0.819970  0.075110  0.223081  1
