# generated using pymatgen
data_TlTc3Se4
_symmetry_space_group_name_H-M   'P 1'
_cell_length_a   6.69787631
_cell_length_b   13.27709910
_cell_length_c   11.69039702
_cell_angle_alpha   90.00266560
_cell_angle_beta   100.03578449
_cell_angle_gamma   89.99497912
_symmetry_Int_Tables_number   1
_chemical_formula_structural   TlTc3Se4
_chemical_formula_sum   'Tl4 Tc12 Se16'
_cell_volume   1023.70098882
_cell_formula_units_Z   4
loop_
 _symmetry_equiv_pos_site_id
 _symmetry_equiv_pos_as_xyz
  1  'x, y, z'
loop_
 _atom_site_type_symbol
 _atom_site_label
 _atom_site_symmetry_multiplicity
 _atom_site_fract_x
 _atom_site_fract_y
 _atom_site_fract_z
 _atom_site_occupancy
  Tl  Tl0  1  0.232918  0.710463  0.198544  1
  Tl  Tl1  1  0.266954  0.210394  0.301465  1
  Tl  Tl2  1  0.767073  0.289544  0.801466  1
  Tl  Tl3  1  0.733051  0.789610  0.698538  1
  Tc  Tc4  1  0.095166  0.880909  0.073675  1
  Tc  Tc5  1  0.404821  0.380943  0.426299  1
  Tc  Tc6  1  0.904708  0.119085  0.926344  1
  Tc  Tc7  1  0.595310  0.619062  0.573668  1
  Tc  Tc8  1  0.243386  0.012903  0.941861  1
  Tc  Tc9  1  0.256469  0.512956  0.558185  1
  Tc  Tc10  1  0.756482  0.987094  0.058159  1
  Tc  Tc11  1  0.743654  0.487050  0.441782  1
  Tc  Tc12  1  0.112451  0.073486  0.130645  1
  Tc  Tc13  1  0.387483  0.573515  0.369337  1
  Tc  Tc14  1  0.887414  0.926508  0.869377  1
  Tc  Tc15  1  0.612639  0.426488  0.630631  1
  Se  Se16  1  0.246615  0.197381  0.997348  1
  Se  Se17  1  0.253474  0.697388  0.502889  1
  Se  Se18  1  0.753262  0.802627  0.002690  1
  Se  Se19  1  0.746680  0.302607  0.497092  1
  Se  Se20  1  0.970512  0.944107  0.253382  1
  Se  Se21  1  0.529472  0.444002  0.246579  1
  Se  Se22  1  0.029346  0.055891  0.746635  1
  Se  Se23  1  0.470660  0.555998  0.753411  1
  Se  Se24  1  0.213531  0.827720  0.888993  1
  Se  Se25  1  0.286319  0.327810  0.610966  1
  Se  Se26  1  0.786330  0.172292  0.111033  1
  Se  Se27  1  0.713813  0.672181  0.389014  1
  Se  Se28  1  0.427905  0.966046  0.154248  1
  Se  Se29  1  0.071997  0.466012  0.345760  1
  Se  Se30  1  0.571961  0.033953  0.845769  1
  Se  Se31  1  0.928153  0.533977  0.654218  1
