# generated using pymatgen
data_Hf16Co3NiRu4
_symmetry_space_group_name_H-M   'P 1'
_cell_length_a   8.58390305
_cell_length_b   8.58390295
_cell_length_c   8.58390337
_cell_angle_alpha   60.09137737
_cell_angle_beta   60.09138196
_cell_angle_gamma   60.09137883
_symmetry_Int_Tables_number   1
_chemical_formula_structural   Hf16Co3NiRu4
_chemical_formula_sum   'Hf16 Co3 Ni1 Ru4'
_cell_volume   448.16480365
_cell_formula_units_Z   1
loop_
 _symmetry_equiv_pos_site_id
 _symmetry_equiv_pos_as_xyz
  1  'x, y, z'
loop_
 _atom_site_type_symbol
 _atom_site_label
 _atom_site_symmetry_multiplicity
 _atom_site_fract_x
 _atom_site_fract_y
 _atom_site_fract_z
 _atom_site_occupancy
  Hf  Hf0  1  0.677192  0.108528  0.108528  1
  Hf  Hf1  1  0.108528  0.677192  0.108528  1
  Hf  Hf2  1  0.108528  0.108528  0.677192  1
  Hf  Hf3  1  0.105557  0.105557  0.105557  1
  Hf  Hf4  1  0.314808  0.314808  0.685418  1
  Hf  Hf5  1  0.685274  0.685274  0.315277  1
  Hf  Hf6  1  0.314808  0.685418  0.314808  1
  Hf  Hf7  1  0.685274  0.315277  0.685274  1
  Hf  Hf8  1  0.685418  0.314808  0.314808  1
  Hf  Hf9  1  0.315277  0.685274  0.685274  1
  Hf  Hf10  1  0.946760  0.946760  0.549813  1
  Hf  Hf11  1  0.555583  0.555583  0.945175  1
  Hf  Hf12  1  0.946760  0.549813  0.946760  1
  Hf  Hf13  1  0.555583  0.945175  0.555583  1
  Hf  Hf14  1  0.549813  0.946760  0.946760  1
  Hf  Hf15  1  0.945175  0.555583  0.555583  1
  Co  Co16  1  0.318170  0.893562  0.893562  1
  Co  Co17  1  0.893562  0.318170  0.893562  1
  Co  Co18  1  0.893562  0.893562  0.318170  1
  Ni  Ni19  1  0.894342  0.894342  0.894342  1
  Ru  Ru20  1  0.995987  0.334656  0.334656  1
  Ru  Ru21  1  0.334656  0.995987  0.334656  1
  Ru  Ru22  1  0.334656  0.334656  0.995987  1
  Ru  Ru23  1  0.334724  0.334724  0.334724  1
