# generated using pymatgen
data_Sc3Ta3Si2(Ge2Os3)2
_symmetry_space_group_name_H-M   'P 1'
_cell_length_a   6.71448948
_cell_length_b   7.31770613
_cell_length_c   7.61884490
_cell_angle_alpha   118.70115134
_cell_angle_beta   116.13823648
_cell_angle_gamma   89.99958955
_symmetry_Int_Tables_number   1
_chemical_formula_structural   Sc3Ta3Si2(Ge2Os3)2
_chemical_formula_sum   'Sc3 Ta3 Si2 Ge4 Os6'
_cell_volume   283.93786636
_cell_formula_units_Z   1
loop_
 _symmetry_equiv_pos_site_id
 _symmetry_equiv_pos_as_xyz
  1  'x, y, z'
loop_
 _atom_site_type_symbol
 _atom_site_label
 _atom_site_symmetry_multiplicity
 _atom_site_fract_x
 _atom_site_fract_y
 _atom_site_fract_z
 _atom_site_occupancy
  Sc  Sc0  1  0.241037  0.470790  0.441601  1
  Sc  Sc1  1  0.802415  0.530552  0.561088  1
  Sc  Sc2  1  0.662155  0.746368  0.992733  1
  Ta  Ta3  1  0.667441  0.251160  0.002303  1
  Ta  Ta4  1  0.848168  0.052563  0.605127  1
  Ta  Ta5  1  0.236394  0.943865  0.387714  1
  Si  Si6  1  0.312669  0.287495  0.074979  1
  Si  Si7  1  0.217788  0.721886  0.943795  1
  Ge  Ge8  1  0.575560  0.838426  0.663827  1
  Ge  Ge9  1  0.910124  0.160117  0.332022  1
  Ge  Ge10  1  0.910145  0.671913  0.332027  1
  Ge  Ge11  1  0.575569  0.325406  0.663819  1
  Os  Os12  1  0.004707  0.025094  0.999252  1
  Os  Os13  1  0.004707  0.474147  0.999224  1
  Os  Os14  1  0.491330  0.662121  0.245312  1
  Os  Os15  1  0.244449  0.338904  0.754941  1
  Os  Os16  1  0.244423  0.916004  0.754941  1
  Os  Os17  1  0.491318  0.083189  0.245298  1
