# generated using pymatgen
data_NdScPa5Co17P12
_symmetry_space_group_name_H-M   'P 1'
_cell_length_a   3.76286100
_cell_length_b   10.47998200
_cell_length_c   12.36655600
_cell_angle_alpha   90.00000000
_cell_angle_beta   90.00000000
_cell_angle_gamma   90.00000000
_symmetry_Int_Tables_number   1
_chemical_formula_structural   NdScPa5Co17P12
_chemical_formula_sum   'Nd1 Sc1 Pa5 Co17 P12'
_cell_volume   487.67161817
_cell_formula_units_Z   1
loop_
 _symmetry_equiv_pos_site_id
 _symmetry_equiv_pos_as_xyz
  1  'x, y, z'
loop_
 _atom_site_type_symbol
 _atom_site_label
 _atom_site_symmetry_multiplicity
 _atom_site_fract_x
 _atom_site_fract_y
 _atom_site_fract_z
 _atom_site_occupancy
  Nd  Nd0  1  0.500000  0.000000  0.481036  1
  Sc  Sc1  1  0.500000  0.500000  0.147740  1
  Pa  Pa2  1  0.000000  0.500000  0.528736  1
  Pa  Pa3  1  0.500000  0.821001  0.211102  1
  Pa  Pa4  1  0.500000  0.178999  0.211102  1
  Pa  Pa5  1  0.000000  0.683505  0.794042  1
  Pa  Pa6  1  0.000000  0.316495  0.794042  1
  Co  Co7  1  0.000000  0.000000  0.837878  1
  Co  Co8  1  0.500000  0.500000  0.702023  1
  Co  Co9  1  0.000000  0.000000  0.290951  1
  Co  Co10  1  0.000000  0.500000  0.982277  1
  Co  Co11  1  0.500000  0.000000  0.019241  1
  Co  Co12  1  0.500000  0.327214  0.987434  1
  Co  Co13  1  0.500000  0.672786  0.987434  1
  Co  Co14  1  0.000000  0.163105  0.001502  1
  Co  Co15  1  0.000000  0.836895  0.001502  1
  Co  Co16  1  0.500000  0.303661  0.431532  1
  Co  Co17  1  0.500000  0.696339  0.431532  1
  Co  Co18  1  0.000000  0.204095  0.573772  1
  Co  Co19  1  0.000000  0.795905  0.573772  1
  Co  Co20  1  0.500000  0.877676  0.714394  1
  Co  Co21  1  0.500000  0.122324  0.714394  1
  Co  Co22  1  0.000000  0.624931  0.290489  1
  Co  Co23  1  0.000000  0.375069  0.290489  1
  P  P24  1  0.500000  0.500000  0.882311  1
  P  P25  1  0.000000  0.000000  0.114421  1
  P  P26  1  0.500000  0.500000  0.352979  1
  P  P27  1  0.000000  0.000000  0.658413  1
  P  P28  1  0.500000  0.308700  0.615006  1
  P  P29  1  0.500000  0.691300  0.615006  1
  P  P30  1  0.000000  0.190253  0.389427  1
  P  P31  1  0.000000  0.809747  0.389427  1
  P  P32  1  0.500000  0.854620  0.892650  1
  P  P33  1  0.500000  0.145380  0.892650  1
  P  P34  1  0.000000  0.663131  0.099647  1
  P  P35  1  0.000000  0.336869  0.099647  1
