# generated using pymatgen
data_Pr4NdTh3(As2Au)8
_symmetry_space_group_name_H-M   'P 1'
_cell_length_a   5.87324100
_cell_length_b   5.90218000
_cell_length_c   20.40491700
_cell_angle_alpha   89.99780209
_cell_angle_beta   90.00000000
_cell_angle_gamma   90.00000000
_symmetry_Int_Tables_number   1
_chemical_formula_structural   Pr4NdTh3(As2Au)8
_chemical_formula_sum   'Pr4 Nd1 Th3 As16 Au8'
_cell_volume   707.33492871
_cell_formula_units_Z   1
loop_
 _symmetry_equiv_pos_site_id
 _symmetry_equiv_pos_as_xyz
  1  'x, y, z'
loop_
 _atom_site_type_symbol
 _atom_site_label
 _atom_site_symmetry_multiplicity
 _atom_site_fract_x
 _atom_site_fract_y
 _atom_site_fract_z
 _atom_site_occupancy
  Pr  Pr0  1  0.750000  0.491969  0.613859  1
  Pr  Pr1  1  0.250000  0.507345  0.387103  1
  Pr  Pr2  1  0.250000  0.492553  0.885715  1
  Pr  Pr3  1  0.750000  0.507229  0.112877  1
  Nd  Nd4  1  0.250000  0.991286  0.617168  1
  Th  Th5  1  0.750000  0.007788  0.383266  1
  Th  Th6  1  0.750000  0.992539  0.883494  1
  Th  Th7  1  0.250000  0.007483  0.116000  1
  As  As8  1  0.750000  0.991424  0.659203  1
  As  As9  1  0.250000  0.007869  0.343645  1
  As  As10  1  0.250000  0.992406  0.843446  1
  As  As11  1  0.750000  0.007715  0.155843  1
  As  As12  1  0.250000  0.490980  0.659788  1
  As  As13  1  0.750000  0.507699  0.343015  1
  As  As14  1  0.750000  0.492818  0.844138  1
  As  As15  1  0.250000  0.507726  0.156188  1
  As  As16  1  0.001999  0.231904  0.499461  1
  As  As17  1  0.506499  0.769028  0.499205  1
  As  As18  1  0.997489  0.235561  0.999956  1
  As  As19  1  0.496200  0.764546  0.000101  1
  As  As20  1  0.993501  0.769028  0.499205  1
  As  As21  1  0.498001  0.231904  0.499461  1
  As  As22  1  0.003800  0.764546  0.000101  1
  As  As23  1  0.502511  0.235561  0.999956  1
  Au  Au24  1  0.500515  0.734590  0.749535  1
  Au  Au25  1  0.000236  0.265638  0.249936  1
  Au  Au26  1  0.499764  0.265638  0.249936  1
  Au  Au27  1  0.999485  0.734590  0.749535  1
  Au  Au28  1  0.500275  0.235077  0.749504  1
  Au  Au29  1  0.000160  0.765242  0.249929  1
  Au  Au30  1  0.499840  0.765242  0.249929  1
  Au  Au31  1  0.999725  0.235077  0.749504  1
