# generated using pymatgen
data_CsGdBeF6
_symmetry_space_group_name_H-M   'P 1'
_cell_length_a   6.01403900
_cell_length_b   6.75341634
_cell_length_c   7.65190416
_cell_angle_alpha   64.96393475
_cell_angle_beta   90.00000000
_cell_angle_gamma   90.00000000
_symmetry_Int_Tables_number   1
_chemical_formula_structural   CsGdBeF6
_chemical_formula_sum   'Cs2 Gd2 Be2 F12'
_cell_volume   281.58364001
_cell_formula_units_Z   2
loop_
 _symmetry_equiv_pos_site_id
 _symmetry_equiv_pos_as_xyz
  1  'x, y, z'
loop_
 _atom_site_type_symbol
 _atom_site_label
 _atom_site_symmetry_multiplicity
 _atom_site_fract_x
 _atom_site_fract_y
 _atom_site_fract_z
 _atom_site_occupancy
  Cs  Cs0  1  0.250000  0.099048  0.776625  1
  Cs  Cs1  1  0.750000  0.900952  0.223375  1
  Gd  Gd2  1  0.250000  0.401271  0.179455  1
  Gd  Gd3  1  0.750000  0.598729  0.820545  1
  Be  Be4  1  0.250000  0.766734  0.468324  1
  Be  Be5  1  0.750000  0.233266  0.531676  1
  F  F6  1  0.460397  0.730083  0.599489  1
  F  F7  1  0.539603  0.269917  0.400511  1
  F  F8  1  0.960397  0.269917  0.400511  1
  F  F9  1  0.039603  0.730083  0.599489  1
  F  F10  1  0.250000  0.607831  0.367087  1
  F  F11  1  0.750000  0.392169  0.632913  1
  F  F12  1  0.499705  0.679540  0.015103  1
  F  F13  1  0.500295  0.320460  0.984897  1
  F  F14  1  0.999705  0.320460  0.984897  1
  F  F15  1  0.000295  0.679540  0.015103  1
  F  F16  1  0.250000  0.008459  0.306388  1
  F  F17  1  0.750000  0.991541  0.693612  1
