# generated using pymatgen
data_Hf3NbAl3WN
_symmetry_space_group_name_H-M   'P 1'
_cell_length_a   7.94451200
_cell_length_b   7.94451318
_cell_length_c   5.40428900
_cell_angle_alpha   90.00000000
_cell_angle_beta   90.00000000
_cell_angle_gamma   120.00000341
_symmetry_Int_Tables_number   1
_chemical_formula_structural   Hf3NbAl3WN
_chemical_formula_sum   'Hf6 Nb2 Al6 W2 N2'
_cell_volume   295.39537919
_cell_formula_units_Z   2
loop_
 _symmetry_equiv_pos_site_id
 _symmetry_equiv_pos_as_xyz
  1  'x, y, z'
loop_
 _atom_site_type_symbol
 _atom_site_label
 _atom_site_symmetry_multiplicity
 _atom_site_fract_x
 _atom_site_fract_y
 _atom_site_fract_z
 _atom_site_occupancy
  Hf  Hf0  1  0.230101  0.000000  0.250404  1
  Hf  Hf1  1  0.000000  0.230101  0.250404  1
  Hf  Hf2  1  0.769899  0.769899  0.250404  1
  Hf  Hf3  1  0.769899  0.000000  0.749596  1
  Hf  Hf4  1  0.000000  0.769899  0.749596  1
  Hf  Hf5  1  0.230101  0.230101  0.749596  1
  Nb  Nb6  1  0.666667  0.333333  0.500000  1
  Nb  Nb7  1  0.333333  0.666667  0.500000  1
  Al  Al8  1  0.586475  0.000000  0.239367  1
  Al  Al9  1  0.000000  0.586475  0.239367  1
  Al  Al10  1  0.413525  0.413525  0.239367  1
  Al  Al11  1  0.413525  0.000000  0.760633  1
  Al  Al12  1  0.000000  0.413525  0.760633  1
  Al  Al13  1  0.586475  0.586475  0.760633  1
  W  W14  1  0.666667  0.333333  0.000000  1
  W  W15  1  0.333333  0.666667  0.000000  1
  N  N16  1  0.000000  0.000000  0.000000  1
  N  N17  1  0.000000  0.000000  0.500000  1
