# generated using pymatgen
data_LiLu8InRh2
_symmetry_space_group_name_H-M   'P 1'
_cell_length_a   9.45408600
_cell_length_b   9.45408610
_cell_length_c   9.52605300
_cell_angle_alpha   59.74787109
_cell_angle_beta   59.74787074
_cell_angle_gamma   59.38332294
_symmetry_Int_Tables_number   1
_chemical_formula_structural   LiLu8InRh2
_chemical_formula_sum   'Li2 Lu16 In2 Rh4'
_cell_volume   596.92788577
_cell_formula_units_Z   2
loop_
 _symmetry_equiv_pos_site_id
 _symmetry_equiv_pos_as_xyz
  1  'x, y, z'
loop_
 _atom_site_type_symbol
 _atom_site_label
 _atom_site_symmetry_multiplicity
 _atom_site_fract_x
 _atom_site_fract_y
 _atom_site_fract_z
 _atom_site_occupancy
  Li  Li0  1  0.823745  0.823745  0.825198  1
  Li  Li1  1  0.823745  0.823745  0.527312  1
  Lu  Lu2  1  0.600373  0.600373  0.600117  1
  Lu  Lu3  1  0.600373  0.600373  0.199137  1
  Lu  Lu4  1  0.594637  0.208053  0.598656  1
  Lu  Lu5  1  0.208053  0.594637  0.598656  1
  Lu  Lu6  1  0.061510  0.438233  0.439518  1
  Lu  Lu7  1  0.438233  0.061510  0.060739  1
  Lu  Lu8  1  0.438233  0.061510  0.439518  1
  Lu  Lu9  1  0.061510  0.438233  0.060739  1
  Lu  Lu10  1  0.440561  0.440561  0.059439  1
  Lu  Lu11  1  0.066086  0.066086  0.433914  1
  Lu  Lu12  1  0.186508  0.812903  0.813117  1
  Lu  Lu13  1  0.812903  0.186508  0.187472  1
  Lu  Lu14  1  0.812903  0.186508  0.813117  1
  Lu  Lu15  1  0.186508  0.812903  0.187472  1
  Lu  Lu16  1  0.813527  0.813527  0.186473  1
  Lu  Lu17  1  0.184212  0.184212  0.815788  1
  In  In18  1  0.834599  0.506387  0.829507  1
  In  In19  1  0.506387  0.834599  0.829507  1
  Rh  Rh20  1  0.393854  0.393854  0.388807  1
  Rh  Rh21  1  0.393854  0.393854  0.823483  1
  Rh  Rh22  1  0.395084  0.822601  0.391157  1
  Rh  Rh23  1  0.822601  0.395084  0.391157  1
