# generated using pymatgen
data_NdSm2Be2(PPd5)4
_symmetry_space_group_name_H-M   'P 1'
_cell_length_a   8.71255990
_cell_length_b   8.62816277
_cell_length_c   8.62815717
_cell_angle_alpha   60.64675573
_cell_angle_beta   59.67589073
_cell_angle_gamma   59.67586779
_symmetry_Int_Tables_number   1
_chemical_formula_structural   NdSm2Be2(PPd5)4
_chemical_formula_sum   'Nd1 Sm2 Be2 P4 Pd20'
_cell_volume   458.54143857
_cell_formula_units_Z   1
loop_
 _symmetry_equiv_pos_site_id
 _symmetry_equiv_pos_as_xyz
  1  'x, y, z'
loop_
 _atom_site_type_symbol
 _atom_site_label
 _atom_site_symmetry_multiplicity
 _atom_site_fract_x
 _atom_site_fract_y
 _atom_site_fract_z
 _atom_site_occupancy
  Nd  Nd0  1  0.249989  0.250005  0.250005  1
  Sm  Sm1  1  0.750000  0.750000  0.750000  1
  Sm  Sm2  1  0.000001  0.000000  0.000000  1
  Be  Be3  1  0.732778  0.267181  0.267181  1
  Be  Be4  1  0.267224  0.732818  0.732818  1
  P  P5  1  0.266192  0.733817  0.266175  1
  P  P6  1  0.733810  0.266182  0.733824  1
  P  P7  1  0.266192  0.266175  0.733817  1
  P  P8  1  0.733810  0.733824  0.266182  1
  Pd  Pd9  1  0.389246  0.383920  0.383921  1
  Pd  Pd10  1  0.611468  0.616609  0.616609  1
  Pd  Pd11  1  0.383916  0.389237  0.842915  1
  Pd  Pd12  1  0.383916  0.842915  0.389237  1
  Pd  Pd13  1  0.616613  0.611482  0.155313  1
  Pd  Pd14  1  0.616613  0.155313  0.611482  1
  Pd  Pd15  1  0.842921  0.383922  0.383922  1
  Pd  Pd16  1  0.155304  0.616607  0.616607  1
  Pd  Pd17  1  0.345528  0.999731  0.999732  1
  Pd  Pd18  1  0.655027  0.999717  0.999717  1
  Pd  Pd19  1  0.999722  0.345530  0.655024  1
  Pd  Pd20  1  0.999722  0.655024  0.345529  1
  Pd  Pd21  1  0.996932  0.344593  0.002642  1
  Pd  Pd22  1  0.655842  0.002637  0.344594  1
  Pd  Pd23  1  0.002649  0.655828  0.996932  1
  Pd  Pd24  1  0.344581  0.996943  0.655825  1
  Pd  Pd25  1  0.996932  0.002642  0.344593  1
  Pd  Pd26  1  0.002649  0.996932  0.655828  1
  Pd  Pd27  1  0.655841  0.344594  0.002637  1
  Pd  Pd28  1  0.344581  0.655825  0.996943  1
