# generated using pymatgen
data_Ho8Tc(B8Ir)3
_symmetry_space_group_name_H-M   'P 1'
_cell_length_a   3.65306400
_cell_length_b   9.17163403
_cell_length_c   11.49645945
_cell_angle_alpha   90.09736636
_cell_angle_beta   90.00000000
_cell_angle_gamma   90.00000000
_symmetry_Int_Tables_number   1
_chemical_formula_structural   Ho8Tc(B8Ir)3
_chemical_formula_sum   'Ho8 Tc1 B24 Ir3'
_cell_volume   385.18332906
_cell_formula_units_Z   1
loop_
 _symmetry_equiv_pos_site_id
 _symmetry_equiv_pos_as_xyz
  1  'x, y, z'
loop_
 _atom_site_type_symbol
 _atom_site_label
 _atom_site_symmetry_multiplicity
 _atom_site_fract_x
 _atom_site_fract_y
 _atom_site_fract_z
 _atom_site_occupancy
  Ho  Ho0  1  0.000000  0.321246  0.413345  1
  Ho  Ho1  1  0.000000  0.681904  0.590312  1
  Ho  Ho2  1  0.000000  0.821615  0.083030  1
  Ho  Ho3  1  0.000000  0.175078  0.912171  1
  Ho  Ho4  1  0.000000  0.944089  0.373670  1
  Ho  Ho5  1  0.000000  0.052940  0.626832  1
  Ho  Ho6  1  0.000000  0.444047  0.125700  1
  Ho  Ho7  1  0.000000  0.557781  0.874779  1
  Tc  Tc8  1  0.000000  0.862236  0.821407  1
  B  B9  1  0.500000  0.553216  0.433876  1
  B  B10  1  0.500000  0.447344  0.566484  1
  B  B11  1  0.500000  0.053364  0.066320  1
  B  B12  1  0.500000  0.946604  0.933249  1
  B  B13  1  0.500000  0.749715  0.420802  1
  B  B14  1  0.500000  0.250525  0.579161  1
  B  B15  1  0.500000  0.248606  0.078763  1
  B  B16  1  0.500000  0.752554  0.920084  1
  B  B17  1  0.500000  0.792601  0.265541  1
  B  B18  1  0.500000  0.207413  0.733431  1
  B  B19  1  0.500000  0.293357  0.234648  1
  B  B20  1  0.500000  0.707940  0.766204  1
  B  B21  1  0.500000  0.632020  0.184460  1
  B  B22  1  0.500000  0.367891  0.815458  1
  B  B23  1  0.500000  0.132969  0.315431  1
  B  B24  1  0.500000  0.867888  0.685783  1
  B  B25  1  0.500000  0.982264  0.213008  1
  B  B26  1  0.500000  0.016594  0.786806  1
  B  B27  1  0.500000  0.481668  0.286985  1
  B  B28  1  0.500000  0.517723  0.713891  1
  B  B29  1  0.500000  0.610741  0.031489  1
  B  B30  1  0.500000  0.387839  0.969469  1
  B  B31  1  0.500000  0.111339  0.469099  1
  B  B32  1  0.500000  0.889062  0.529596  1
  Ir  Ir33  1  0.000000  0.637671  0.322439  1
  Ir  Ir34  1  0.000000  0.362432  0.677819  1
  Ir  Ir35  1  0.000000  0.137726  0.178459  1
