# generated using pymatgen
data_Dy12Ni4AgBi
_symmetry_space_group_name_H-M   'P 1'
_cell_length_a   8.43326753
_cell_length_b   8.43049384
_cell_length_c   8.43326774
_cell_angle_alpha   112.89867965
_cell_angle_beta   108.70001178
_cell_angle_gamma   106.88834881
_symmetry_Int_Tables_number   1
_chemical_formula_structural   Dy12Ni4AgBi
_chemical_formula_sum   'Dy12 Ni4 Ag1 Bi1'
_cell_volume   460.12547804
_cell_formula_units_Z   1
loop_
 _symmetry_equiv_pos_site_id
 _symmetry_equiv_pos_as_xyz
  1  'x, y, z'
loop_
 _atom_site_type_symbol
 _atom_site_label
 _atom_site_symmetry_multiplicity
 _atom_site_fract_x
 _atom_site_fract_y
 _atom_site_fract_z
 _atom_site_occupancy
  Dy  Dy0  1  0.821121  0.702738  0.523960  1
  Dy  Dy1  1  0.178879  0.297262  0.476040  1
  Dy  Dy2  1  0.178780  0.702738  0.881617  1
  Dy  Dy3  1  0.821220  0.297262  0.118383  1
  Dy  Dy4  1  0.678622  0.370838  0.692218  1
  Dy  Dy5  1  0.321378  0.629162  0.307782  1
  Dy  Dy6  1  0.678756  0.986529  0.307773  1
  Dy  Dy7  1  0.321244  0.013471  0.692227  1
  Dy  Dy8  1  0.580898  0.784044  0.796854  1
  Dy  Dy9  1  0.419102  0.215956  0.203146  1
  Dy  Dy10  1  0.987190  0.784044  0.203146  1
  Dy  Dy11  1  0.012810  0.215956  0.796854  1
  Ni  Ni12  1  0.636097  0.000000  0.636097  1
  Ni  Ni13  1  0.363903  0.000000  0.363903  1
  Ni  Ni14  1  0.125638  0.625636  0.499998  1
  Ni  Ni15  1  0.874362  0.374364  0.500002  1
  Ag  Ag16  1  0.000000  0.000000  0.000000  1
  Bi  Bi17  1  0.500000  0.500000  0.000000  1
