# generated using pymatgen
data_Hf2Mn3Co9P7
_symmetry_space_group_name_H-M   'P 1'
_cell_length_a   8.95763610
_cell_length_b   8.95735439
_cell_length_c   3.54869600
_cell_angle_alpha   90.00000000
_cell_angle_beta   90.00000000
_cell_angle_gamma   120.01996702
_symmetry_Int_Tables_number   1
_chemical_formula_structural   Hf2Mn3Co9P7
_chemical_formula_sum   'Hf2 Mn3 Co9 P7'
_cell_volume   246.53874758
_cell_formula_units_Z   1
loop_
 _symmetry_equiv_pos_site_id
 _symmetry_equiv_pos_as_xyz
  1  'x, y, z'
loop_
 _atom_site_type_symbol
 _atom_site_label
 _atom_site_symmetry_multiplicity
 _atom_site_fract_x
 _atom_site_fract_y
 _atom_site_fract_z
 _atom_site_occupancy
  Hf  Hf0  1  0.666638  0.333341  0.000000  1
  Hf  Hf1  1  0.000017  0.000023  0.500000  1
  Mn  Mn2  1  0.556499  0.765493  0.500000  1
  Mn  Mn3  1  0.234451  0.790844  0.500000  1
  Mn  Mn4  1  0.209237  0.443700  0.500000  1
  Co  Co5  1  0.769648  0.733068  0.000000  1
  Co  Co6  1  0.266966  0.036657  0.000000  1
  Co  Co7  1  0.963316  0.230301  0.000000  1
  Co  Co8  1  0.495286  0.947552  0.000000  1
  Co  Co9  1  0.052619  0.547838  0.000000  1
  Co  Co10  1  0.452089  0.504595  0.000000  1
  Co  Co11  1  0.722486  0.108755  0.500000  1
  Co  Co12  1  0.891183  0.613661  0.500000  1
  Co  Co13  1  0.386211  0.277441  0.500000  1
  P  P14  1  0.455692  0.076874  0.500000  1
  P  P15  1  0.923217  0.378803  0.500000  1
  P  P16  1  0.621115  0.544374  0.500000  1
  P  P17  1  0.748455  0.965207  0.000000  1
  P  P18  1  0.034782  0.783355  0.000000  1
  P  P19  1  0.216618  0.251400  0.000000  1
  P  P20  1  0.333471  0.666720  0.000000  1
