# generated using pymatgen
data_UCrFeB6
_symmetry_space_group_name_H-M   'P 1'
_cell_length_a   5.40606669
_cell_length_b   5.40606707
_cell_length_c   5.40606729
_cell_angle_alpha   146.76948284
_cell_angle_beta   109.63205406
_cell_angle_gamma   80.06964227
_symmetry_Int_Tables_number   1
_chemical_formula_structural   UCrFeB6
_chemical_formula_sum   'U1 Cr1 Fe1 B6'
_cell_volume   79.72472262
_cell_formula_units_Z   1
loop_
 _symmetry_equiv_pos_site_id
 _symmetry_equiv_pos_as_xyz
  1  'x, y, z'
loop_
 _atom_site_type_symbol
 _atom_site_label
 _atom_site_symmetry_multiplicity
 _atom_site_fract_x
 _atom_site_fract_y
 _atom_site_fract_z
 _atom_site_occupancy
  U  U0  1  0.501851  0.001851  0.500000  1
  Cr  Cr1  1  0.845246  0.845246  0.000000  1
  Fe  Fe2  1  0.151067  0.151067  0.000000  1
  B  B3  1  0.854558  0.500266  0.354293  1
  B  B4  1  0.145973  0.500266  0.645707  1
  B  B5  1  0.960253  0.695860  0.264392  1
  B  B6  1  0.050501  0.304793  0.745708  1
  B  B7  1  0.559084  0.304793  0.254292  1
  B  B8  1  0.431468  0.695860  0.735608  1
