# generated using pymatgen
data_Sm4SeI6
_symmetry_space_group_name_H-M   'P 1'
_cell_length_a   4.33465300
_cell_length_b   14.33776800
_cell_length_c   14.89898000
_cell_angle_alpha   90.00000000
_cell_angle_beta   90.00000000
_cell_angle_gamma   90.00000000
_symmetry_Int_Tables_number   1
_chemical_formula_structural   Sm4SeI6
_chemical_formula_sum   'Sm8 Se2 I12'
_cell_volume   925.96041898
_cell_formula_units_Z   2
loop_
 _symmetry_equiv_pos_site_id
 _symmetry_equiv_pos_as_xyz
  1  'x, y, z'
loop_
 _atom_site_type_symbol
 _atom_site_label
 _atom_site_symmetry_multiplicity
 _atom_site_fract_x
 _atom_site_fract_y
 _atom_site_fract_z
 _atom_site_occupancy
  Sm  Sm0  1  0.000000  0.103120  0.079245  1
  Sm  Sm1  1  0.000000  0.896880  0.920755  1
  Sm  Sm2  1  0.000000  0.603120  0.420755  1
  Sm  Sm3  1  0.000000  0.396880  0.579245  1
  Sm  Sm4  1  0.500000  0.123469  0.853507  1
  Sm  Sm5  1  0.500000  0.876531  0.146493  1
  Sm  Sm6  1  0.500000  0.623469  0.646493  1
  Sm  Sm7  1  0.500000  0.376531  0.353507  1
  Se  Se8  1  0.500000  0.000000  0.000000  1
  Se  Se9  1  0.500000  0.500000  0.500000  1
  I  I10  1  0.500000  0.263331  0.677417  1
  I  I11  1  0.500000  0.736669  0.322583  1
  I  I12  1  0.500000  0.763331  0.822583  1
  I  I13  1  0.500000  0.236669  0.177417  1
  I  I14  1  0.000000  0.260991  0.930168  1
  I  I15  1  0.000000  0.739009  0.069832  1
  I  I16  1  0.000000  0.485285  0.241110  1
  I  I17  1  0.000000  0.514715  0.758890  1
  I  I18  1  0.000000  0.985285  0.258890  1
  I  I19  1  0.000000  0.014715  0.741110  1
  I  I20  1  0.000000  0.239009  0.430168  1
  I  I21  1  0.000000  0.760991  0.569832  1
