# generated using pymatgen
data_Sc4As6Ru3Rh4
_symmetry_space_group_name_H-M   'P 1'
_cell_length_a   7.08269960
_cell_length_b   7.08605519
_cell_length_c   7.08605665
_cell_angle_alpha   109.42200240
_cell_angle_beta   109.50545725
_cell_angle_gamma   109.50544072
_symmetry_Int_Tables_number   1
_chemical_formula_structural   Sc4As6Ru3Rh4
_chemical_formula_sum   'Sc4 As6 Ru3 Rh4'
_cell_volume   273.70497732
_cell_formula_units_Z   1
loop_
 _symmetry_equiv_pos_site_id
 _symmetry_equiv_pos_as_xyz
  1  'x, y, z'
loop_
 _atom_site_type_symbol
 _atom_site_label
 _atom_site_symmetry_multiplicity
 _atom_site_fract_x
 _atom_site_fract_y
 _atom_site_fract_z
 _atom_site_occupancy
  Sc  Sc0  1  0.002375  0.001188  0.501188  1
  Sc  Sc1  1  0.497999  0.996598  0.996598  1
  Sc  Sc2  1  0.002375  0.501188  0.001188  1
  Sc  Sc3  1  0.497999  0.501400  0.501400  1
  As  As4  1  0.311933  0.998620  0.313313  1
  As  As5  1  0.003878  0.316224  0.316224  1
  As  As6  1  0.003878  0.687655  0.687655  1
  As  As7  1  0.311933  0.313313  0.998620  1
  As  As8  1  0.684888  0.686574  0.998313  1
  As  As9  1  0.684888  0.998313  0.686574  1
  Ru  Ru10  1  0.250730  0.750761  0.499969  1
  Ru  Ru11  1  0.250730  0.499969  0.750761  1
  Ru  Ru12  1  0.000154  0.000077  0.000077  1
  Rh  Rh13  1  0.749727  0.500515  0.249212  1
  Rh  Rh14  1  0.498393  0.749196  0.249196  1
  Rh  Rh15  1  0.498393  0.249196  0.749196  1
  Rh  Rh16  1  0.749727  0.249212  0.500515  1
