# generated using pymatgen
data_SrErGe4N7
_symmetry_space_group_name_H-M   'P 1'
_cell_length_a   6.29061300
_cell_length_b   6.29066751
_cell_length_c   10.29211800
_cell_angle_alpha   90.00000000
_cell_angle_beta   90.00000000
_cell_angle_gamma   120.00036201
_symmetry_Int_Tables_number   1
_chemical_formula_structural   SrErGe4N7
_chemical_formula_sum   'Sr2 Er2 Ge8 N14'
_cell_volume   352.71465444
_cell_formula_units_Z   2
loop_
 _symmetry_equiv_pos_site_id
 _symmetry_equiv_pos_as_xyz
  1  'x, y, z'
loop_
 _atom_site_type_symbol
 _atom_site_label
 _atom_site_symmetry_multiplicity
 _atom_site_fract_x
 _atom_site_fract_y
 _atom_site_fract_z
 _atom_site_occupancy
  Sr  Sr0  1  0.666670  0.333336  0.583234  1
  Sr  Sr1  1  0.333330  0.666664  0.083234  1
  Er  Er2  1  0.666674  0.333336  0.950763  1
  Er  Er3  1  0.333326  0.666664  0.450763  1
  Ge  Ge4  1  0.173500  0.347018  0.760590  1
  Ge  Ge5  1  0.826499  0.173517  0.260590  1
  Ge  Ge6  1  0.347044  0.173521  0.260585  1
  Ge  Ge7  1  0.652956  0.826479  0.760585  1
  Ge  Ge8  1  0.173501  0.826483  0.760590  1
  Ge  Ge9  1  0.826500  0.652982  0.260590  1
  Ge  Ge10  1  0.999992  0.999996  0.025439  1
  Ge  Ge11  1  0.000008  0.000004  0.525439  1
  N  N12  1  0.999994  0.999998  0.833490  1
  N  N13  1  0.000006  0.000002  0.333490  1
  N  N14  1  0.840366  0.680733  0.081741  1
  N  N15  1  0.159634  0.840368  0.581740  1
  N  N16  1  0.680733  0.840367  0.581724  1
  N  N17  1  0.319267  0.159633  0.081724  1
  N  N18  1  0.840366  0.159632  0.081740  1
  N  N19  1  0.159634  0.319267  0.581741  1
  N  N20  1  0.495548  0.504433  0.817643  1
  N  N21  1  0.991108  0.495554  0.317638  1
  N  N22  1  0.504453  0.008884  0.317643  1
  N  N23  1  0.495547  0.991116  0.817643  1
  N  N24  1  0.504452  0.495567  0.317643  1
  N  N25  1  0.008892  0.504446  0.817638  1
