# generated using pymatgen
data_LaGd5ReI10
_symmetry_space_group_name_H-M   'P 1'
_cell_length_a   7.90408822
_cell_length_b   9.73718986
_cell_length_c   9.91668300
_cell_angle_alpha   107.63044850
_cell_angle_beta   97.16986949
_cell_angle_gamma   104.63235921
_symmetry_Int_Tables_number   1
_chemical_formula_structural   LaGd5ReI10
_chemical_formula_sum   'La1 Gd5 Re1 I10'
_cell_volume   686.80558600
_cell_formula_units_Z   1
loop_
 _symmetry_equiv_pos_site_id
 _symmetry_equiv_pos_as_xyz
  1  'x, y, z'
loop_
 _atom_site_type_symbol
 _atom_site_label
 _atom_site_symmetry_multiplicity
 _atom_site_fract_x
 _atom_site_fract_y
 _atom_site_fract_z
 _atom_site_occupancy
  La  La0  1  0.533075  0.222270  0.418526  1
  Gd  Gd1  1  0.465729  0.778132  0.582035  1
  Gd  Gd2  1  0.143052  0.370083  0.327344  1
  Gd  Gd3  1  0.858469  0.631454  0.673062  1
  Gd  Gd4  1  0.618911  0.542412  0.255984  1
  Gd  Gd5  1  0.384549  0.457722  0.745492  1
  Re  Re6  1  0.503814  0.489227  0.497552  1
  I  I7  1  0.135298  0.043061  0.221422  1
  I  I8  1  0.844325  0.953927  0.770894  1
  I  I9  1  0.243501  0.415211  0.041132  1
  I  I10  1  0.758770  0.589805  0.960520  1
  I  I11  1  0.719193  0.243881  0.143209  1
  I  I12  1  0.289460  0.761879  0.848242  1
  I  I13  1  0.047989  0.685826  0.412187  1
  I  I14  1  0.963174  0.319696  0.593121  1
  I  I15  1  0.406032  0.128689  0.688019  1
  I  I16  1  0.584661  0.866726  0.321263  1
