# generated using pymatgen
data_Nd4SmReTcO12
_symmetry_space_group_name_H-M   'P 1'
_cell_length_a   7.09808388
_cell_length_b   7.09808423
_cell_length_c   7.82697900
_cell_angle_alpha   73.84995226
_cell_angle_beta   73.84995145
_cell_angle_gamma   48.11876941
_symmetry_Int_Tables_number   1
_chemical_formula_structural   Nd4SmReTcO12
_chemical_formula_sum   'Nd4 Sm1 Re1 Tc1 O12'
_cell_volume   279.64832342
_cell_formula_units_Z   1
loop_
 _symmetry_equiv_pos_site_id
 _symmetry_equiv_pos_as_xyz
  1  'x, y, z'
loop_
 _atom_site_type_symbol
 _atom_site_label
 _atom_site_symmetry_multiplicity
 _atom_site_fract_x
 _atom_site_fract_y
 _atom_site_fract_z
 _atom_site_occupancy
  Nd  Nd0  1  0.313730  0.300049  0.355461  1
  Nd  Nd1  1  0.699951  0.686270  0.644539  1
  Nd  Nd2  1  0.686128  0.683947  0.171667  1
  Nd  Nd3  1  0.316053  0.313872  0.828333  1
  Sm  Sm4  1  0.003993  0.996007  0.500000  1
  Re  Re5  1  0.207663  0.792337  0.000000  1
  Tc  Tc6  1  0.780177  0.219823  0.000000  1
  O  O7  1  0.099817  0.595260  0.573527  1
  O  O8  1  0.007151  0.993119  0.200179  1
  O  O9  1  0.404740  0.900183  0.426473  1
  O  O10  1  0.489800  0.507878  0.168053  1
  O  O11  1  0.087523  0.601189  0.078510  1
  O  O12  1  0.907609  0.402090  0.422645  1
  O  O13  1  0.006881  0.992849  0.799821  1
  O  O14  1  0.597910  0.092390  0.577355  1
  O  O15  1  0.492122  0.510200  0.831947  1
  O  O16  1  0.586972  0.087032  0.079983  1
  O  O17  1  0.398811  0.912477  0.921490  1
  O  O18  1  0.912968  0.413028  0.920017  1
