# generated using pymatgen
data_Sr3CeTi8O20
_symmetry_space_group_name_H-M   'P 1'
_cell_length_a   5.88284700
_cell_length_b   7.73182315
_cell_length_c   8.63941100
_cell_angle_alpha   90.01134530
_cell_angle_beta   90.00000000
_cell_angle_gamma   90.00000000
_symmetry_Int_Tables_number   1
_chemical_formula_structural   Sr3CeTi8O20
_chemical_formula_sum   'Sr3 Ce1 Ti8 O20'
_cell_volume   392.96474749
_cell_formula_units_Z   1
loop_
 _symmetry_equiv_pos_site_id
 _symmetry_equiv_pos_as_xyz
  1  'x, y, z'
loop_
 _atom_site_type_symbol
 _atom_site_label
 _atom_site_symmetry_multiplicity
 _atom_site_fract_x
 _atom_site_fract_y
 _atom_site_fract_z
 _atom_site_occupancy
  Sr  Sr0  1  0.000000  0.363535  0.667368  1
  Sr  Sr1  1  0.000000  0.637733  0.332958  1
  Sr  Sr2  1  0.000000  0.859403  0.831992  1
  Ce  Ce3  1  0.000000  0.140521  0.167325  1
  Ti  Ti4  1  0.500000  0.118896  0.857573  1
  Ti  Ti5  1  0.500000  0.885964  0.142874  1
  Ti  Ti6  1  0.500000  0.615264  0.638610  1
  Ti  Ti7  1  0.500000  0.381449  0.359201  1
  Ti  Ti8  1  0.244192  0.500310  0.999002  1
  Ti  Ti9  1  0.756510  0.001592  0.502474  1
  Ti  Ti10  1  0.755808  0.500310  0.999002  1
  Ti  Ti11  1  0.243490  0.001592  0.502474  1
  O  O12  1  0.260472  0.909854  0.289981  1
  O  O13  1  0.264467  0.100113  0.706269  1
  O  O14  1  0.739649  0.385057  0.205174  1
  O  O15  1  0.733572  0.597882  0.794416  1
  O  O16  1  0.735533  0.100113  0.706269  1
  O  O17  1  0.739528  0.909854  0.289981  1
  O  O18  1  0.266428  0.597882  0.794416  1
  O  O19  1  0.260351  0.385057  0.205174  1
  O  O20  1  0.500000  0.338298  0.923804  1
  O  O21  1  0.500000  0.659867  0.082810  1
  O  O22  1  0.500000  0.837861  0.570365  1
  O  O23  1  0.500000  0.162849  0.430575  1
  O  O24  1  0.287940  0.006903  0.003814  1
  O  O25  1  0.708259  0.500123  0.497918  1
  O  O26  1  0.712060  0.006903  0.003814  1
  O  O27  1  0.291741  0.500123  0.497918  1
  O  O28  1  0.000000  0.159563  0.438831  1
  O  O29  1  0.000000  0.843819  0.551548  1
  O  O30  1  0.000000  0.656343  0.054116  1
  O  O31  1  0.000000  0.334966  0.951955  1
