# generated using pymatgen
data_Y2Ho3Si3Pt
_symmetry_space_group_name_H-M   'P 1'
_cell_length_a   7.32307700
_cell_length_b   7.83868400
_cell_length_c   14.40678900
_cell_angle_alpha   90.00000000
_cell_angle_beta   90.00000000
_cell_angle_gamma   90.00000000
_symmetry_Int_Tables_number   1
_chemical_formula_structural   Y2Ho3Si3Pt
_chemical_formula_sum   'Y8 Ho12 Si12 Pt4'
_cell_volume   826.99703667
_cell_formula_units_Z   4
loop_
 _symmetry_equiv_pos_site_id
 _symmetry_equiv_pos_as_xyz
  1  'x, y, z'
loop_
 _atom_site_type_symbol
 _atom_site_label
 _atom_site_symmetry_multiplicity
 _atom_site_fract_x
 _atom_site_fract_y
 _atom_site_fract_z
 _atom_site_occupancy
  Y  Y0  1  0.988798  0.819434  0.409660  1
  Y  Y1  1  0.488798  0.680566  0.090340  1
  Y  Y2  1  0.511202  0.319434  0.590340  1
  Y  Y3  1  0.011202  0.180566  0.909660  1
  Y  Y4  1  0.011202  0.180566  0.590340  1
  Y  Y5  1  0.511202  0.319434  0.909660  1
  Y  Y6  1  0.488798  0.680566  0.409660  1
  Y  Y7  1  0.988798  0.819434  0.090340  1
  Ho  Ho8  1  0.667540  0.978025  0.250000  1
  Ho  Ho9  1  0.167540  0.521975  0.250000  1
  Ho  Ho10  1  0.832460  0.478025  0.750000  1
  Ho  Ho11  1  0.332460  0.021975  0.750000  1
  Ho  Ho12  1  0.680067  0.824196  0.627110  1
  Ho  Ho13  1  0.180067  0.675804  0.872890  1
  Ho  Ho14  1  0.819933  0.324196  0.372890  1
  Ho  Ho15  1  0.319933  0.175804  0.127110  1
  Ho  Ho16  1  0.319933  0.175804  0.372890  1
  Ho  Ho17  1  0.819933  0.324196  0.127110  1
  Ho  Ho18  1  0.180067  0.675804  0.627110  1
  Ho  Ho19  1  0.680067  0.824196  0.872890  1
  Si  Si20  1  0.779295  0.630248  0.250000  1
  Si  Si21  1  0.279295  0.869752  0.250000  1
  Si  Si22  1  0.720705  0.130248  0.750000  1
  Si  Si23  1  0.220705  0.369752  0.750000  1
  Si  Si24  1  0.848118  0.528367  0.538862  1
  Si  Si25  1  0.348118  0.971633  0.961138  1
  Si  Si26  1  0.651882  0.028367  0.461138  1
  Si  Si27  1  0.151882  0.471633  0.038862  1
  Si  Si28  1  0.151882  0.471633  0.461138  1
  Si  Si29  1  0.651882  0.028367  0.038862  1
  Si  Si30  1  0.348118  0.971633  0.538862  1
  Si  Si31  1  0.848118  0.528367  0.961138  1
  Pt  Pt32  1  0.522939  0.408924  0.250000  1
  Pt  Pt33  1  0.022939  0.091076  0.250000  1
  Pt  Pt34  1  0.977061  0.908924  0.750000  1
  Pt  Pt35  1  0.477061  0.591076  0.750000  1
