# generated using pymatgen
data_Sm2Hf3Ni9As7
_symmetry_space_group_name_H-M   'P 1'
_cell_length_a   9.78830200
_cell_length_b   9.78830010
_cell_length_c   3.88569100
_cell_angle_alpha   90.00000000
_cell_angle_beta   90.00000000
_cell_angle_gamma   120.00000642
_symmetry_Int_Tables_number   1
_chemical_formula_structural   Sm2Hf3Ni9As7
_chemical_formula_sum   'Sm2 Hf3 Ni9 As7'
_cell_volume   322.41371021
_cell_formula_units_Z   1
loop_
 _symmetry_equiv_pos_site_id
 _symmetry_equiv_pos_as_xyz
  1  'x, y, z'
loop_
 _atom_site_type_symbol
 _atom_site_label
 _atom_site_symmetry_multiplicity
 _atom_site_fract_x
 _atom_site_fract_y
 _atom_site_fract_z
 _atom_site_occupancy
  Sm  Sm0  1  0.333333  0.666667  0.000000  1
  Sm  Sm1  1  0.666667  0.333333  0.500000  1
  Hf  Hf2  1  0.228981  0.116020  0.500000  1
  Hf  Hf3  1  0.883980  0.112960  0.500000  1
  Hf  Hf4  1  0.887040  0.771019  0.500000  1
  Ni  Ni5  1  0.130561  0.283426  0.000000  1
  Ni  Ni6  1  0.716574  0.847135  0.000000  1
  Ni  Ni7  1  0.152865  0.869439  0.000000  1
  Ni  Ni8  1  0.421966  0.352332  0.000000  1
  Ni  Ni9  1  0.647668  0.069634  0.000000  1
  Ni  Ni10  1  0.930366  0.578034  0.000000  1
  Ni  Ni11  1  0.062683  0.434258  0.500000  1
  Ni  Ni12  1  0.565742  0.628426  0.500000  1
  Ni  Ni13  1  0.371574  0.937317  0.500000  1
  As  As14  1  0.300608  0.415346  0.500000  1
  As  As15  1  0.584654  0.885261  0.500000  1
  As  As16  1  0.114739  0.699392  0.500000  1
  As  As17  1  0.422157  0.102015  0.000000  1
  As  As18  1  0.897985  0.320142  0.000000  1
  As  As19  1  0.679858  0.577843  0.000000  1
  As  As20  1  0.000000  0.000000  0.000000  1
