# generated using pymatgen
data_Rb3TmGe2O7
_symmetry_space_group_name_H-M   'P 1'
_cell_length_a   6.00722900
_cell_length_b   6.00722882
_cell_length_c   14.84405800
_cell_angle_alpha   90.00000000
_cell_angle_beta   90.00000000
_cell_angle_gamma   119.99999549
_symmetry_Int_Tables_number   1
_chemical_formula_structural   Rb3TmGe2O7
_chemical_formula_sum   'Rb6 Tm2 Ge4 O14'
_cell_volume   463.90778082
_cell_formula_units_Z   2
loop_
 _symmetry_equiv_pos_site_id
 _symmetry_equiv_pos_as_xyz
  1  'x, y, z'
loop_
 _atom_site_type_symbol
 _atom_site_label
 _atom_site_symmetry_multiplicity
 _atom_site_fract_x
 _atom_site_fract_y
 _atom_site_fract_z
 _atom_site_occupancy
  Rb  Rb0  1  0.333333  0.666667  0.408194  1
  Rb  Rb1  1  0.000000  0.000000  0.250000  1
  Rb  Rb2  1  0.666667  0.333333  0.591806  1
  Rb  Rb3  1  0.333333  0.666667  0.091806  1
  Rb  Rb4  1  0.666667  0.333333  0.908194  1
  Rb  Rb5  1  0.000000  0.000000  0.750000  1
  Tm  Tm6  1  0.000000  0.000000  0.500000  1
  Tm  Tm7  1  0.000000  0.000000  0.000000  1
  Ge  Ge8  1  0.333333  0.666667  0.627978  1
  Ge  Ge9  1  0.666667  0.333333  0.372022  1
  Ge  Ge10  1  0.666667  0.333333  0.127978  1
  Ge  Ge11  1  0.333333  0.666667  0.872022  1
  O  O12  1  0.344128  0.172064  0.409233  1
  O  O13  1  0.827936  0.172064  0.090767  1
  O  O14  1  0.172064  0.344128  0.590767  1
  O  O15  1  0.172064  0.827936  0.909233  1
  O  O16  1  0.655872  0.827936  0.909233  1
  O  O17  1  0.655872  0.827936  0.590767  1
  O  O18  1  0.344128  0.172064  0.090767  1
  O  O19  1  0.172064  0.827936  0.590767  1
  O  O20  1  0.827936  0.172064  0.409233  1
  O  O21  1  0.172064  0.344128  0.909233  1
  O  O22  1  0.827936  0.655872  0.090767  1
  O  O23  1  0.827936  0.655872  0.409233  1
  O  O24  1  0.666667  0.333333  0.250000  1
  O  O25  1  0.333333  0.666667  0.750000  1
