# generated using pymatgen
data_Ca4AlGe2Pd27
_symmetry_space_group_name_H-M   'P 1'
_cell_length_a   8.93815971
_cell_length_b   8.93815971
_cell_length_c   7.15480111
_cell_angle_alpha   90.18523136
_cell_angle_beta   90.18523136
_cell_angle_gamma   89.07223836
_symmetry_Int_Tables_number   1
_chemical_formula_structural   Ca4AlGe2Pd27
_chemical_formula_sum   'Ca4 Al1 Ge2 Pd27'
_cell_volume   571.52124906
_cell_formula_units_Z   1
loop_
 _symmetry_equiv_pos_site_id
 _symmetry_equiv_pos_as_xyz
  1  'x, y, z'
loop_
 _atom_site_type_symbol
 _atom_site_label
 _atom_site_symmetry_multiplicity
 _atom_site_fract_x
 _atom_site_fract_y
 _atom_site_fract_z
 _atom_site_occupancy
  Ca  Ca0  1  0.508453  0.008453  0.937332  1
  Ca  Ca1  1  0.991547  0.491547  0.062668  1
  Ca  Ca2  1  0.001172  0.998828  0.500000  1
  Ca  Ca3  1  0.498828  0.501172  0.500000  1
  Al  Al4  1  0.250000  0.750000  0.000000  1
  Ge  Ge5  1  0.501870  0.001870  0.448624  1
  Ge  Ge6  1  0.998130  0.498130  0.551376  1
  Pd  Pd7  1  0.331137  0.831137  0.617533  1
  Pd  Pd8  1  0.328221  0.170740  0.626473  1
  Pd  Pd9  1  0.670740  0.828221  0.626473  1
  Pd  Pd10  1  0.670314  0.170314  0.622311  1
  Pd  Pd11  1  0.168863  0.668863  0.382467  1
  Pd  Pd12  1  0.171779  0.329260  0.373527  1
  Pd  Pd13  1  0.829260  0.671779  0.373527  1
  Pd  Pd14  1  0.829686  0.329686  0.377689  1
  Pd  Pd15  1  0.497071  0.768044  0.249685  1
  Pd  Pd16  1  0.497250  0.235746  0.253308  1
  Pd  Pd17  1  0.268044  0.997071  0.249685  1
  Pd  Pd18  1  0.735746  0.997250  0.253308  1
  Pd  Pd19  1  0.002929  0.731956  0.750315  1
  Pd  Pd20  1  0.002750  0.264254  0.746692  1
  Pd  Pd21  1  0.231956  0.502929  0.750315  1
  Pd  Pd22  1  0.764254  0.502750  0.746692  1
  Pd  Pd23  1  0.498345  0.353887  0.856888  1
  Pd  Pd24  1  0.490356  0.662059  0.865348  1
  Pd  Pd25  1  0.853887  0.998345  0.856888  1
  Pd  Pd26  1  0.162059  0.990356  0.865348  1
  Pd  Pd27  1  0.001655  0.146113  0.143112  1
  Pd  Pd28  1  0.009644  0.837941  0.134652  1
  Pd  Pd29  1  0.646113  0.501655  0.143112  1
  Pd  Pd30  1  0.337941  0.509644  0.134652  1
  Pd  Pd31  1  0.250000  0.250000  0.000000  1
  Pd  Pd32  1  0.750000  0.750000  0.000000  1
  Pd  Pd33  1  0.750000  0.250000  0.000000  1
