# generated using pymatgen
data_Y2Ho8In8PdRh3
_symmetry_space_group_name_H-M   'P 1'
_cell_length_a   3.61947500
_cell_length_b   8.07695700
_cell_length_c   18.27721650
_cell_angle_alpha   90.02856432
_cell_angle_beta   90.00000000
_cell_angle_gamma   90.00000000
_symmetry_Int_Tables_number   1
_chemical_formula_structural   Y2Ho8In8PdRh3
_chemical_formula_sum   'Y2 Ho8 In8 Pd1 Rh3'
_cell_volume   534.32236715
_cell_formula_units_Z   1
loop_
 _symmetry_equiv_pos_site_id
 _symmetry_equiv_pos_as_xyz
  1  'x, y, z'
loop_
 _atom_site_type_symbol
 _atom_site_label
 _atom_site_symmetry_multiplicity
 _atom_site_fract_x
 _atom_site_fract_y
 _atom_site_fract_z
 _atom_site_occupancy
  Y  Y0  1  0.000000  0.500203  0.500650  1
  Y  Y1  1  0.000000  0.000776  0.999925  1
  Ho  Ho2  1  0.000000  0.734185  0.277835  1
  Ho  Ho3  1  0.000000  0.254435  0.722016  1
  Ho  Ho4  1  0.000000  0.754378  0.778001  1
  Ho  Ho5  1  0.000000  0.255027  0.219550  1
  Ho  Ho6  1  0.000000  0.616840  0.086916  1
  Ho  Ho7  1  0.000000  0.384300  0.910553  1
  Ho  Ho8  1  0.000000  0.883325  0.589574  1
  Ho  Ho9  1  0.000000  0.117385  0.415048  1
  In  In10  1  0.500000  0.706918  0.931323  1
  In  In11  1  0.500000  0.294673  0.067668  1
  In  In12  1  0.500000  0.792813  0.432548  1
  In  In13  1  0.500000  0.205911  0.568861  1
  In  In14  1  0.500000  0.570867  0.650319  1
  In  In15  1  0.500000  0.424948  0.350135  1
  In  In16  1  0.500000  0.924968  0.150173  1
  In  In17  1  0.500000  0.070992  0.849954  1
  Pd  Pd18  1  0.500000  0.023143  0.303898  1
  Rh  Rh19  1  0.500000  0.523523  0.194971  1
  Rh  Rh20  1  0.500000  0.480341  0.804669  1
  Rh  Rh21  1  0.500000  0.980050  0.695412  1
