# generated using pymatgen
data_Dy5Co9Mo(P4Ru3)3
_symmetry_space_group_name_H-M   'P 1'
_cell_length_a   12.36528009
_cell_length_b   12.30135739
_cell_length_c   3.76772100
_cell_angle_alpha   90.00000000
_cell_angle_beta   90.00000000
_cell_angle_gamma   119.66987872
_symmetry_Int_Tables_number   1
_chemical_formula_structural   Dy5Co9Mo(P4Ru3)3
_chemical_formula_sum   'Dy5 Co9 Mo1 P12 Ru9'
_cell_volume   497.96802965
_cell_formula_units_Z   1
loop_
 _symmetry_equiv_pos_site_id
 _symmetry_equiv_pos_as_xyz
  1  'x, y, z'
loop_
 _atom_site_type_symbol
 _atom_site_label
 _atom_site_symmetry_multiplicity
 _atom_site_fract_x
 _atom_site_fract_y
 _atom_site_fract_z
 _atom_site_occupancy
  Dy  Dy0  1  0.663188  0.333698  0.000000  1
  Dy  Dy1  1  0.333435  0.666842  0.000000  1
  Dy  Dy2  1  0.183844  0.182609  0.500000  1
  Dy  Dy3  1  0.817733  0.997561  0.500000  1
  Dy  Dy4  1  0.998674  0.818265  0.500000  1
  Co  Co5  1  0.804096  0.630668  0.000000  1
  Co  Co6  1  0.366915  0.169295  0.000000  1
  Co  Co7  1  0.196332  0.828124  0.000000  1
  Co  Co8  1  0.629964  0.801816  0.000000  1
  Co  Co9  1  0.175084  0.369289  0.000000  1
  Co  Co10  1  0.720463  0.720001  0.500000  1
  Co  Co11  1  0.278501  0.998333  0.500000  1
  Co  Co12  1  0.005727  0.284444  0.500000  1
  Co  Co13  1  0.999851  0.999725  0.000000  1
  Mo  Mo14  1  0.561100  0.559625  0.000000  1
  P  P15  1  0.362194  0.362306  0.000000  1
  P  P16  1  0.633726  0.998470  0.000000  1
  P  P17  1  0.002142  0.638613  0.000000  1
  P  P18  1  0.837667  0.315734  0.500000  1
  P  P19  1  0.685607  0.522735  0.500000  1
  P  P20  1  0.472146  0.157996  0.500000  1
  P  P21  1  0.315550  0.840052  0.500000  1
  P  P22  1  0.523201  0.683844  0.500000  1
  P  P23  1  0.160986  0.477592  0.500000  1
  P  P24  1  0.820551  0.820788  0.000000  1
  P  P25  1  0.177863  0.999218  0.000000  1
  P  P26  1  0.005285  0.181284  0.000000  1
  Ru  Ru27  1  0.440283  0.995788  0.000000  1
  Ru  Ru28  1  0.009477  0.450739  0.000000  1
  Ru  Ru29  1  0.827128  0.199164  0.000000  1
  Ru  Ru30  1  0.639856  0.124636  0.500000  1
  Ru  Ru31  1  0.873647  0.518786  0.500000  1
  Ru  Ru32  1  0.478883  0.350165  0.500000  1
  Ru  Ru33  1  0.129768  0.650317  0.500000  1
  Ru  Ru34  1  0.517961  0.870884  0.500000  1
  Ru  Ru35  1  0.351168  0.480592  0.500000  1
