# generated using pymatgen
data_RbNa2As2Au3
_symmetry_space_group_name_H-M   'P 1'
_cell_length_a   7.48305742
_cell_length_b   7.48305742
_cell_length_c   7.48305664
_cell_angle_alpha   47.71553628
_cell_angle_beta   47.71553448
_cell_angle_gamma   47.71553919
_symmetry_Int_Tables_number   1
_chemical_formula_structural   RbNa2As2Au3
_chemical_formula_sum   'Rb1 Na2 As2 Au3'
_cell_volume   209.97318592
_cell_formula_units_Z   1
loop_
 _symmetry_equiv_pos_site_id
 _symmetry_equiv_pos_as_xyz
  1  'x, y, z'
loop_
 _atom_site_type_symbol
 _atom_site_label
 _atom_site_symmetry_multiplicity
 _atom_site_fract_x
 _atom_site_fract_y
 _atom_site_fract_z
 _atom_site_occupancy
  Rb  Rb0  1  0.500000  0.500000  0.500000  1
  Na  Na1  1  0.084580  0.084580  0.084580  1
  Na  Na2  1  0.915420  0.915420  0.915420  1
  As  As3  1  0.760120  0.760120  0.760120  1
  As  As4  1  0.239880  0.239880  0.239880  1
  Au  Au5  1  0.500000  0.500000  0.000000  1
  Au  Au6  1  0.500000  0.000000  0.500000  1
  Au  Au7  1  0.000000  0.500000  0.500000  1
