# generated using pymatgen
data_TbTh7MnS17
_symmetry_space_group_name_H-M   'P 1'
_cell_length_a   8.10975244
_cell_length_b   8.08098704
_cell_length_c   10.64740638
_cell_angle_alpha   80.47965546
_cell_angle_beta   80.48119600
_cell_angle_gamma   64.81984975
_symmetry_Int_Tables_number   1
_chemical_formula_structural   TbTh7MnS17
_chemical_formula_sum   'Tb1 Th7 Mn1 S17'
_cell_volume   619.23395583
_cell_formula_units_Z   1
loop_
 _symmetry_equiv_pos_site_id
 _symmetry_equiv_pos_as_xyz
  1  'x, y, z'
loop_
 _atom_site_type_symbol
 _atom_site_label
 _atom_site_symmetry_multiplicity
 _atom_site_fract_x
 _atom_site_fract_y
 _atom_site_fract_z
 _atom_site_occupancy
  Tb  Tb0  1  0.813697  0.304016  0.296525  1
  Th  Th1  1  0.303588  0.813010  0.293656  1
  Th  Th2  1  0.185470  0.697417  0.704536  1
  Th  Th3  1  0.696751  0.187725  0.702521  1
  Th  Th4  1  0.793682  0.795950  0.452082  1
  Th  Th5  1  0.205420  0.206163  0.543418  1
  Th  Th6  1  0.317335  0.317135  0.026023  1
  Th  Th7  1  0.684191  0.678265  0.978828  1
  Mn  Mn8  1  0.998985  0.002608  0.001311  1
  S  S9  1  0.175301  0.570097  0.467561  1
  S  S10  1  0.571432  0.175884  0.467885  1
  S  S11  1  0.825608  0.429116  0.531029  1
  S  S12  1  0.430460  0.823242  0.532143  1
  S  S13  1  0.945938  0.321042  0.030202  1
  S  S14  1  0.324928  0.944672  0.028710  1
  S  S15  1  0.054225  0.678004  0.971300  1
  S  S16  1  0.675872  0.055651  0.969209  1
  S  S17  1  0.943636  0.949562  0.221710  1
  S  S18  1  0.055011  0.055874  0.779791  1
  S  S19  1  0.792086  0.790981  0.720035  1
  S  S20  1  0.207709  0.206316  0.280476  1
  S  S21  1  0.695441  0.695906  0.243864  1
  S  S22  1  0.303068  0.303561  0.755954  1
  S  S23  1  0.479707  0.480575  0.166776  1
  S  S24  1  0.518643  0.520802  0.831437  1
  S  S25  1  0.001815  0.996427  0.503018  1
