# generated using pymatgen
data_Y6Fe9Co7(P6W)2
_symmetry_space_group_name_H-M   'P 1'
_cell_length_a   3.74066100
_cell_length_b   10.60160111
_cell_length_c   12.19680039
_cell_angle_alpha   90.05357326
_cell_angle_beta   90.00000000
_cell_angle_gamma   90.00000000
_symmetry_Int_Tables_number   1
_chemical_formula_structural   Y6Fe9Co7(P6W)2
_chemical_formula_sum   'Y6 Fe9 Co7 P12 W2'
_cell_volume   483.68825052
_cell_formula_units_Z   1
loop_
 _symmetry_equiv_pos_site_id
 _symmetry_equiv_pos_as_xyz
  1  'x, y, z'
loop_
 _atom_site_type_symbol
 _atom_site_label
 _atom_site_symmetry_multiplicity
 _atom_site_fract_x
 _atom_site_fract_y
 _atom_site_fract_z
 _atom_site_occupancy
  Y  Y0  1  0.000000  0.499834  0.525532  1
  Y  Y1  1  0.500000  0.998939  0.474326  1
  Y  Y2  1  0.500000  0.821875  0.204898  1
  Y  Y3  1  0.500000  0.178842  0.205337  1
  Y  Y4  1  0.000000  0.678241  0.795063  1
  Y  Y5  1  0.000000  0.321052  0.794665  1
  Fe  Fe6  1  0.000000  0.499563  0.987925  1
  Fe  Fe7  1  0.500000  0.000074  0.012104  1
  Fe  Fe8  1  0.500000  0.329707  0.995714  1
  Fe  Fe9  1  0.500000  0.669827  0.995632  1
  Fe  Fe10  1  0.000000  0.170019  0.004028  1
  Fe  Fe11  1  0.000000  0.829927  0.004100  1
  Fe  Fe12  1  0.500000  0.297769  0.430314  1
  Fe  Fe13  1  0.500000  0.703064  0.431009  1
  Fe  Fe14  1  0.000000  0.202803  0.569849  1
  Co  Co15  1  0.500000  0.500027  0.700116  1
  Co  Co16  1  0.000000  0.000418  0.300120  1
  Co  Co17  1  0.000000  0.797697  0.570054  1
  Co  Co18  1  0.500000  0.878418  0.707607  1
  Co  Co19  1  0.500000  0.119229  0.707743  1
  Co  Co20  1  0.000000  0.621031  0.292209  1
  Co  Co21  1  0.000000  0.380483  0.292203  1
  P  P22  1  0.500000  0.499630  0.885979  1
  P  P23  1  0.000000  0.000258  0.114068  1
  P  P24  1  0.500000  0.500041  0.350170  1
  P  P25  1  0.000000  0.002637  0.650056  1
  P  P26  1  0.500000  0.306148  0.613755  1
  P  P27  1  0.500000  0.691870  0.614580  1
  P  P28  1  0.000000  0.194126  0.386243  1
  P  P29  1  0.000000  0.806941  0.384829  1
  P  P30  1  0.500000  0.843718  0.894245  1
  P  P31  1  0.500000  0.155799  0.893672  1
  P  P32  1  0.000000  0.656139  0.105747  1
  P  P33  1  0.000000  0.343995  0.106351  1
  W  W34  1  0.500000  0.499962  0.152205  1
  W  W35  1  0.000000  0.999897  0.847551  1
