# generated using pymatgen
data_TbYTl(P3Pd10)2
_symmetry_space_group_name_H-M   'P 1'
_cell_length_a   8.69222108
_cell_length_b   8.69222035
_cell_length_c   8.69222000
_cell_angle_alpha   59.99999371
_cell_angle_beta   59.99999648
_cell_angle_gamma   60.00000148
_symmetry_Int_Tables_number   1
_chemical_formula_structural   TbYTl(P3Pd10)2
_chemical_formula_sum   'Tb1 Y1 Tl1 P6 Pd20'
_cell_volume   464.38392224
_cell_formula_units_Z   1
loop_
 _symmetry_equiv_pos_site_id
 _symmetry_equiv_pos_as_xyz
  1  'x, y, z'
loop_
 _atom_site_type_symbol
 _atom_site_label
 _atom_site_symmetry_multiplicity
 _atom_site_fract_x
 _atom_site_fract_y
 _atom_site_fract_z
 _atom_site_occupancy
  Tb  Tb0  1  0.250000  0.250000  0.250000  1
  Y  Y1  1  0.000000  0.000000  0.000000  1
  Tl  Tl2  1  0.750000  0.750000  0.750000  1
  P  P3  1  0.735680  0.264320  0.264320  1
  P  P4  1  0.735680  0.735680  0.264320  1
  P  P5  1  0.735680  0.264320  0.735680  1
  P  P6  1  0.264320  0.735680  0.264320  1
  P  P7  1  0.264320  0.735680  0.735680  1
  P  P8  1  0.264320  0.264320  0.735680  1
  Pd  Pd9  1  0.343063  0.001782  0.001782  1
  Pd  Pd10  1  0.001782  0.653372  0.343063  1
  Pd  Pd11  1  0.343063  0.001782  0.653372  1
  Pd  Pd12  1  0.001782  0.653372  0.001782  1
  Pd  Pd13  1  0.653372  0.343063  0.001782  1
  Pd  Pd14  1  0.616279  0.616279  0.151163  1
  Pd  Pd15  1  0.385096  0.844712  0.385096  1
  Pd  Pd16  1  0.151163  0.616279  0.616279  1
  Pd  Pd17  1  0.653372  0.001782  0.343063  1
  Pd  Pd18  1  0.001782  0.343063  0.653372  1
  Pd  Pd19  1  0.653372  0.001782  0.001782  1
  Pd  Pd20  1  0.001782  0.001782  0.343063  1
  Pd  Pd21  1  0.616279  0.151163  0.616279  1
  Pd  Pd22  1  0.343063  0.653372  0.001782  1
  Pd  Pd23  1  0.385096  0.385096  0.385096  1
  Pd  Pd24  1  0.616279  0.616279  0.616279  1
  Pd  Pd25  1  0.385096  0.385096  0.844712  1
  Pd  Pd26  1  0.001782  0.001782  0.653372  1
  Pd  Pd27  1  0.844712  0.385096  0.385096  1
  Pd  Pd28  1  0.001782  0.343063  0.001782  1
