# generated using pymatgen
data_Tm10Ag3Pt
_symmetry_space_group_name_H-M   'P 1'
_cell_length_a   9.34801500
_cell_length_b   9.34801521
_cell_length_c   9.51642300
_cell_angle_alpha   90.00000000
_cell_angle_beta   90.00000000
_cell_angle_gamma   119.99999571
_symmetry_Int_Tables_number   1
_chemical_formula_structural   Tm10Ag3Pt
_chemical_formula_sum   'Tm20 Ag6 Pt2'
_cell_volume   720.18355381
_cell_formula_units_Z   2
loop_
 _symmetry_equiv_pos_site_id
 _symmetry_equiv_pos_as_xyz
  1  'x, y, z'
loop_
 _atom_site_type_symbol
 _atom_site_label
 _atom_site_symmetry_multiplicity
 _atom_site_fract_x
 _atom_site_fract_y
 _atom_site_fract_z
 _atom_site_occupancy
  Tm  Tm0  1  0.000000  0.000000  0.500000  1
  Tm  Tm1  1  0.000000  0.000000  0.000000  1
  Tm  Tm2  1  0.207389  0.792611  0.445811  1
  Tm  Tm3  1  0.207389  0.414777  0.445811  1
  Tm  Tm4  1  0.585223  0.792611  0.445811  1
  Tm  Tm5  1  0.792611  0.207389  0.554189  1
  Tm  Tm6  1  0.792611  0.585223  0.554189  1
  Tm  Tm7  1  0.414777  0.207389  0.554189  1
  Tm  Tm8  1  0.792611  0.207389  0.945811  1
  Tm  Tm9  1  0.792611  0.585223  0.945811  1
  Tm  Tm10  1  0.414777  0.207389  0.945811  1
  Tm  Tm11  1  0.207389  0.792611  0.054189  1
  Tm  Tm12  1  0.207389  0.414777  0.054189  1
  Tm  Tm13  1  0.585223  0.792611  0.054189  1
  Tm  Tm14  1  0.542715  0.457285  0.250000  1
  Tm  Tm15  1  0.542715  0.085430  0.250000  1
  Tm  Tm16  1  0.914570  0.457285  0.250000  1
  Tm  Tm17  1  0.457285  0.542715  0.750000  1
  Tm  Tm18  1  0.457285  0.914570  0.750000  1
  Tm  Tm19  1  0.085430  0.542715  0.750000  1
  Ag  Ag20  1  0.883816  0.116184  0.250000  1
  Ag  Ag21  1  0.883816  0.767634  0.250000  1
  Ag  Ag22  1  0.232366  0.116184  0.250000  1
  Ag  Ag23  1  0.116184  0.883816  0.750000  1
  Ag  Ag24  1  0.116184  0.232366  0.750000  1
  Ag  Ag25  1  0.767634  0.883816  0.750000  1
  Pt  Pt26  1  0.333333  0.666667  0.250000  1
  Pt  Pt27  1  0.666667  0.333333  0.750000  1
