# generated using pymatgen
data_SrTc4Hg9O20
_symmetry_space_group_name_H-M   'P 1'
_cell_length_a   11.85902862
_cell_length_b   6.93035249
_cell_length_c   8.37158638
_cell_angle_alpha   80.14259068
_cell_angle_beta   92.75845394
_cell_angle_gamma   88.55890305
_symmetry_Int_Tables_number   1
_chemical_formula_structural   SrTc4Hg9O20
_chemical_formula_sum   'Sr1 Tc4 Hg9 O20'
_cell_volume   676.70477747
_cell_formula_units_Z   1
loop_
 _symmetry_equiv_pos_site_id
 _symmetry_equiv_pos_as_xyz
  1  'x, y, z'
loop_
 _atom_site_type_symbol
 _atom_site_label
 _atom_site_symmetry_multiplicity
 _atom_site_fract_x
 _atom_site_fract_y
 _atom_site_fract_z
 _atom_site_occupancy
  Sr  Sr0  1  0.500000  0.500000  0.000000  1
  Tc  Tc1  1  0.343894  0.596061  0.517518  1
  Tc  Tc2  1  0.833940  0.389591  0.016830  1
  Tc  Tc3  1  0.656106  0.403939  0.482482  1
  Tc  Tc4  1  0.166060  0.610409  0.983170  1
  Hg  Hg5  1  0.090975  0.967572  0.316891  1
  Hg  Hg6  1  0.718565  0.914971  0.807719  1
  Hg  Hg7  1  0.585079  0.992526  0.186068  1
  Hg  Hg8  1  0.785401  0.872591  0.316108  1
  Hg  Hg9  1  0.281435  0.085029  0.192281  1
  Hg  Hg10  1  0.909025  0.032428  0.683109  1
  Hg  Hg11  1  0.214599  0.127409  0.683892  1
  Hg  Hg12  1  0.414921  0.007474  0.813932  1
  Hg  Hg13  1  0.000000  0.500000  0.500000  1
  O  O14  1  0.161478  0.400725  0.895880  1
  O  O15  1  0.565079  0.842054  0.919265  1
  O  O16  1  0.792599  0.320556  0.454244  1
  O  O17  1  0.334885  0.390166  0.425936  1
  O  O18  1  0.582503  0.464118  0.292812  1
  O  O19  1  0.953013  0.796418  0.436065  1
  O  O20  1  0.665115  0.609834  0.574064  1
  O  O21  1  0.589565  0.218858  0.607162  1
  O  O22  1  0.046987  0.203582  0.563935  1
  O  O23  1  0.896605  0.432898  0.831919  1
  O  O24  1  0.691532  0.331547  0.983622  1
  O  O25  1  0.434921  0.157946  0.080735  1
  O  O26  1  0.410435  0.781142  0.392838  1
  O  O27  1  0.103395  0.567102  0.168081  1
  O  O28  1  0.308468  0.668453  0.016378  1
  O  O29  1  0.417497  0.535882  0.707188  1
  O  O30  1  0.838522  0.599275  0.104120  1
  O  O31  1  0.096640  0.808230  0.856736  1
  O  O32  1  0.207401  0.679444  0.545756  1
  O  O33  1  0.903360  0.191770  0.143264  1
