# generated using pymatgen
data_Nd9Ho(SiHg)4
_symmetry_space_group_name_H-M   'P 1'
_cell_length_a   9.10297241
_cell_length_b   9.10297287
_cell_length_c   7.78477501
_cell_angle_alpha   89.93944154
_cell_angle_beta   89.93943825
_cell_angle_gamma   129.46296438
_symmetry_Int_Tables_number   1
_chemical_formula_structural   Nd9Ho(SiHg)4
_chemical_formula_sum   'Nd9 Ho1 Si4 Hg4'
_cell_volume   498.02199474
_cell_formula_units_Z   1
loop_
 _symmetry_equiv_pos_site_id
 _symmetry_equiv_pos_as_xyz
  1  'x, y, z'
loop_
 _atom_site_type_symbol
 _atom_site_label
 _atom_site_symmetry_multiplicity
 _atom_site_fract_x
 _atom_site_fract_y
 _atom_site_fract_z
 _atom_site_occupancy
  Nd  Nd0  1  0.059679  0.314475  0.321730  1
  Nd  Nd1  1  0.940321  0.685525  0.678270  1
  Nd  Nd2  1  0.441705  0.186790  0.820821  1
  Nd  Nd3  1  0.813210  0.558295  0.179179  1
  Nd  Nd4  1  0.558295  0.813210  0.179179  1
  Nd  Nd5  1  0.186790  0.441705  0.820821  1
  Nd  Nd6  1  0.685525  0.940321  0.678270  1
  Nd  Nd7  1  0.314475  0.059679  0.321730  1
  Nd  Nd8  1  0.000000  0.000000  0.000000  1
  Ho  Ho9  1  0.500000  0.500000  0.500000  1
  Si  Si10  1  0.388179  0.388179  0.119156  1
  Si  Si11  1  0.611821  0.611821  0.880844  1
  Si  Si12  1  0.116615  0.116615  0.614509  1
  Si  Si13  1  0.883385  0.883385  0.385491  1
  Hg  Hg14  1  0.780885  0.219115  0.000000  1
  Hg  Hg15  1  0.219115  0.780885  0.000000  1
  Hg  Hg16  1  0.718689  0.281311  0.500000  1
  Hg  Hg17  1  0.281311  0.718689  0.500000  1
