# generated using pymatgen
data_YTm3Ga18PtRh5
_symmetry_space_group_name_H-M   'P 1'
_cell_length_a   7.58029225
_cell_length_b   7.58029784
_cell_length_c   9.48688703
_cell_angle_alpha   89.98831908
_cell_angle_beta   89.98763299
_cell_angle_gamma   119.83042843
_symmetry_Int_Tables_number   1
_chemical_formula_structural   YTm3Ga18PtRh5
_chemical_formula_sum   'Y1 Tm3 Ga18 Pt1 Rh5'
_cell_volume   472.89649493
_cell_formula_units_Z   1
loop_
 _symmetry_equiv_pos_site_id
 _symmetry_equiv_pos_as_xyz
  1  'x, y, z'
loop_
 _atom_site_type_symbol
 _atom_site_label
 _atom_site_symmetry_multiplicity
 _atom_site_fract_x
 _atom_site_fract_y
 _atom_site_fract_z
 _atom_site_occupancy
  Y  Y0  1  0.995913  0.668154  0.250430  1
  Tm  Tm1  1  0.003350  0.331225  0.749724  1
  Tm  Tm2  1  0.668795  0.996736  0.250270  1
  Tm  Tm3  1  0.331671  0.003946  0.749501  1
  Ga  Ga4  1  0.125680  0.125213  0.250311  1
  Ga  Ga5  1  0.875211  0.874431  0.749685  1
  Ga  Ga6  1  0.003184  0.333834  0.081209  1
  Ga  Ga7  1  0.005032  0.669622  0.918305  1
  Ga  Ga8  1  0.001669  0.665652  0.579803  1
  Ga  Ga9  1  0.334856  0.998844  0.420813  1
  Ga  Ga10  1  0.998888  0.333601  0.420427  1
  Ga  Ga11  1  0.665871  0.001083  0.579823  1
  Ga  Ga12  1  0.665669  0.996815  0.918552  1
  Ga  Ga13  1  0.330953  0.995541  0.081074  1
  Ga  Ga14  1  0.331678  0.331775  0.565600  1
  Ga  Ga15  1  0.667744  0.668318  0.434698  1
  Ga  Ga16  1  0.667261  0.671431  0.067608  1
  Ga  Ga17  1  0.328588  0.332278  0.932100  1
  Ga  Ga18  1  0.339290  0.548336  0.250448  1
  Ga  Ga19  1  0.661322  0.455066  0.746737  1
  Ga  Ga20  1  0.544449  0.338342  0.253281  1
  Ga  Ga21  1  0.451575  0.660980  0.749547  1
  Pt  Pt22  1  0.671787  0.328008  0.999856  1
  Rh  Rh23  1  0.328764  0.671322  0.999831  1
  Rh  Rh24  1  0.328587  0.671506  0.500170  1
  Rh  Rh25  1  0.671975  0.327729  0.500197  1
  Rh  Rh26  1  0.000066  0.000146  0.999794  1
  Rh  Rh27  1  0.000174  0.000067  0.500207  1
