# generated using pymatgen
data_Sc2Ti4Si6Tc5Os
_symmetry_space_group_name_H-M   'P 1'
_cell_length_a   7.59811978
_cell_length_b   7.60251541
_cell_length_c   7.58872027
_cell_angle_alpha   126.42738927
_cell_angle_beta   128.56927243
_cell_angle_gamma   77.42402019
_symmetry_Int_Tables_number   1
_chemical_formula_structural   Sc2Ti4Si6Tc5Os
_chemical_formula_sum   'Sc2 Ti4 Si6 Tc5 Os1'
_cell_volume   267.54477445
_cell_formula_units_Z   1
loop_
 _symmetry_equiv_pos_site_id
 _symmetry_equiv_pos_as_xyz
  1  'x, y, z'
loop_
 _atom_site_type_symbol
 _atom_site_label
 _atom_site_symmetry_multiplicity
 _atom_site_fract_x
 _atom_site_fract_y
 _atom_site_fract_z
 _atom_site_occupancy
  Sc  Sc0  1  0.452118  0.407142  0.456272  1
  Sc  Sc1  1  0.548991  0.002941  0.954701  1
  Ti  Ti2  1  0.050917  0.003228  0.450650  1
  Ti  Ti3  1  0.949485  0.404999  0.954867  1
  Ti  Ti4  1  0.253025  0.603321  0.852628  1
  Ti  Ti5  1  0.745071  0.596870  0.349967  1
  Si  Si6  1  0.252320  0.003922  0.252969  1
  Si  Si7  1  0.747596  0.000989  0.751871  1
  Si  Si8  1  0.150522  0.670360  0.491418  1
  Si  Si9  1  0.849736  0.338858  0.518343  1
  Si  Si10  1  0.679871  0.669151  0.018320  1
  Si  Si11  1  0.318677  0.337344  0.988716  1
  Tc  Tc12  1  0.000788  0.265823  0.265256  1
  Tc  Tc13  1  0.499601  0.265895  0.766407  1
  Tc  Tc14  1  0.363497  0.742490  0.364403  1
  Tc  Tc15  1  0.637301  0.000782  0.378900  1
  Tc  Tc16  1  0.879745  0.743066  0.878900  1
  Os  Os17  1  0.120739  0.000818  0.863415  1
