# generated using pymatgen
data_ZrCo3P2
_symmetry_space_group_name_H-M   'P 1'
_cell_length_a   3.62606800
_cell_length_b   10.29983300
_cell_length_c   11.93997100
_cell_angle_alpha   90.00000000
_cell_angle_beta   90.00000000
_cell_angle_gamma   90.00000000
_symmetry_Int_Tables_number   1
_chemical_formula_structural   ZrCo3P2
_chemical_formula_sum   'Zr6 Co18 P12'
_cell_volume   445.93278138
_cell_formula_units_Z   6
loop_
 _symmetry_equiv_pos_site_id
 _symmetry_equiv_pos_as_xyz
  1  'x, y, z'
loop_
 _atom_site_type_symbol
 _atom_site_label
 _atom_site_symmetry_multiplicity
 _atom_site_fract_x
 _atom_site_fract_y
 _atom_site_fract_z
 _atom_site_occupancy
  Zr  Zr0  1  0.000000  0.500000  0.526317  1
  Zr  Zr1  1  0.500000  0.000000  0.473683  1
  Zr  Zr2  1  0.500000  0.819840  0.207573  1
  Zr  Zr3  1  0.500000  0.180160  0.207573  1
  Zr  Zr4  1  0.000000  0.680160  0.792427  1
  Zr  Zr5  1  0.000000  0.319840  0.792427  1
  Co  Co6  1  0.000000  0.500000  0.986579  1
  Co  Co7  1  0.500000  0.000000  0.013421  1
  Co  Co8  1  0.500000  0.299631  0.432193  1
  Co  Co9  1  0.500000  0.700369  0.432193  1
  Co  Co10  1  0.000000  0.200369  0.567807  1
  Co  Co11  1  0.000000  0.799631  0.567807  1
  Co  Co12  1  0.500000  0.876476  0.707673  1
  Co  Co13  1  0.500000  0.123524  0.707673  1
  Co  Co14  1  0.000000  0.623524  0.292327  1
  Co  Co15  1  0.000000  0.376476  0.292327  1
  Co  Co16  1  0.500000  0.332898  0.994034  1
  Co  Co17  1  0.500000  0.667102  0.994034  1
  Co  Co18  1  0.000000  0.167102  0.005966  1
  Co  Co19  1  0.000000  0.832898  0.005966  1
  Co  Co20  1  0.500000  0.500000  0.163344  1
  Co  Co21  1  0.000000  0.000000  0.836656  1
  Co  Co22  1  0.500000  0.500000  0.702980  1
  Co  Co23  1  0.000000  0.000000  0.297020  1
  P  P24  1  0.500000  0.316425  0.617133  1
  P  P25  1  0.500000  0.683575  0.617133  1
  P  P26  1  0.000000  0.183575  0.382867  1
  P  P27  1  0.000000  0.816425  0.382867  1
  P  P28  1  0.500000  0.500000  0.879354  1
  P  P29  1  0.000000  0.000000  0.120646  1
  P  P30  1  0.500000  0.845244  0.889947  1
  P  P31  1  0.500000  0.154756  0.889947  1
  P  P32  1  0.000000  0.654756  0.110053  1
  P  P33  1  0.000000  0.345244  0.110053  1
  P  P34  1  0.500000  0.500000  0.350599  1
  P  P35  1  0.000000  0.000000  0.649401  1
