# generated using pymatgen
data_CeLu11(TcOs)2
_symmetry_space_group_name_H-M   'P 1'
_cell_length_a   7.31610255
_cell_length_b   8.92094600
_cell_length_c   6.17477420
_cell_angle_alpha   90.00000000
_cell_angle_beta   90.93329535
_cell_angle_gamma   90.00000000
_symmetry_Int_Tables_number   1
_chemical_formula_structural   CeLu11(TcOs)2
_chemical_formula_sum   'Ce1 Lu11 Tc2 Os2'
_cell_volume   402.95278021
_cell_formula_units_Z   1
loop_
 _symmetry_equiv_pos_site_id
 _symmetry_equiv_pos_as_xyz
  1  'x, y, z'
loop_
 _atom_site_type_symbol
 _atom_site_label
 _atom_site_symmetry_multiplicity
 _atom_site_fract_x
 _atom_site_fract_y
 _atom_site_fract_z
 _atom_site_occupancy
  Ce  Ce0  1  0.557278  0.250000  0.863102  1
  Lu  Lu1  1  0.672060  0.059457  0.339074  1
  Lu  Lu2  1  0.177547  0.439365  0.160972  1
  Lu  Lu3  1  0.321914  0.565518  0.665093  1
  Lu  Lu4  1  0.828851  0.933443  0.832855  1
  Lu  Lu5  1  0.321914  0.934482  0.665093  1
  Lu  Lu6  1  0.828851  0.566557  0.832855  1
  Lu  Lu7  1  0.672060  0.440543  0.339074  1
  Lu  Lu8  1  0.177547  0.060635  0.160972  1
  Lu  Lu9  1  0.035623  0.250000  0.618298  1
  Lu  Lu10  1  0.465006  0.750000  0.126562  1
  Lu  Lu11  1  0.958611  0.750000  0.368429  1
  Tc  Tc12  1  0.859454  0.250000  0.021519  1
  Tc  Tc13  1  0.384123  0.250000  0.501111  1
  Os  Os14  1  0.120492  0.750000  0.966683  1
  Os  Os15  1  0.618663  0.750000  0.538308  1
