# generated using pymatgen
data_Pr5Sn3(BRh6)2
_symmetry_space_group_name_H-M   'P 1'
_cell_length_a   5.93624500
_cell_length_b   5.93624391
_cell_length_c   13.74100300
_cell_angle_alpha   90.00000000
_cell_angle_beta   90.00000000
_cell_angle_gamma   120.00000052
_symmetry_Int_Tables_number   1
_chemical_formula_structural   Pr5Sn3(BRh6)2
_chemical_formula_sum   'Pr5 Sn3 B2 Rh12'
_cell_volume   419.34610884
_cell_formula_units_Z   1
loop_
 _symmetry_equiv_pos_site_id
 _symmetry_equiv_pos_as_xyz
  1  'x, y, z'
loop_
 _atom_site_type_symbol
 _atom_site_label
 _atom_site_symmetry_multiplicity
 _atom_site_fract_x
 _atom_site_fract_y
 _atom_site_fract_z
 _atom_site_occupancy
  Pr  Pr0  1  0.000000  0.000000  0.750000  1
  Pr  Pr1  1  0.333333  0.666667  0.400604  1
  Pr  Pr2  1  0.666667  0.333333  0.909611  1
  Pr  Pr3  1  0.666667  0.333333  0.590389  1
  Pr  Pr4  1  0.333333  0.666667  0.099396  1
  Sn  Sn5  1  0.000000  0.000000  0.250000  1
  Sn  Sn6  1  0.333333  0.666667  0.750000  1
  Sn  Sn7  1  0.666667  0.333333  0.250000  1
  B  B8  1  0.000000  0.000000  0.497760  1
  B  B9  1  0.000000  0.000000  0.002240  1
  Rh  Rh10  1  0.337171  0.168586  0.406086  1
  Rh  Rh11  1  0.831414  0.168586  0.406086  1
  Rh  Rh12  1  0.831414  0.662829  0.406086  1
  Rh  Rh13  1  0.172664  0.345326  0.917753  1
  Rh  Rh14  1  0.654674  0.827336  0.582247  1
  Rh  Rh15  1  0.654674  0.827336  0.917753  1
  Rh  Rh16  1  0.337171  0.168586  0.093914  1
  Rh  Rh17  1  0.172664  0.345326  0.582247  1
  Rh  Rh18  1  0.172664  0.827336  0.582247  1
  Rh  Rh19  1  0.831414  0.168586  0.093914  1
  Rh  Rh20  1  0.831414  0.662829  0.093914  1
  Rh  Rh21  1  0.172664  0.827336  0.917753  1
