# generated using pymatgen
data_Cs2In3AgF12
_symmetry_space_group_name_H-M   'P 1'
_cell_length_a   7.94257791
_cell_length_b   8.25455535
_cell_length_c   11.24760000
_cell_angle_alpha   90.17966399
_cell_angle_beta   87.64189493
_cell_angle_gamma   89.30643833
_symmetry_Int_Tables_number   1
_chemical_formula_structural   Cs2In3AgF12
_chemical_formula_sum   'Cs4 In6 Ag2 F24'
_cell_volume   736.73688807
_cell_formula_units_Z   2
loop_
 _symmetry_equiv_pos_site_id
 _symmetry_equiv_pos_as_xyz
  1  'x, y, z'
loop_
 _atom_site_type_symbol
 _atom_site_label
 _atom_site_symmetry_multiplicity
 _atom_site_fract_x
 _atom_site_fract_y
 _atom_site_fract_z
 _atom_site_occupancy
  Cs  Cs0  1  0.523435  0.754943  0.599238  1
  Cs  Cs1  1  0.476565  0.245057  0.400762  1
  Cs  Cs2  1  0.042155  0.264779  0.134613  1
  Cs  Cs3  1  0.957845  0.735221  0.865387  1
  In  In4  1  0.806857  0.750167  0.220064  1
  In  In5  1  0.193143  0.249833  0.779936  1
  In  In6  1  0.000000  0.500000  0.500000  1
  In  In7  1  0.000000  0.000000  0.500000  1
  In  In8  1  0.500000  0.000000  0.000000  1
  In  In9  1  0.500000  0.500000  0.000000  1
  Ag  Ag10  1  0.708208  0.248701  0.743704  1
  Ag  Ag11  1  0.291792  0.751299  0.256296  1
  F  F12  1  0.037693  0.735535  0.131619  1
  F  F13  1  0.962307  0.264465  0.868381  1
  F  F14  1  0.586784  0.760692  0.320279  1
  F  F15  1  0.413216  0.239308  0.679721  1
  F  F16  1  0.763540  0.448884  0.568121  1
  F  F17  1  0.236460  0.551116  0.431879  1
  F  F18  1  0.756262  0.055071  0.552991  1
  F  F19  1  0.243738  0.944929  0.447009  1
  F  F20  1  0.636404  0.966257  0.842704  1
  F  F21  1  0.363596  0.033743  0.157296  1
  F  F22  1  0.633848  0.534950  0.842761  1
  F  F23  1  0.366152  0.465050  0.157239  1
  F  F24  1  0.578076  0.249116  0.999458  1
  F  F25  1  0.421924  0.750884  0.000542  1
  F  F26  1  0.278461  0.431312  0.903626  1
  F  F27  1  0.721539  0.568688  0.096374  1
  F  F28  1  0.275498  0.068644  0.904695  1
  F  F29  1  0.724502  0.931356  0.095305  1
  F  F30  1  0.085771  0.059490  0.674312  1
  F  F31  1  0.914229  0.940510  0.325688  1
  F  F32  1  0.958026  0.750903  0.558875  1
  F  F33  1  0.041974  0.249097  0.441125  1
  F  F34  1  0.106684  0.447098  0.669228  1
  F  F35  1  0.893316  0.552902  0.330772  1
