# generated using pymatgen
data_NdPa3(Co2Sn)2
_symmetry_space_group_name_H-M   'P 1'
_cell_length_a   7.43325200
_cell_length_b   7.43325176
_cell_length_c   3.53652100
_cell_angle_alpha   90.00000000
_cell_angle_beta   90.00000000
_cell_angle_gamma   92.34328751
_symmetry_Int_Tables_number   1
_chemical_formula_structural   NdPa3(Co2Sn)2
_chemical_formula_sum   'Nd1 Pa3 Co4 Sn2'
_cell_volume   195.24082165
_cell_formula_units_Z   1
loop_
 _symmetry_equiv_pos_site_id
 _symmetry_equiv_pos_as_xyz
  1  'x, y, z'
loop_
 _atom_site_type_symbol
 _atom_site_label
 _atom_site_symmetry_multiplicity
 _atom_site_fract_x
 _atom_site_fract_y
 _atom_site_fract_z
 _atom_site_occupancy
  Nd  Nd0  1  0.828765  0.671235  0.500000  1
  Pa  Pa1  1  0.675281  0.169045  0.500000  1
  Pa  Pa2  1  0.330955  0.824719  0.500000  1
  Pa  Pa3  1  0.170428  0.329572  0.500000  1
  Co  Co4  1  0.878132  0.340921  0.000000  1
  Co  Co5  1  0.159079  0.621868  0.000000  1
  Co  Co6  1  0.353579  0.146421  0.000000  1
  Co  Co7  1  0.597383  0.902617  0.000000  1
  Sn  Sn8  1  0.502964  0.496565  0.000000  1
  Sn  Sn9  1  0.003435  0.997036  0.000000  1
