# generated using pymatgen
data_PtPbCl6
_symmetry_space_group_name_H-M   'P 1'
_cell_length_a   6.71777430
_cell_length_b   6.71777530
_cell_length_c   10.39287598
_cell_angle_alpha   90.09146495
_cell_angle_beta   90.09146644
_cell_angle_gamma   72.50447259
_symmetry_Int_Tables_number   1
_chemical_formula_structural   PtPbCl6
_chemical_formula_sum   'Pt2 Pb2 Cl12'
_cell_volume   447.31757801
_cell_formula_units_Z   2
loop_
 _symmetry_equiv_pos_site_id
 _symmetry_equiv_pos_as_xyz
  1  'x, y, z'
loop_
 _atom_site_type_symbol
 _atom_site_label
 _atom_site_symmetry_multiplicity
 _atom_site_fract_x
 _atom_site_fract_y
 _atom_site_fract_z
 _atom_site_occupancy
  Pt  Pt0  1  0.500000  0.000000  0.500000  1
  Pt  Pt1  1  0.000000  0.500000  0.000000  1
  Pb  Pb2  1  0.008375  0.991625  0.750000  1
  Pb  Pb3  1  0.991625  0.008375  0.250000  1
  Cl  Cl4  1  0.396882  0.745356  0.612530  1
  Cl  Cl5  1  0.603118  0.254644  0.387470  1
  Cl  Cl6  1  0.254644  0.603118  0.887470  1
  Cl  Cl7  1  0.745356  0.396882  0.112530  1
  Cl  Cl8  1  0.549676  0.149216  0.696675  1
  Cl  Cl9  1  0.450324  0.850784  0.303325  1
  Cl  Cl10  1  0.850784  0.450324  0.803325  1
  Cl  Cl11  1  0.149216  0.549676  0.196675  1
  Cl  Cl12  1  0.798279  0.853176  0.003194  1
  Cl  Cl13  1  0.201721  0.146824  0.996806  1
  Cl  Cl14  1  0.146824  0.201721  0.496806  1
  Cl  Cl15  1  0.853176  0.798279  0.503194  1
