# generated using pymatgen
data_Tm4Al18ZnRh5
_symmetry_space_group_name_H-M   'P 1'
_cell_length_a   7.55901787
_cell_length_b   7.55901794
_cell_length_c   9.39960953
_cell_angle_alpha   90.01886634
_cell_angle_beta   90.01886474
_cell_angle_gamma   119.56843044
_symmetry_Int_Tables_number   1
_chemical_formula_structural   Tm4Al18ZnRh5
_chemical_formula_sum   'Tm4 Al18 Zn1 Rh5'
_cell_volume   467.13603711
_cell_formula_units_Z   1
loop_
 _symmetry_equiv_pos_site_id
 _symmetry_equiv_pos_as_xyz
  1  'x, y, z'
loop_
 _atom_site_type_symbol
 _atom_site_label
 _atom_site_symmetry_multiplicity
 _atom_site_fract_x
 _atom_site_fract_y
 _atom_site_fract_z
 _atom_site_occupancy
  Tm  Tm0  1  0.995009  0.674216  0.249454  1
  Tm  Tm1  1  0.004991  0.325784  0.750546  1
  Tm  Tm2  1  0.674216  0.995009  0.249454  1
  Tm  Tm3  1  0.325784  0.004991  0.750546  1
  Al  Al4  1  0.132724  0.132724  0.256473  1
  Al  Al5  1  0.867276  0.867276  0.743527  1
  Al  Al6  1  0.000871  0.343573  0.079803  1
  Al  Al7  1  0.999129  0.656427  0.920197  1
  Al  Al8  1  0.001761  0.664761  0.572798  1
  Al  Al9  1  0.335239  0.998239  0.427202  1
  Al  Al10  1  0.998239  0.335239  0.427202  1
  Al  Al11  1  0.664761  0.001761  0.572798  1
  Al  Al12  1  0.656427  0.999129  0.920197  1
  Al  Al13  1  0.343573  0.000871  0.079803  1
  Al  Al14  1  0.332321  0.332321  0.553213  1
  Al  Al15  1  0.667679  0.667679  0.446787  1
  Al  Al16  1  0.659015  0.659015  0.059331  1
  Al  Al17  1  0.340985  0.340985  0.940669  1
  Al  Al18  1  0.337949  0.550933  0.251531  1
  Al  Al19  1  0.662051  0.449067  0.748469  1
  Al  Al20  1  0.550933  0.337949  0.251531  1
  Al  Al21  1  0.449067  0.662051  0.748469  1
  Zn  Zn22  1  0.000000  0.000000  0.000000  1
  Rh  Rh23  1  0.671991  0.328009  0.000000  1
  Rh  Rh24  1  0.328009  0.671991  0.000000  1
  Rh  Rh25  1  0.328235  0.671765  0.500000  1
  Rh  Rh26  1  0.671765  0.328235  0.500000  1
  Rh  Rh27  1  0.000000  0.000000  0.500000  1
