# generated using pymatgen
data_RbTb(CO3)2
_symmetry_space_group_name_H-M   'P 1'
_cell_length_a   6.49060488
_cell_length_b   6.49060457
_cell_length_c   7.22375900
_cell_angle_alpha   75.66127729
_cell_angle_beta   75.66127444
_cell_angle_gamma   94.48563878
_symmetry_Int_Tables_number   1
_chemical_formula_structural   RbTb(CO3)2
_chemical_formula_sum   'Rb2 Tb2 C4 O12'
_cell_volume   282.48324573
_cell_formula_units_Z   2
loop_
 _symmetry_equiv_pos_site_id
 _symmetry_equiv_pos_as_xyz
  1  'x, y, z'
loop_
 _atom_site_type_symbol
 _atom_site_label
 _atom_site_symmetry_multiplicity
 _atom_site_fract_x
 _atom_site_fract_y
 _atom_site_fract_z
 _atom_site_occupancy
  Rb  Rb0  1  0.614701  0.385299  0.750000  1
  Rb  Rb1  1  0.385299  0.614701  0.250000  1
  Tb  Tb2  1  0.096019  0.903981  0.750000  1
  Tb  Tb3  1  0.903981  0.096019  0.250000  1
  C  C4  1  0.649512  0.895143  0.746819  1
  C  C5  1  0.350488  0.104857  0.253181  1
  C  C6  1  0.104857  0.350488  0.753181  1
  C  C7  1  0.895143  0.649512  0.246819  1
  O  O8  1  0.448840  0.893929  0.762885  1
  O  O9  1  0.551160  0.106071  0.237115  1
  O  O10  1  0.106071  0.551160  0.737115  1
  O  O11  1  0.893929  0.448840  0.262885  1
  O  O12  1  0.720628  0.764977  0.876156  1
  O  O13  1  0.279372  0.235023  0.123844  1
  O  O14  1  0.235023  0.279372  0.623844  1
  O  O15  1  0.764977  0.720628  0.376156  1
  O  O16  1  0.797933  0.033038  0.600169  1
  O  O17  1  0.202067  0.966962  0.399831  1
  O  O18  1  0.966962  0.202067  0.899831  1
  O  O19  1  0.033038  0.797933  0.100169  1
