# generated using pymatgen
data_LiYbAlN2
_symmetry_space_group_name_H-M   'P 1'
_cell_length_a   6.83520000
_cell_length_b   5.74229091
_cell_length_c   5.78249689
_cell_angle_alpha   89.91302219
_cell_angle_beta   90.00000000
_cell_angle_gamma   90.00000000
_symmetry_Int_Tables_number   1
_chemical_formula_structural   LiYbAlN2
_chemical_formula_sum   'Li4 Yb4 Al4 N8'
_cell_volume   226.96104609
_cell_formula_units_Z   4
loop_
 _symmetry_equiv_pos_site_id
 _symmetry_equiv_pos_as_xyz
  1  'x, y, z'
loop_
 _atom_site_type_symbol
 _atom_site_label
 _atom_site_symmetry_multiplicity
 _atom_site_fract_x
 _atom_site_fract_y
 _atom_site_fract_z
 _atom_site_occupancy
  Li  Li0  1  0.598484  0.632715  0.908943  1
  Li  Li1  1  0.098484  0.367285  0.591057  1
  Li  Li2  1  0.401516  0.367285  0.091057  1
  Li  Li3  1  0.901516  0.632715  0.408943  1
  Yb  Yb4  1  0.871577  0.972305  0.740411  1
  Yb  Yb5  1  0.371577  0.027695  0.759589  1
  Yb  Yb6  1  0.128423  0.027695  0.259589  1
  Yb  Yb7  1  0.628423  0.972305  0.240411  1
  Al  Al8  1  0.640018  0.379200  0.573766  1
  Al  Al9  1  0.140018  0.620800  0.926234  1
  Al  Al10  1  0.359982  0.620800  0.426234  1
  Al  Al11  1  0.859982  0.379200  0.073766  1
  N  N12  1  0.145529  0.734227  0.606257  1
  N  N13  1  0.645529  0.265773  0.893743  1
  N  N14  1  0.854471  0.265773  0.393743  1
  N  N15  1  0.354471  0.734227  0.106257  1
  N  N16  1  0.608057  0.715408  0.566111  1
  N  N17  1  0.108057  0.284592  0.933889  1
  N  N18  1  0.391943  0.284592  0.433889  1
  N  N19  1  0.891943  0.715408  0.066111  1
