# generated using pymatgen
data_MgZr2TiFe8
_symmetry_space_group_name_H-M   'P 1'
_cell_length_a   8.51372712
_cell_length_b   8.51372794
_cell_length_c   8.51372657
_cell_angle_alpha   33.49482531
_cell_angle_beta   33.49483063
_cell_angle_gamma   33.49484008
_symmetry_Int_Tables_number   1
_chemical_formula_structural   MgZr2TiFe8
_chemical_formula_sum   'Mg1 Zr2 Ti1 Fe8'
_cell_volume   167.38562410
_cell_formula_units_Z   1
loop_
 _symmetry_equiv_pos_site_id
 _symmetry_equiv_pos_as_xyz
  1  'x, y, z'
loop_
 _atom_site_type_symbol
 _atom_site_label
 _atom_site_symmetry_multiplicity
 _atom_site_fract_x
 _atom_site_fract_y
 _atom_site_fract_z
 _atom_site_occupancy
  Mg  Mg0  1  0.374819  0.374819  0.374819  1
  Zr  Zr1  1  0.000559  0.000559  0.000559  1
  Zr  Zr2  1  0.499263  0.499263  0.499263  1
  Ti  Ti3  1  0.875139  0.875139  0.875139  1
  Fe  Fe4  1  0.436214  0.937545  0.436214  1
  Fe  Fe5  1  0.937013  0.440920  0.937013  1
  Fe  Fe6  1  0.436214  0.436214  0.937545  1
  Fe  Fe7  1  0.937013  0.937013  0.440920  1
  Fe  Fe8  1  0.187819  0.187819  0.187819  1
  Fe  Fe9  1  0.687483  0.687483  0.687483  1
  Fe  Fe10  1  0.937545  0.436214  0.436214  1
  Fe  Fe11  1  0.440920  0.937013  0.937013  1
