# generated using pymatgen
data_CdIr2Rh2Pb3O14
_symmetry_space_group_name_H-M   'P 1'
_cell_length_a   7.33820214
_cell_length_b   7.27793257
_cell_length_c   7.33820236
_cell_angle_alpha   59.76535702
_cell_angle_beta   59.92576929
_cell_angle_gamma   59.76535808
_symmetry_Int_Tables_number   1
_chemical_formula_structural   CdIr2Rh2Pb3O14
_chemical_formula_sum   'Cd1 Ir2 Rh2 Pb3 O14'
_cell_volume   275.98182270
_cell_formula_units_Z   1
loop_
 _symmetry_equiv_pos_site_id
 _symmetry_equiv_pos_as_xyz
  1  'x, y, z'
loop_
 _atom_site_type_symbol
 _atom_site_label
 _atom_site_symmetry_multiplicity
 _atom_site_fract_x
 _atom_site_fract_y
 _atom_site_fract_z
 _atom_site_occupancy
  Cd  Cd0  1  0.125000  0.625000  0.125000  1
  Ir  Ir1  1  0.125000  0.625000  0.625000  1
  Ir  Ir2  1  0.625000  0.625000  0.125000  1
  Rh  Rh3  1  0.625000  0.125000  0.625000  1
  Rh  Rh4  1  0.625000  0.625000  0.625000  1
  Pb  Pb5  1  0.625000  0.125000  0.125000  1
  Pb  Pb6  1  0.125000  0.125000  0.625000  1
  Pb  Pb7  1  0.125000  0.125000  0.125000  1
  O  O8  1  0.698413  0.706795  0.294009  1
  O  O9  1  0.293123  0.293990  0.708779  1
  O  O10  1  0.708020  0.290879  0.708020  1
  O  O11  1  0.304875  0.709256  0.304875  1
  O  O12  1  0.294009  0.706795  0.698413  1
  O  O13  1  0.708779  0.293990  0.293123  1
  O  O14  1  0.551587  0.543205  0.955991  1
  O  O15  1  0.956877  0.956010  0.541221  1
  O  O16  1  0.541980  0.959121  0.541980  1
  O  O17  1  0.945125  0.540744  0.945125  1
  O  O18  1  0.955991  0.543205  0.551587  1
  O  O19  1  0.541221  0.956010  0.956877  1
  O  O20  1  0.243104  0.266695  0.243104  1
  O  O21  1  0.006896  0.983305  0.006896  1
