# generated using pymatgen
data_Tb(YTe2)2
_symmetry_space_group_name_H-M   'P 1'
_cell_length_a   4.35379100
_cell_length_b   7.53003341
_cell_length_c   7.50756163
_cell_angle_alpha   71.56673981
_cell_angle_beta   90.00000000
_cell_angle_gamma   90.00000000
_symmetry_Int_Tables_number   1
_chemical_formula_structural   Tb(YTe2)2
_chemical_formula_sum   'Tb1 Y2 Te4'
_cell_volume   233.50108742
_cell_formula_units_Z   1
loop_
 _symmetry_equiv_pos_site_id
 _symmetry_equiv_pos_as_xyz
  1  'x, y, z'
loop_
 _atom_site_type_symbol
 _atom_site_label
 _atom_site_symmetry_multiplicity
 _atom_site_fract_x
 _atom_site_fract_y
 _atom_site_fract_z
 _atom_site_occupancy
  Tb  Tb0  1  0.000000  0.500000  0.500000  1
  Y  Y1  1  0.000000  0.000000  0.000000  1
  Y  Y2  1  0.500000  0.500000  0.000000  1
  Te  Te3  1  0.500000  0.757062  0.256622  1
  Te  Te4  1  0.000000  0.249459  0.250234  1
  Te  Te5  1  0.500000  0.242938  0.743378  1
  Te  Te6  1  0.000000  0.750541  0.749766  1
