# generated using pymatgen
data_DyCo2(B2Os)2
_symmetry_space_group_name_H-M   'P 1'
_cell_length_a   7.18567700
_cell_length_b   7.18567700
_cell_length_c   3.92273100
_cell_angle_alpha   90.00000000
_cell_angle_beta   90.00000000
_cell_angle_gamma   90.00000000
_symmetry_Int_Tables_number   1
_chemical_formula_structural   DyCo2(B2Os)2
_chemical_formula_sum   'Dy2 Co4 B8 Os4'
_cell_volume   202.54611181
_cell_formula_units_Z   2
loop_
 _symmetry_equiv_pos_site_id
 _symmetry_equiv_pos_as_xyz
  1  'x, y, z'
loop_
 _atom_site_type_symbol
 _atom_site_label
 _atom_site_symmetry_multiplicity
 _atom_site_fract_x
 _atom_site_fract_y
 _atom_site_fract_z
 _atom_site_occupancy
  Dy  Dy0  1  0.000000  0.000000  0.095719  1
  Dy  Dy1  1  0.500000  0.500000  0.595719  1
  Co  Co2  1  0.619824  0.120134  0.374288  1
  Co  Co3  1  0.380176  0.879866  0.374288  1
  Co  Co4  1  0.620134  0.880176  0.874288  1
  Co  Co5  1  0.379866  0.119824  0.874288  1
  B  B6  1  0.343723  0.819416  0.879331  1
  B  B7  1  0.656277  0.180584  0.879331  1
  B  B8  1  0.319416  0.156277  0.379331  1
  B  B9  1  0.680584  0.843723  0.379331  1
  B  B10  1  0.175738  0.733768  0.597786  1
  B  B11  1  0.824262  0.266232  0.597786  1
  B  B12  1  0.233768  0.324262  0.097786  1
  B  B13  1  0.766232  0.675738  0.097786  1
  Os  Os14  1  0.839961  0.390694  0.100735  1
  Os  Os15  1  0.160039  0.609306  0.100735  1
  Os  Os16  1  0.890694  0.660039  0.600735  1
  Os  Os17  1  0.109306  0.339961  0.600735  1
