# generated using pymatgen
data_Sc4Ge(B7Ir6)2
_symmetry_space_group_name_H-M   'P 1'
_cell_length_a   3.44030919
_cell_length_b   7.74421538
_cell_length_c   13.39634248
_cell_angle_alpha   89.90993498
_cell_angle_beta   90.02727805
_cell_angle_gamma   90.06441903
_symmetry_Int_Tables_number   1
_chemical_formula_structural   Sc4Ge(B7Ir6)2
_chemical_formula_sum   'Sc4 Ge1 B14 Ir12'
_cell_volume   356.91128523
_cell_formula_units_Z   1
loop_
 _symmetry_equiv_pos_site_id
 _symmetry_equiv_pos_as_xyz
  1  'x, y, z'
loop_
 _atom_site_type_symbol
 _atom_site_label
 _atom_site_symmetry_multiplicity
 _atom_site_fract_x
 _atom_site_fract_y
 _atom_site_fract_z
 _atom_site_occupancy
  Sc  Sc0  1  0.251320  0.498573  0.834473  1
  Sc  Sc1  1  0.251871  0.001192  0.331764  1
  Sc  Sc2  1  0.748129  0.998808  0.668236  1
  Sc  Sc3  1  0.748680  0.501427  0.165527  1
  Ge  Ge4  1  0.500000  0.500000  0.500000  1
  B  B5  1  0.500000  0.000000  0.000000  1
  B  B6  1  0.000000  0.000000  0.000000  1
  B  B7  1  0.753566  0.323508  0.728919  1
  B  B8  1  0.753496  0.826633  0.221938  1
  B  B9  1  0.752122  0.752027  0.802634  1
  B  B10  1  0.753015  0.246205  0.296822  1
  B  B11  1  0.749906  0.427332  0.974955  1
  B  B12  1  0.759595  0.923533  0.474928  1
  B  B13  1  0.246504  0.173367  0.778062  1
  B  B14  1  0.246434  0.676492  0.271081  1
  B  B15  1  0.246985  0.753795  0.703178  1
  B  B16  1  0.247878  0.247973  0.197366  1
  B  B17  1  0.240405  0.076467  0.525072  1
  B  B18  1  0.250094  0.572668  0.025045  1
  Ir  Ir19  1  0.747751  0.591253  0.674605  1
  Ir  Ir20  1  0.749632  0.087871  0.160835  1
  Ir  Ir21  1  0.750639  0.706057  0.962458  1
  Ir  Ir22  1  0.744983  0.199547  0.458397  1
  Ir  Ir23  1  0.748354  0.202310  0.876143  1
  Ir  Ir24  1  0.748555  0.711413  0.366984  1
  Ir  Ir25  1  0.250368  0.912129  0.839165  1
  Ir  Ir26  1  0.252249  0.408747  0.325395  1
  Ir  Ir27  1  0.255017  0.800453  0.541603  1
  Ir  Ir28  1  0.249361  0.293943  0.037542  1
  Ir  Ir29  1  0.251445  0.288587  0.633016  1
  Ir  Ir30  1  0.251646  0.797690  0.123857  1
