# generated using pymatgen
data_TbNd4IrRh2
_symmetry_space_group_name_H-M   'P 1'
_cell_length_a   11.17886800
_cell_length_b   11.17886800
_cell_length_c   6.56613200
_cell_angle_alpha   90.00000000
_cell_angle_beta   90.00000000
_cell_angle_gamma   90.00000000
_symmetry_Int_Tables_number   1
_chemical_formula_structural   TbNd4IrRh2
_chemical_formula_sum   'Tb4 Nd16 Ir4 Rh8'
_cell_volume   820.55040703
_cell_formula_units_Z   4
loop_
 _symmetry_equiv_pos_site_id
 _symmetry_equiv_pos_as_xyz
  1  'x, y, z'
loop_
 _atom_site_type_symbol
 _atom_site_label
 _atom_site_symmetry_multiplicity
 _atom_site_fract_x
 _atom_site_fract_y
 _atom_site_fract_z
 _atom_site_occupancy
  Tb  Tb0  1  0.000000  0.000000  0.500000  1
  Tb  Tb1  1  0.000000  0.000000  0.000000  1
  Tb  Tb2  1  0.500000  0.500000  0.000000  1
  Tb  Tb3  1  0.500000  0.500000  0.500000  1
  Nd  Nd4  1  0.290457  0.089805  0.381928  1
  Nd  Nd5  1  0.290457  0.910195  0.881928  1
  Nd  Nd6  1  0.709543  0.089805  0.881928  1
  Nd  Nd7  1  0.709543  0.910195  0.381928  1
  Nd  Nd8  1  0.587478  0.788310  0.883502  1
  Nd  Nd9  1  0.587478  0.211690  0.383502  1
  Nd  Nd10  1  0.412522  0.788310  0.383502  1
  Nd  Nd11  1  0.412522  0.211690  0.883502  1
  Nd  Nd12  1  0.211690  0.412522  0.616498  1
  Nd  Nd13  1  0.211690  0.587478  0.116498  1
  Nd  Nd14  1  0.788310  0.412522  0.116498  1
  Nd  Nd15  1  0.788310  0.587478  0.616498  1
  Nd  Nd16  1  0.910195  0.709543  0.118072  1
  Nd  Nd17  1  0.910195  0.290457  0.618072  1
  Nd  Nd18  1  0.089805  0.709543  0.618072  1
  Nd  Nd19  1  0.089805  0.290457  0.118072  1
  Ir  Ir20  1  0.650909  0.349091  0.750000  1
  Ir  Ir21  1  0.650909  0.650909  0.250000  1
  Ir  Ir22  1  0.349091  0.349091  0.250000  1
  Ir  Ir23  1  0.349091  0.650909  0.750000  1
  Rh  Rh24  1  0.851248  0.148752  0.250000  1
  Rh  Rh25  1  0.851248  0.851248  0.750000  1
  Rh  Rh26  1  0.148752  0.148752  0.750000  1
  Rh  Rh27  1  0.148752  0.851248  0.250000  1
  Rh  Rh28  1  0.500000  0.000000  0.119710  1
  Rh  Rh29  1  0.500000  0.000000  0.619710  1
  Rh  Rh30  1  0.000000  0.500000  0.880290  1
  Rh  Rh31  1  0.000000  0.500000  0.380290  1
