# generated using pymatgen
data_Tm(LuCu6)2
_symmetry_space_group_name_H-M   'P 1'
_cell_length_a   4.97476554
_cell_length_b   4.97476673
_cell_length_c   10.50060200
_cell_angle_alpha   94.92370591
_cell_angle_beta   94.92370710
_cell_angle_gamma   119.93453762
_symmetry_Int_Tables_number   1
_chemical_formula_structural   Tm(LuCu6)2
_chemical_formula_sum   'Tm1 Lu2 Cu12'
_cell_volume   221.86793555
_cell_formula_units_Z   1
loop_
 _symmetry_equiv_pos_site_id
 _symmetry_equiv_pos_as_xyz
  1  'x, y, z'
loop_
 _atom_site_type_symbol
 _atom_site_label
 _atom_site_symmetry_multiplicity
 _atom_site_fract_x
 _atom_site_fract_y
 _atom_site_fract_z
 _atom_site_occupancy
  Tm  Tm0  1  0.000000  0.000000  0.000000  1
  Lu  Lu1  1  0.134292  0.134292  0.357594  1
  Lu  Lu2  1  0.865708  0.865708  0.642406  1
  Cu  Cu3  1  0.662662  0.337339  0.000000  1
  Cu  Cu4  1  0.337339  0.662662  0.000000  1
  Cu  Cu5  1  0.570185  0.069183  0.197295  1
  Cu  Cu6  1  0.069183  0.570185  0.197295  1
  Cu  Cu7  1  0.571014  0.571014  0.203183  1
  Cu  Cu8  1  0.809552  0.475498  0.407069  1
  Cu  Cu9  1  0.475498  0.809552  0.407069  1
  Cu  Cu10  1  0.524504  0.190449  0.592931  1
  Cu  Cu11  1  0.190449  0.524504  0.592931  1
  Cu  Cu12  1  0.428985  0.428985  0.796817  1
  Cu  Cu13  1  0.930816  0.429814  0.802706  1
  Cu  Cu14  1  0.429814  0.930816  0.802706  1
