# generated using pymatgen
data_Tm2Sc3(Cd2Pt)2
_symmetry_space_group_name_H-M   'P 1'
_cell_length_a   3.51129600
_cell_length_b   7.78994000
_cell_length_c   17.71335300
_cell_angle_alpha   90.00000000
_cell_angle_beta   90.00000000
_cell_angle_gamma   90.00000000
_symmetry_Int_Tables_number   1
_chemical_formula_structural   Tm2Sc3(Cd2Pt)2
_chemical_formula_sum   'Tm4 Sc6 Cd8 Pt4'
_cell_volume   484.50953911
_cell_formula_units_Z   2
loop_
 _symmetry_equiv_pos_site_id
 _symmetry_equiv_pos_as_xyz
  1  'x, y, z'
loop_
 _atom_site_type_symbol
 _atom_site_label
 _atom_site_symmetry_multiplicity
 _atom_site_fract_x
 _atom_site_fract_y
 _atom_site_fract_z
 _atom_site_occupancy
  Tm  Tm0  1  0.000000  0.244248  0.217992  1
  Tm  Tm1  1  0.000000  0.755752  0.782008  1
  Tm  Tm2  1  0.000000  0.255752  0.717992  1
  Tm  Tm3  1  0.000000  0.744248  0.282008  1
  Sc  Sc4  1  0.000000  0.114968  0.417675  1
  Sc  Sc5  1  0.000000  0.885032  0.582325  1
  Sc  Sc6  1  0.000000  0.385032  0.917675  1
  Sc  Sc7  1  0.000000  0.614968  0.082325  1
  Sc  Sc8  1  0.000000  0.000000  0.000000  1
  Sc  Sc9  1  0.000000  0.500000  0.500000  1
  Cd  Cd10  1  0.500000  0.423862  0.357504  1
  Cd  Cd11  1  0.500000  0.576138  0.642496  1
  Cd  Cd12  1  0.500000  0.076138  0.857504  1
  Cd  Cd13  1  0.500000  0.923862  0.142496  1
  Cd  Cd14  1  0.500000  0.287697  0.060358  1
  Cd  Cd15  1  0.500000  0.712303  0.939642  1
  Cd  Cd16  1  0.500000  0.212303  0.560358  1
  Cd  Cd17  1  0.500000  0.787697  0.439642  1
  Pt  Pt18  1  0.500000  0.032987  0.308365  1
  Pt  Pt19  1  0.500000  0.967013  0.691635  1
  Pt  Pt20  1  0.500000  0.467013  0.808365  1
  Pt  Pt21  1  0.500000  0.532987  0.191635  1
