# generated using pymatgen
data_Nd4B16Mo3W
_symmetry_space_group_name_H-M   'P 1'
_cell_length_a   6.12440210
_cell_length_b   11.84502992
_cell_length_c   3.70619900
_cell_angle_alpha   90.00000000
_cell_angle_beta   90.00000000
_cell_angle_gamma   90.01237943
_symmetry_Int_Tables_number   1
_chemical_formula_structural   Nd4B16Mo3W
_chemical_formula_sum   'Nd4 B16 Mo3 W1'
_cell_volume   268.86147892
_cell_formula_units_Z   1
loop_
 _symmetry_equiv_pos_site_id
 _symmetry_equiv_pos_as_xyz
  1  'x, y, z'
loop_
 _atom_site_type_symbol
 _atom_site_label
 _atom_site_symmetry_multiplicity
 _atom_site_fract_x
 _atom_site_fract_y
 _atom_site_fract_z
 _atom_site_occupancy
  Nd  Nd0  1  0.625582  0.349926  0.000000  1
  Nd  Nd1  1  0.374400  0.650355  0.000000  1
  Nd  Nd2  1  0.125724  0.150285  0.000000  1
  Nd  Nd3  1  0.874574  0.849508  0.000000  1
  B  B4  1  0.783203  0.184951  0.500000  1
  B  B5  1  0.217462  0.815426  0.500000  1
  B  B6  1  0.282398  0.315592  0.500000  1
  B  B7  1  0.717433  0.684561  0.500000  1
  B  B8  1  0.863274  0.032032  0.500000  1
  B  B9  1  0.137192  0.967493  0.500000  1
  B  B10  1  0.363039  0.467808  0.500000  1
  B  B11  1  0.636812  0.532292  0.500000  1
  B  B12  1  0.888153  0.453767  0.500000  1
  B  B13  1  0.111941  0.546298  0.500000  1
  B  B14  1  0.387930  0.046024  0.500000  1
  B  B15  1  0.611650  0.953569  0.500000  1
  B  B16  1  0.976542  0.309016  0.500000  1
  B  B17  1  0.023650  0.691129  0.500000  1
  B  B18  1  0.475921  0.191126  0.500000  1
  B  B19  1  0.523342  0.808931  0.500000  1
  Mo  Mo20  1  0.371705  0.916932  0.000000  1
  Mo  Mo21  1  0.127723  0.417381  0.000000  1
  Mo  Mo22  1  0.872250  0.582593  0.000000  1
  W  W23  1  0.628100  0.083006  0.000000  1
