# generated using pymatgen
data_Tb7Mg(Sn11Ir3)2
_symmetry_space_group_name_H-M   'P 1'
_cell_length_a   9.90180500
_cell_length_b   9.88254449
_cell_length_c   10.13612671
_cell_angle_alpha   89.94229822
_cell_angle_beta   90.00000000
_cell_angle_gamma   120.06450153
_symmetry_Int_Tables_number   1
_chemical_formula_structural   Tb7Mg(Sn11Ir3)2
_chemical_formula_sum   'Tb7 Mg1 Sn22 Ir6'
_cell_volume   858.42602331
_cell_formula_units_Z   1
loop_
 _symmetry_equiv_pos_site_id
 _symmetry_equiv_pos_as_xyz
  1  'x, y, z'
loop_
 _atom_site_type_symbol
 _atom_site_label
 _atom_site_symmetry_multiplicity
 _atom_site_fract_x
 _atom_site_fract_y
 _atom_site_fract_z
 _atom_site_occupancy
  Tb  Tb0  1  0.994013  0.000000  0.000000  1
  Tb  Tb1  1  0.481549  0.519757  0.307280  1
  Tb  Tb2  1  0.518950  0.480158  0.694331  1
  Tb  Tb3  1  0.481999  0.964388  0.307679  1
  Tb  Tb4  1  0.517610  0.035612  0.692321  1
  Tb  Tb5  1  0.038793  0.519842  0.305669  1
  Tb  Tb6  1  0.961792  0.480243  0.692720  1
  Mg  Mg7  1  0.343576  0.000000  0.000000  1
  Sn  Sn8  1  0.638761  0.000000  0.000000  1
  Sn  Sn9  1  0.998853  0.352888  0.999155  1
  Sn  Sn10  1  0.007222  0.654718  0.000699  1
  Sn  Sn11  1  0.645965  0.647112  0.000845  1
  Sn  Sn12  1  0.352504  0.345282  0.999301  1
  Sn  Sn13  1  0.333563  0.669099  0.826484  1
  Sn  Sn14  1  0.664465  0.330901  0.173516  1
  Sn  Sn15  1  0.002211  0.000000  0.500000  1
  Sn  Sn16  1  0.779264  0.220659  0.457856  1
  Sn  Sn17  1  0.220719  0.778733  0.539137  1
  Sn  Sn18  1  0.779440  0.558025  0.457341  1
  Sn  Sn19  1  0.221416  0.441975  0.542659  1
  Sn  Sn20  1  0.441986  0.221267  0.460863  1
  Sn  Sn21  1  0.558605  0.779341  0.542144  1
  Sn  Sn22  1  0.336667  0.670778  0.120293  1
  Sn  Sn23  1  0.665889  0.329222  0.879707  1
  Sn  Sn24  1  0.122251  0.883674  0.275301  1
  Sn  Sn25  1  0.883243  0.117465  0.716686  1
  Sn  Sn26  1  0.117607  0.235022  0.283310  1
  Sn  Sn27  1  0.882586  0.764978  0.716690  1
  Sn  Sn28  1  0.765777  0.882535  0.283314  1
  Sn  Sn29  1  0.238578  0.116326  0.724699  1
  Ir  Ir30  1  0.831896  0.169770  0.199439  1
  Ir  Ir31  1  0.167671  0.826376  0.795643  1
  Ir  Ir32  1  0.831314  0.661470  0.198445  1
  Ir  Ir33  1  0.169845  0.338530  0.801555  1
  Ir  Ir34  1  0.341295  0.173624  0.204357  1
  Ir  Ir35  1  0.662127  0.830230  0.800561  1
