# generated using pymatgen
data_YHo15Cd4(CoRu)2
_symmetry_space_group_name_H-M   'P 1'
_cell_length_a   9.60866135
_cell_length_b   9.54397619
_cell_length_c   9.54352900
_cell_angle_alpha   59.37706807
_cell_angle_beta   59.49872616
_cell_angle_gamma   59.46661278
_symmetry_Int_Tables_number   1
_chemical_formula_structural   YHo15Cd4(CoRu)2
_chemical_formula_sum   'Y1 Ho15 Cd4 Co2 Ru2'
_cell_volume   611.07071087
_cell_formula_units_Z   1
loop_
 _symmetry_equiv_pos_site_id
 _symmetry_equiv_pos_as_xyz
  1  'x, y, z'
loop_
 _atom_site_type_symbol
 _atom_site_label
 _atom_site_symmetry_multiplicity
 _atom_site_fract_x
 _atom_site_fract_y
 _atom_site_fract_z
 _atom_site_occupancy
  Y  Y0  1  0.937600  0.938076  0.560289  1
  Ho  Ho1  1  0.810492  0.188784  0.188063  1
  Ho  Ho2  1  0.937303  0.562420  0.563439  1
  Ho  Ho3  1  0.938549  0.557941  0.939881  1
  Ho  Ho4  1  0.814811  0.807534  0.186035  1
  Ho  Ho5  1  0.341550  0.348943  0.348343  1
  Ho  Ho6  1  0.558301  0.941104  0.941763  1
  Ho  Ho7  1  0.563940  0.938699  0.558440  1
  Ho  Ho8  1  0.189453  0.810232  0.810149  1
  Ho  Ho9  1  0.188822  0.187482  0.806965  1
  Ho  Ho10  1  0.344213  0.352878  0.960301  1
  Ho  Ho11  1  0.344050  0.960704  0.352526  1
  Ho  Ho12  1  0.814776  0.186547  0.807743  1
  Ho  Ho13  1  0.565047  0.558845  0.938362  1
  Ho  Ho14  1  0.188990  0.807177  0.187065  1
  Ho  Ho15  1  0.962871  0.349501  0.349345  1
  Cd  Cd16  1  0.580884  0.579946  0.256993  1
  Cd  Cd17  1  0.257570  0.579832  0.580237  1
  Cd  Cd18  1  0.581279  0.579985  0.579942  1
  Cd  Cd19  1  0.580403  0.257408  0.580088  1
  Co  Co20  1  0.140027  0.579998  0.143120  1
  Co  Co21  1  0.140173  0.143629  0.579956  1
  Ru  Ru22  1  0.579385  0.141558  0.141785  1
  Ru  Ru23  1  0.139510  0.140781  0.139176  1
