# generated using pymatgen
data_Ag3Bi(Rh2O7)2
_symmetry_space_group_name_H-M   'P 1'
_cell_length_a   7.24862467
_cell_length_b   7.24862468
_cell_length_c   7.24862441
_cell_angle_alpha   59.22620637
_cell_angle_beta   59.22620773
_cell_angle_gamma   59.22620554
_symmetry_Int_Tables_number   1
_chemical_formula_structural   Ag3Bi(Rh2O7)2
_chemical_formula_sum   'Ag3 Bi1 Rh4 O14'
_cell_volume   264.56244932
_cell_formula_units_Z   1
loop_
 _symmetry_equiv_pos_site_id
 _symmetry_equiv_pos_as_xyz
  1  'x, y, z'
loop_
 _atom_site_type_symbol
 _atom_site_label
 _atom_site_symmetry_multiplicity
 _atom_site_fract_x
 _atom_site_fract_y
 _atom_site_fract_z
 _atom_site_occupancy
  Ag  Ag0  1  0.125000  0.625000  0.125000  1
  Ag  Ag1  1  0.625000  0.125000  0.125000  1
  Ag  Ag2  1  0.125000  0.125000  0.625000  1
  Bi  Bi3  1  0.125000  0.125000  0.125000  1
  Rh  Rh4  1  0.625000  0.625000  0.625000  1
  Rh  Rh5  1  0.625000  0.625000  0.125000  1
  Rh  Rh6  1  0.125000  0.625000  0.625000  1
  Rh  Rh7  1  0.625000  0.125000  0.625000  1
  O  O8  1  0.254903  0.254903  0.254903  1
  O  O9  1  0.294266  0.713974  0.294266  1
  O  O10  1  0.955734  0.955734  0.536026  1
  O  O11  1  0.550277  0.951913  0.550277  1
  O  O12  1  0.699723  0.699723  0.298087  1
  O  O13  1  0.951913  0.550277  0.550277  1
  O  O14  1  0.699723  0.298087  0.699723  1
  O  O15  1  0.294266  0.294266  0.713974  1
  O  O16  1  0.713974  0.294266  0.294266  1
  O  O17  1  0.298087  0.699723  0.699723  1
  O  O18  1  0.955734  0.536026  0.955734  1
  O  O19  1  0.550277  0.550277  0.951913  1
  O  O20  1  0.995097  0.995097  0.995097  1
  O  O21  1  0.536026  0.955734  0.955734  1
