# generated using pymatgen
data_Ca3Yb5(TlCd)4
_symmetry_space_group_name_H-M   'P 1'
_cell_length_a   7.75987500
_cell_length_b   7.72051081
_cell_length_c   7.46082800
_cell_angle_alpha   89.99986642
_cell_angle_beta   90.00014767
_cell_angle_gamma   89.93607341
_symmetry_Int_Tables_number   1
_chemical_formula_structural   Ca3Yb5(TlCd)4
_chemical_formula_sum   'Ca3 Yb5 Tl4 Cd4'
_cell_volume   446.97941038
_cell_formula_units_Z   1
loop_
 _symmetry_equiv_pos_site_id
 _symmetry_equiv_pos_as_xyz
  1  'x, y, z'
loop_
 _atom_site_type_symbol
 _atom_site_label
 _atom_site_symmetry_multiplicity
 _atom_site_fract_x
 _atom_site_fract_y
 _atom_site_fract_z
 _atom_site_occupancy
  Ca  Ca0  1  0.000066  0.500007  0.748790  1
  Ca  Ca1  1  0.500063  0.000009  0.751181  1
  Ca  Ca2  1  0.500071  0.499987  0.751188  1
  Yb  Yb3  1  0.499939  0.999996  0.248900  1
  Yb  Yb4  1  0.499934  0.500012  0.248911  1
  Yb  Yb5  1  0.999944  0.000000  0.251163  1
  Yb  Yb6  1  0.999941  0.499996  0.251073  1
  Yb  Yb7  1  0.000050  0.000003  0.748870  1
  Tl  Tl8  1  0.247348  0.249025  0.002295  1
  Tl  Tl9  1  0.749189  0.750903  0.497693  1
  Tl  Tl10  1  0.250797  0.249070  0.497793  1
  Tl  Tl11  1  0.752668  0.750972  0.002198  1
  Cd  Cd12  1  0.753091  0.248892  0.002781  1
  Cd  Cd13  1  0.246900  0.751115  0.002770  1
  Cd  Cd14  1  0.749026  0.248928  0.497180  1
  Cd  Cd15  1  0.250969  0.751080  0.497213  1
