# generated using pymatgen
data_Y7Er(Si3Pt)4
_symmetry_space_group_name_H-M   'P 1'
_cell_length_a   8.14766000
_cell_length_b   8.13667041
_cell_length_c   8.19841500
_cell_angle_alpha   90.00000000
_cell_angle_beta   90.00000000
_cell_angle_gamma   120.04468837
_symmetry_Int_Tables_number   1
_chemical_formula_structural   Y7Er(Si3Pt)4
_chemical_formula_sum   'Y7 Er1 Si12 Pt4'
_cell_volume   470.48351291
_cell_formula_units_Z   1
loop_
 _symmetry_equiv_pos_site_id
 _symmetry_equiv_pos_as_xyz
  1  'x, y, z'
loop_
 _atom_site_type_symbol
 _atom_site_label
 _atom_site_symmetry_multiplicity
 _atom_site_fract_x
 _atom_site_fract_y
 _atom_site_fract_z
 _atom_site_occupancy
  Y  Y0  1  0.999999  0.999998  0.250000  1
  Y  Y1  1  0.999999  0.999997  0.750000  1
  Y  Y2  1  0.499423  0.500557  0.250000  1
  Y  Y3  1  0.499439  0.998878  0.250000  1
  Y  Y4  1  0.001134  0.500557  0.250000  1
  Y  Y5  1  0.500566  0.499375  0.750000  1
  Y  Y6  1  0.998809  0.499375  0.750000  1
  Er  Er7  1  0.500611  0.001223  0.750000  1
  Si  Si8  1  0.834658  0.165556  0.499946  1
  Si  Si9  1  0.834147  0.668296  0.499018  1
  Si  Si10  1  0.330896  0.165556  0.499946  1
  Si  Si11  1  0.834658  0.165556  0.000054  1
  Si  Si12  1  0.834147  0.668296  0.000982  1
  Si  Si13  1  0.330896  0.165556  0.000054  1
  Si  Si14  1  0.165322  0.834432  0.998505  1
  Si  Si15  1  0.669112  0.834432  0.998505  1
  Si  Si16  1  0.165880  0.331759  0.999440  1
  Si  Si17  1  0.165322  0.834432  0.501495  1
  Si  Si18  1  0.669112  0.834432  0.501495  1
  Si  Si19  1  0.165880  0.331759  0.500560  1
  Pt  Pt20  1  0.665963  0.331926  0.501900  1
  Pt  Pt21  1  0.665963  0.331926  0.998100  1
  Pt  Pt22  1  0.334032  0.668065  0.997876  1
  Pt  Pt23  1  0.334032  0.668065  0.502124  1
