# generated using pymatgen
data_Tm8In3Ag
_symmetry_space_group_name_H-M   'P 1'
_cell_length_a   10.52438500
_cell_length_b   10.52491010
_cell_length_c   6.77415400
_cell_angle_alpha   90.00029749
_cell_angle_beta   89.99966207
_cell_angle_gamma   120.00068071
_symmetry_Int_Tables_number   1
_chemical_formula_structural   Tm8In3Ag
_chemical_formula_sum   'Tm16 In6 Ag2'
_cell_volume   649.82713146
_cell_formula_units_Z   2
loop_
 _symmetry_equiv_pos_site_id
 _symmetry_equiv_pos_as_xyz
  1  'x, y, z'
loop_
 _atom_site_type_symbol
 _atom_site_label
 _atom_site_symmetry_multiplicity
 _atom_site_fract_x
 _atom_site_fract_y
 _atom_site_fract_z
 _atom_site_occupancy
  Tm  Tm0  1  0.520982  0.041982  0.520361  1
  Tm  Tm1  1  0.958003  0.479003  0.520349  1
  Tm  Tm2  1  0.520979  0.479011  0.520357  1
  Tm  Tm3  1  0.479257  0.958497  0.020481  1
  Tm  Tm4  1  0.041520  0.520758  0.020471  1
  Tm  Tm5  1  0.479260  0.520749  0.020479  1
  Tm  Tm6  1  0.172067  0.344102  0.734494  1
  Tm  Tm7  1  0.655888  0.827939  0.734491  1
  Tm  Tm8  1  0.172071  0.827955  0.734501  1
  Tm  Tm9  1  0.827780  0.655591  0.232667  1
  Tm  Tm10  1  0.344420  0.172215  0.232667  1
  Tm  Tm11  1  0.827778  0.172199  0.232678  1
  Tm  Tm12  1  0.666670  0.333332  0.871248  1
  Tm  Tm13  1  0.333332  0.666669  0.371495  1
  Tm  Tm14  1  0.000003  0.000001  0.496696  1
  Tm  Tm15  1  0.999998  0.000000  0.996861  1
  In  In16  1  0.835518  0.671049  0.751886  1
  In  In17  1  0.328946  0.164470  0.751879  1
  In  In18  1  0.835520  0.164462  0.751865  1
  In  In19  1  0.164365  0.328729  0.253109  1
  In  In20  1  0.671278  0.835643  0.253102  1
  In  In21  1  0.164362  0.835646  0.253089  1
  Ag  Ag22  1  0.333312  0.666661  0.791572  1
  Ag  Ag23  1  0.666689  0.333340  0.291205  1
