# generated using pymatgen
data_Tm2CdNi7B2
_symmetry_space_group_name_H-M   'P 1'
_cell_length_a   5.00435301
_cell_length_b   4.98919254
_cell_length_c   14.22465000
_cell_angle_alpha   90.00000000
_cell_angle_beta   90.00000000
_cell_angle_gamma   120.09376030
_symmetry_Int_Tables_number   1
_chemical_formula_structural   Tm2CdNi7B2
_chemical_formula_sum   'Tm4 Cd2 Ni14 B4'
_cell_volume   307.28356253
_cell_formula_units_Z   2
loop_
 _symmetry_equiv_pos_site_id
 _symmetry_equiv_pos_as_xyz
  1  'x, y, z'
loop_
 _atom_site_type_symbol
 _atom_site_label
 _atom_site_symmetry_multiplicity
 _atom_site_fract_x
 _atom_site_fract_y
 _atom_site_fract_z
 _atom_site_occupancy
  Tm  Tm0  1  0.667105  0.334182  0.470348  1
  Tm  Tm1  1  0.332895  0.665818  0.970348  1
  Tm  Tm2  1  0.333346  0.666712  0.743779  1
  Tm  Tm3  1  0.666654  0.333288  0.243779  1
  Cd  Cd4  1  0.332954  0.666007  0.532646  1
  Cd  Cd5  1  0.667046  0.333993  0.032646  1
  Ni  Ni6  1  0.999928  0.999871  0.000520  1
  Ni  Ni7  1  0.000072  0.000129  0.500520  1
  Ni  Ni8  1  0.165854  0.331650  0.148101  1
  Ni  Ni9  1  0.834146  0.668350  0.648101  1
  Ni  Ni10  1  0.668568  0.834284  0.148093  1
  Ni  Ni11  1  0.165762  0.834290  0.148086  1
  Ni  Ni12  1  0.834238  0.165710  0.648086  1
  Ni  Ni13  1  0.331432  0.165716  0.648093  1
  Ni  Ni14  1  0.833575  0.667287  0.851968  1
  Ni  Ni15  1  0.833714  0.166078  0.851871  1
  Ni  Ni16  1  0.332314  0.166107  0.851876  1
  Ni  Ni17  1  0.667686  0.833893  0.351876  1
  Ni  Ni18  1  0.166286  0.833922  0.351871  1
  Ni  Ni19  1  0.166425  0.332713  0.351968  1
  B  B20  1  0.333573  0.667037  0.250235  1
  B  B21  1  0.666427  0.332963  0.750235  1
  B  B22  1  0.999958  0.999852  0.252478  1
  B  B23  1  0.000042  0.000148  0.752478  1
