# generated using pymatgen
data_Tb8Ti10NbSi16Ir
_symmetry_space_group_name_H-M   'P 1'
_cell_length_a   7.05378945
_cell_length_b   7.05016998
_cell_length_c   12.91947264
_cell_angle_alpha   90.20163567
_cell_angle_beta   89.84932546
_cell_angle_gamma   89.78435717
_symmetry_Int_Tables_number   1
_chemical_formula_structural   Tb8Ti10NbSi16Ir
_chemical_formula_sum   'Tb8 Ti10 Nb1 Si16 Ir1'
_cell_volume   642.47995770
_cell_formula_units_Z   1
loop_
 _symmetry_equiv_pos_site_id
 _symmetry_equiv_pos_as_xyz
  1  'x, y, z'
loop_
 _atom_site_type_symbol
 _atom_site_label
 _atom_site_symmetry_multiplicity
 _atom_site_fract_x
 _atom_site_fract_y
 _atom_site_fract_z
 _atom_site_occupancy
  Tb  Tb0  1  0.340467  0.003897  0.467343  1
  Tb  Tb1  1  0.496610  0.841461  0.718163  1
  Tb  Tb2  1  0.500858  0.158171  0.215123  1
  Tb  Tb3  1  0.841928  0.497107  0.281766  1
  Tb  Tb4  1  0.158639  0.501141  0.784931  1
  Tb  Tb5  1  0.658143  0.998086  0.968371  1
  Tb  Tb6  1  0.004285  0.339839  0.532892  1
  Tb  Tb7  1  0.997985  0.658197  0.031385  1
  Ti  Ti8  1  0.826689  0.175389  0.751938  1
  Ti  Ti9  1  0.673391  0.673817  0.500158  1
  Ti  Ti10  1  0.150199  0.003466  0.876353  1
  Ti  Ti11  1  0.492206  0.658151  0.125669  1
  Ti  Ti12  1  0.507424  0.348518  0.628315  1
  Ti  Ti13  1  0.657616  0.493146  0.874795  1
  Ti  Ti14  1  0.347768  0.508453  0.371072  1
  Ti  Ti15  1  0.848510  0.992692  0.374512  1
  Ti  Ti16  1  0.003287  0.148583  0.124103  1
  Ti  Ti17  1  0.993429  0.847989  0.624965  1
  Nb  Nb18  1  0.175395  0.826908  0.247955  1
  Si  Si19  1  0.201591  0.131316  0.686308  1
  Si  Si20  1  0.373412  0.700323  0.934365  1
  Si  Si21  1  0.630251  0.296766  0.435165  1
  Si  Si22  1  0.700042  0.373246  0.065084  1
  Si  Si23  1  0.296690  0.629724  0.565236  1
  Si  Si24  1  0.796484  0.869330  0.184408  1
  Si  Si25  1  0.131482  0.202545  0.314247  1
  Si  Si26  1  0.869245  0.797320  0.815366  1
  Si  Si27  1  0.287225  0.952988  0.061874  1
  Si  Si28  1  0.548181  0.791572  0.316007  1
  Si  Si29  1  0.449463  0.210142  0.818681  1
  Si  Si30  1  0.791452  0.547366  0.684442  1
  Si  Si31  1  0.210097  0.448344  0.181394  1
  Si  Si32  1  0.709080  0.048182  0.565982  1
  Si  Si33  1  0.951000  0.285979  0.935997  1
  Si  Si34  1  0.047510  0.708166  0.435276  1
  Ir  Ir35  1  0.331965  0.331676  0.000354  1
