# generated using pymatgen
data_Yb5Eu7(HoSn2)8
_symmetry_space_group_name_H-M   'P 1'
_cell_length_a   7.97786228
_cell_length_b   8.46255743
_cell_length_c   16.10994700
_cell_angle_alpha   90.16249232
_cell_angle_beta   89.89547535
_cell_angle_gamma   89.94892870
_symmetry_Int_Tables_number   1
_chemical_formula_structural   Yb5Eu7(HoSn2)8
_chemical_formula_sum   'Yb5 Eu7 Ho8 Sn16'
_cell_volume   1087.62612708
_cell_formula_units_Z   1
loop_
 _symmetry_equiv_pos_site_id
 _symmetry_equiv_pos_as_xyz
  1  'x, y, z'
loop_
 _atom_site_type_symbol
 _atom_site_label
 _atom_site_symmetry_multiplicity
 _atom_site_fract_x
 _atom_site_fract_y
 _atom_site_fract_z
 _atom_site_occupancy
  Yb  Yb0  1  0.004206  0.814349  0.594410  1
  Yb  Yb1  1  0.833007  0.510193  0.749708  1
  Yb  Yb2  1  0.333819  0.988680  0.748778  1
  Yb  Yb3  1  0.167039  0.490105  0.250491  1
  Yb  Yb4  1  0.667144  0.011183  0.250470  1
  Eu  Eu5  1  0.503827  0.680603  0.594190  1
  Eu  Eu6  1  0.004502  0.820167  0.905199  1
  Eu  Eu7  1  0.496012  0.320050  0.094862  1
  Eu  Eu8  1  0.995576  0.181356  0.407166  1
  Eu  Eu9  1  0.494179  0.319461  0.406568  1
  Eu  Eu10  1  0.995949  0.180241  0.094659  1
  Eu  Eu11  1  0.504574  0.680151  0.904356  1
  Ho  Ho12  1  0.671067  0.167950  0.621879  1
  Ho  Ho13  1  0.170518  0.331041  0.876887  1
  Ho  Ho14  1  0.329811  0.831510  0.122446  1
  Ho  Ho15  1  0.829856  0.669581  0.378671  1
  Ho  Ho16  1  0.328742  0.832116  0.378357  1
  Ho  Ho17  1  0.829541  0.668571  0.122661  1
  Ho  Ho18  1  0.671104  0.167977  0.876450  1
  Ho  Ho19  1  0.170807  0.332245  0.621947  1
  Sn  Sn20  1  0.666469  0.962429  0.460577  1
  Sn  Sn21  1  0.167135  0.538466  0.039454  1
  Sn  Sn22  1  0.333591  0.038437  0.959659  1
  Sn  Sn23  1  0.832539  0.463457  0.540651  1
  Sn  Sn24  1  0.329615  0.035614  0.541290  1
  Sn  Sn25  1  0.832511  0.461334  0.959988  1
  Sn  Sn26  1  0.667700  0.961484  0.039343  1
  Sn  Sn27  1  0.166792  0.539685  0.460552  1
  Sn  Sn28  1  0.467865  0.373106  0.749326  1
  Sn  Sn29  1  0.968390  0.126760  0.748905  1
  Sn  Sn30  1  0.532781  0.627778  0.250767  1
  Sn  Sn31  1  0.032416  0.872777  0.250641  1
  Sn  Sn32  1  0.715244  0.877048  0.748028  1
  Sn  Sn33  1  0.211108  0.622880  0.749138  1
  Sn  Sn34  1  0.287421  0.122784  0.250616  1
  Sn  Sn35  1  0.787142  0.378431  0.250911  1
