# generated using pymatgen
data_Pa2CoSb4
_symmetry_space_group_name_H-M   'P 1'
_cell_length_a   4.36468400
_cell_length_b   4.36468400
_cell_length_c   8.94088900
_cell_angle_alpha   90.00000000
_cell_angle_beta   90.00000000
_cell_angle_gamma   90.00000000
_symmetry_Int_Tables_number   1
_chemical_formula_structural   Pa2CoSb4
_chemical_formula_sum   'Pa2 Co1 Sb4'
_cell_volume   170.32810566
_cell_formula_units_Z   1
loop_
 _symmetry_equiv_pos_site_id
 _symmetry_equiv_pos_as_xyz
  1  'x, y, z'
loop_
 _atom_site_type_symbol
 _atom_site_label
 _atom_site_symmetry_multiplicity
 _atom_site_fract_x
 _atom_site_fract_y
 _atom_site_fract_z
 _atom_site_occupancy
  Pa  Pa0  1  0.500000  0.000000  0.218630  1
  Pa  Pa1  1  0.000000  0.500000  0.781370  1
  Co  Co2  1  0.500000  0.500000  0.000000  1
  Sb  Sb3  1  0.500000  0.000000  0.853125  1
  Sb  Sb4  1  0.000000  0.500000  0.146875  1
  Sb  Sb5  1  0.500000  0.500000  0.500000  1
  Sb  Sb6  1  0.000000  0.000000  0.500000  1
