# generated using pymatgen
data_Tb4Ho2P13Rh20
_symmetry_space_group_name_H-M   'P 1'
_cell_length_a   13.34274501
_cell_length_b   13.34110140
_cell_length_c   3.92452100
_cell_angle_alpha   89.99881672
_cell_angle_beta   90.00095841
_cell_angle_gamma   119.99876535
_symmetry_Int_Tables_number   1
_chemical_formula_structural   Tb4Ho2P13Rh20
_chemical_formula_sum   'Tb4 Ho2 P13 Rh20'
_cell_volume   605.00583529
_cell_formula_units_Z   1
loop_
 _symmetry_equiv_pos_site_id
 _symmetry_equiv_pos_as_xyz
  1  'x, y, z'
loop_
 _atom_site_type_symbol
 _atom_site_label
 _atom_site_symmetry_multiplicity
 _atom_site_fract_x
 _atom_site_fract_y
 _atom_site_fract_z
 _atom_site_occupancy
  Tb  Tb0  1  0.529447  0.717476  0.248450  1
  Tb  Tb1  1  0.282498  0.811938  0.248443  1
  Tb  Tb2  1  0.188035  0.470549  0.248426  1
  Tb  Tb3  1  0.470798  0.282569  0.751566  1
  Ho  Ho4  1  0.717460  0.188132  0.751519  1
  Ho  Ho5  1  0.811909  0.529340  0.751510  1
  P  P6  1  0.526443  0.139274  0.250266  1
  P  P7  1  0.860604  0.386918  0.250279  1
  P  P8  1  0.613424  0.474007  0.250270  1
  P  P9  1  0.944895  0.714431  0.254478  1
  P  P10  1  0.285121  0.230306  0.254438  1
  P  P11  1  0.769525  0.055092  0.254443  1
  P  P12  1  0.386954  0.525908  0.749734  1
  P  P13  1  0.474125  0.860994  0.749739  1
  P  P14  1  0.138977  0.613075  0.749747  1
  P  P15  1  0.714903  0.769800  0.745497  1
  P  P16  1  0.230325  0.945206  0.745536  1
  P  P17  1  0.054788  0.285084  0.745479  1
  P  P18  1  0.999957  0.999979  0.999935  1
  Rh  Rh19  1  0.333320  0.666664  0.751846  1
  Rh  Rh20  1  0.920775  0.250140  0.253910  1
  Rh  Rh21  1  0.749977  0.670790  0.253921  1
  Rh  Rh22  1  0.328916  0.078506  0.253876  1
  Rh  Rh23  1  0.438828  0.022724  0.751423  1
  Rh  Rh24  1  0.977079  0.415879  0.751417  1
  Rh  Rh25  1  0.584253  0.561433  0.751397  1
  Rh  Rh26  1  0.667169  0.333453  0.248141  1
  Rh  Rh27  1  0.094274  0.186996  0.247463  1
  Rh  Rh28  1  0.812965  0.907417  0.247471  1
  Rh  Rh29  1  0.092532  0.905545  0.247426  1
  Rh  Rh30  1  0.022093  0.583918  0.248559  1
  Rh  Rh31  1  0.415955  0.438562  0.248586  1
  Rh  Rh32  1  0.561882  0.977889  0.248553  1
  Rh  Rh33  1  0.671246  0.921729  0.746167  1
  Rh  Rh34  1  0.078303  0.749516  0.746134  1
  Rh  Rh35  1  0.250350  0.328791  0.746163  1
  Rh  Rh36  1  0.905730  0.813070  0.752616  1
  Rh  Rh37  1  0.186874  0.092653  0.752529  1
  Rh  Rh38  1  0.907289  0.094244  0.752647  1
