# generated using pymatgen
data_SmYNb2(SnPt)4
_symmetry_space_group_name_H-M   'P 1'
_cell_length_a   6.48863123
_cell_length_b   4.56335300
_cell_length_c   9.15446033
_cell_angle_alpha   90.00000000
_cell_angle_beta   90.03065326
_cell_angle_gamma   90.00000000
_symmetry_Int_Tables_number   1
_chemical_formula_structural   SmYNb2(SnPt)4
_chemical_formula_sum   'Sm1 Y1 Nb2 Sn4 Pt4'
_cell_volume   271.06275154
_cell_formula_units_Z   1
loop_
 _symmetry_equiv_pos_site_id
 _symmetry_equiv_pos_as_xyz
  1  'x, y, z'
loop_
 _atom_site_type_symbol
 _atom_site_label
 _atom_site_symmetry_multiplicity
 _atom_site_fract_x
 _atom_site_fract_y
 _atom_site_fract_z
 _atom_site_occupancy
  Sm  Sm0  1  0.003282  0.000000  0.375815  1
  Y  Y1  1  0.503817  0.499999  0.624070  1
  Nb  Nb2  1  0.497370  0.499999  0.123093  1
  Nb  Nb3  1  0.997051  0.000000  0.876897  1
  Sn  Sn4  1  0.985294  0.499999  0.122230  1
  Sn  Sn5  1  0.510404  0.000000  0.371525  1
  Sn  Sn6  1  0.010206  0.499999  0.630197  1
  Sn  Sn7  1  0.484658  0.000000  0.876046  1
  Pt  Pt8  1  0.734929  0.000000  0.110127  1
  Pt  Pt9  1  0.270665  0.499999  0.355841  1
  Pt  Pt10  1  0.766119  0.000000  0.645508  1
  Pt  Pt11  1  0.236199  0.499999  0.888643  1
