# generated using pymatgen
data_CsTb2Tm8(C2I9)2
_symmetry_space_group_name_H-M   'P 1'
_cell_length_a   11.52533309
_cell_length_b   11.48487676
_cell_length_c   11.44496770
_cell_angle_alpha   113.15471553
_cell_angle_beta   86.37983449
_cell_angle_gamma   120.34952599
_symmetry_Int_Tables_number   1
_chemical_formula_structural   CsTb2Tm8(C2I9)2
_chemical_formula_sum   'Cs1 Tb2 Tm8 C4 I18'
_cell_volume   1184.35033814
_cell_formula_units_Z   1
loop_
 _symmetry_equiv_pos_site_id
 _symmetry_equiv_pos_as_xyz
  1  'x, y, z'
loop_
 _atom_site_type_symbol
 _atom_site_label
 _atom_site_symmetry_multiplicity
 _atom_site_fract_x
 _atom_site_fract_y
 _atom_site_fract_z
 _atom_site_occupancy
  Cs  Cs0  1  0.499793  0.999628  0.500024  1
  Tb  Tb1  1  0.722804  0.646294  0.986129  1
  Tb  Tb2  1  0.895341  0.055539  0.999783  1
  Tm  Tm3  1  0.687282  0.729673  0.717787  1
  Tm  Tm4  1  0.275194  0.349059  0.014891  1
  Tm  Tm5  1  0.092806  0.381122  0.285413  1
  Tm  Tm6  1  0.964435  0.037073  0.322117  1
  Tm  Tm7  1  0.907752  0.617492  0.712966  1
  Tm  Tm8  1  0.099824  0.946133  0.000814  1
  Tm  Tm9  1  0.036395  0.962924  0.678370  1
  Tm  Tm10  1  0.312312  0.269437  0.283147  1
  C  C11  1  0.151194  0.216930  0.117812  1
  C  C12  1  0.849720  0.781171  0.881486  1
  C  C13  1  0.926921  0.858750  0.804692  1
  C  C14  1  0.073978  0.139620  0.194990  1
  I  I15  1  0.452694  0.532406  0.831577  1
  I  I16  1  0.377644  0.042344  0.156025  1
  I  I17  1  0.783804  0.856556  0.504562  1
  I  I18  1  0.843365  0.313256  0.156180  1
  I  I19  1  0.543546  0.466354  0.168363  1
  I  I20  1  0.217607  0.144426  0.496659  1
  I  I21  1  0.314480  0.098577  0.828811  1
  I  I22  1  0.684909  0.903576  0.175290  1
  I  I23  1  0.974676  0.759431  0.171456  1
  I  I24  1  0.937699  0.296572  0.497216  1
  I  I25  1  0.032431  0.244670  0.828575  1
  I  I26  1  0.065440  0.705950  0.503387  1
  I  I27  1  0.258990  0.614537  0.180266  1
  I  I28  1  0.743369  0.380260  0.814435  1
  I  I29  1  0.648402  0.444469  0.508023  1
  I  I30  1  0.157670  0.695426  0.848585  1
  I  I31  1  0.616968  0.954825  0.838963  1
  I  I32  1  0.350555  0.555520  0.491206  1
