# generated using pymatgen
data_Ho8Zn3Si12Ni
_symmetry_space_group_name_H-M   'P 1'
_cell_length_a   8.05223800
_cell_length_b   8.05223829
_cell_length_c   8.01252200
_cell_angle_alpha   90.00000000
_cell_angle_beta   90.00000000
_cell_angle_gamma   119.99999881
_symmetry_Int_Tables_number   1
_chemical_formula_structural   Ho8Zn3Si12Ni
_chemical_formula_sum   'Ho8 Zn3 Si12 Ni1'
_cell_volume   449.91771485
_cell_formula_units_Z   1
loop_
 _symmetry_equiv_pos_site_id
 _symmetry_equiv_pos_as_xyz
  1  'x, y, z'
loop_
 _atom_site_type_symbol
 _atom_site_label
 _atom_site_symmetry_multiplicity
 _atom_site_fract_x
 _atom_site_fract_y
 _atom_site_fract_z
 _atom_site_occupancy
  Ho  Ho0  1  0.499570  0.999138  0.251070  1
  Ho  Ho1  1  0.497524  0.995048  0.748891  1
  Ho  Ho2  1  0.000862  0.500430  0.251070  1
  Ho  Ho3  1  0.004952  0.502476  0.748891  1
  Ho  Ho4  1  0.499570  0.500430  0.251070  1
  Ho  Ho5  1  0.497524  0.502476  0.748891  1
  Ho  Ho6  1  0.000000  0.000000  0.250991  1
  Ho  Ho7  1  0.000000  0.000000  0.749282  1
  Zn  Zn8  1  0.333333  0.666667  0.006529  1
  Zn  Zn9  1  0.666667  0.333333  0.993741  1
  Zn  Zn10  1  0.666667  0.333333  0.502357  1
  Si  Si11  1  0.166554  0.333106  0.998467  1
  Si  Si12  1  0.833022  0.666045  0.001529  1
  Si  Si13  1  0.666894  0.833446  0.998467  1
  Si  Si14  1  0.836251  0.672503  0.501467  1
  Si  Si15  1  0.333955  0.166978  0.001529  1
  Si  Si16  1  0.174159  0.348317  0.498246  1
  Si  Si17  1  0.166554  0.833446  0.998467  1
  Si  Si18  1  0.327497  0.163749  0.501467  1
  Si  Si19  1  0.833022  0.166978  0.001529  1
  Si  Si20  1  0.651683  0.825841  0.498246  1
  Si  Si21  1  0.836251  0.163749  0.501467  1
  Si  Si22  1  0.174159  0.825841  0.498246  1
  Ni  Ni23  1  0.333333  0.666667  0.498095  1
