# generated using pymatgen
data_La2Sn4PdAu3
_symmetry_space_group_name_H-M   'P 1'
_cell_length_a   4.70476800
_cell_length_b   4.70476800
_cell_length_c   11.10857800
_cell_angle_alpha   90.00000000
_cell_angle_beta   90.00000000
_cell_angle_gamma   90.00000000
_symmetry_Int_Tables_number   1
_chemical_formula_structural   La2Sn4PdAu3
_chemical_formula_sum   'La2 Sn4 Pd1 Au3'
_cell_volume   245.88661814
_cell_formula_units_Z   1
loop_
 _symmetry_equiv_pos_site_id
 _symmetry_equiv_pos_as_xyz
  1  'x, y, z'
loop_
 _atom_site_type_symbol
 _atom_site_label
 _atom_site_symmetry_multiplicity
 _atom_site_fract_x
 _atom_site_fract_y
 _atom_site_fract_z
 _atom_site_occupancy
  La  La0  1  0.000000  0.500000  0.235913  1
  La  La1  1  0.500000  0.000000  0.755604  1
  Sn  Sn2  1  0.000000  0.000000  0.492431  1
  Sn  Sn3  1  0.500000  0.500000  0.492431  1
  Sn  Sn4  1  0.000000  0.500000  0.871381  1
  Sn  Sn5  1  0.500000  0.000000  0.138998  1
  Pd  Pd6  1  0.500000  0.000000  0.373657  1
  Au  Au7  1  0.000000  0.000000  0.002847  1
  Au  Au8  1  0.500000  0.500000  0.002847  1
  Au  Au9  1  0.000000  0.500000  0.633893  1
