# generated using pymatgen
data_YbTaCd3Sb3O14
_symmetry_space_group_name_H-M   'P 1'
_cell_length_a   7.32776333
_cell_length_b   7.45015381
_cell_length_c   7.32776300
_cell_angle_alpha   60.54195627
_cell_angle_beta   59.99999696
_cell_angle_gamma   60.54195726
_symmetry_Int_Tables_number   1
_chemical_formula_structural   YbTaCd3Sb3O14
_chemical_formula_sum   'Yb1 Ta1 Cd3 Sb3 O14'
_cell_volume   285.16913979
_cell_formula_units_Z   1
loop_
 _symmetry_equiv_pos_site_id
 _symmetry_equiv_pos_as_xyz
  1  'x, y, z'
loop_
 _atom_site_type_symbol
 _atom_site_label
 _atom_site_symmetry_multiplicity
 _atom_site_fract_x
 _atom_site_fract_y
 _atom_site_fract_z
 _atom_site_occupancy
  Yb  Yb0  1  0.125000  0.625000  0.125000  1
  Ta  Ta1  1  0.625000  0.125000  0.625000  1
  Cd  Cd2  1  0.625000  0.125000  0.125000  1
  Cd  Cd3  1  0.125000  0.125000  0.625000  1
  Cd  Cd4  1  0.125000  0.125000  0.125000  1
  Sb  Sb5  1  0.125000  0.625000  0.625000  1
  Sb  Sb6  1  0.625000  0.625000  0.125000  1
  Sb  Sb7  1  0.625000  0.625000  0.625000  1
  O  O8  1  0.708634  0.693549  0.298908  1
  O  O9  1  0.305423  0.309557  0.692510  1
  O  O10  1  0.692510  0.309557  0.692510  1
  O  O11  1  0.298908  0.693549  0.298908  1
  O  O12  1  0.298908  0.693549  0.708634  1
  O  O13  1  0.692510  0.309557  0.305423  1
  O  O14  1  0.541366  0.556451  0.951092  1
  O  O15  1  0.944577  0.940443  0.557490  1
  O  O16  1  0.557490  0.940443  0.557490  1
  O  O17  1  0.951092  0.556451  0.951092  1
  O  O18  1  0.951092  0.556451  0.541366  1
  O  O19  1  0.557490  0.940443  0.944577  1
  O  O20  1  0.254079  0.237763  0.254079  1
  O  O21  1  0.995921  0.012237  0.995921  1
