# generated using pymatgen
data_Yb4Tm3B24Os4W
_symmetry_space_group_name_H-M   'P 1'
_cell_length_a   3.57882900
_cell_length_b   9.04678349
_cell_length_c   11.43232662
_cell_angle_alpha   90.03772417
_cell_angle_beta   90.00000000
_cell_angle_gamma   90.00000000
_symmetry_Int_Tables_number   1
_chemical_formula_structural   Yb4Tm3B24Os4W
_chemical_formula_sum   'Yb4 Tm3 B24 Os4 W1'
_cell_volume   370.14311388
_cell_formula_units_Z   1
loop_
 _symmetry_equiv_pos_site_id
 _symmetry_equiv_pos_as_xyz
  1  'x, y, z'
loop_
 _atom_site_type_symbol
 _atom_site_label
 _atom_site_symmetry_multiplicity
 _atom_site_fract_x
 _atom_site_fract_y
 _atom_site_fract_z
 _atom_site_occupancy
  Yb  Yb0  1  0.000000  0.322102  0.415103  1
  Yb  Yb1  1  0.000000  0.677688  0.585666  1
  Yb  Yb2  1  0.000000  0.823963  0.085859  1
  Yb  Yb3  1  0.000000  0.176050  0.912893  1
  Tm  Tm4  1  0.000000  0.054974  0.624899  1
  Tm  Tm5  1  0.000000  0.442303  0.132066  1
  Tm  Tm6  1  0.000000  0.556425  0.869897  1
  B  B7  1  0.500000  0.557057  0.434566  1
  B  B8  1  0.500000  0.447422  0.566155  1
  B  B9  1  0.500000  0.052019  0.067627  1
  B  B10  1  0.500000  0.946143  0.932570  1
  B  B11  1  0.500000  0.755637  0.417562  1
  B  B12  1  0.500000  0.251161  0.581168  1
  B  B13  1  0.500000  0.246995  0.084774  1
  B  B14  1  0.500000  0.751259  0.917413  1
  B  B15  1  0.500000  0.795865  0.263466  1
  B  B16  1  0.500000  0.207615  0.734676  1
  B  B17  1  0.500000  0.290824  0.238482  1
  B  B18  1  0.500000  0.707879  0.763852  1
  B  B19  1  0.500000  0.633992  0.184343  1
  B  B20  1  0.500000  0.367879  0.814333  1
  B  B21  1  0.500000  0.125387  0.318062  1
  B  B22  1  0.500000  0.869181  0.684616  1
  B  B23  1  0.500000  0.978822  0.213046  1
  B  B24  1  0.500000  0.018005  0.787237  1
  B  B25  1  0.500000  0.485999  0.289715  1
  B  B26  1  0.500000  0.516668  0.711382  1
  B  B27  1  0.500000  0.599702  0.027924  1
  B  B28  1  0.500000  0.399719  0.974466  1
  B  B29  1  0.500000  0.094967  0.466838  1
  B  B30  1  0.500000  0.899290  0.519718  1
  Os  Os31  1  0.000000  0.648108  0.322476  1
  Os  Os32  1  0.000000  0.359474  0.677523  1
  Os  Os33  1  0.000000  0.133071  0.187349  1
  Os  Os34  1  0.000000  0.861651  0.817379  1
  W  W35  1  0.000000  0.944699  0.374901  1
