# generated using pymatgen
data_FeSb12IrOs2
_symmetry_space_group_name_H-M   'P 1'
_cell_length_a   8.09796551
_cell_length_b   8.09582271
_cell_length_c   8.12500800
_cell_angle_alpha   109.47114879
_cell_angle_beta   109.46166888
_cell_angle_gamma   109.32785382
_symmetry_Int_Tables_number   1
_chemical_formula_structural   FeSb12IrOs2
_chemical_formula_sum   'Fe1 Sb12 Ir1 Os2'
_cell_volume   410.82368547
_cell_formula_units_Z   1
loop_
 _symmetry_equiv_pos_site_id
 _symmetry_equiv_pos_as_xyz
  1  'x, y, z'
loop_
 _atom_site_type_symbol
 _atom_site_label
 _atom_site_symmetry_multiplicity
 _atom_site_fract_x
 _atom_site_fract_y
 _atom_site_fract_z
 _atom_site_occupancy
  Fe  Fe0  1  0.500000  0.500000  0.500000  1
  Sb  Sb1  1  0.155612  0.816206  0.663019  1
  Sb  Sb2  1  0.844388  0.183794  0.336981  1
  Sb  Sb3  1  0.840787  0.507697  0.661343  1
  Sb  Sb4  1  0.159213  0.492303  0.338657  1
  Sb  Sb5  1  0.816412  0.660974  0.153568  1
  Sb  Sb6  1  0.183588  0.339026  0.846432  1
  Sb  Sb7  1  0.507265  0.660627  0.840727  1
  Sb  Sb8  1  0.492735  0.339373  0.159273  1
  Sb  Sb9  1  0.665473  0.154467  0.820269  1
  Sb  Sb10  1  0.334527  0.845533  0.179731  1
  Sb  Sb11  1  0.657693  0.839108  0.504822  1
  Sb  Sb12  1  0.342307  0.160892  0.495178  1
  Ir  Ir13  1  0.000000  0.000000  0.500000  1
  Os  Os14  1  0.500000  0.000000  0.000000  1
  Os  Os15  1  0.000000  0.500000  0.000000  1
