# generated using pymatgen
data_Tc3SeS3F
_symmetry_space_group_name_H-M   'P 1'
_cell_length_a   11.16170542
_cell_length_b   6.48501267
_cell_length_c   10.80010049
_cell_angle_alpha   68.52903971
_cell_angle_beta   89.87805907
_cell_angle_gamma   90.00637288
_symmetry_Int_Tables_number   1
_chemical_formula_structural   Tc3SeS3F
_chemical_formula_sum   'Tc12 Se4 S12 F4'
_cell_volume   727.49924006
_cell_formula_units_Z   4
loop_
 _symmetry_equiv_pos_site_id
 _symmetry_equiv_pos_as_xyz
  1  'x, y, z'
loop_
 _atom_site_type_symbol
 _atom_site_label
 _atom_site_symmetry_multiplicity
 _atom_site_fract_x
 _atom_site_fract_y
 _atom_site_fract_z
 _atom_site_occupancy
  Tc  Tc0  1  0.988303  0.304221  0.932868  1
  Tc  Tc1  1  0.012674  0.695913  0.066016  1
  Tc  Tc2  1  0.362292  0.015670  0.592074  1
  Tc  Tc3  1  0.093978  0.013887  0.856194  1
  Tc  Tc4  1  0.594539  0.985710  0.643405  1
  Tc  Tc5  1  0.137819  0.020144  0.090352  1
  Tc  Tc6  1  0.637696  0.986013  0.407921  1
  Tc  Tc7  1  0.405467  0.016252  0.356261  1
  Tc  Tc8  1  0.906004  0.989609  0.143507  1
  Tc  Tc9  1  0.863192  0.983381  0.907940  1
  Tc  Tc10  1  0.511427  0.301292  0.434867  1
  Tc  Tc11  1  0.488684  0.694703  0.564708  1
  Se  Se12  1  0.790943  0.676773  0.116097  1
  Se  Se13  1  0.447552  0.706149  0.791082  1
  Se  Se14  1  0.534254  0.728375  0.314965  1
  Se  Se15  1  0.053169  0.712525  0.291399  1
  S  S16  1  0.300522  0.307284  0.392827  1
  S  S17  1  0.949874  0.275163  0.722555  1
  S  S18  1  0.720647  0.252838  0.486137  1
  S  S19  1  0.699026  0.693462  0.607720  1
  S  S20  1  0.779166  0.251384  0.984701  1
  S  S21  1  0.279659  0.748133  0.514526  1
  S  S22  1  0.550240  0.277230  0.222705  1
  S  S23  1  0.969785  0.722472  0.835780  1
  S  S24  1  0.199063  0.308674  0.888573  1
  S  S25  1  0.031369  0.279251  0.163013  1
  S  S26  1  0.469545  0.277938  0.663088  1
  S  S27  1  0.221433  0.750707  0.014386  1
  F  F28  1  0.800058  0.976923  0.308477  1
  F  F29  1  0.200755  0.034925  0.690090  1
  F  F30  1  0.298480  0.044742  0.188368  1
  F  F31  1  0.702388  0.968258  0.807398  1
