# generated using pymatgen
data_Li2Dy16TlInRh4
_symmetry_space_group_name_H-M   'P 1'
_cell_length_a   9.64270249
_cell_length_b   9.67438069
_cell_length_c   9.64270184
_cell_angle_alpha   59.70924504
_cell_angle_beta   59.87502673
_cell_angle_gamma   59.70925014
_symmetry_Int_Tables_number   1
_chemical_formula_structural   Li2Dy16TlInRh4
_chemical_formula_sum   'Li2 Dy16 Tl1 In1 Rh4'
_cell_volume   632.66645280
_cell_formula_units_Z   1
loop_
 _symmetry_equiv_pos_site_id
 _symmetry_equiv_pos_as_xyz
  1  'x, y, z'
loop_
 _atom_site_type_symbol
 _atom_site_label
 _atom_site_symmetry_multiplicity
 _atom_site_fract_x
 _atom_site_fract_y
 _atom_site_fract_z
 _atom_site_occupancy
  Li  Li0  1  0.924964  0.927615  0.220279  1
  Li  Li1  1  0.220279  0.927615  0.924964  1
  Dy  Dy2  1  0.689017  0.312050  0.312997  1
  Dy  Dy3  1  0.689012  0.686657  0.313016  1
  Dy  Dy4  1  0.316745  0.683883  0.316745  1
  Dy  Dy5  1  0.935879  0.935307  0.563643  1
  Dy  Dy6  1  0.148037  0.150866  0.548931  1
  Dy  Dy7  1  0.561989  0.937678  0.561989  1
  Dy  Dy8  1  0.152402  0.154916  0.152402  1
  Dy  Dy9  1  0.312997  0.312050  0.689017  1
  Dy  Dy10  1  0.936836  0.564309  0.562544  1
  Dy  Dy11  1  0.562544  0.564309  0.936836  1
  Dy  Dy12  1  0.563643  0.935307  0.935879  1
  Dy  Dy13  1  0.935244  0.564244  0.935244  1
  Dy  Dy14  1  0.151047  0.542499  0.151047  1
  Dy  Dy15  1  0.313016  0.686657  0.689012  1
  Dy  Dy16  1  0.692014  0.307383  0.692014  1
  Dy  Dy17  1  0.548931  0.150866  0.148037  1
  Tl  Tl18  1  0.921054  0.246155  0.921054  1
  In  In19  1  0.920353  0.913843  0.920353  1
  Rh  Rh20  1  0.358959  0.355740  0.358959  1
  Rh  Rh21  1  0.927263  0.356492  0.359262  1
  Rh  Rh22  1  0.359262  0.356492  0.927263  1
  Rh  Rh23  1  0.358518  0.927067  0.358518  1
