# generated using pymatgen
data_Pr5SnPb2Br
_symmetry_space_group_name_H-M   'P 1'
_cell_length_a   9.64756100
_cell_length_b   9.63953648
_cell_length_c   6.94664900
_cell_angle_alpha   90.00000000
_cell_angle_beta   90.00000000
_cell_angle_gamma   120.02753790
_symmetry_Int_Tables_number   1
_chemical_formula_structural   Pr5SnPb2Br
_chemical_formula_sum   'Pr10 Sn2 Pb4 Br2'
_cell_volume   559.31838163
_cell_formula_units_Z   2
loop_
 _symmetry_equiv_pos_site_id
 _symmetry_equiv_pos_as_xyz
  1  'x, y, z'
loop_
 _atom_site_type_symbol
 _atom_site_label
 _atom_site_symmetry_multiplicity
 _atom_site_fract_x
 _atom_site_fract_y
 _atom_site_fract_z
 _atom_site_occupancy
  Pr  Pr0  1  0.268345  0.000000  0.750000  1
  Pr  Pr1  1  0.731655  0.000000  0.250000  1
  Pr  Pr2  1  0.997766  0.264193  0.750000  1
  Pr  Pr3  1  0.002234  0.735807  0.250000  1
  Pr  Pr4  1  0.733573  0.735807  0.750000  1
  Pr  Pr5  1  0.266427  0.264193  0.250000  1
  Pr  Pr6  1  0.335259  0.670519  0.500000  1
  Pr  Pr7  1  0.664741  0.329481  0.500000  1
  Pr  Pr8  1  0.664741  0.329481  0.000000  1
  Pr  Pr9  1  0.335259  0.670519  0.000000  1
  Sn  Sn10  1  0.613704  0.000000  0.750000  1
  Sn  Sn11  1  0.386296  0.000000  0.250000  1
  Pb  Pb12  1  0.999007  0.613365  0.750000  1
  Pb  Pb13  1  0.000993  0.386635  0.250000  1
  Pb  Pb14  1  0.385642  0.386635  0.750000  1
  Pb  Pb15  1  0.614358  0.613365  0.250000  1
  Br  Br16  1  0.000000  0.000000  0.500000  1
  Br  Br17  1  0.000000  0.000000  0.000000  1
