# generated using pymatgen
data_Dy9Ho3Al(InFe)2
_symmetry_space_group_name_H-M   'P 1'
_cell_length_a   8.41715399
_cell_length_b   8.42533373
_cell_length_c   8.41983838
_cell_angle_alpha   110.01696674
_cell_angle_beta   109.97778904
_cell_angle_gamma   108.43918976
_symmetry_Int_Tables_number   1
_chemical_formula_structural   Dy9Ho3Al(InFe)2
_chemical_formula_sum   'Dy9 Ho3 Al1 In2 Fe2'
_cell_volume   459.45765169
_cell_formula_units_Z   1
loop_
 _symmetry_equiv_pos_site_id
 _symmetry_equiv_pos_as_xyz
  1  'x, y, z'
loop_
 _atom_site_type_symbol
 _atom_site_label
 _atom_site_symmetry_multiplicity
 _atom_site_fract_x
 _atom_site_fract_y
 _atom_site_fract_z
 _atom_site_occupancy
  Dy  Dy0  1  0.449177  0.204049  0.245050  1
  Dy  Dy1  1  0.551827  0.796859  0.755409  1
  Dy  Dy2  1  0.958384  0.203597  0.755226  1
  Dy  Dy3  1  0.203544  0.958528  0.755180  1
  Dy  Dy4  1  0.040675  0.796065  0.244531  1
  Dy  Dy5  1  0.795881  0.040942  0.244794  1
  Dy  Dy6  1  0.203980  0.449183  0.244905  1
  Dy  Dy7  1  0.796917  0.552225  0.755555  1
  Dy  Dy8  1  0.304539  0.304628  0.609042  1
  Ho  Ho9  1  0.695046  0.695039  0.389956  1
  Ho  Ho10  1  0.305188  0.695170  0.000195  1
  Ho  Ho11  1  0.695150  0.305082  0.000200  1
  Al  Al12  1  0.000547  0.000782  0.000785  1
  In  In13  1  0.499683  0.999704  0.499717  1
  In  In14  1  0.000017  0.499932  0.499972  1
  Fe  Fe15  1  0.388516  0.387117  0.999549  1
  Fe  Fe16  1  0.610927  0.611097  0.999931  1
