# generated using pymatgen
data_ThTa5NbCl18
_symmetry_space_group_name_H-M   'P 1'
_cell_length_a   10.30914928
_cell_length_b   10.30621508
_cell_length_c   10.30164691
_cell_angle_alpha   55.93282794
_cell_angle_beta   55.93746238
_cell_angle_gamma   55.88951181
_symmetry_Int_Tables_number   1
_chemical_formula_structural   ThTa5NbCl18
_chemical_formula_sum   'Th1 Ta5 Nb1 Cl18'
_cell_volume   700.76838020
_cell_formula_units_Z   1
loop_
 _symmetry_equiv_pos_site_id
 _symmetry_equiv_pos_as_xyz
  1  'x, y, z'
loop_
 _atom_site_type_symbol
 _atom_site_label
 _atom_site_symmetry_multiplicity
 _atom_site_fract_x
 _atom_site_fract_y
 _atom_site_fract_z
 _atom_site_occupancy
  Th  Th0  1  0.000856  0.999488  0.999740  1
  Ta  Ta1  1  0.412898  0.308357  0.643562  1
  Ta  Ta2  1  0.355960  0.587838  0.692220  1
  Ta  Ta3  1  0.692448  0.356075  0.587416  1
  Ta  Ta4  1  0.307771  0.644413  0.412223  1
  Ta  Ta5  1  0.644276  0.412682  0.307425  1
  Nb  Nb6  1  0.587837  0.693562  0.355098  1
  Cl  Cl7  1  0.567665  0.165993  0.442275  1
  Cl  Cl8  1  0.226272  0.373105  0.902838  1
  Cl  Cl9  1  0.902719  0.225920  0.373069  1
  Cl  Cl10  1  0.369474  0.903887  0.225975  1
  Cl  Cl11  1  0.774962  0.625072  0.095258  1
  Cl  Cl12  1  0.097127  0.773820  0.627132  1
  Cl  Cl13  1  0.704702  0.957989  0.159306  1
  Cl  Cl14  1  0.953863  0.160977  0.704063  1
  Cl  Cl15  1  0.161494  0.702636  0.954924  1
  Cl  Cl16  1  0.296070  0.047072  0.837746  1
  Cl  Cl17  1  0.045772  0.837106  0.296763  1
  Cl  Cl18  1  0.838419  0.295570  0.046383  1
  Cl  Cl19  1  0.557395  0.432563  0.834119  1
  Cl  Cl20  1  0.166088  0.442761  0.567118  1
  Cl  Cl21  1  0.442574  0.567245  0.165936  1
  Cl  Cl22  1  0.430070  0.834224  0.560912  1
  Cl  Cl23  1  0.835974  0.554481  0.434613  1
  Cl  Cl24  1  0.627314  0.097168  0.773883  1
