# generated using pymatgen
data_Tb2Y2Al18Ir5Au
_symmetry_space_group_name_H-M   'P 1'
_cell_length_a   7.59014621
_cell_length_b   7.59027973
_cell_length_c   9.48328937
_cell_angle_alpha   89.96231302
_cell_angle_beta   89.96779965
_cell_angle_gamma   119.57347535
_symmetry_Int_Tables_number   1
_chemical_formula_structural   Tb2Y2Al18Ir5Au
_chemical_formula_sum   'Tb2 Y2 Al18 Ir5 Au1'
_cell_volume   475.16868624
_cell_formula_units_Z   1
loop_
 _symmetry_equiv_pos_site_id
 _symmetry_equiv_pos_as_xyz
  1  'x, y, z'
loop_
 _atom_site_type_symbol
 _atom_site_label
 _atom_site_symmetry_multiplicity
 _atom_site_fract_x
 _atom_site_fract_y
 _atom_site_fract_z
 _atom_site_occupancy
  Tb  Tb0  1  0.995708  0.673177  0.251065  1
  Tb  Tb1  1  0.004292  0.326823  0.748935  1
  Y  Y2  1  0.673164  0.995695  0.251087  1
  Y  Y3  1  0.326836  0.004305  0.748913  1
  Al  Al4  1  0.135120  0.135112  0.256352  1
  Al  Al5  1  0.864880  0.864888  0.743648  1
  Al  Al6  1  0.001512  0.344200  0.079026  1
  Al  Al7  1  0.998488  0.655800  0.920974  1
  Al  Al8  1  0.000186  0.664714  0.573436  1
  Al  Al9  1  0.335378  0.999855  0.426611  1
  Al  Al10  1  0.999814  0.335286  0.426564  1
  Al  Al11  1  0.664622  0.000145  0.573389  1
  Al  Al12  1  0.655722  0.998460  0.920984  1
  Al  Al13  1  0.344278  0.001540  0.079016  1
  Al  Al14  1  0.333265  0.333223  0.551967  1
  Al  Al15  1  0.666735  0.666777  0.448033  1
  Al  Al16  1  0.657972  0.658004  0.058449  1
  Al  Al17  1  0.342028  0.341996  0.941551  1
  Al  Al18  1  0.339156  0.549693  0.251310  1
  Al  Al19  1  0.660844  0.450307  0.748690  1
  Al  Al20  1  0.549671  0.339142  0.251307  1
  Al  Al21  1  0.450329  0.660858  0.748693  1
  Ir  Ir22  1  0.671683  0.328259  0.999991  1
  Ir  Ir23  1  0.328317  0.671741  0.000009  1
  Ir  Ir24  1  0.328315  0.671712  0.499995  1
  Ir  Ir25  1  0.671685  0.328288  0.500005  1
  Ir  Ir26  1  0.000000  0.000000  0.500000  1
  Au  Au27  1  0.000000  0.000000  0.000000  1
