# generated using pymatgen
data_La3Th(InPt2)2
_symmetry_space_group_name_H-M   'P 1'
_cell_length_a   3.90574000
_cell_length_b   7.99761012
_cell_length_c   7.99761000
_cell_angle_alpha   91.06173927
_cell_angle_beta   90.00000000
_cell_angle_gamma   90.00000000
_symmetry_Int_Tables_number   1
_chemical_formula_structural   La3Th(InPt2)2
_chemical_formula_sum   'La3 Th1 In2 Pt4'
_cell_volume   249.77513898
_cell_formula_units_Z   1
loop_
 _symmetry_equiv_pos_site_id
 _symmetry_equiv_pos_as_xyz
  1  'x, y, z'
loop_
 _atom_site_type_symbol
 _atom_site_label
 _atom_site_symmetry_multiplicity
 _atom_site_fract_x
 _atom_site_fract_y
 _atom_site_fract_z
 _atom_site_occupancy
  La  La0  1  0.500000  0.823492  0.323492  1
  La  La1  1  0.500000  0.325650  0.175528  1
  La  La2  1  0.500000  0.675528  0.825650  1
  Th  Th3  1  0.500000  0.172485  0.672485  1
  In  In4  1  0.000000  0.500139  0.502069  1
  In  In5  1  0.000000  0.002069  0.000139  1
  Pt  Pt6  1  0.000000  0.623574  0.123574  1
  Pt  Pt7  1  0.000000  0.362393  0.862393  1
  Pt  Pt8  1  0.000000  0.881126  0.633545  1
  Pt  Pt9  1  0.000000  0.133545  0.381126  1
