# generated using pymatgen
data_Nd5HoAl24Os5Pt3
_symmetry_space_group_name_H-M   'P 1'
_cell_length_a   8.87300480
_cell_length_b   8.89109454
_cell_length_c   9.63518216
_cell_angle_alpha   90.05987722
_cell_angle_beta   89.85631421
_cell_angle_gamma   119.55697148
_symmetry_Int_Tables_number   1
_chemical_formula_structural   Nd5HoAl24Os5Pt3
_chemical_formula_sum   'Nd5 Ho1 Al24 Os5 Pt3'
_cell_volume   661.20582228
_cell_formula_units_Z   1
loop_
 _symmetry_equiv_pos_site_id
 _symmetry_equiv_pos_as_xyz
  1  'x, y, z'
loop_
 _atom_site_type_symbol
 _atom_site_label
 _atom_site_symmetry_multiplicity
 _atom_site_fract_x
 _atom_site_fract_y
 _atom_site_fract_z
 _atom_site_occupancy
  Nd  Nd0  1  0.188051  0.380125  0.249912  1
  Nd  Nd1  1  0.812325  0.619637  0.750346  1
  Nd  Nd2  1  0.617680  0.813533  0.251688  1
  Nd  Nd3  1  0.383074  0.186390  0.748409  1
  Nd  Nd4  1  0.192322  0.810466  0.250281  1
  Ho  Ho5  1  0.803943  0.191333  0.748677  1
  Al  Al6  1  0.335818  0.671396  0.024810  1
  Al  Al7  1  0.665730  0.328298  0.971487  1
  Al  Al8  1  0.670190  0.330715  0.527009  1
  Al  Al9  1  0.330523  0.668440  0.476194  1
  Al  Al10  1  0.156511  0.324968  0.574397  1
  Al  Al11  1  0.841193  0.673316  0.427725  1
  Al  Al12  1  0.674243  0.842456  0.575420  1
  Al  Al13  1  0.836165  0.675019  0.075641  1
  Al  Al14  1  0.327274  0.159460  0.426489  1
  Al  Al15  1  0.161788  0.323677  0.922565  1
  Al  Al16  1  0.164302  0.834539  0.575733  1
  Al  Al17  1  0.326815  0.159139  0.074062  1
  Al  Al18  1  0.835695  0.165141  0.427231  1
  Al  Al19  1  0.674947  0.843109  0.923931  1
  Al  Al20  1  0.831646  0.159638  0.074575  1
  Al  Al21  1  0.168718  0.840633  0.922382  1
  Al  Al22  1  0.562290  0.126544  0.249706  1
  Al  Al23  1  0.440534  0.875184  0.750261  1
  Al  Al24  1  0.872292  0.436067  0.253389  1
  Al  Al25  1  0.125754  0.560865  0.747327  1
  Al  Al26  1  0.563649  0.435602  0.249734  1
  Al  Al27  1  0.436378  0.564353  0.750394  1
  Al  Al28  1  0.998336  0.003543  0.250134  1
  Al  Al29  1  0.999298  0.999234  0.749788  1
  Os  Os30  1  0.501657  0.000895  0.998690  1
  Os  Os31  1  0.501390  0.000595  0.501227  1
  Os  Os32  1  0.999295  0.498508  0.501262  1
  Os  Os33  1  0.000068  0.999949  0.999626  1
  Os  Os34  1  0.000071  0.999765  0.500264  1
  Pt  Pt35  1  0.999502  0.498494  0.999073  1
  Pt  Pt36  1  0.500270  0.499472  0.999684  1
  Pt  Pt37  1  0.500265  0.499502  0.500477  1
