# generated using pymatgen
data_YbY3(PPd)4
_symmetry_space_group_name_H-M   'P 1'
_cell_length_a   4.13603000
_cell_length_b   7.76510164
_cell_length_c   7.10788900
_cell_angle_alpha   89.93733332
_cell_angle_beta   90.00000000
_cell_angle_gamma   90.00000000
_symmetry_Int_Tables_number   1
_chemical_formula_structural   YbY3(PPd)4
_chemical_formula_sum   'Yb1 Y3 P4 Pd4'
_cell_volume   228.28175487
_cell_formula_units_Z   1
loop_
 _symmetry_equiv_pos_site_id
 _symmetry_equiv_pos_as_xyz
  1  'x, y, z'
loop_
 _atom_site_type_symbol
 _atom_site_label
 _atom_site_symmetry_multiplicity
 _atom_site_fract_x
 _atom_site_fract_y
 _atom_site_fract_z
 _atom_site_occupancy
  Yb  Yb0  1  0.250000  0.999592  0.248957  1
  Y  Y1  1  0.250000  0.499527  0.251320  1
  Y  Y2  1  0.750000  0.500592  0.748693  1
  Y  Y3  1  0.750000  0.000603  0.751455  1
  P  P4  1  0.250000  0.746413  0.917515  1
  P  P5  1  0.750000  0.260130  0.081016  1
  P  P6  1  0.750000  0.739393  0.418918  1
  P  P7  1  0.250000  0.252830  0.582346  1
  Pd  Pd8  1  0.250000  0.752654  0.582831  1
  Pd  Pd9  1  0.750000  0.245995  0.416631  1
  Pd  Pd10  1  0.750000  0.751967  0.083450  1
  Pd  Pd11  1  0.250000  0.250304  0.916869  1
