# generated using pymatgen
data_Nd3Y5(ErBi)12
_symmetry_space_group_name_H-M   'P 1'
_cell_length_a   8.28163248
_cell_length_b   9.48935800
_cell_length_c   12.12853969
_cell_angle_alpha   90.00000000
_cell_angle_beta   89.96127789
_cell_angle_gamma   90.00000000
_symmetry_Int_Tables_number   1
_chemical_formula_structural   Nd3Y5(ErBi)12
_chemical_formula_sum   'Nd3 Y5 Er12 Bi12'
_cell_volume   953.14988370
_cell_formula_units_Z   1
loop_
 _symmetry_equiv_pos_site_id
 _symmetry_equiv_pos_as_xyz
  1  'x, y, z'
loop_
 _atom_site_type_symbol
 _atom_site_label
 _atom_site_symmetry_multiplicity
 _atom_site_fract_x
 _atom_site_fract_y
 _atom_site_fract_z
 _atom_site_occupancy
  Nd  Nd0  1  0.184263  0.750000  0.720341  1
  Nd  Nd1  1  0.684412  0.750000  0.779533  1
  Nd  Nd2  1  0.815557  0.250000  0.279876  1
  Y  Y3  1  0.313846  0.250000  0.218771  1
  Y  Y4  1  0.352683  0.750000  0.216768  1
  Y  Y5  1  0.853635  0.750000  0.282670  1
  Y  Y6  1  0.646957  0.250000  0.783990  1
  Y  Y7  1  0.147469  0.250000  0.716444  1
  Er  Er8  1  0.025081  0.750000  0.988648  1
  Er  Er9  1  0.524555  0.750000  0.511555  1
  Er  Er10  1  0.974524  0.250000  0.012251  1
  Er  Er11  1  0.475360  0.250000  0.488231  1
  Er  Er12  1  0.306792  0.435920  0.940202  1
  Er  Er13  1  0.807305  0.064538  0.559808  1
  Er  Er14  1  0.693568  0.935845  0.060000  1
  Er  Er15  1  0.192915  0.564499  0.439768  1
  Er  Er16  1  0.693568  0.564155  0.060000  1
  Er  Er17  1  0.192915  0.935501  0.439768  1
  Er  Er18  1  0.306792  0.064080  0.940202  1
  Er  Er19  1  0.807305  0.435462  0.559808  1
  Bi  Bi20  1  0.434573  0.008114  0.671252  1
  Bi  Bi21  1  0.934307  0.491729  0.829255  1
  Bi  Bi22  1  0.563132  0.506073  0.327976  1
  Bi  Bi23  1  0.068905  0.994312  0.171776  1
  Bi  Bi24  1  0.563132  0.993927  0.327976  1
  Bi  Bi25  1  0.068905  0.505688  0.171776  1
  Bi  Bi26  1  0.434573  0.491886  0.671252  1
  Bi  Bi27  1  0.934307  0.008271  0.829255  1
  Bi  Bi28  1  0.406685  0.750000  0.962017  1
  Bi  Bi29  1  0.906247  0.750000  0.537910  1
  Bi  Bi30  1  0.590205  0.250000  0.040485  1
  Bi  Bi31  1  0.095527  0.250000  0.460431  1
