# generated using pymatgen
data_Ho5Fe3(P3Rh4)4
_symmetry_space_group_name_H-M   'P 1'
_cell_length_a   12.60900900
_cell_length_b   12.60900915
_cell_length_c   3.86963900
_cell_angle_alpha   90.00000000
_cell_angle_beta   90.00000000
_cell_angle_gamma   120.00000222
_symmetry_Int_Tables_number   1
_chemical_formula_structural   Ho5Fe3(P3Rh4)4
_chemical_formula_sum   'Ho5 Fe3 P12 Rh16'
_cell_volume   532.79849345
_cell_formula_units_Z   1
loop_
 _symmetry_equiv_pos_site_id
 _symmetry_equiv_pos_as_xyz
  1  'x, y, z'
loop_
 _atom_site_type_symbol
 _atom_site_label
 _atom_site_symmetry_multiplicity
 _atom_site_fract_x
 _atom_site_fract_y
 _atom_site_fract_z
 _atom_site_occupancy
  Ho  Ho0  1  0.000000  0.183576  0.500000  1
  Ho  Ho1  1  0.816424  0.816424  0.500000  1
  Ho  Ho2  1  0.183576  0.000000  0.500000  1
  Ho  Ho3  1  0.666667  0.333333  0.000000  1
  Ho  Ho4  1  0.333333  0.666667  0.000000  1
  Fe  Fe5  1  0.000000  0.717070  0.500000  1
  Fe  Fe6  1  0.282930  0.282930  0.500000  1
  Fe  Fe7  1  0.717070  0.000000  0.500000  1
  P  P8  1  0.000000  0.816989  0.000000  1
  P  P9  1  0.183011  0.183011  0.000000  1
  P  P10  1  0.816989  0.000000  0.000000  1
  P  P11  1  0.684516  0.160080  0.500000  1
  P  P12  1  0.839920  0.524436  0.500000  1
  P  P13  1  0.475564  0.315484  0.500000  1
  P  P14  1  0.160080  0.684516  0.500000  1
  P  P15  1  0.524436  0.839920  0.500000  1
  P  P16  1  0.315484  0.475564  0.500000  1
  P  P17  1  0.000000  0.364266  0.000000  1
  P  P18  1  0.635734  0.635734  0.000000  1
  P  P19  1  0.364266  0.000000  0.000000  1
  Rh  Rh20  1  0.000000  0.549856  0.000000  1
  Rh  Rh21  1  0.450144  0.450144  0.000000  1
  Rh  Rh22  1  0.549856  0.000000  0.000000  1
  Rh  Rh23  1  0.805099  0.178432  0.000000  1
  Rh  Rh24  1  0.821568  0.626668  0.000000  1
  Rh  Rh25  1  0.373332  0.194901  0.000000  1
  Rh  Rh26  1  0.178432  0.805099  0.000000  1
  Rh  Rh27  1  0.626668  0.821568  0.000000  1
  Rh  Rh28  1  0.194901  0.373332  0.000000  1
  Rh  Rh29  1  0.868348  0.357935  0.500000  1
  Rh  Rh30  1  0.642065  0.510413  0.500000  1
  Rh  Rh31  1  0.489587  0.131652  0.500000  1
  Rh  Rh32  1  0.357935  0.868348  0.500000  1
  Rh  Rh33  1  0.510413  0.642065  0.500000  1
  Rh  Rh34  1  0.131652  0.489587  0.500000  1
  Rh  Rh35  1  0.000000  0.000000  0.000000  1
