# generated using pymatgen
data_Tb10In8CuNi3
_symmetry_space_group_name_H-M   'P 1'
_cell_length_a   3.62770500
_cell_length_b   8.12876018
_cell_length_c   18.17076339
_cell_angle_alpha   89.97630992
_cell_angle_beta   90.00000000
_cell_angle_gamma   90.00000000
_symmetry_Int_Tables_number   1
_chemical_formula_structural   Tb10In8CuNi3
_chemical_formula_sum   'Tb10 In8 Cu1 Ni3'
_cell_volume   535.83294270
_cell_formula_units_Z   1
loop_
 _symmetry_equiv_pos_site_id
 _symmetry_equiv_pos_as_xyz
  1  'x, y, z'
loop_
 _atom_site_type_symbol
 _atom_site_label
 _atom_site_symmetry_multiplicity
 _atom_site_fract_x
 _atom_site_fract_y
 _atom_site_fract_z
 _atom_site_occupancy
  Tb  Tb0  1  0.000000  0.498995  0.500605  1
  Tb  Tb1  1  0.000000  0.999291  0.999640  1
  Tb  Tb2  1  0.000000  0.753822  0.280603  1
  Tb  Tb3  1  0.000000  0.253551  0.720883  1
  Tb  Tb4  1  0.000000  0.754160  0.778472  1
  Tb  Tb5  1  0.000000  0.233267  0.222676  1
  Tb  Tb6  1  0.000000  0.621638  0.083781  1
  Tb  Tb7  1  0.000000  0.382935  0.911089  1
  Tb  Tb8  1  0.000000  0.883245  0.588610  1
  Tb  Tb9  1  0.000000  0.117526  0.413015  1
  In  In10  1  0.500000  0.705671  0.929741  1
  In  In11  1  0.500000  0.295049  0.068771  1
  In  In12  1  0.500000  0.794731  0.431982  1
  In  In13  1  0.500000  0.204494  0.569405  1
  In  In14  1  0.500000  0.571748  0.652287  1
  In  In15  1  0.500000  0.426839  0.348503  1
  In  In16  1  0.500000  0.926655  0.151225  1
  In  In17  1  0.500000  0.072127  0.847502  1
  Cu  Cu18  1  0.500000  0.525606  0.197849  1
  Ni  Ni19  1  0.500000  0.476407  0.803620  1
  Ni  Ni20  1  0.500000  0.976813  0.696223  1
  Ni  Ni21  1  0.500000  0.025432  0.303518  1
