# generated using pymatgen
data_Y3InIr8
_symmetry_space_group_name_H-M   'P 1'
_cell_length_a   5.35234400
_cell_length_b   5.35234311
_cell_length_c   8.68756200
_cell_angle_alpha   90.00000000
_cell_angle_beta   90.00000000
_cell_angle_gamma   119.99998078
_symmetry_Int_Tables_number   1
_chemical_formula_structural   Y3InIr8
_chemical_formula_sum   'Y3 In1 Ir8'
_cell_volume   215.53440099
_cell_formula_units_Z   1
loop_
 _symmetry_equiv_pos_site_id
 _symmetry_equiv_pos_as_xyz
  1  'x, y, z'
loop_
 _atom_site_type_symbol
 _atom_site_label
 _atom_site_symmetry_multiplicity
 _atom_site_fract_x
 _atom_site_fract_y
 _atom_site_fract_z
 _atom_site_occupancy
  Y  Y0  1  0.333333  0.666667  0.080983  1
  Y  Y1  1  0.666667  0.333333  0.558647  1
  Y  Y2  1  0.666667  0.333333  0.930401  1
  In  In3  1  0.333333  0.666667  0.440365  1
  Ir  Ir4  1  0.000000  0.000000  0.996340  1
  Ir  Ir5  1  0.000000  0.000000  0.498092  1
  Ir  Ir6  1  0.830590  0.661181  0.249083  1
  Ir  Ir7  1  0.170369  0.829631  0.749307  1
  Ir  Ir8  1  0.659262  0.829631  0.749307  1
  Ir  Ir9  1  0.338819  0.169410  0.249083  1
  Ir  Ir10  1  0.830590  0.169410  0.249083  1
  Ir  Ir11  1  0.170369  0.340738  0.749307  1
