# generated using pymatgen
data_NdGd2TaO7
_symmetry_space_group_name_H-M   'P 1'
_cell_length_a   6.57017301
_cell_length_b   6.57017338
_cell_length_c   7.68035300
_cell_angle_alpha   90.00000000
_cell_angle_beta   90.00000000
_cell_angle_gamma   109.64673301
_symmetry_Int_Tables_number   1
_chemical_formula_structural   NdGd2TaO7
_chemical_formula_sum   'Nd2 Gd4 Ta2 O14'
_cell_volume   312.23810966
_cell_formula_units_Z   2
loop_
 _symmetry_equiv_pos_site_id
 _symmetry_equiv_pos_as_xyz
  1  'x, y, z'
loop_
 _atom_site_type_symbol
 _atom_site_label
 _atom_site_symmetry_multiplicity
 _atom_site_fract_x
 _atom_site_fract_y
 _atom_site_fract_z
 _atom_site_occupancy
  Nd  Nd0  1  0.500000  0.500000  0.500000  1
  Nd  Nd1  1  0.500000  0.500000  0.000000  1
  Gd  Gd2  1  0.000026  0.533017  0.250000  1
  Gd  Gd3  1  0.999974  0.466983  0.750000  1
  Gd  Gd4  1  0.533017  0.000026  0.750000  1
  Gd  Gd5  1  0.466983  0.999974  0.250000  1
  Ta  Ta6  1  0.000000  0.000000  0.500000  1
  Ta  Ta7  1  0.000000  0.000000  0.000000  1
  O  O8  1  0.940747  0.059253  0.750000  1
  O  O9  1  0.059253  0.940747  0.250000  1
  O  O10  1  0.360100  0.639900  0.250000  1
  O  O11  1  0.639900  0.360100  0.750000  1
  O  O12  1  0.366886  0.633114  0.750000  1
  O  O13  1  0.633114  0.366886  0.250000  1
  O  O14  1  0.318155  0.069491  0.969502  1
  O  O15  1  0.681845  0.930509  0.469502  1
  O  O16  1  0.318155  0.069491  0.530498  1
  O  O17  1  0.681845  0.930509  0.030498  1
  O  O18  1  0.069491  0.318155  0.469502  1
  O  O19  1  0.930509  0.681845  0.969502  1
  O  O20  1  0.930509  0.681845  0.530498  1
  O  O21  1  0.069491  0.318155  0.030498  1
