# generated using pymatgen
data_Nb3Ga3FeIr2
_symmetry_space_group_name_H-M   'P 1'
_cell_length_a   7.39945300
_cell_length_b   7.39945165
_cell_length_c   2.91236400
_cell_angle_alpha   90.00000000
_cell_angle_beta   90.00000000
_cell_angle_gamma   120.00000157
_symmetry_Int_Tables_number   1
_chemical_formula_structural   Nb3Ga3FeIr2
_chemical_formula_sum   'Nb3 Ga3 Fe1 Ir2'
_cell_volume   138.09419778
_cell_formula_units_Z   1
loop_
 _symmetry_equiv_pos_site_id
 _symmetry_equiv_pos_as_xyz
  1  'x, y, z'
loop_
 _atom_site_type_symbol
 _atom_site_label
 _atom_site_symmetry_multiplicity
 _atom_site_fract_x
 _atom_site_fract_y
 _atom_site_fract_z
 _atom_site_occupancy
  Nb  Nb0  1  0.358210  0.000000  0.500001  1
  Nb  Nb1  1  0.000000  0.358210  0.500001  1
  Nb  Nb2  1  0.641790  0.641790  0.500001  1
  Ga  Ga3  1  0.711322  0.000000  0.000000  1
  Ga  Ga4  1  0.288677  0.288678  0.000000  1
  Ga  Ga5  1  0.000000  0.711323  0.000000  1
  Fe  Fe6  1  0.000000  0.000000  0.500001  1
  Ir  Ir7  1  0.666667  0.333334  0.000000  1
  Ir  Ir8  1  0.333334  0.666667  0.000000  1
