# generated using pymatgen
data_Tm20Si12Br
_symmetry_space_group_name_H-M   'P 1'
_cell_length_a   6.25119805
_cell_length_b   8.36784608
_cell_length_c   14.55188600
_cell_angle_alpha   90.00000685
_cell_angle_beta   90.00000000
_cell_angle_gamma   89.99883364
_symmetry_Int_Tables_number   1
_chemical_formula_structural   Tm20Si12Br
_chemical_formula_sum   'Tm20 Si12 Br1'
_cell_volume   761.19552267
_cell_formula_units_Z   1
loop_
 _symmetry_equiv_pos_site_id
 _symmetry_equiv_pos_as_xyz
  1  'x, y, z'
loop_
 _atom_site_type_symbol
 _atom_site_label
 _atom_site_symmetry_multiplicity
 _atom_site_fract_x
 _atom_site_fract_y
 _atom_site_fract_z
 _atom_site_occupancy
  Tm  Tm0  1  0.499981  0.000020  0.332475  1
  Tm  Tm1  1  0.499986  0.500011  0.832293  1
  Tm  Tm2  1  0.499986  0.500011  0.167707  1
  Tm  Tm3  1  0.499981  0.000020  0.667525  1
  Tm  Tm4  1  0.999984  0.500000  0.171170  1
  Tm  Tm5  1  0.999981  0.000022  0.661506  1
  Tm  Tm6  1  0.999981  0.000022  0.338494  1
  Tm  Tm7  1  0.999984  0.500000  0.828830  1
  Tm  Tm8  1  0.773214  0.261481  0.000000  1
  Tm  Tm9  1  0.746313  0.742313  0.500000  1
  Tm  Tm10  1  0.750196  0.377906  0.380245  1
  Tm  Tm11  1  0.772271  0.870018  0.869282  1
  Tm  Tm12  1  0.772271  0.870018  0.130718  1
  Tm  Tm13  1  0.750196  0.377906  0.619755  1
  Tm  Tm14  1  0.226713  0.738468  0.000000  1
  Tm  Tm15  1  0.253640  0.257724  0.500000  1
  Tm  Tm16  1  0.227917  0.129921  0.130632  1
  Tm  Tm17  1  0.249754  0.622127  0.619753  1
  Tm  Tm18  1  0.249754  0.622127  0.380247  1
  Tm  Tm19  1  0.227917  0.129921  0.869368  1
  Si  Si20  1  0.756298  0.609789  0.000000  1
  Si  Si21  1  0.743643  0.105496  0.500000  1
  Si  Si22  1  0.755777  0.196149  0.197943  1
  Si  Si23  1  0.750590  0.694634  0.694461  1
  Si  Si24  1  0.750590  0.694634  0.305539  1
  Si  Si25  1  0.755777  0.196149  0.802057  1
  Si  Si26  1  0.243697  0.390171  0.000000  1
  Si  Si27  1  0.256319  0.894539  0.500000  1
  Si  Si28  1  0.249364  0.305394  0.305533  1
  Si  Si29  1  0.244194  0.803867  0.802050  1
  Si  Si30  1  0.244194  0.803867  0.197950  1
  Si  Si31  1  0.249364  0.305394  0.694467  1
  Br  Br32  1  0.500174  0.999880  0.000000  1
