# generated using pymatgen
data_K3DyB24
_symmetry_space_group_name_H-M   'P 1'
_cell_length_a   7.25144803
_cell_length_b   7.25144721
_cell_length_c   5.92661800
_cell_angle_alpha   90.00000000
_cell_angle_beta   90.00000000
_cell_angle_gamma   109.43640540
_symmetry_Int_Tables_number   1
_chemical_formula_structural   K3DyB24
_chemical_formula_sum   'K3 Dy1 B24'
_cell_volume   293.88222097
_cell_formula_units_Z   1
loop_
 _symmetry_equiv_pos_site_id
 _symmetry_equiv_pos_as_xyz
  1  'x, y, z'
loop_
 _atom_site_type_symbol
 _atom_site_label
 _atom_site_symmetry_multiplicity
 _atom_site_fract_x
 _atom_site_fract_y
 _atom_site_fract_z
 _atom_site_occupancy
  K  K0  1  0.747688  0.252312  0.500000  1
  K  K1  1  0.500000  0.500000  0.000000  1
  K  K2  1  0.252312  0.747688  0.500000  1
  Dy  Dy3  1  0.000000  0.000000  0.000000  1
  B  B4  1  0.172329  0.321973  0.650347  1
  B  B5  1  0.925983  0.576049  0.149830  1
  B  B6  1  0.678027  0.827671  0.650347  1
  B  B7  1  0.423951  0.074017  0.149830  1
  B  B8  1  0.172329  0.321973  0.349653  1
  B  B9  1  0.925983  0.576049  0.850170  1
  B  B10  1  0.678027  0.827671  0.349653  1
  B  B11  1  0.423951  0.074017  0.850170  1
  B  B12  1  0.398626  0.398626  0.500000  1
  B  B13  1  0.150982  0.649038  0.000000  1
  B  B14  1  0.901300  0.901300  0.500000  1
  B  B15  1  0.649038  0.150982  0.000000  1
  B  B16  1  0.321973  0.172329  0.650347  1
  B  B17  1  0.074017  0.423951  0.149830  1
  B  B18  1  0.827671  0.678027  0.650347  1
  B  B19  1  0.576049  0.925983  0.149830  1
  B  B20  1  0.098700  0.098700  0.500000  1
  B  B21  1  0.849018  0.350962  0.000000  1
  B  B22  1  0.601374  0.601374  0.500000  1
  B  B23  1  0.350962  0.849018  0.000000  1
  B  B24  1  0.321973  0.172329  0.349653  1
  B  B25  1  0.074017  0.423951  0.850170  1
  B  B26  1  0.827671  0.678027  0.349653  1
  B  B27  1  0.576049  0.925983  0.850170  1
