# generated using pymatgen
data_TbEr2SiPd5
_symmetry_space_group_name_H-M   'P 1'
_cell_length_a   8.24378321
_cell_length_b   8.24378236
_cell_length_c   8.24378921
_cell_angle_alpha   128.09908230
_cell_angle_beta   126.05064596
_cell_angle_gamma   78.13980899
_symmetry_Int_Tables_number   1
_chemical_formula_structural   TbEr2SiPd5
_chemical_formula_sum   'Tb2 Er4 Si2 Pd10'
_cell_volume   345.34563570
_cell_formula_units_Z   2
loop_
 _symmetry_equiv_pos_site_id
 _symmetry_equiv_pos_as_xyz
  1  'x, y, z'
loop_
 _atom_site_type_symbol
 _atom_site_label
 _atom_site_symmetry_multiplicity
 _atom_site_fract_x
 _atom_site_fract_y
 _atom_site_fract_z
 _atom_site_occupancy
  Tb  Tb0  1  0.384245  0.249995  0.134240  1
  Tb  Tb1  1  0.615755  0.750005  0.865760  1
  Er  Er2  1  0.225015  0.449693  0.775304  1
  Er  Er3  1  0.774985  0.550307  0.224696  1
  Er  Er4  1  0.825610  0.050289  0.775304  1
  Er  Er5  1  0.174390  0.949711  0.224696  1
  Si  Si6  1  0.778237  0.250001  0.528237  1
  Si  Si7  1  0.221763  0.749999  0.471763  1
  Pd  Pd8  1  0.165397  0.397560  0.354158  1
  Pd  Pd9  1  0.834599  0.188766  0.232165  1
  Pd  Pd10  1  0.456601  0.102434  0.767835  1
  Pd  Pd11  1  0.543402  0.311239  0.645842  1
  Pd  Pd12  1  0.000000  0.500000  0.000000  1
  Pd  Pd13  1  0.000000  0.000000  0.500000  1
  Pd  Pd14  1  0.456598  0.688761  0.354158  1
  Pd  Pd15  1  0.543399  0.897566  0.232165  1
  Pd  Pd16  1  0.165401  0.811234  0.767835  1
  Pd  Pd17  1  0.834603  0.602440  0.645842  1
