# generated using pymatgen
data_Ce2Pr2Zn5Cu3Ru2
_symmetry_space_group_name_H-M   'P 1'
_cell_length_a   7.16551215
_cell_length_b   7.16551215
_cell_length_c   5.11158259
_cell_angle_alpha   90.09654589
_cell_angle_beta   89.90345411
_cell_angle_gamma   90.26797269
_symmetry_Int_Tables_number   1
_chemical_formula_structural   Ce2Pr2Zn5Cu3Ru2
_chemical_formula_sum   'Ce2 Pr2 Zn5 Cu3 Ru2'
_cell_volume   262.44836877
_cell_formula_units_Z   1
loop_
 _symmetry_equiv_pos_site_id
 _symmetry_equiv_pos_as_xyz
  1  'x, y, z'
loop_
 _atom_site_type_symbol
 _atom_site_label
 _atom_site_symmetry_multiplicity
 _atom_site_fract_x
 _atom_site_fract_y
 _atom_site_fract_z
 _atom_site_occupancy
  Ce  Ce0  1  0.996123  0.995682  0.017973  1
  Ce  Ce1  1  0.504318  0.503877  0.017973  1
  Pr  Pr2  1  0.996384  0.503616  0.759180  1
  Pr  Pr3  1  0.502327  0.997673  0.233414  1
  Zn  Zn4  1  0.312557  0.187443  0.715690  1
  Zn  Zn5  1  0.181026  0.318974  0.288970  1
  Zn  Zn6  1  0.691718  0.191887  0.706027  1
  Zn  Zn7  1  0.689591  0.810409  0.701728  1
  Zn  Zn8  1  0.308113  0.808282  0.706027  1
  Cu  Cu9  1  0.181337  0.683366  0.279682  1
  Cu  Cu10  1  0.820084  0.679916  0.282937  1
  Cu  Cu11  1  0.816634  0.318663  0.279682  1
  Ru  Ru12  1  0.497673  0.497884  0.505358  1
  Ru  Ru13  1  0.002116  0.002327  0.505358  1
