# generated using pymatgen
data_Er8GePd11Pt13
_symmetry_space_group_name_H-M   'P 1'
_cell_length_a   8.31765900
_cell_length_b   8.33072800
_cell_length_c   8.31689700
_cell_angle_alpha   90.00000000
_cell_angle_beta   90.00000000
_cell_angle_gamma   90.00000000
_symmetry_Int_Tables_number   1
_chemical_formula_structural   Er8GePd11Pt13
_chemical_formula_sum   'Er8 Ge1 Pd11 Pt13'
_cell_volume   576.29571376
_cell_formula_units_Z   1
loop_
 _symmetry_equiv_pos_site_id
 _symmetry_equiv_pos_as_xyz
  1  'x, y, z'
loop_
 _atom_site_type_symbol
 _atom_site_label
 _atom_site_symmetry_multiplicity
 _atom_site_fract_x
 _atom_site_fract_y
 _atom_site_fract_z
 _atom_site_occupancy
  Er  Er0  1  0.253208  0.253370  0.253148  1
  Er  Er1  1  0.746724  0.746276  0.746545  1
  Er  Er2  1  0.746724  0.746276  0.253455  1
  Er  Er3  1  0.746724  0.253724  0.746545  1
  Er  Er4  1  0.253208  0.253370  0.746852  1
  Er  Er5  1  0.253208  0.746630  0.253148  1
  Er  Er6  1  0.253208  0.746630  0.746852  1
  Er  Er7  1  0.746724  0.253724  0.253455  1
  Ge  Ge8  1  0.000491  0.000000  0.000000  1
  Pd  Pd9  1  0.500043  0.000000  0.259991  1
  Pd  Pd10  1  0.259542  0.000000  0.500000  1
  Pd  Pd11  1  0.500043  0.000000  0.740009  1
  Pd  Pd12  1  0.740242  0.000000  0.500000  1
  Pd  Pd13  1  0.999971  0.500000  0.259237  1
  Pd  Pd14  1  0.999971  0.500000  0.740763  1
  Pd  Pd15  1  0.711822  0.000000  0.000000  1
  Pd  Pd16  1  0.999799  0.289193  0.000000  1
  Pd  Pd17  1  0.999799  0.710807  0.000000  1
  Pd  Pd18  1  0.999741  0.000000  0.289458  1
  Pd  Pd19  1  0.999741  0.000000  0.710542  1
  Pt  Pt20  1  0.258733  0.500000  0.000000  1
  Pt  Pt21  1  0.740842  0.500000  0.000000  1
  Pt  Pt22  1  0.999970  0.259482  0.500000  1
  Pt  Pt23  1  0.499844  0.258924  0.000000  1
  Pt  Pt24  1  0.999970  0.740518  0.500000  1
  Pt  Pt25  1  0.499844  0.741076  0.000000  1
  Pt  Pt26  1  0.252329  0.500000  0.500000  1
  Pt  Pt27  1  0.747770  0.500000  0.500000  1
  Pt  Pt28  1  0.500066  0.252640  0.500000  1
  Pt  Pt29  1  0.500066  0.747360  0.500000  1
  Pt  Pt30  1  0.500057  0.500000  0.252768  1
  Pt  Pt31  1  0.500057  0.500000  0.747232  1
  Pt  Pt32  1  0.289522  0.000000  0.000000  1
