# generated using pymatgen
data_Tb2GdAl9Si3Os4
_symmetry_space_group_name_H-M   'P 1'
_cell_length_a   8.70354100
_cell_length_b   8.67744352
_cell_length_c   9.52630200
_cell_angle_alpha   90.00000000
_cell_angle_beta   90.00000000
_cell_angle_gamma   120.09953373
_symmetry_Int_Tables_number   1
_chemical_formula_structural   Tb2GdAl9Si3Os4
_chemical_formula_sum   'Tb4 Gd2 Al18 Si6 Os8'
_cell_volume   622.45261263
_cell_formula_units_Z   2
loop_
 _symmetry_equiv_pos_site_id
 _symmetry_equiv_pos_as_xyz
  1  'x, y, z'
loop_
 _atom_site_type_symbol
 _atom_site_label
 _atom_site_symmetry_multiplicity
 _atom_site_fract_x
 _atom_site_fract_y
 _atom_site_fract_z
 _atom_site_occupancy
  Tb  Tb0  1  0.611579  0.808242  0.250000  1
  Tb  Tb1  1  0.388421  0.191758  0.750000  1
  Tb  Tb2  1  0.196664  0.808242  0.250000  1
  Tb  Tb3  1  0.803336  0.191758  0.750000  1
  Gd  Gd4  1  0.192711  0.385422  0.250000  1
  Gd  Gd5  1  0.807289  0.614578  0.750000  1
  Al  Al6  1  0.164997  0.329993  0.578180  1
  Al  Al7  1  0.835003  0.670007  0.421820  1
  Al  Al8  1  0.670328  0.834646  0.576668  1
  Al  Al9  1  0.835003  0.670007  0.078180  1
  Al  Al10  1  0.329672  0.165354  0.423332  1
  Al  Al11  1  0.164997  0.329993  0.921820  1
  Al  Al12  1  0.164320  0.834646  0.576668  1
  Al  Al13  1  0.329672  0.165354  0.076668  1
  Al  Al14  1  0.835680  0.165354  0.423332  1
  Al  Al15  1  0.670328  0.834646  0.923332  1
  Al  Al16  1  0.835680  0.165354  0.076668  1
  Al  Al17  1  0.164320  0.834646  0.923332  1
  Al  Al18  1  0.872019  0.432899  0.250000  1
  Al  Al19  1  0.127981  0.567101  0.750000  1
  Al  Al20  1  0.560880  0.432899  0.250000  1
  Al  Al21  1  0.439120  0.567101  0.750000  1
  Al  Al22  1  0.999653  0.999306  0.250000  1
  Al  Al23  1  0.000347  0.000694  0.750000  1
  Si  Si24  1  0.332266  0.664533  0.038499  1
  Si  Si25  1  0.667734  0.335467  0.961501  1
  Si  Si26  1  0.667734  0.335467  0.538499  1
  Si  Si27  1  0.332266  0.664533  0.461501  1
  Si  Si28  1  0.563342  0.126686  0.250000  1
  Si  Si29  1  0.436658  0.873314  0.750000  1
  Os  Os30  1  0.500000  0.000000  0.000000  1
  Os  Os31  1  0.000000  0.500000  0.000000  1
  Os  Os32  1  0.500000  0.000000  0.500000  1
  Os  Os33  1  0.500000  0.500000  0.000000  1
  Os  Os34  1  0.000000  0.500000  0.500000  1
  Os  Os35  1  0.500000  0.500000  0.500000  1
  Os  Os36  1  0.000000  0.000000  0.000000  1
  Os  Os37  1  0.000000  0.000000  0.500000  1
