# generated using pymatgen
data_Cs2Ni(PtS2)2
_symmetry_space_group_name_H-M   'P 1'
_cell_length_a   6.13441801
_cell_length_b   6.13441828
_cell_length_c   8.07466168
_cell_angle_alpha   102.71152681
_cell_angle_beta   102.71153134
_cell_angle_gamma   114.88013116
_symmetry_Int_Tables_number   1
_chemical_formula_structural   Cs2Ni(PtS2)2
_chemical_formula_sum   'Cs2 Ni1 Pt2 S4'
_cell_volume   251.56359215
_cell_formula_units_Z   1
loop_
 _symmetry_equiv_pos_site_id
 _symmetry_equiv_pos_as_xyz
  1  'x, y, z'
loop_
 _atom_site_type_symbol
 _atom_site_label
 _atom_site_symmetry_multiplicity
 _atom_site_fract_x
 _atom_site_fract_y
 _atom_site_fract_z
 _atom_site_occupancy
  Cs  Cs0  1  0.656676  0.656676  0.313352  1
  Cs  Cs1  1  0.343324  0.343324  0.686648  1
  Ni  Ni2  1  0.000000  0.000000  0.000000  1
  Pt  Pt3  1  0.000000  0.500000  0.000000  1
  Pt  Pt4  1  0.500000  0.000000  0.000000  1
  S  S5  1  0.737650  0.064731  0.802381  1
  S  S6  1  0.935269  0.262350  0.197619  1
  S  S7  1  0.064731  0.737650  0.802381  1
  S  S8  1  0.262350  0.935269  0.197619  1
