# generated using pymatgen
data_La2Si5Pd3
_symmetry_space_group_name_H-M   'P 1'
_cell_length_a   8.37997756
_cell_length_b   8.37997777
_cell_length_c   8.37997818
_cell_angle_alpha   137.50787996
_cell_angle_beta   106.13215721
_cell_angle_gamma   89.12768574
_symmetry_Int_Tables_number   1
_chemical_formula_structural   La2Si5Pd3
_chemical_formula_sum   'La4 Si10 Pd6'
_cell_volume   365.18177702
_cell_formula_units_Z   2
loop_
 _symmetry_equiv_pos_site_id
 _symmetry_equiv_pos_as_xyz
  1  'x, y, z'
loop_
 _atom_site_type_symbol
 _atom_site_label
 _atom_site_symmetry_multiplicity
 _atom_site_fract_x
 _atom_site_fract_y
 _atom_site_fract_z
 _atom_site_occupancy
  La  La0  1  0.638313  0.372287  0.266026  1
  La  La1  1  0.361687  0.627713  0.733974  1
  La  La2  1  0.106260  0.872287  0.233974  1
  La  La3  1  0.893740  0.127713  0.766026  1
  Si  Si4  1  0.465802  0.114152  0.351650  1
  Si  Si5  1  0.534198  0.885848  0.648350  1
  Si  Si6  1  0.762502  0.614152  0.148350  1
  Si  Si7  1  0.237498  0.385848  0.851650  1
  Si  Si8  1  0.273833  0.523833  0.250000  1
  Si  Si9  1  0.726167  0.476167  0.750000  1
  Si  Si10  1  0.726167  0.976167  0.250000  1
  Si  Si11  1  0.273833  0.023833  0.750000  1
  Si  Si12  1  0.000000  0.250000  0.250000  1
  Si  Si13  1  0.000000  0.750000  0.750000  1
  Pd  Pd14  1  0.500000  0.250000  0.750000  1
  Pd  Pd15  1  0.500000  0.750000  0.250000  1
  Pd  Pd16  1  0.246302  0.137864  0.108439  1
  Pd  Pd17  1  0.753698  0.862136  0.891561  1
  Pd  Pd18  1  0.029425  0.637864  0.391561  1
  Pd  Pd19  1  0.970575  0.362136  0.608439  1
