# generated using pymatgen
data_Lu2ZrScAl17GaRh6
_symmetry_space_group_name_H-M   'P 1'
_cell_length_a   7.49413300
_cell_length_b   7.49215897
_cell_length_c   9.33984100
_cell_angle_alpha   90.00000000
_cell_angle_beta   90.00000000
_cell_angle_gamma   119.54908843
_symmetry_Int_Tables_number   1
_chemical_formula_structural   Lu2ZrScAl17GaRh6
_chemical_formula_sum   'Lu2 Zr1 Sc1 Al17 Ga1 Rh6'
_cell_volume   456.19856335
_cell_formula_units_Z   1
loop_
 _symmetry_equiv_pos_site_id
 _symmetry_equiv_pos_as_xyz
  1  'x, y, z'
loop_
 _atom_site_type_symbol
 _atom_site_label
 _atom_site_symmetry_multiplicity
 _atom_site_fract_x
 _atom_site_fract_y
 _atom_site_fract_z
 _atom_site_occupancy
  Lu  Lu0  1  0.007498  0.322086  0.750000  1
  Lu  Lu1  1  0.324241  0.008696  0.750000  1
  Zr  Zr2  1  0.997306  0.671241  0.250000  1
  Sc  Sc3  1  0.672552  0.997888  0.250000  1
  Al  Al4  1  0.121462  0.120241  0.250000  1
  Al  Al5  1  0.997160  0.335010  0.081412  1
  Al  Al6  1  0.999367  0.663659  0.926513  1
  Al  Al7  1  0.999367  0.663659  0.573487  1
  Al  Al8  1  0.335575  0.997680  0.418360  1
  Al  Al9  1  0.997160  0.335010  0.418588  1
  Al  Al10  1  0.663529  0.998790  0.573275  1
  Al  Al11  1  0.663529  0.998790  0.926725  1
  Al  Al12  1  0.335575  0.997680  0.081640  1
  Al  Al13  1  0.335443  0.335607  0.547536  1
  Al  Al14  1  0.671261  0.671565  0.436122  1
  Al  Al15  1  0.671261  0.671565  0.063878  1
  Al  Al16  1  0.335443  0.335607  0.952464  1
  Al  Al17  1  0.337782  0.556160  0.250000  1
  Al  Al18  1  0.660132  0.447998  0.750000  1
  Al  Al19  1  0.557813  0.341398  0.250000  1
  Al  Al20  1  0.446509  0.659877  0.750000  1
  Ga  Ga21  1  0.864928  0.864852  0.750000  1
  Rh  Rh22  1  0.673681  0.328776  0.001001  1
  Rh  Rh23  1  0.327991  0.673415  0.001546  1
  Rh  Rh24  1  0.327991  0.673415  0.498454  1
  Rh  Rh25  1  0.673681  0.328776  0.498999  1
  Rh  Rh26  1  0.000883  0.000281  0.002467  1
  Rh  Rh27  1  0.000883  0.000281  0.497533  1
