# generated using pymatgen
data_Dy3TmCo8(PRh)12
_symmetry_space_group_name_H-M   'P 1'
_cell_length_a   3.78871300
_cell_length_b   10.64623104
_cell_length_c   12.20466204
_cell_angle_alpha   89.99040421
_cell_angle_beta   90.00000000
_cell_angle_gamma   90.00000000
_symmetry_Int_Tables_number   1
_chemical_formula_structural   Dy3TmCo8(PRh)12
_chemical_formula_sum   'Dy3 Tm1 Co8 P12 Rh12'
_cell_volume   492.28130896
_cell_formula_units_Z   1
loop_
 _symmetry_equiv_pos_site_id
 _symmetry_equiv_pos_as_xyz
  1  'x, y, z'
loop_
 _atom_site_type_symbol
 _atom_site_label
 _atom_site_symmetry_multiplicity
 _atom_site_fract_x
 _atom_site_fract_y
 _atom_site_fract_z
 _atom_site_occupancy
  Dy  Dy0  1  0.250000  0.917223  0.209228  1
  Dy  Dy1  1  0.750000  0.417213  0.290838  1
  Dy  Dy2  1  0.750000  0.082739  0.790787  1
  Tm  Tm3  1  0.250000  0.582706  0.709047  1
  Co  Co4  1  0.250000  0.883501  0.696621  1
  Co  Co5  1  0.250000  0.616172  0.196413  1
  Co  Co6  1  0.750000  0.116205  0.303572  1
  Co  Co7  1  0.750000  0.384711  0.802929  1
  Co  Co8  1  0.250000  0.463913  0.931876  1
  Co  Co9  1  0.250000  0.036549  0.432910  1
  Co  Co10  1  0.750000  0.536707  0.066525  1
  Co  Co11  1  0.750000  0.962907  0.567403  1
  P  P12  1  0.250000  0.430762  0.110185  1
  P  P13  1  0.250000  0.069277  0.610660  1
  P  P14  1  0.750000  0.569359  0.888281  1
  P  P15  1  0.750000  0.930555  0.389481  1
  P  P16  1  0.250000  0.274317  0.871217  1
  P  P17  1  0.250000  0.225869  0.371343  1
  P  P18  1  0.750000  0.725635  0.128867  1
  P  P19  1  0.750000  0.773540  0.629282  1
  P  P20  1  0.250000  0.600301  0.381151  1
  P  P21  1  0.250000  0.899622  0.881297  1
  P  P22  1  0.750000  0.400380  0.619359  1
  P  P23  1  0.750000  0.100390  0.118717  1
  Rh  Rh24  1  0.250000  0.716058  0.990781  1
  Rh  Rh25  1  0.250000  0.783873  0.490841  1
  Rh  Rh26  1  0.750000  0.284090  0.009018  1
  Rh  Rh27  1  0.750000  0.216180  0.509543  1
  Rh  Rh28  1  0.250000  0.409081  0.479084  1
  Rh  Rh29  1  0.250000  0.091346  0.979105  1
  Rh  Rh30  1  0.750000  0.591329  0.522833  1
  Rh  Rh31  1  0.750000  0.908693  0.020853  1
  Rh  Rh32  1  0.250000  0.225830  0.180091  1
  Rh  Rh33  1  0.250000  0.274511  0.680283  1
  Rh  Rh34  1  0.750000  0.773142  0.819425  1
  Rh  Rh35  1  0.750000  0.725316  0.320155  1
