# generated using pymatgen
data_ScB4Ir4Pd3
_symmetry_space_group_name_H-M   'P 1'
_cell_length_a   7.00363686
_cell_length_b   6.24484896
_cell_length_c   5.58934769
_cell_angle_alpha   69.16003197
_cell_angle_beta   56.24686563
_cell_angle_gamma   50.03873565
_symmetry_Int_Tables_number   1
_chemical_formula_structural   ScB4Ir4Pd3
_chemical_formula_sum   'Sc1 B4 Ir4 Pd3'
_cell_volume   155.78897320
_cell_formula_units_Z   1
loop_
 _symmetry_equiv_pos_site_id
 _symmetry_equiv_pos_as_xyz
  1  'x, y, z'
loop_
 _atom_site_type_symbol
 _atom_site_label
 _atom_site_symmetry_multiplicity
 _atom_site_fract_x
 _atom_site_fract_y
 _atom_site_fract_z
 _atom_site_occupancy
  Sc  Sc0  1  0.931527  0.779858  0.408168  1
  B  B1  1  0.050993  0.999009  0.577666  1
  B  B2  1  0.675539  0.829458  0.179559  1
  B  B3  1  0.425835  0.565627  0.946635  1
  B  B4  1  0.279459  0.194220  0.845413  1
  Ir  Ir5  1  0.100674  0.637411  0.872641  1
  Ir  Ir6  1  0.376113  0.849471  0.140014  1
  Ir  Ir7  1  0.607219  0.155008  0.861060  1
  Ir  Ir8  1  0.390797  0.877251  0.622593  1
  Pd  Pd9  1  0.465554  0.309174  0.369627  1
  Pd  Pd10  1  0.863588  0.366334  0.321588  1
  Pd  Pd11  1  0.887902  0.381976  0.799835  1
