# generated using pymatgen
data_Tb5Th3(Nb3Si4)4
_symmetry_space_group_name_H-M   'P 1'
_cell_length_a   6.95594970
_cell_length_b   7.16994154
_cell_length_c   13.55222653
_cell_angle_alpha   90.07062529
_cell_angle_beta   89.90224685
_cell_angle_gamma   90.02618348
_symmetry_Int_Tables_number   1
_chemical_formula_structural   Tb5Th3(Nb3Si4)4
_chemical_formula_sum   'Tb5 Th3 Nb12 Si16'
_cell_volume   675.89882799
_cell_formula_units_Z   1
loop_
 _symmetry_equiv_pos_site_id
 _symmetry_equiv_pos_as_xyz
  1  'x, y, z'
loop_
 _atom_site_type_symbol
 _atom_site_label
 _atom_site_symmetry_multiplicity
 _atom_site_fract_x
 _atom_site_fract_y
 _atom_site_fract_z
 _atom_site_occupancy
  Tb  Tb0  1  0.994841  0.170950  0.403994  1
  Tb  Tb1  1  0.494468  0.328512  0.402779  1
  Tb  Tb2  1  0.995664  0.170855  0.097502  1
  Tb  Tb3  1  0.504114  0.670909  0.902689  1
  Tb  Tb4  1  0.004930  0.828780  0.595931  1
  Th  Th5  1  0.506613  0.670522  0.593811  1
  Th  Th6  1  0.005114  0.830067  0.905320  1
  Th  Th7  1  0.494133  0.329539  0.096346  1
  Nb  Nb8  1  0.663727  0.174789  0.625187  1
  Nb  Nb9  1  0.164341  0.325689  0.874605  1
  Nb  Nb10  1  0.335126  0.826417  0.125920  1
  Nb  Nb11  1  0.835964  0.675168  0.374953  1
  Nb  Nb12  1  0.333932  0.826796  0.375158  1
  Nb  Nb13  1  0.833892  0.672743  0.126146  1
  Nb  Nb14  1  0.666501  0.172345  0.874514  1
  Nb  Nb15  1  0.167095  0.327531  0.625305  1
  Nb  Nb16  1  0.839060  0.491726  0.750262  1
  Nb  Nb17  1  0.338656  0.007641  0.748783  1
  Nb  Nb18  1  0.161111  0.509504  0.250232  1
  Nb  Nb19  1  0.660381  0.992971  0.250095  1
  Si  Si20  1  0.661243  0.966067  0.456287  1
  Si  Si21  1  0.156131  0.538574  0.043022  1
  Si  Si22  1  0.344053  0.038421  0.957300  1
  Si  Si23  1  0.845213  0.458292  0.540516  1
  Si  Si24  1  0.336274  0.042866  0.540624  1
  Si  Si25  1  0.837290  0.457364  0.957838  1
  Si  Si26  1  0.662454  0.956952  0.042729  1
  Si  Si27  1  0.159640  0.537159  0.456664  1
  Si  Si28  1  0.462013  0.371961  0.751549  1
  Si  Si29  1  0.961823  0.128439  0.747996  1
  Si  Si30  1  0.538630  0.628008  0.252087  1
  Si  Si31  1  0.037643  0.874171  0.250166  1
  Si  Si32  1  0.704554  0.879983  0.749340  1
  Si  Si33  1  0.204722  0.619979  0.749787  1
  Si  Si34  1  0.291466  0.121056  0.252185  1
  Si  Si35  1  0.797189  0.377256  0.252377  1
