# generated using pymatgen
data_Tm8Ga3Os
_symmetry_space_group_name_H-M   'P 1'
_cell_length_a   9.88935401
_cell_length_b   9.88920963
_cell_length_c   6.95108700
_cell_angle_alpha   90.00000000
_cell_angle_beta   90.00000000
_cell_angle_gamma   119.99582573
_symmetry_Int_Tables_number   1
_chemical_formula_structural   Tm8Ga3Os
_chemical_formula_sum   'Tm16 Ga6 Os2'
_cell_volume   588.75028266
_cell_formula_units_Z   2
loop_
 _symmetry_equiv_pos_site_id
 _symmetry_equiv_pos_as_xyz
  1  'x, y, z'
loop_
 _atom_site_type_symbol
 _atom_site_label
 _atom_site_symmetry_multiplicity
 _atom_site_fract_x
 _atom_site_fract_y
 _atom_site_fract_z
 _atom_site_occupancy
  Tm  Tm0  1  0.666669  0.333327  0.159939  1
  Tm  Tm1  1  0.000001  0.000003  0.265031  1
  Tm  Tm2  1  0.466171  0.932350  0.294862  1
  Tm  Tm3  1  0.067658  0.533832  0.294863  1
  Tm  Tm4  1  0.466168  0.533839  0.294851  1
  Tm  Tm5  1  0.343362  0.171674  0.490335  1
  Tm  Tm6  1  0.828316  0.171683  0.490330  1
  Tm  Tm7  1  0.828328  0.656647  0.490332  1
  Tm  Tm8  1  0.333330  0.666673  0.659938  1
  Tm  Tm9  1  0.999999  0.999997  0.765030  1
  Tm  Tm10  1  0.533829  0.067651  0.794863  1
  Tm  Tm11  1  0.533832  0.466161  0.794852  1
  Tm  Tm12  1  0.932343  0.466168  0.794864  1
  Tm  Tm13  1  0.171685  0.828317  0.990329  1
  Tm  Tm14  1  0.656639  0.828326  0.990334  1
  Tm  Tm15  1  0.171672  0.343352  0.990333  1
  Ga  Ga16  1  0.836166  0.672328  0.041838  1
  Ga  Ga17  1  0.327671  0.163826  0.041843  1
  Ga  Ga18  1  0.836154  0.163832  0.041854  1
  Ga  Ga19  1  0.163834  0.327673  0.541839  1
  Ga  Ga20  1  0.163846  0.836168  0.541855  1
  Ga  Ga21  1  0.672329  0.836174  0.541844  1
  Os  Os22  1  0.333331  0.666649  0.055922  1
  Os  Os23  1  0.666669  0.333350  0.555921  1
