# generated using pymatgen
data_Be5Ru2
_symmetry_space_group_name_H-M   'P 1'
_cell_length_a   5.64138675
_cell_length_b   5.64138665
_cell_length_c   5.89860421
_cell_angle_alpha   97.67872876
_cell_angle_beta   97.67872937
_cell_angle_gamma   45.20585411
_symmetry_Int_Tables_number   1
_chemical_formula_structural   Be5Ru2
_chemical_formula_sum   'Be10 Ru4'
_cell_volume   131.81461485
_cell_formula_units_Z   2
loop_
 _symmetry_equiv_pos_site_id
 _symmetry_equiv_pos_as_xyz
  1  'x, y, z'
loop_
 _atom_site_type_symbol
 _atom_site_label
 _atom_site_symmetry_multiplicity
 _atom_site_fract_x
 _atom_site_fract_y
 _atom_site_fract_z
 _atom_site_occupancy
  Be  Be0  1  0.050413  0.768004  0.916865  1
  Be  Be1  1  0.231996  0.949587  0.583135  1
  Be  Be2  1  0.949587  0.231996  0.083135  1
  Be  Be3  1  0.768004  0.050413  0.416865  1
  Be  Be4  1  0.071465  0.364087  0.812680  1
  Be  Be5  1  0.635913  0.928535  0.687320  1
  Be  Be6  1  0.928535  0.635913  0.187320  1
  Be  Be7  1  0.364087  0.071465  0.312680  1
  Be  Be8  1  0.779832  0.220168  0.750000  1
  Be  Be9  1  0.220168  0.779832  0.250000  1
  Ru  Ru10  1  0.243303  0.520218  0.558562  1
  Ru  Ru11  1  0.479782  0.756697  0.941438  1
  Ru  Ru12  1  0.756697  0.479782  0.441438  1
  Ru  Ru13  1  0.520218  0.243303  0.058562  1
