# generated using pymatgen
data_KBaPd4
_symmetry_space_group_name_H-M   'P 1'
_cell_length_a   5.67965207
_cell_length_b   5.67965237
_cell_length_c   5.67965200
_cell_angle_alpha   60.00000215
_cell_angle_beta   60.00000042
_cell_angle_gamma   60.00000538
_symmetry_Int_Tables_number   1
_chemical_formula_structural   KBaPd4
_chemical_formula_sum   'K1 Ba1 Pd4'
_cell_volume   129.55382572
_cell_formula_units_Z   1
loop_
 _symmetry_equiv_pos_site_id
 _symmetry_equiv_pos_as_xyz
  1  'x, y, z'
loop_
 _atom_site_type_symbol
 _atom_site_label
 _atom_site_symmetry_multiplicity
 _atom_site_fract_x
 _atom_site_fract_y
 _atom_site_fract_z
 _atom_site_occupancy
  K  K0  1  0.500000  0.500000  0.500000  1
  Ba  Ba1  1  0.750000  0.750000  0.750000  1
  Pd  Pd2  1  0.125081  0.125081  0.125081  1
  Pd  Pd3  1  0.624758  0.125081  0.125081  1
  Pd  Pd4  1  0.125081  0.624758  0.125081  1
  Pd  Pd5  1  0.125081  0.125081  0.624758  1
