# generated using pymatgen
data_Sr21Ga8Si6Hg
_symmetry_space_group_name_H-M   'P 1'
_cell_length_a   11.83286552
_cell_length_b   11.83286735
_cell_length_c   11.83286600
_cell_angle_alpha   60.00000378
_cell_angle_beta   59.99999865
_cell_angle_gamma   59.99999939
_symmetry_Int_Tables_number   1
_chemical_formula_structural   Sr21Ga8Si6Hg
_chemical_formula_sum   'Sr21 Ga8 Si6 Hg1'
_cell_volume   1171.53395223
_cell_formula_units_Z   1
loop_
 _symmetry_equiv_pos_site_id
 _symmetry_equiv_pos_as_xyz
  1  'x, y, z'
loop_
 _atom_site_type_symbol
 _atom_site_label
 _atom_site_symmetry_multiplicity
 _atom_site_fract_x
 _atom_site_fract_y
 _atom_site_fract_z
 _atom_site_occupancy
  Sr  Sr0  1  0.872490  0.872490  0.382530  1
  Sr  Sr1  1  0.617470  0.127510  0.127510  1
  Sr  Sr2  1  0.872490  0.382530  0.872490  1
  Sr  Sr3  1  0.127510  0.127510  0.127510  1
  Sr  Sr4  1  0.382530  0.872490  0.872490  1
  Sr  Sr5  1  0.872490  0.872490  0.872490  1
  Sr  Sr6  1  0.175336  0.824664  0.500000  1
  Sr  Sr7  1  0.824664  0.500000  0.500000  1
  Sr  Sr8  1  0.127510  0.127510  0.617470  1
  Sr  Sr9  1  0.824664  0.175336  0.500000  1
  Sr  Sr10  1  0.175336  0.500000  0.500000  1
  Sr  Sr11  1  0.127510  0.617470  0.127510  1
  Sr  Sr12  1  0.500000  0.500000  0.175336  1
  Sr  Sr13  1  0.500000  0.175336  0.824664  1
  Sr  Sr14  1  0.500000  0.824664  0.175336  1
  Sr  Sr15  1  0.500000  0.500000  0.824664  1
  Sr  Sr16  1  0.500000  0.175336  0.500000  1
  Sr  Sr17  1  0.175336  0.500000  0.824664  1
  Sr  Sr18  1  0.000000  0.000000  0.000000  1
  Sr  Sr19  1  0.500000  0.824664  0.500000  1
  Sr  Sr20  1  0.824664  0.500000  0.175336  1
  Ga  Ga21  1  0.692773  0.921683  0.692773  1
  Ga  Ga22  1  0.692773  0.692773  0.921683  1
  Ga  Ga23  1  0.692773  0.692773  0.692773  1
  Ga  Ga24  1  0.307227  0.078317  0.307227  1
  Ga  Ga25  1  0.921683  0.692773  0.692773  1
  Ga  Ga26  1  0.307227  0.307227  0.078317  1
  Ga  Ga27  1  0.078317  0.307227  0.307227  1
  Ga  Ga28  1  0.307227  0.307227  0.307227  1
  Si  Si29  1  0.784790  0.215210  0.784790  1
  Si  Si30  1  0.784790  0.215210  0.215210  1
  Si  Si31  1  0.215210  0.784790  0.215210  1
  Si  Si32  1  0.215210  0.784790  0.784790  1
  Si  Si33  1  0.784790  0.784790  0.215210  1
  Si  Si34  1  0.215210  0.215210  0.784790  1
  Hg  Hg35  1  0.500000  0.500000  0.500000  1
