# generated using pymatgen
data_Dy12Ho8Ir11Ru
_symmetry_space_group_name_H-M   'P 1'
_cell_length_a   10.85750300
_cell_length_b   10.85495100
_cell_length_c   6.39002400
_cell_angle_alpha   90.00000000
_cell_angle_beta   90.00000000
_cell_angle_gamma   89.99991556
_symmetry_Int_Tables_number   1
_chemical_formula_structural   Dy12Ho8Ir11Ru
_chemical_formula_sum   'Dy12 Ho8 Ir11 Ru1'
_cell_volume   753.11329546
_cell_formula_units_Z   1
loop_
 _symmetry_equiv_pos_site_id
 _symmetry_equiv_pos_as_xyz
  1  'x, y, z'
loop_
 _atom_site_type_symbol
 _atom_site_label
 _atom_site_symmetry_multiplicity
 _atom_site_fract_x
 _atom_site_fract_y
 _atom_site_fract_z
 _atom_site_occupancy
  Dy  Dy0  1  0.292140  0.087198  0.376691  1
  Dy  Dy1  1  0.292452  0.912762  0.879472  1
  Dy  Dy2  1  0.707548  0.087238  0.879472  1
  Dy  Dy3  1  0.707860  0.912802  0.376691  1
  Dy  Dy4  1  0.587186  0.792486  0.879564  1
  Dy  Dy5  1  0.587139  0.207829  0.376801  1
  Dy  Dy6  1  0.412861  0.792171  0.376801  1
  Dy  Dy7  1  0.412814  0.207514  0.879564  1
  Dy  Dy8  1  0.209076  0.411836  0.622003  1
  Dy  Dy9  1  0.209056  0.588029  0.121676  1
  Dy  Dy10  1  0.790944  0.411971  0.121676  1
  Dy  Dy11  1  0.790924  0.588164  0.622003  1
  Ho  Ho12  1  0.912060  0.709040  0.121501  1
  Ho  Ho13  1  0.911926  0.290939  0.621830  1
  Ho  Ho14  1  0.088074  0.709061  0.621830  1
  Ho  Ho15  1  0.087940  0.290960  0.121501  1
  Ho  Ho16  1  0.000000  0.000000  0.499460  1
  Ho  Ho17  1  0.000000  0.000000  0.999417  1
  Ho  Ho18  1  0.500000  0.500000  0.999409  1
  Ho  Ho19  1  0.500000  0.500000  0.499441  1
  Ir  Ir20  1  0.847448  0.153633  0.250299  1
  Ir  Ir21  1  0.847535  0.846708  0.750035  1
  Ir  Ir22  1  0.152465  0.153292  0.750035  1
  Ir  Ir23  1  0.152552  0.846367  0.250299  1
  Ir  Ir24  1  0.653309  0.347294  0.749704  1
  Ir  Ir25  1  0.653653  0.652793  0.249945  1
  Ir  Ir26  1  0.346347  0.347207  0.249945  1
  Ir  Ir27  1  0.346691  0.652706  0.749704  1
  Ir  Ir28  1  0.500000  0.000000  0.622589  1
  Ir  Ir29  1  0.000000  0.500000  0.878742  1
  Ir  Ir30  1  0.000000  0.500000  0.378866  1
  Ru  Ru31  1  0.500000  0.000000  0.123040  1
