# generated using pymatgen
data_YTm2Ni8Ir
_symmetry_space_group_name_H-M   'P 1'
_cell_length_a   4.95711386
_cell_length_b   4.95711377
_cell_length_c   8.78558624
_cell_angle_alpha   73.61344722
_cell_angle_beta   73.61345073
_cell_angle_gamma   60.00000377
_symmetry_Int_Tables_number   1
_chemical_formula_structural   YTm2Ni8Ir
_chemical_formula_sum   'Y1 Tm2 Ni8 Ir1'
_cell_volume   176.76607426
_cell_formula_units_Z   1
loop_
 _symmetry_equiv_pos_site_id
 _symmetry_equiv_pos_as_xyz
  1  'x, y, z'
loop_
 _atom_site_type_symbol
 _atom_site_label
 _atom_site_symmetry_multiplicity
 _atom_site_fract_x
 _atom_site_fract_y
 _atom_site_fract_z
 _atom_site_occupancy
  Y  Y0  1  0.000000  0.000000  0.000000  1
  Tm  Tm1  1  0.138371  0.138371  0.584886  1
  Tm  Tm2  1  0.861629  0.861629  0.415114  1
  Ni  Ni3  1  0.077881  0.582052  0.758014  1
  Ni  Ni4  1  0.582052  0.582052  0.758014  1
  Ni  Ni5  1  0.582052  0.077881  0.758014  1
  Ni  Ni6  1  0.922119  0.417948  0.241986  1
  Ni  Ni7  1  0.417948  0.417948  0.241986  1
  Ni  Ni8  1  0.417948  0.922119  0.241986  1
  Ni  Ni9  1  0.333304  0.333304  0.000088  1
  Ni  Ni10  1  0.666696  0.666696  0.999912  1
  Ir  Ir11  1  0.500000  0.500000  0.500000  1
