# generated using pymatgen
data_Sr6Tc2HN6
_symmetry_space_group_name_H-M   'P 1'
_cell_length_a   6.45605881
_cell_length_b   6.45605979
_cell_length_c   6.45605978
_cell_angle_alpha   95.94769885
_cell_angle_beta   95.94771218
_cell_angle_gamma   95.94771500
_symmetry_Int_Tables_number   1
_chemical_formula_structural   Sr6Tc2HN6
_chemical_formula_sum   'Sr6 Tc2 H1 N6'
_cell_volume   264.41913095
_cell_formula_units_Z   1
loop_
 _symmetry_equiv_pos_site_id
 _symmetry_equiv_pos_as_xyz
  1  'x, y, z'
loop_
 _atom_site_type_symbol
 _atom_site_label
 _atom_site_symmetry_multiplicity
 _atom_site_fract_x
 _atom_site_fract_y
 _atom_site_fract_z
 _atom_site_occupancy
  Sr  Sr0  1  0.627799  0.112753  0.788112  1
  Sr  Sr1  1  0.112753  0.788112  0.627799  1
  Sr  Sr2  1  0.788112  0.627799  0.112753  1
  Sr  Sr3  1  0.372201  0.887247  0.211888  1
  Sr  Sr4  1  0.887247  0.211888  0.372201  1
  Sr  Sr5  1  0.211888  0.372201  0.887247  1
  Tc  Tc6  1  0.620765  0.620765  0.620765  1
  Tc  Tc7  1  0.379235  0.379235  0.379235  1
  H  H8  1  0.000000  0.000000  0.000000  1
  N  N9  1  0.724950  0.848778  0.477083  1
  N  N10  1  0.848778  0.477083  0.724950  1
  N  N11  1  0.477083  0.724950  0.848778  1
  N  N12  1  0.275050  0.151222  0.522917  1
  N  N13  1  0.151222  0.522917  0.275050  1
  N  N14  1  0.522917  0.275050  0.151222  1
