# generated using pymatgen
data_Tm12Tc3Ge
_symmetry_space_group_name_H-M   'P 1'
_cell_length_a   6.19776731
_cell_length_b   7.44750761
_cell_length_c   9.01441400
_cell_angle_alpha   90.00000000
_cell_angle_beta   90.00000000
_cell_angle_gamma   89.76733582
_symmetry_Int_Tables_number   1
_chemical_formula_structural   Tm12Tc3Ge
_chemical_formula_sum   'Tm12 Tc3 Ge1'
_cell_volume   416.08316258
_cell_formula_units_Z   1
loop_
 _symmetry_equiv_pos_site_id
 _symmetry_equiv_pos_as_xyz
  1  'x, y, z'
loop_
 _atom_site_type_symbol
 _atom_site_label
 _atom_site_symmetry_multiplicity
 _atom_site_fract_x
 _atom_site_fract_y
 _atom_site_fract_z
 _atom_site_occupancy
  Tm  Tm0  1  0.334774  0.675629  0.064816  1
  Tm  Tm1  1  0.162115  0.178977  0.434783  1
  Tm  Tm2  1  0.658516  0.311045  0.558640  1
  Tm  Tm3  1  0.848393  0.834932  0.940570  1
  Tm  Tm4  1  0.658516  0.311045  0.941360  1
  Tm  Tm5  1  0.848393  0.834932  0.559430  1
  Tm  Tm6  1  0.334774  0.675629  0.435184  1
  Tm  Tm7  1  0.162115  0.178977  0.065217  1
  Tm  Tm8  1  0.871766  0.540357  0.250000  1
  Tm  Tm9  1  0.620419  0.034307  0.250000  1
  Tm  Tm10  1  0.117032  0.457425  0.750000  1
  Tm  Tm11  1  0.370915  0.971510  0.750000  1
  Tc  Tc12  1  0.037399  0.880529  0.250000  1
  Tc  Tc13  1  0.462520  0.380772  0.250000  1
  Tc  Tc14  1  0.953558  0.118815  0.750000  1
  Ge  Ge15  1  0.558792  0.615120  0.750000  1
