# generated using pymatgen
data_ZrTaN3
_symmetry_space_group_name_H-M   'P 1'
_cell_length_a   3.06599300
_cell_length_b   5.20550373
_cell_length_c   7.47444100
_cell_angle_alpha   90.00000000
_cell_angle_beta   90.00000000
_cell_angle_gamma   72.87272859
_symmetry_Int_Tables_number   1
_chemical_formula_structural   ZrTaN3
_chemical_formula_sum   'Zr2 Ta2 N6'
_cell_volume   114.00209811
_cell_formula_units_Z   2
loop_
 _symmetry_equiv_pos_site_id
 _symmetry_equiv_pos_as_xyz
  1  'x, y, z'
loop_
 _atom_site_type_symbol
 _atom_site_label
 _atom_site_symmetry_multiplicity
 _atom_site_fract_x
 _atom_site_fract_y
 _atom_site_fract_z
 _atom_site_occupancy
  Zr  Zr0  1  0.742715  0.514570  0.250000  1
  Zr  Zr1  1  0.257283  0.485432  0.750000  1
  Ta  Ta2  1  0.000000  0.000000  0.000000  1
  Ta  Ta3  1  0.000000  0.000000  0.499999  1
  N  N4  1  0.364180  0.271638  0.070622  1
  N  N5  1  0.089842  0.820314  0.250000  1
  N  N6  1  0.364180  0.271638  0.429379  1
  N  N7  1  0.635818  0.728362  0.570621  1
  N  N8  1  0.910156  0.179686  0.750000  1
  N  N9  1  0.635818  0.728362  0.929378  1
