# generated using pymatgen
data_Ba2Sr4(VH9)3
_symmetry_space_group_name_H-M   'P 1'
_cell_length_a   8.94417427
_cell_length_b   9.02133600
_cell_length_c   5.24682900
_cell_angle_alpha   90.00000000
_cell_angle_beta   90.00000000
_cell_angle_gamma   120.28581013
_symmetry_Int_Tables_number   1
_chemical_formula_structural   Ba2Sr4(VH9)3
_chemical_formula_sum   'Ba2 Sr4 V3 H27'
_cell_volume   365.57851225
_cell_formula_units_Z   1
loop_
 _symmetry_equiv_pos_site_id
 _symmetry_equiv_pos_as_xyz
  1  'x, y, z'
loop_
 _atom_site_type_symbol
 _atom_site_label
 _atom_site_symmetry_multiplicity
 _atom_site_fract_x
 _atom_site_fract_y
 _atom_site_fract_z
 _atom_site_occupancy
  Ba  Ba0  1  0.404868  0.405241  0.000000  1
  Ba  Ba1  1  0.595132  0.000373  0.000000  1
  Sr  Sr2  1  0.000000  0.263913  0.500000  1
  Sr  Sr3  1  0.734829  0.732493  0.500000  1
  Sr  Sr4  1  0.265171  0.997664  0.500000  1
  Sr  Sr5  1  0.000000  0.594675  0.000000  1
  V  V6  1  0.673991  0.339576  0.500000  1
  V  V7  1  0.326009  0.665586  0.500000  1
  V  V8  1  0.000000  0.993821  0.000000  1
  H  H9  1  0.801176  0.324364  0.740967  1
  H  H10  1  0.695521  0.481854  0.742254  1
  H  H11  1  0.525842  0.212996  0.735706  1
  H  H12  1  0.198824  0.523189  0.259033  1
  H  H13  1  0.525842  0.212996  0.264294  1
  H  H14  1  0.801176  0.324364  0.259033  1
  H  H15  1  0.695521  0.481854  0.257746  1
  H  H16  1  0.304479  0.786334  0.742254  1
  H  H17  1  0.474158  0.687155  0.735706  1
  H  H18  1  0.197036  0.003530  0.000000  1
  H  H19  1  0.802964  0.806494  0.000000  1
  H  H20  1  0.000000  0.185772  0.000000  1
  H  H21  1  0.865491  0.995599  0.234530  1
  H  H22  1  0.134509  0.130108  0.765470  1
  H  H23  1  0.000000  0.851992  0.775468  1
  H  H24  1  0.000000  0.851992  0.224532  1
  H  H25  1  0.134509  0.130108  0.234530  1
  H  H26  1  0.865491  0.995599  0.765470  1
  H  H27  1  0.128697  0.646204  0.500000  1
  H  H28  1  0.501280  0.866575  0.500000  1
  H  H29  1  0.342770  0.485433  0.500000  1
  H  H30  1  0.498720  0.365295  0.500000  1
  H  H31  1  0.871303  0.517507  0.500000  1
  H  H32  1  0.657230  0.142663  0.500000  1
  H  H33  1  0.198824  0.523189  0.740967  1
  H  H34  1  0.304479  0.786334  0.257746  1
  H  H35  1  0.474158  0.687155  0.264294  1
