# generated using pymatgen
data_Dy8Ti5Si16W7
_symmetry_space_group_name_H-M   'P 1'
_cell_length_a   6.93013015
_cell_length_b   6.92503303
_cell_length_c   12.83679549
_cell_angle_alpha   89.86845109
_cell_angle_beta   90.04869240
_cell_angle_gamma   90.03165351
_symmetry_Int_Tables_number   1
_chemical_formula_structural   Dy8Ti5Si16W7
_chemical_formula_sum   'Dy8 Ti5 Si16 W7'
_cell_volume   616.05359347
_cell_formula_units_Z   1
loop_
 _symmetry_equiv_pos_site_id
 _symmetry_equiv_pos_as_xyz
  1  'x, y, z'
loop_
 _atom_site_type_symbol
 _atom_site_label
 _atom_site_symmetry_multiplicity
 _atom_site_fract_x
 _atom_site_fract_y
 _atom_site_fract_z
 _atom_site_occupancy
  Dy  Dy0  1  0.339852  0.002406  0.467614  1
  Dy  Dy1  1  0.498517  0.839601  0.719027  1
  Dy  Dy2  1  0.501218  0.160927  0.218731  1
  Dy  Dy3  1  0.838802  0.497332  0.280796  1
  Dy  Dy4  1  0.161076  0.501669  0.782380  1
  Dy  Dy5  1  0.660506  0.998469  0.968684  1
  Dy  Dy6  1  0.002141  0.339062  0.531594  1
  Dy  Dy7  1  0.996833  0.662143  0.031007  1
  Ti  Ti8  1  0.330711  0.331253  0.999388  1
  Ti  Ti9  1  0.168449  0.829826  0.249898  1
  Ti  Ti10  1  0.829108  0.171263  0.750455  1
  Ti  Ti11  1  0.668909  0.666497  0.499060  1
  Ti  Ti12  1  0.994478  0.840303  0.626265  1
  Si  Si13  1  0.203464  0.128614  0.683197  1
  Si  Si14  1  0.371817  0.703070  0.933263  1
  Si  Si15  1  0.629898  0.297703  0.433082  1
  Si  Si16  1  0.700467  0.371338  0.067193  1
  Si  Si17  1  0.299775  0.628525  0.566056  1
  Si  Si18  1  0.797667  0.871553  0.182987  1
  Si  Si19  1  0.126831  0.201387  0.317091  1
  Si  Si20  1  0.872686  0.799137  0.816670  1
  Si  Si21  1  0.289767  0.960385  0.062904  1
  Si  Si22  1  0.539418  0.789551  0.312718  1
  Si  Si23  1  0.459759  0.210421  0.812611  1
  Si  Si24  1  0.790762  0.541393  0.687468  1
  Si  Si25  1  0.209473  0.459502  0.186736  1
  Si  Si26  1  0.710658  0.040553  0.563384  1
  Si  Si27  1  0.959632  0.290878  0.937432  1
  Si  Si28  1  0.041751  0.709134  0.437355  1
  W  W29  1  0.160495  0.008715  0.874808  1
  W  W30  1  0.492384  0.659950  0.124054  1
  W  W31  1  0.507555  0.340241  0.623222  1
  W  W32  1  0.658499  0.492277  0.877941  1
  W  W33  1  0.341701  0.503905  0.374895  1
  W  W34  1  0.839057  0.991085  0.373327  1
  W  W35  1  0.005883  0.159931  0.126706  1
