# generated using pymatgen
data_Rb7Na9(TiS4)4
_symmetry_space_group_name_H-M   'P 1'
_cell_length_a   7.14140016
_cell_length_b   9.95959500
_cell_length_c   14.71249900
_cell_angle_alpha   90.00000000
_cell_angle_beta   90.25032784
_cell_angle_gamma   90.00000000
_symmetry_Int_Tables_number   1
_chemical_formula_structural   Rb7Na9(TiS4)4
_chemical_formula_sum   'Rb7 Na9 Ti4 S16'
_cell_volume   1046.42317342
_cell_formula_units_Z   1
loop_
 _symmetry_equiv_pos_site_id
 _symmetry_equiv_pos_as_xyz
  1  'x, y, z'
loop_
 _atom_site_type_symbol
 _atom_site_label
 _atom_site_symmetry_multiplicity
 _atom_site_fract_x
 _atom_site_fract_y
 _atom_site_fract_z
 _atom_site_occupancy
  Rb  Rb0  1  0.008020  0.997133  0.999946  1
  Rb  Rb1  1  0.498360  0.001027  0.500901  1
  Rb  Rb2  1  0.008020  0.502867  0.999946  1
  Rb  Rb3  1  0.498360  0.498973  0.500901  1
  Rb  Rb4  1  0.999531  0.750000  0.434424  1
  Rb  Rb5  1  0.505746  0.250000  0.066520  1
  Rb  Rb6  1  0.998050  0.250000  0.569512  1
  Na  Na7  1  0.555956  0.750000  0.945497  1
  Na  Na8  1  0.816133  0.062485  0.255044  1
  Na  Na9  1  0.316577  0.935212  0.239531  1
  Na  Na10  1  0.181042  0.568352  0.745772  1
  Na  Na11  1  0.685780  0.435475  0.761896  1
  Na  Na12  1  0.181042  0.931648  0.745772  1
  Na  Na13  1  0.685780  0.064525  0.761896  1
  Na  Na14  1  0.816133  0.437515  0.255044  1
  Na  Na15  1  0.316577  0.564788  0.239531  1
  Ti  Ti16  1  0.772640  0.750000  0.689319  1
  Ti  Ti17  1  0.210573  0.250000  0.310512  1
  Ti  Ti18  1  0.709125  0.750000  0.182891  1
  Ti  Ti19  1  0.293567  0.250000  0.814780  1
  S  S20  1  0.974904  0.250000  0.815230  1
  S  S21  1  0.529663  0.250000  0.309729  1
  S  S22  1  0.455288  0.750000  0.677815  1
  S  S23  1  0.027511  0.750000  0.184961  1
  S  S24  1  0.606028  0.565538  0.107799  1
  S  S25  1  0.109552  0.437324  0.382932  1
  S  S26  1  0.393975  0.058543  0.885415  1
  S  S27  1  0.884696  0.936247  0.619508  1
  S  S28  1  0.393975  0.441457  0.885415  1
  S  S29  1  0.884696  0.563753  0.619508  1
  S  S30  1  0.606028  0.934462  0.107799  1
  S  S31  1  0.109552  0.062676  0.382932  1
  S  S32  1  0.581645  0.750000  0.326215  1
  S  S33  1  0.080098  0.250000  0.167299  1
  S  S34  1  0.419430  0.250000  0.671237  1
  S  S35  1  0.885949  0.750000  0.836573  1
