# generated using pymatgen
data_Tm9Lu(CoRu)2
_symmetry_space_group_name_H-M   'P 1'
_cell_length_a   6.19739716
_cell_length_b   7.07502550
_cell_length_c   8.35255124
_cell_angle_alpha   96.68734733
_cell_angle_beta   112.31653569
_cell_angle_gamma   89.60258497
_symmetry_Int_Tables_number   1
_chemical_formula_structural   Tm9Lu(CoRu)2
_chemical_formula_sum   'Tm9 Lu1 Co2 Ru2'
_cell_volume   336.21922178
_cell_formula_units_Z   1
loop_
 _symmetry_equiv_pos_site_id
 _symmetry_equiv_pos_as_xyz
  1  'x, y, z'
loop_
 _atom_site_type_symbol
 _atom_site_label
 _atom_site_symmetry_multiplicity
 _atom_site_fract_x
 _atom_site_fract_y
 _atom_site_fract_z
 _atom_site_occupancy
  Tm  Tm0  1  0.525797  0.088302  0.815762  1
  Tm  Tm1  1  0.474351  0.911109  0.184151  1
  Tm  Tm2  1  0.700194  0.417734  0.188597  1
  Tm  Tm3  1  0.300304  0.582880  0.811548  1
  Tm  Tm4  1  0.288593  0.319751  0.432754  1
  Tm  Tm5  1  0.711349  0.680219  0.567632  1
  Tm  Tm6  1  0.855614  0.186443  0.564538  1
  Tm  Tm7  1  0.143956  0.813324  0.434993  1
  Tm  Tm8  1  0.078221  0.258688  0.000175  1
  Lu  Lu9  1  0.922187  0.741749  0.999801  1
  Co  Co10  1  0.325858  0.577606  0.226620  1
  Co  Co11  1  0.673880  0.423017  0.773431  1
  Ru  Ru12  1  0.104979  0.924999  0.784426  1
  Ru  Ru13  1  0.894716  0.074178  0.215573  1
