# generated using pymatgen
data_SmDy2Co8MoP6
_symmetry_space_group_name_H-M   'P 1'
_cell_length_a   3.73929600
_cell_length_b   10.59343500
_cell_length_c   12.29979800
_cell_angle_alpha   90.00000000
_cell_angle_beta   90.00000000
_cell_angle_gamma   90.00000000
_symmetry_Int_Tables_number   1
_chemical_formula_structural   SmDy2Co8MoP6
_chemical_formula_sum   'Sm2 Dy4 Co16 Mo2 P12'
_cell_volume   487.21946458
_cell_formula_units_Z   2
loop_
 _symmetry_equiv_pos_site_id
 _symmetry_equiv_pos_as_xyz
  1  'x, y, z'
loop_
 _atom_site_type_symbol
 _atom_site_label
 _atom_site_symmetry_multiplicity
 _atom_site_fract_x
 _atom_site_fract_y
 _atom_site_fract_z
 _atom_site_occupancy
  Sm  Sm0  1  0.000000  0.500000  0.524703  1
  Sm  Sm1  1  0.500000  0.000000  0.475297  1
  Dy  Dy2  1  0.500000  0.818826  0.204442  1
  Dy  Dy3  1  0.500000  0.181174  0.204442  1
  Dy  Dy4  1  0.000000  0.681174  0.795558  1
  Dy  Dy5  1  0.000000  0.318826  0.795558  1
  Co  Co6  1  0.500000  0.500000  0.703333  1
  Co  Co7  1  0.000000  0.000000  0.296667  1
  Co  Co8  1  0.000000  0.500000  0.986595  1
  Co  Co9  1  0.500000  0.000000  0.013405  1
  Co  Co10  1  0.500000  0.332311  0.990423  1
  Co  Co11  1  0.500000  0.667689  0.990423  1
  Co  Co12  1  0.000000  0.167689  0.009577  1
  Co  Co13  1  0.000000  0.832311  0.009577  1
  Co  Co14  1  0.500000  0.295445  0.430631  1
  Co  Co15  1  0.500000  0.704555  0.430631  1
  Co  Co16  1  0.000000  0.204555  0.569369  1
  Co  Co17  1  0.000000  0.795445  0.569369  1
  Co  Co18  1  0.500000  0.878535  0.708054  1
  Co  Co19  1  0.500000  0.121465  0.708054  1
  Co  Co20  1  0.000000  0.621465  0.291946  1
  Co  Co21  1  0.000000  0.378535  0.291946  1
  Mo  Mo22  1  0.500000  0.500000  0.155287  1
  Mo  Mo23  1  0.000000  0.000000  0.844713  1
  P  P24  1  0.500000  0.500000  0.882014  1
  P  P25  1  0.000000  0.000000  0.117986  1
  P  P26  1  0.500000  0.500000  0.347035  1
  P  P27  1  0.000000  0.000000  0.652965  1
  P  P28  1  0.500000  0.309302  0.616635  1
  P  P29  1  0.500000  0.690698  0.616635  1
  P  P30  1  0.000000  0.190698  0.383365  1
  P  P31  1  0.000000  0.809302  0.383365  1
  P  P32  1  0.500000  0.844809  0.893576  1
  P  P33  1  0.500000  0.155191  0.893576  1
  P  P34  1  0.000000  0.655191  0.106424  1
  P  P35  1  0.000000  0.344809  0.106424  1
