# generated using pymatgen
data_Pr2Nd3(Sn5Pd2)2
_symmetry_space_group_name_H-M   'P 1'
_cell_length_a   14.32735900
_cell_length_b   14.32735900
_cell_length_c   4.66806400
_cell_angle_alpha   90.00000000
_cell_angle_beta   90.00000000
_cell_angle_gamma   90.00000000
_symmetry_Int_Tables_number   1
_chemical_formula_structural   Pr2Nd3(Sn5Pd2)2
_chemical_formula_sum   'Pr4 Nd6 Sn20 Pd8'
_cell_volume   958.22850938
_cell_formula_units_Z   2
loop_
 _symmetry_equiv_pos_site_id
 _symmetry_equiv_pos_as_xyz
  1  'x, y, z'
loop_
 _atom_site_type_symbol
 _atom_site_label
 _atom_site_symmetry_multiplicity
 _atom_site_fract_x
 _atom_site_fract_y
 _atom_site_fract_z
 _atom_site_occupancy
  Pr  Pr0  1  0.891354  0.391354  0.500000  1
  Pr  Pr1  1  0.108646  0.608646  0.500000  1
  Pr  Pr2  1  0.391354  0.108646  0.500000  1
  Pr  Pr3  1  0.608646  0.891354  0.500000  1
  Nd  Nd4  1  0.500000  0.500000  0.000000  1
  Nd  Nd5  1  0.000000  0.000000  0.000000  1
  Nd  Nd6  1  0.679021  0.179021  0.500000  1
  Nd  Nd7  1  0.320979  0.820979  0.500000  1
  Nd  Nd8  1  0.179021  0.320979  0.500000  1
  Nd  Nd9  1  0.820979  0.679021  0.500000  1
  Sn  Sn10  1  0.569175  0.069175  0.000000  1
  Sn  Sn11  1  0.430825  0.930825  0.000000  1
  Sn  Sn12  1  0.069175  0.430825  0.000000  1
  Sn  Sn13  1  0.930825  0.569175  0.000000  1
  Sn  Sn14  1  0.654050  0.699681  0.000000  1
  Sn  Sn15  1  0.345950  0.300319  0.000000  1
  Sn  Sn16  1  0.154050  0.800319  0.000000  1
  Sn  Sn17  1  0.845950  0.199681  0.000000  1
  Sn  Sn18  1  0.300319  0.654050  0.000000  1
  Sn  Sn19  1  0.699681  0.345950  0.000000  1
  Sn  Sn20  1  0.199681  0.154050  0.000000  1
  Sn  Sn21  1  0.800319  0.845950  0.000000  1
  Sn  Sn22  1  0.661513  0.502951  0.500000  1
  Sn  Sn23  1  0.338487  0.497049  0.500000  1
  Sn  Sn24  1  0.161513  0.997049  0.500000  1
  Sn  Sn25  1  0.838487  0.002951  0.500000  1
  Sn  Sn26  1  0.497049  0.661513  0.500000  1
  Sn  Sn27  1  0.502951  0.338487  0.500000  1
  Sn  Sn28  1  0.002951  0.161513  0.500000  1
  Sn  Sn29  1  0.997049  0.838487  0.500000  1
  Pd  Pd30  1  0.745539  0.529503  0.000000  1
  Pd  Pd31  1  0.254461  0.470497  0.000000  1
  Pd  Pd32  1  0.245539  0.970497  0.000000  1
  Pd  Pd33  1  0.754461  0.029503  0.000000  1
  Pd  Pd34  1  0.470497  0.745539  0.000000  1
  Pd  Pd35  1  0.529503  0.254461  0.000000  1
  Pd  Pd36  1  0.029503  0.245539  0.000000  1
  Pd  Pd37  1  0.970497  0.754461  0.000000  1
