# generated using pymatgen
data_Sc11FeRu3
_symmetry_space_group_name_H-M   'P 1'
_cell_length_a   9.43057926
_cell_length_b   9.43057975
_cell_length_c   9.43057900
_cell_angle_alpha   59.99999912
_cell_angle_beta   59.99999741
_cell_angle_gamma   59.99999795
_symmetry_Int_Tables_number   1
_chemical_formula_structural   Sc11FeRu3
_chemical_formula_sum   'Sc22 Fe2 Ru6'
_cell_volume   593.06200715
_cell_formula_units_Z   2
loop_
 _symmetry_equiv_pos_site_id
 _symmetry_equiv_pos_as_xyz
  1  'x, y, z'
loop_
 _atom_site_type_symbol
 _atom_site_label
 _atom_site_symmetry_multiplicity
 _atom_site_fract_x
 _atom_site_fract_y
 _atom_site_fract_z
 _atom_site_occupancy
  Sc  Sc0  1  0.805657  0.805657  0.194343  1
  Sc  Sc1  1  0.194343  0.805657  0.194343  1
  Sc  Sc2  1  0.805657  0.194343  0.194343  1
  Sc  Sc3  1  0.194343  0.194343  0.805657  1
  Sc  Sc4  1  0.805657  0.194343  0.805657  1
  Sc  Sc5  1  0.194343  0.805657  0.805657  1
  Sc  Sc6  1  0.614780  0.614780  0.155660  1
  Sc  Sc7  1  0.614780  0.155660  0.614780  1
  Sc  Sc8  1  0.155660  0.614780  0.614780  1
  Sc  Sc9  1  0.614780  0.614780  0.614780  1
  Sc  Sc10  1  0.385220  0.385220  0.844340  1
  Sc  Sc11  1  0.385220  0.844340  0.385220  1
  Sc  Sc12  1  0.844340  0.385220  0.385220  1
  Sc  Sc13  1  0.385220  0.385220  0.385220  1
  Sc  Sc14  1  0.843297  0.843297  0.470109  1
  Sc  Sc15  1  0.843297  0.470109  0.843297  1
  Sc  Sc16  1  0.470109  0.843297  0.843297  1
  Sc  Sc17  1  0.843297  0.843297  0.843297  1
  Sc  Sc18  1  0.156703  0.156703  0.529891  1
  Sc  Sc19  1  0.156703  0.529891  0.156703  1
  Sc  Sc20  1  0.529891  0.156703  0.156703  1
  Sc  Sc21  1  0.156703  0.156703  0.156703  1
  Fe  Fe22  1  0.000000  0.000000  0.000000  1
  Fe  Fe23  1  0.500000  0.500000  0.500000  1
  Ru  Ru24  1  0.000000  0.000000  0.500000  1
  Ru  Ru25  1  0.500000  0.000000  0.500000  1
  Ru  Ru26  1  0.000000  0.500000  0.500000  1
  Ru  Ru27  1  0.500000  0.500000  0.000000  1
  Ru  Ru28  1  0.000000  0.500000  0.000000  1
  Ru  Ru29  1  0.500000  0.000000  0.000000  1
