# generated using pymatgen
data_La10Sn6IrCl
_symmetry_space_group_name_H-M   'P 1'
_cell_length_a   9.58929300
_cell_length_b   9.58929295
_cell_length_c   7.17111700
_cell_angle_alpha   90.00000000
_cell_angle_beta   90.00000000
_cell_angle_gamma   120.00000361
_symmetry_Int_Tables_number   1
_chemical_formula_structural   La10Sn6IrCl
_chemical_formula_sum   'La10 Sn6 Ir1 Cl1'
_cell_volume   571.07164814
_cell_formula_units_Z   1
loop_
 _symmetry_equiv_pos_site_id
 _symmetry_equiv_pos_as_xyz
  1  'x, y, z'
loop_
 _atom_site_type_symbol
 _atom_site_label
 _atom_site_symmetry_multiplicity
 _atom_site_fract_x
 _atom_site_fract_y
 _atom_site_fract_z
 _atom_site_occupancy
  La  La0  1  0.244664  0.244664  0.737810  1
  La  La1  1  0.000000  0.755336  0.737810  1
  La  La2  1  0.755336  0.000000  0.737810  1
  La  La3  1  0.000000  0.244664  0.262190  1
  La  La4  1  0.333333  0.666667  0.500000  1
  La  La5  1  0.755336  0.755336  0.262190  1
  La  La6  1  0.666667  0.333333  0.500000  1
  La  La7  1  0.244664  0.000000  0.262190  1
  La  La8  1  0.333333  0.666667  0.000000  1
  La  La9  1  0.666667  0.333333  0.000000  1
  Sn  Sn10  1  0.600773  0.000000  0.247020  1
  Sn  Sn11  1  0.000000  0.399227  0.752980  1
  Sn  Sn12  1  0.399227  0.000000  0.752980  1
  Sn  Sn13  1  0.600773  0.600773  0.752980  1
  Sn  Sn14  1  0.000000  0.600773  0.247020  1
  Sn  Sn15  1  0.399227  0.399227  0.247020  1
  Ir  Ir16  1  0.000000  0.000000  0.500000  1
  Cl  Cl17  1  0.000000  0.000000  0.000000  1
