# generated using pymatgen
data_Yb3As2(PPd5)4
_symmetry_space_group_name_H-M   'P 1'
_cell_length_a   8.69314232
_cell_length_b   8.73996900
_cell_length_c   8.73997000
_cell_angle_alpha   59.64584666
_cell_angle_beta   60.17707007
_cell_angle_gamma   60.17706825
_symmetry_Int_Tables_number   1
_chemical_formula_structural   Yb3As2(PPd5)4
_chemical_formula_sum   'Yb3 As2 P4 Pd20'
_cell_volume   469.52289638
_cell_formula_units_Z   1
loop_
 _symmetry_equiv_pos_site_id
 _symmetry_equiv_pos_as_xyz
  1  'x, y, z'
loop_
 _atom_site_type_symbol
 _atom_site_label
 _atom_site_symmetry_multiplicity
 _atom_site_fract_x
 _atom_site_fract_y
 _atom_site_fract_z
 _atom_site_occupancy
  Yb  Yb0  1  0.250000  0.250000  0.250000  1
  Yb  Yb1  1  0.750000  0.750000  0.750000  1
  Yb  Yb2  1  0.000000  0.000000  0.000000  1
  As  As3  1  0.737257  0.262743  0.262743  1
  As  As4  1  0.262743  0.737257  0.737257  1
  P  P5  1  0.264660  0.735340  0.264660  1
  P  P6  1  0.735340  0.264660  0.735340  1
  P  P7  1  0.264660  0.264660  0.735340  1
  P  P8  1  0.735340  0.735340  0.264660  1
  Pd  Pd9  1  0.378606  0.387254  0.387254  1
  Pd  Pd10  1  0.621394  0.612746  0.612746  1
  Pd  Pd11  1  0.387254  0.378606  0.846886  1
  Pd  Pd12  1  0.387254  0.846886  0.378606  1
  Pd  Pd13  1  0.612746  0.621394  0.153114  1
  Pd  Pd14  1  0.612746  0.153114  0.621394  1
  Pd  Pd15  1  0.846886  0.387254  0.387254  1
  Pd  Pd16  1  0.153114  0.612746  0.612746  1
  Pd  Pd17  1  0.345233  0.000000  0.000000  1
  Pd  Pd18  1  0.654767  0.000000  0.000000  1
  Pd  Pd19  1  0.000000  0.345233  0.654767  1
  Pd  Pd20  1  0.000000  0.654767  0.345233  1
  Pd  Pd21  1  0.009245  0.347282  0.990755  1
  Pd  Pd22  1  0.652718  0.990755  0.347282  1
  Pd  Pd23  1  0.990755  0.652718  0.009245  1
  Pd  Pd24  1  0.347282  0.009245  0.652718  1
  Pd  Pd25  1  0.009245  0.990755  0.347282  1
  Pd  Pd26  1  0.990755  0.009245  0.652718  1
  Pd  Pd27  1  0.652718  0.347282  0.990755  1
  Pd  Pd28  1  0.347282  0.652718  0.009245  1
