# generated using pymatgen
data_Cd3CuOs3PbO14
_symmetry_space_group_name_H-M   'P 1'
_cell_length_a   7.33186222
_cell_length_b   7.26957781
_cell_length_c   7.33186200
_cell_angle_alpha   59.71617285
_cell_angle_beta   60.00000098
_cell_angle_gamma   59.71617516
_symmetry_Int_Tables_number   1
_chemical_formula_structural   Cd3CuOs3PbO14
_chemical_formula_sum   'Cd3 Cu1 Os3 Pb1 O14'
_cell_volume   275.13526126
_cell_formula_units_Z   1
loop_
 _symmetry_equiv_pos_site_id
 _symmetry_equiv_pos_as_xyz
  1  'x, y, z'
loop_
 _atom_site_type_symbol
 _atom_site_label
 _atom_site_symmetry_multiplicity
 _atom_site_fract_x
 _atom_site_fract_y
 _atom_site_fract_z
 _atom_site_occupancy
  Cd  Cd0  1  0.125000  0.125000  0.125000  1
  Cd  Cd1  1  0.625000  0.125000  0.125000  1
  Cd  Cd2  1  0.125000  0.125000  0.625000  1
  Cu  Cu3  1  0.625000  0.125000  0.625000  1
  Os  Os4  1  0.625000  0.625000  0.625000  1
  Os  Os5  1  0.125000  0.625000  0.625000  1
  Os  Os6  1  0.625000  0.625000  0.125000  1
  Pb  Pb7  1  0.125000  0.625000  0.125000  1
  O  O8  1  0.259026  0.222922  0.259026  1
  O  O9  1  0.990974  0.027078  0.990974  1
  O  O10  1  0.553831  0.931558  0.553831  1
  O  O11  1  0.303786  0.679597  0.303786  1
  O  O12  1  0.537169  0.570403  0.946214  1
  O  O13  1  0.946214  0.570403  0.537169  1
  O  O14  1  0.553831  0.931558  0.960780  1
  O  O15  1  0.960780  0.931558  0.553831  1
  O  O16  1  0.946214  0.570403  0.946214  1
  O  O17  1  0.696169  0.318442  0.289220  1
  O  O18  1  0.303786  0.679597  0.712831  1
  O  O19  1  0.696169  0.318442  0.696169  1
  O  O20  1  0.289220  0.318442  0.696169  1
  O  O21  1  0.712831  0.679597  0.303786  1
