# generated using pymatgen
data_TmPa(Si2Ni)2
_symmetry_space_group_name_H-M   'P 1'
_cell_length_a   8.40452265
_cell_length_b   8.40452351
_cell_length_c   3.97499200
_cell_angle_alpha   90.00000000
_cell_angle_beta   90.00000000
_cell_angle_gamma   152.62566336
_symmetry_Int_Tables_number   1
_chemical_formula_structural   TmPa(Si2Ni)2
_chemical_formula_sum   'Tm1 Pa1 Si4 Ni2'
_cell_volume   129.10210885
_cell_formula_units_Z   1
loop_
 _symmetry_equiv_pos_site_id
 _symmetry_equiv_pos_as_xyz
  1  'x, y, z'
loop_
 _atom_site_type_symbol
 _atom_site_label
 _atom_site_symmetry_multiplicity
 _atom_site_fract_x
 _atom_site_fract_y
 _atom_site_fract_z
 _atom_site_occupancy
  Tm  Tm0  1  0.398192  0.601808  0.750000  1
  Pa  Pa1  1  0.605825  0.394175  0.250000  1
  Si  Si2  1  0.959446  0.040554  0.250000  1
  Si  Si3  1  0.037768  0.962232  0.750000  1
  Si  Si4  1  0.250741  0.749259  0.250000  1
  Si  Si5  1  0.750832  0.249168  0.750000  1
  Ni  Ni6  1  0.821521  0.178479  0.250000  1
  Ni  Ni7  1  0.175675  0.824325  0.750000  1
