# generated using pymatgen
data_LiNi2MoP2
_symmetry_space_group_name_H-M   'P 1'
_cell_length_a   3.60904300
_cell_length_b   5.88888000
_cell_length_c   6.88258200
_cell_angle_alpha   90.00000000
_cell_angle_beta   90.00000000
_cell_angle_gamma   90.00000000
_symmetry_Int_Tables_number   1
_chemical_formula_structural   LiNi2MoP2
_chemical_formula_sum   'Li2 Ni4 Mo2 P4'
_cell_volume   146.27703727
_cell_formula_units_Z   2
loop_
 _symmetry_equiv_pos_site_id
 _symmetry_equiv_pos_as_xyz
  1  'x, y, z'
loop_
 _atom_site_type_symbol
 _atom_site_label
 _atom_site_symmetry_multiplicity
 _atom_site_fract_x
 _atom_site_fract_y
 _atom_site_fract_z
 _atom_site_occupancy
  Li  Li0  1  0.250000  0.529430  0.677450  1
  Li  Li1  1  0.250000  0.029430  0.822550  1
  Ni  Ni2  1  0.750000  0.354669  0.931709  1
  Ni  Ni3  1  0.250000  0.142618  0.445977  1
  Ni  Ni4  1  0.750000  0.854669  0.568291  1
  Ni  Ni5  1  0.250000  0.642618  0.054023  1
  Mo  Mo6  1  0.750000  0.967668  0.178010  1
  Mo  Mo7  1  0.750000  0.467668  0.321990  1
  P  P8  1  0.250000  0.765202  0.376628  1
  P  P9  1  0.250000  0.265202  0.123372  1
  P  P10  1  0.750000  0.240412  0.619048  1
  P  P11  1  0.750000  0.740412  0.880952  1
