# generated using pymatgen
data_OsRhO4
_symmetry_space_group_name_H-M   'P 1'
_cell_length_a   4.54837776
_cell_length_b   4.54837900
_cell_length_c   3.18117100
_cell_angle_alpha   90.00000000
_cell_angle_beta   90.00000000
_cell_angle_gamma   90.87080296
_symmetry_Int_Tables_number   1
_chemical_formula_structural   OsRhO4
_chemical_formula_sum   'Os1 Rh1 O4'
_cell_volume   65.80365642
_cell_formula_units_Z   1
loop_
 _symmetry_equiv_pos_site_id
 _symmetry_equiv_pos_as_xyz
  1  'x, y, z'
loop_
 _atom_site_type_symbol
 _atom_site_label
 _atom_site_symmetry_multiplicity
 _atom_site_fract_x
 _atom_site_fract_y
 _atom_site_fract_z
 _atom_site_occupancy
  Os  Os0  1  0.000000  0.000000  0.000000  1
  Rh  Rh1  1  0.500000  0.500000  0.500000  1
  O  O2  1  0.186531  0.813469  0.500000  1
  O  O3  1  0.813469  0.186531  0.500000  1
  O  O4  1  0.299135  0.299135  0.000000  1
  O  O5  1  0.700865  0.700865  0.000000  1
