# generated using pymatgen
data_DyMgCuNi3
_symmetry_space_group_name_H-M   'P 1'
_cell_length_a   5.01132174
_cell_length_b   5.01132234
_cell_length_c   4.97104645
_cell_angle_alpha   59.73161852
_cell_angle_beta   59.73160789
_cell_angle_gamma   59.99998173
_symmetry_Int_Tables_number   1
_chemical_formula_structural   DyMgCuNi3
_chemical_formula_sum   'Dy1 Mg1 Cu1 Ni3'
_cell_volume   87.91513315
_cell_formula_units_Z   1
loop_
 _symmetry_equiv_pos_site_id
 _symmetry_equiv_pos_as_xyz
  1  'x, y, z'
loop_
 _atom_site_type_symbol
 _atom_site_label
 _atom_site_symmetry_multiplicity
 _atom_site_fract_x
 _atom_site_fract_y
 _atom_site_fract_z
 _atom_site_occupancy
  Dy  Dy0  1  0.001154  0.001154  0.996539  1
  Mg  Mg1  1  0.249459  0.249459  0.251624  1
  Cu  Cu2  1  0.623982  0.623982  0.128057  1
  Ni  Ni3  1  0.623569  0.128268  0.624593  1
  Ni  Ni4  1  0.128268  0.623569  0.624593  1
  Ni  Ni5  1  0.623569  0.623569  0.624593  1
