# generated using pymatgen
data_ErTm3Mn4F28
_symmetry_space_group_name_H-M   'P 1'
_cell_length_a   5.38347407
_cell_length_b   8.59022790
_cell_length_c   11.58876003
_cell_angle_alpha   62.73624420
_cell_angle_beta   90.01821765
_cell_angle_gamma   90.00598778
_symmetry_Int_Tables_number   1
_chemical_formula_structural   ErTm3Mn4F28
_chemical_formula_sum   'Er1 Tm3 Mn4 F28'
_cell_volume   476.38785043
_cell_formula_units_Z   1
loop_
 _symmetry_equiv_pos_site_id
 _symmetry_equiv_pos_as_xyz
  1  'x, y, z'
loop_
 _atom_site_type_symbol
 _atom_site_label
 _atom_site_symmetry_multiplicity
 _atom_site_fract_x
 _atom_site_fract_y
 _atom_site_fract_z
 _atom_site_occupancy
  Er  Er0  1  0.738986  0.810512  0.264952  1
  Tm  Tm1  1  0.761234  0.810591  0.764806  1
  Tm  Tm2  1  0.261262  0.189482  0.735204  1
  Tm  Tm3  1  0.238756  0.190361  0.235048  1
  Mn  Mn4  1  0.759175  0.273573  0.956203  1
  Mn  Mn5  1  0.258999  0.726649  0.543988  1
  Mn  Mn6  1  0.241111  0.726752  0.042934  1
  Mn  Mn7  1  0.740896  0.272614  0.456847  1
  F  F8  1  0.430328  0.703852  0.920367  1
  F  F9  1  0.930436  0.295915  0.579350  1
  F  F10  1  0.569790  0.296226  0.079119  1
  F  F11  1  0.070371  0.703595  0.421055  1
  F  F12  1  0.449221  0.277066  0.540286  1
  F  F13  1  0.948855  0.722705  0.959704  1
  F  F14  1  0.550587  0.722259  0.460824  1
  F  F15  1  0.050853  0.277484  0.040021  1
  F  F16  1  0.777032  0.514455  0.861706  1
  F  F17  1  0.276865  0.485573  0.638419  1
  F  F18  1  0.222867  0.485711  0.137973  1
  F  F19  1  0.722745  0.513248  0.362100  1
  F  F20  1  0.754354  0.034521  0.046078  1
  F  F21  1  0.254439  0.965784  0.453596  1
  F  F22  1  0.245640  0.965878  0.953218  1
  F  F23  1  0.745643  0.033645  0.546775  1
  F  F24  1  0.975779  0.725291  0.634062  1
  F  F25  1  0.476050  0.274775  0.865958  1
  F  F26  1  0.024000  0.274634  0.366237  1
  F  F27  1  0.524015  0.724775  0.133247  1
  F  F28  1  0.056335  0.744284  0.171722  1
  F  F29  1  0.554657  0.254986  0.328156  1
  F  F30  1  0.945463  0.255345  0.827957  1
  F  F31  1  0.445209  0.744795  0.672239  1
  F  F32  1  0.410144  0.970845  0.230125  1
  F  F33  1  0.912686  0.031706  0.269732  1
  F  F34  1  0.587553  0.030035  0.769588  1
  F  F35  1  0.087666  0.970078  0.730407  1
