# generated using pymatgen
data_Dy16Cd4Os3Pt
_symmetry_space_group_name_H-M   'P 1'
_cell_length_a   9.56976240
_cell_length_b   9.73949655
_cell_length_c   9.73949600
_cell_angle_alpha   59.99999506
_cell_angle_beta   59.41152093
_cell_angle_gamma   59.41151705
_symmetry_Int_Tables_number   1
_chemical_formula_structural   Dy16Cd4Os3Pt
_chemical_formula_sum   'Dy16 Cd4 Os3 Pt1'
_cell_volume   636.11891901
_cell_formula_units_Z   1
loop_
 _symmetry_equiv_pos_site_id
 _symmetry_equiv_pos_as_xyz
  1  'x, y, z'
loop_
 _atom_site_type_symbol
 _atom_site_label
 _atom_site_symmetry_multiplicity
 _atom_site_fract_x
 _atom_site_fract_y
 _atom_site_fract_z
 _atom_site_occupancy
  Dy  Dy0  1  0.347106  0.350841  0.350841  1
  Dy  Dy1  1  0.347106  0.350841  0.951213  1
  Dy  Dy2  1  0.347106  0.951213  0.350841  1
  Dy  Dy3  1  0.974515  0.341829  0.341829  1
  Dy  Dy4  1  0.814394  0.190328  0.190328  1
  Dy  Dy5  1  0.183757  0.810808  0.810808  1
  Dy  Dy6  1  0.183757  0.810808  0.194627  1
  Dy  Dy7  1  0.814394  0.190328  0.804949  1
  Dy  Dy8  1  0.183757  0.194627  0.810808  1
  Dy  Dy9  1  0.814394  0.804949  0.190328  1
  Dy  Dy10  1  0.932322  0.564390  0.564390  1
  Dy  Dy11  1  0.553478  0.940741  0.940741  1
  Dy  Dy12  1  0.553478  0.940741  0.565040  1
  Dy  Dy13  1  0.932322  0.564389  0.938898  1
  Dy  Dy14  1  0.553478  0.565040  0.940741  1
  Dy  Dy15  1  0.932322  0.938898  0.564389  1
  Cd  Cd16  1  0.580870  0.578672  0.578672  1
  Cd  Cd17  1  0.580870  0.578672  0.261786  1
  Cd  Cd18  1  0.580870  0.261786  0.578672  1
  Cd  Cd19  1  0.254390  0.581870  0.581870  1
  Os  Os20  1  0.153015  0.134547  0.134547  1
  Os  Os21  1  0.153015  0.134547  0.577892  1
  Os  Os22  1  0.153015  0.577892  0.134547  1
  Pt  Pt23  1  0.576271  0.141243  0.141243  1
