# generated using pymatgen
data_Pr20Ir7PtRh4
_symmetry_space_group_name_H-M   'P 1'
_cell_length_a   11.34896519
_cell_length_b   11.34896519
_cell_length_c   6.68748313
_cell_angle_alpha   90.04719641
_cell_angle_beta   90.04719641
_cell_angle_gamma   89.81228525
_symmetry_Int_Tables_number   1
_chemical_formula_structural   Pr20Ir7PtRh4
_chemical_formula_sum   'Pr20 Ir7 Pt1 Rh4'
_cell_volume   861.33600701
_cell_formula_units_Z   1
loop_
 _symmetry_equiv_pos_site_id
 _symmetry_equiv_pos_as_xyz
  1  'x, y, z'
loop_
 _atom_site_type_symbol
 _atom_site_label
 _atom_site_symmetry_multiplicity
 _atom_site_fract_x
 _atom_site_fract_y
 _atom_site_fract_z
 _atom_site_occupancy
  Pr  Pr0  1  0.291031  0.090900  0.384450  1
  Pr  Pr1  1  0.291707  0.908495  0.883827  1
  Pr  Pr2  1  0.706424  0.089695  0.878967  1
  Pr  Pr3  1  0.707287  0.905884  0.385142  1
  Pr  Pr4  1  0.590959  0.791097  0.885285  1
  Pr  Pr5  1  0.587354  0.209472  0.385533  1
  Pr  Pr6  1  0.408384  0.791157  0.384755  1
  Pr  Pr7  1  0.408367  0.208778  0.884913  1
  Pr  Pr8  1  0.208903  0.409041  0.614715  1
  Pr  Pr9  1  0.208843  0.591616  0.115245  1
  Pr  Pr10  1  0.790528  0.412646  0.114467  1
  Pr  Pr11  1  0.791222  0.591633  0.615087  1
  Pr  Pr12  1  0.909100  0.708969  0.115550  1
  Pr  Pr13  1  0.910305  0.293576  0.621033  1
  Pr  Pr14  1  0.091505  0.708293  0.616173  1
  Pr  Pr15  1  0.094116  0.292713  0.114858  1
  Pr  Pr16  1  0.001647  0.998200  0.500891  1
  Pr  Pr17  1  0.001800  0.998353  0.999109  1
  Pr  Pr18  1  0.499559  0.500077  0.999666  1
  Pr  Pr19  1  0.499923  0.500441  0.500334  1
  Ir  Ir20  1  0.846205  0.846853  0.749888  1
  Ir  Ir21  1  0.153147  0.153795  0.750112  1
  Ir  Ir22  1  0.154037  0.845963  0.250000  1
  Ir  Ir23  1  0.654921  0.345079  0.750000  1
  Ir  Ir24  1  0.654303  0.653808  0.249979  1
  Ir  Ir25  1  0.346192  0.345697  0.250021  1
  Ir  Ir26  1  0.345900  0.654100  0.750000  1
  Pt  Pt27  1  0.845538  0.154462  0.250000  1
  Rh  Rh28  1  0.500974  0.000237  0.116371  1
  Rh  Rh29  1  0.500525  0.000469  0.615668  1
  Rh  Rh30  1  0.999531  0.499475  0.884332  1
  Rh  Rh31  1  0.999763  0.499026  0.383629  1
