# generated using pymatgen
data_InSn4(BRh3)2
_symmetry_space_group_name_H-M   'P 1'
_cell_length_a   6.67400700
_cell_length_b   6.67400586
_cell_length_c   5.63532600
_cell_angle_alpha   90.00000000
_cell_angle_beta   90.00000000
_cell_angle_gamma   120.00001062
_symmetry_Int_Tables_number   1
_chemical_formula_structural   InSn4(BRh3)2
_chemical_formula_sum   'In1 Sn4 B2 Rh6'
_cell_volume   217.38164524
_cell_formula_units_Z   1
loop_
 _symmetry_equiv_pos_site_id
 _symmetry_equiv_pos_as_xyz
  1  'x, y, z'
loop_
 _atom_site_type_symbol
 _atom_site_label
 _atom_site_symmetry_multiplicity
 _atom_site_fract_x
 _atom_site_fract_y
 _atom_site_fract_z
 _atom_site_occupancy
  In  In0  1  0.666667  0.333333  0.500000  1
  Sn  Sn1  1  0.406639  0.403219  0.000000  1
  Sn  Sn2  1  0.596781  0.003420  0.000000  1
  Sn  Sn3  1  0.996580  0.593361  0.000000  1
  Sn  Sn4  1  0.333333  0.666667  0.500000  1
  B  B5  1  0.000000  0.000000  0.500000  1
  B  B6  1  0.000000  0.000000  0.000000  1
  Rh  Rh7  1  0.248089  0.995330  0.747898  1
  Rh  Rh8  1  0.747241  0.751911  0.252102  1
  Rh  Rh9  1  0.004670  0.252759  0.252102  1
  Rh  Rh10  1  0.248089  0.995330  0.252102  1
  Rh  Rh11  1  0.747241  0.751911  0.747898  1
  Rh  Rh12  1  0.004670  0.252759  0.747898  1
