# generated using pymatgen
data_Ho2Pa(GaNi)3
_symmetry_space_group_name_H-M   'P 1'
_cell_length_a   6.99042220
_cell_length_b   6.99042236
_cell_length_c   3.73966800
_cell_angle_alpha   90.00000000
_cell_angle_beta   90.00000000
_cell_angle_gamma   119.37004922
_symmetry_Int_Tables_number   1
_chemical_formula_structural   Ho2Pa(GaNi)3
_chemical_formula_sum   'Ho2 Pa1 Ga3 Ni3'
_cell_volume   159.25477588
_cell_formula_units_Z   1
loop_
 _symmetry_equiv_pos_site_id
 _symmetry_equiv_pos_as_xyz
  1  'x, y, z'
loop_
 _atom_site_type_symbol
 _atom_site_label
 _atom_site_symmetry_multiplicity
 _atom_site_fract_x
 _atom_site_fract_y
 _atom_site_fract_z
 _atom_site_occupancy
  Ho  Ho0  1  0.413864  0.002332  0.000000  1
  Ho  Ho1  1  0.002332  0.413864  0.000000  1
  Pa  Pa2  1  0.581501  0.581501  0.000000  1
  Ga  Ga3  1  0.007467  0.753783  0.500000  1
  Ga  Ga4  1  0.235424  0.235424  0.500000  1
  Ga  Ga5  1  0.753783  0.007467  0.500000  1
  Ni  Ni6  1  0.985912  0.985912  0.000000  1
  Ni  Ni7  1  0.665270  0.354448  0.500000  1
  Ni  Ni8  1  0.354448  0.665270  0.500000  1
