# generated using pymatgen
data_ErZr8Zn(In7Co3)2
_symmetry_space_group_name_H-M   'P 1'
_cell_length_a   9.50139264
_cell_length_b   9.50139307
_cell_length_c   9.50139300
_cell_angle_alpha   59.99999677
_cell_angle_beta   59.99999525
_cell_angle_gamma   60.00000237
_symmetry_Int_Tables_number   1
_chemical_formula_structural   ErZr8Zn(In7Co3)2
_chemical_formula_sum   'Er1 Zr8 Zn1 In14 Co6'
_cell_volume   606.52235995
_cell_formula_units_Z   1
loop_
 _symmetry_equiv_pos_site_id
 _symmetry_equiv_pos_as_xyz
  1  'x, y, z'
loop_
 _atom_site_type_symbol
 _atom_site_label
 _atom_site_symmetry_multiplicity
 _atom_site_fract_x
 _atom_site_fract_y
 _atom_site_fract_z
 _atom_site_occupancy
  Er  Er0  1  0.500000  0.500000  0.500000  1
  Zr  Zr1  1  0.122206  0.633385  0.122206  1
  Zr  Zr2  1  0.366615  0.877794  0.877794  1
  Zr  Zr3  1  0.877794  0.877794  0.877794  1
  Zr  Zr4  1  0.633385  0.122206  0.122206  1
  Zr  Zr5  1  0.877794  0.877794  0.366615  1
  Zr  Zr6  1  0.122206  0.122206  0.122206  1
  Zr  Zr7  1  0.877794  0.366615  0.877794  1
  Zr  Zr8  1  0.122206  0.122206  0.633385  1
  Zn  Zn9  1  0.000000  0.000000  0.000000  1
  In  In10  1  0.500000  0.844421  0.155579  1
  In  In11  1  0.500000  0.844421  0.500000  1
  In  In12  1  0.500000  0.155579  0.500000  1
  In  In13  1  0.500000  0.500000  0.844421  1
  In  In14  1  0.155579  0.500000  0.500000  1
  In  In15  1  0.844421  0.155579  0.500000  1
  In  In16  1  0.155579  0.844421  0.500000  1
  In  In17  1  0.500000  0.155579  0.844421  1
  In  In18  1  0.155579  0.500000  0.844421  1
  In  In19  1  0.500000  0.500000  0.155579  1
  In  In20  1  0.844421  0.500000  0.500000  1
  In  In21  1  0.844421  0.500000  0.155579  1
  In  In22  1  0.250000  0.250000  0.250000  1
  In  In23  1  0.750000  0.750000  0.750000  1
  Co  Co24  1  0.781058  0.781058  0.218942  1
  Co  Co25  1  0.218942  0.781058  0.218942  1
  Co  Co26  1  0.218942  0.781058  0.781058  1
  Co  Co27  1  0.218942  0.218942  0.781058  1
  Co  Co28  1  0.781058  0.218942  0.781058  1
  Co  Co29  1  0.781058  0.218942  0.218942  1
