# generated using pymatgen
data_ErTh2Sc2Ru3
_symmetry_space_group_name_H-M   'P 1'
_cell_length_a   6.08816700
_cell_length_b   8.19040736
_cell_length_c   8.19040679
_cell_angle_alpha   121.04687107
_cell_angle_beta   90.00000000
_cell_angle_gamma   90.00000000
_symmetry_Int_Tables_number   1
_chemical_formula_structural   ErTh2Sc2Ru3
_chemical_formula_sum   'Er2 Th4 Sc4 Ru6'
_cell_volume   349.90444271
_cell_formula_units_Z   2
loop_
 _symmetry_equiv_pos_site_id
 _symmetry_equiv_pos_as_xyz
  1  'x, y, z'
loop_
 _atom_site_type_symbol
 _atom_site_label
 _atom_site_symmetry_multiplicity
 _atom_site_fract_x
 _atom_site_fract_y
 _atom_site_fract_z
 _atom_site_occupancy
  Er  Er0  1  0.750000  0.743176  0.743176  1
  Er  Er1  1  0.250000  0.256824  0.256824  1
  Th  Th2  1  0.750000  0.000110  0.250911  1
  Th  Th3  1  0.250000  0.999890  0.749089  1
  Th  Th4  1  0.750000  0.250911  0.000110  1
  Th  Th5  1  0.250000  0.749089  0.999890  1
  Sc  Sc6  1  0.000000  0.665164  0.334836  1
  Sc  Sc7  1  0.000000  0.334836  0.665164  1
  Sc  Sc8  1  0.500000  0.334836  0.665164  1
  Sc  Sc9  1  0.500000  0.665164  0.334836  1
  Ru  Ru10  1  0.750000  0.391527  0.391527  1
  Ru  Ru11  1  0.250000  0.608473  0.608473  1
  Ru  Ru12  1  0.750000  0.008615  0.608174  1
  Ru  Ru13  1  0.250000  0.991385  0.391826  1
  Ru  Ru14  1  0.750000  0.608174  0.008615  1
  Ru  Ru15  1  0.250000  0.391826  0.991385  1
