# generated using pymatgen
data_Nd4Sm2Zn4Pd12Rh
_symmetry_space_group_name_H-M   'P 1'
_cell_length_a   8.35784125
_cell_length_b   8.35779720
_cell_length_c   8.35779844
_cell_angle_alpha   109.50837521
_cell_angle_beta   109.45253368
_cell_angle_gamma   109.45254523
_symmetry_Int_Tables_number   1
_chemical_formula_structural   Nd4Sm2Zn4Pd12Rh
_chemical_formula_sum   'Nd4 Sm2 Zn4 Pd12 Rh1'
_cell_volume   449.42472376
_cell_formula_units_Z   1
loop_
 _symmetry_equiv_pos_site_id
 _symmetry_equiv_pos_as_xyz
  1  'x, y, z'
loop_
 _atom_site_type_symbol
 _atom_site_label
 _atom_site_symmetry_multiplicity
 _atom_site_fract_x
 _atom_site_fract_y
 _atom_site_fract_z
 _atom_site_occupancy
  Nd  Nd0  1  0.000000  0.296805  0.297297  1
  Nd  Nd1  1  0.298011  0.297786  0.000226  1
  Nd  Nd2  1  0.701989  0.999774  0.702214  1
  Nd  Nd3  1  0.000000  0.702703  0.703195  1
  Sm  Sm4  1  0.701932  0.701719  0.000213  1
  Sm  Sm5  1  0.298068  0.999787  0.298281  1
  Zn  Zn6  1  0.000000  0.999896  0.499206  1
  Zn  Zn7  1  0.000000  0.500794  0.000104  1
  Zn  Zn8  1  0.500000  0.999906  0.000094  1
  Zn  Zn9  1  0.500000  0.499906  0.500094  1
  Pd  Pd10  1  0.332808  0.332378  0.664348  1
  Pd  Pd11  1  0.667192  0.999570  0.331541  1
  Pd  Pd12  1  0.000000  0.668813  0.331187  1
  Pd  Pd13  1  0.667856  0.332994  0.000008  1
  Pd  Pd14  1  0.332144  0.665137  0.332152  1
  Pd  Pd15  1  0.000000  0.331981  0.668019  1
  Pd  Pd16  1  0.332808  0.668459  0.000430  1
  Pd  Pd17  1  0.332144  0.999992  0.667006  1
  Pd  Pd18  1  0.663179  0.331370  0.331811  1
  Pd  Pd19  1  0.667856  0.667848  0.334863  1
  Pd  Pd20  1  0.667192  0.335652  0.667622  1
  Pd  Pd21  1  0.336821  0.668189  0.668630  1
  Rh  Rh22  1  0.000000  0.998541  0.001459  1
