# generated using pymatgen
data_NdH2Br
_symmetry_space_group_name_H-M   'P 1'
_cell_length_a   11.04822450
_cell_length_b   11.04822448
_cell_length_c   11.04822530
_cell_angle_alpha   20.58150216
_cell_angle_beta   20.58149937
_cell_angle_gamma   20.58150417
_symmetry_Int_Tables_number   1
_chemical_formula_structural   NdH2Br
_chemical_formula_sum   'Nd2 H4 Br2'
_cell_volume   145.88135173
_cell_formula_units_Z   2
loop_
 _symmetry_equiv_pos_site_id
 _symmetry_equiv_pos_as_xyz
  1  'x, y, z'
loop_
 _atom_site_type_symbol
 _atom_site_label
 _atom_site_symmetry_multiplicity
 _atom_site_fract_x
 _atom_site_fract_y
 _atom_site_fract_z
 _atom_site_occupancy
  Nd  Nd0  1  0.885546  0.885546  0.885546  1
  Nd  Nd1  1  0.114454  0.114454  0.114454  1
  H  H2  1  0.813304  0.813304  0.813304  1
  H  H3  1  0.186696  0.186696  0.186696  1
  H  H4  1  0.546187  0.546187  0.546187  1
  H  H5  1  0.453813  0.453813  0.453813  1
  Br  Br6  1  0.720115  0.720115  0.720115  1
  Br  Br7  1  0.279885  0.279885  0.279885  1
