# generated using pymatgen
data_Tb7ErSi12IrPd3
_symmetry_space_group_name_H-M   'P 1'
_cell_length_a   8.20821900
_cell_length_b   8.20257935
_cell_length_c   7.94704004
_cell_angle_alpha   90.00981701
_cell_angle_beta   90.00000000
_cell_angle_gamma   120.02275047
_symmetry_Int_Tables_number   1
_chemical_formula_structural   Tb7ErSi12IrPd3
_chemical_formula_sum   'Tb7 Er1 Si12 Ir1 Pd3'
_cell_volume   463.27172308
_cell_formula_units_Z   1
loop_
 _symmetry_equiv_pos_site_id
 _symmetry_equiv_pos_as_xyz
  1  'x, y, z'
loop_
 _atom_site_type_symbol
 _atom_site_label
 _atom_site_symmetry_multiplicity
 _atom_site_fract_x
 _atom_site_fract_y
 _atom_site_fract_z
 _atom_site_occupancy
  Tb  Tb0  1  0.487875  0.975751  0.751438  1
  Tb  Tb1  1  0.981844  0.490823  0.247764  1
  Tb  Tb2  1  0.024098  0.512112  0.751373  1
  Tb  Tb3  1  0.508980  0.490823  0.247764  1
  Tb  Tb4  1  0.488013  0.512112  0.751373  1
  Tb  Tb5  1  0.000005  0.000011  0.251530  1
  Tb  Tb6  1  0.999983  0.999966  0.750255  1
  Er  Er7  1  0.508256  0.016512  0.247322  1
  Si  Si8  1  0.167279  0.334558  0.003777  1
  Si  Si9  1  0.835193  0.670385  0.997661  1
  Si  Si10  1  0.665851  0.833093  0.003904  1
  Si  Si11  1  0.834587  0.669174  0.500924  1
  Si  Si12  1  0.329820  0.164714  0.998376  1
  Si  Si13  1  0.165312  0.330622  0.500562  1
  Si  Si14  1  0.167243  0.833093  0.003904  1
  Si  Si15  1  0.330996  0.165255  0.500191  1
  Si  Si16  1  0.834895  0.164714  0.998376  1
  Si  Si17  1  0.669552  0.834877  0.500409  1
  Si  Si18  1  0.834259  0.165255  0.500191  1
  Si  Si19  1  0.165326  0.834877  0.500409  1
  Ir  Ir20  1  0.333933  0.667867  0.035620  1
  Pd  Pd21  1  0.666391  0.332782  0.965367  1
  Pd  Pd22  1  0.666386  0.332771  0.537984  1
  Pd  Pd23  1  0.333925  0.667850  0.453528  1
