# generated using pymatgen
data_Bi(O2F3)2
_symmetry_space_group_name_H-M   'P 1'
_cell_length_a   6.76379273
_cell_length_b   6.78549616
_cell_length_c   6.78876209
_cell_angle_alpha   119.31378525
_cell_angle_beta   119.78996166
_cell_angle_gamma   90.96197350
_symmetry_Int_Tables_number   1
_chemical_formula_structural   Bi(O2F3)2
_chemical_formula_sum   'Bi1 O4 F6'
_cell_volume   221.41955085
_cell_formula_units_Z   1
loop_
 _symmetry_equiv_pos_site_id
 _symmetry_equiv_pos_as_xyz
  1  'x, y, z'
loop_
 _atom_site_type_symbol
 _atom_site_label
 _atom_site_symmetry_multiplicity
 _atom_site_fract_x
 _atom_site_fract_y
 _atom_site_fract_z
 _atom_site_occupancy
  Bi  Bi0  1  0.005476  0.005334  0.000179  1
  O  O1  1  0.283095  0.696201  0.413247  1
  O  O2  1  0.282912  0.869782  0.586706  1
  O  O3  1  0.695262  0.282427  0.412893  1
  O  O4  1  0.870198  0.282319  0.588071  1
  F  F5  1  0.220754  0.220667  0.000357  1
  F  F6  1  0.219727  0.218539  0.425851  1
  F  F7  1  0.219233  0.793875  0.001105  1
  F  F8  1  0.789945  0.790246  0.999275  1
  F  F9  1  0.791095  0.792823  0.574102  1
  F  F10  1  0.791504  0.216987  0.998213  1
