# generated using pymatgen
data_Ta5Be2Tc3Te8
_symmetry_space_group_name_H-M   'P 1'
_cell_length_a   4.67611100
_cell_length_b   10.88649077
_cell_length_c   18.88949932
_cell_angle_alpha   89.95710798
_cell_angle_beta   90.00000000
_cell_angle_gamma   90.00000000
_symmetry_Int_Tables_number   1
_chemical_formula_structural   Ta5Be2Tc3Te8
_chemical_formula_sum   'Ta10 Be4 Tc6 Te16'
_cell_volume   961.59687949
_cell_formula_units_Z   2
loop_
 _symmetry_equiv_pos_site_id
 _symmetry_equiv_pos_as_xyz
  1  'x, y, z'
loop_
 _atom_site_type_symbol
 _atom_site_label
 _atom_site_symmetry_multiplicity
 _atom_site_fract_x
 _atom_site_fract_y
 _atom_site_fract_z
 _atom_site_occupancy
  Ta  Ta0  1  0.500000  0.196444  0.964871  1
  Ta  Ta1  1  0.500000  0.803556  0.035129  1
  Ta  Ta2  1  0.000000  0.677299  0.446129  1
  Ta  Ta3  1  0.000000  0.322701  0.553871  1
  Ta  Ta4  1  0.000000  0.179648  0.054670  1
  Ta  Ta5  1  0.000000  0.820352  0.945330  1
  Ta  Ta6  1  0.000000  0.407207  0.398355  1
  Ta  Ta7  1  0.000000  0.592793  0.601645  1
  Ta  Ta8  1  0.000000  0.905676  0.103525  1
  Ta  Ta9  1  0.000000  0.094324  0.896475  1
  Be  Be10  1  0.267809  0.500000  0.500000  1
  Be  Be11  1  0.747079  0.000000  0.000000  1
  Be  Be12  1  0.732191  0.500000  0.500000  1
  Be  Be13  1  0.252921  0.000000  0.000000  1
  Tc  Tc14  1  0.500000  0.558883  0.392142  1
  Tc  Tc15  1  0.500000  0.441117  0.607858  1
  Tc  Tc16  1  0.500000  0.058326  0.108460  1
  Tc  Tc17  1  0.500000  0.941674  0.891540  1
  Tc  Tc18  1  0.500000  0.687553  0.533051  1
  Tc  Tc19  1  0.500000  0.312447  0.466949  1
  Te  Te20  1  0.000000  0.842873  0.561515  1
  Te  Te21  1  0.000000  0.157127  0.438485  1
  Te  Te22  1  0.000000  0.349354  0.938148  1
  Te  Te23  1  0.000000  0.650646  0.061852  1
  Te  Te24  1  0.500000  0.337395  0.321496  1
  Te  Te25  1  0.500000  0.662605  0.678504  1
  Te  Te26  1  0.500000  0.841880  0.185394  1
  Te  Te27  1  0.500000  0.158120  0.814606  1
  Te  Te28  1  0.500000  0.811034  0.405343  1
  Te  Te29  1  0.500000  0.188966  0.594657  1
  Te  Te30  1  0.500000  0.312182  0.101522  1
  Te  Te31  1  0.500000  0.687818  0.898478  1
  Te  Te32  1  0.000000  0.606574  0.302178  1
  Te  Te33  1  0.000000  0.393426  0.697822  1
  Te  Te34  1  0.000000  0.106849  0.198817  1
  Te  Te35  1  0.000000  0.893151  0.801183  1
