# generated using pymatgen
data_Ho3Er2Lu3(Si3Rh)4
_symmetry_space_group_name_H-M   'P 1'
_cell_length_a   8.13072701
_cell_length_b   8.13072833
_cell_length_c   7.74883300
_cell_angle_alpha   90.00000000
_cell_angle_beta   90.00000000
_cell_angle_gamma   120.01311452
_symmetry_Int_Tables_number   1
_chemical_formula_structural   Ho3Er2Lu3(Si3Rh)4
_chemical_formula_sum   'Ho3 Er2 Lu3 Si12 Rh4'
_cell_volume   443.57632161
_cell_formula_units_Z   1
loop_
 _symmetry_equiv_pos_site_id
 _symmetry_equiv_pos_as_xyz
  1  'x, y, z'
loop_
 _atom_site_type_symbol
 _atom_site_label
 _atom_site_symmetry_multiplicity
 _atom_site_fract_x
 _atom_site_fract_y
 _atom_site_fract_z
 _atom_site_occupancy
  Ho  Ho0  1  0.000063  0.999937  0.250000  1
  Ho  Ho1  1  0.999944  0.000056  0.750000  1
  Ho  Ho2  1  0.490988  0.509012  0.250000  1
  Er  Er3  1  0.491110  0.982351  0.250000  1
  Er  Er4  1  0.017649  0.508890  0.250000  1
  Lu  Lu5  1  0.509036  0.490964  0.750000  1
  Lu  Lu6  1  0.981915  0.490907  0.750000  1
  Lu  Lu7  1  0.509093  0.018085  0.750000  1
  Si  Si8  1  0.833029  0.166971  0.502508  1
  Si  Si9  1  0.832889  0.665856  0.502640  1
  Si  Si10  1  0.334144  0.167111  0.502640  1
  Si  Si11  1  0.833029  0.166971  0.997492  1
  Si  Si12  1  0.832889  0.665856  0.997360  1
  Si  Si13  1  0.334144  0.167111  0.997360  1
  Si  Si14  1  0.167208  0.832792  0.999323  1
  Si  Si15  1  0.665526  0.832779  0.998946  1
  Si  Si16  1  0.167221  0.334474  0.998946  1
  Si  Si17  1  0.167208  0.832792  0.500677  1
  Si  Si18  1  0.665526  0.832779  0.501054  1
  Si  Si19  1  0.167221  0.334474  0.501054  1
  Rh  Rh20  1  0.666818  0.333182  0.470370  1
  Rh  Rh21  1  0.666818  0.333182  0.029630  1
  Rh  Rh22  1  0.333265  0.666735  0.959623  1
  Rh  Rh23  1  0.333265  0.666735  0.540377  1
