# generated using pymatgen
data_Tb2Dy(Co3P2)3
_symmetry_space_group_name_H-M   'P 1'
_cell_length_a   3.70411400
_cell_length_b   10.51933700
_cell_length_c   12.19391600
_cell_angle_alpha   90.00000000
_cell_angle_beta   90.00000000
_cell_angle_gamma   90.00000000
_symmetry_Int_Tables_number   1
_chemical_formula_structural   Tb2Dy(Co3P2)3
_chemical_formula_sum   'Tb4 Dy2 Co18 P12'
_cell_volume   475.13378413
_cell_formula_units_Z   2
loop_
 _symmetry_equiv_pos_site_id
 _symmetry_equiv_pos_as_xyz
  1  'x, y, z'
loop_
 _atom_site_type_symbol
 _atom_site_label
 _atom_site_symmetry_multiplicity
 _atom_site_fract_x
 _atom_site_fract_y
 _atom_site_fract_z
 _atom_site_occupancy
  Tb  Tb0  1  0.000000  0.500000  0.522029  1
  Tb  Tb1  1  0.500000  0.000000  0.477788  1
  Tb  Tb2  1  0.000000  0.683081  0.794241  1
  Tb  Tb3  1  0.000000  0.316919  0.794241  1
  Dy  Dy4  1  0.500000  0.817050  0.205771  1
  Dy  Dy5  1  0.500000  0.182950  0.205771  1
  Co  Co6  1  0.500000  0.500000  0.158796  1
  Co  Co7  1  0.000000  0.000000  0.841212  1
  Co  Co8  1  0.500000  0.500000  0.703582  1
  Co  Co9  1  0.000000  0.000000  0.296146  1
  Co  Co10  1  0.000000  0.500000  0.986293  1
  Co  Co11  1  0.500000  0.000000  0.014231  1
  Co  Co12  1  0.500000  0.333196  0.994984  1
  Co  Co13  1  0.500000  0.666804  0.994984  1
  Co  Co14  1  0.000000  0.166497  0.005442  1
  Co  Co15  1  0.000000  0.833503  0.005442  1
  Co  Co16  1  0.500000  0.297231  0.430327  1
  Co  Co17  1  0.500000  0.702769  0.430327  1
  Co  Co18  1  0.000000  0.202653  0.569346  1
  Co  Co19  1  0.000000  0.797347  0.569346  1
  Co  Co20  1  0.500000  0.879764  0.709684  1
  Co  Co21  1  0.500000  0.120236  0.709684  1
  Co  Co22  1  0.000000  0.620486  0.290162  1
  Co  Co23  1  0.000000  0.379514  0.290162  1
  P  P24  1  0.500000  0.500000  0.883166  1
  P  P25  1  0.000000  0.000000  0.117301  1
  P  P26  1  0.500000  0.500000  0.343496  1
  P  P27  1  0.000000  0.000000  0.656481  1
  P  P28  1  0.500000  0.309836  0.615664  1
  P  P29  1  0.500000  0.690164  0.615664  1
  P  P30  1  0.000000  0.190013  0.383856  1
  P  P31  1  0.000000  0.809987  0.383856  1
  P  P32  1  0.500000  0.847982  0.893512  1
  P  P33  1  0.500000  0.152018  0.893512  1
  P  P34  1  0.000000  0.652509  0.106751  1
  P  P35  1  0.000000  0.347491  0.106751  1
