# generated using pymatgen
data_Sc3(Al2Ir)4
_symmetry_space_group_name_H-M   'P 1'
_cell_length_a   8.78402000
_cell_length_b   8.78401992
_cell_length_c   8.78402000
_cell_angle_alpha   120.00000029
_cell_angle_beta   90.00000000
_cell_angle_gamma   120.00000029
_symmetry_Int_Tables_number   1
_chemical_formula_structural   Sc3(Al2Ir)4
_chemical_formula_sum   'Sc6 Al16 Ir8'
_cell_volume   479.25311288
_cell_formula_units_Z   2
loop_
 _symmetry_equiv_pos_site_id
 _symmetry_equiv_pos_as_xyz
  1  'x, y, z'
loop_
 _atom_site_type_symbol
 _atom_site_label
 _atom_site_symmetry_multiplicity
 _atom_site_fract_x
 _atom_site_fract_y
 _atom_site_fract_z
 _atom_site_occupancy
  Sc  Sc0  1  0.787544  0.000000  0.212457  1
  Sc  Sc1  1  0.212457  0.000000  0.212457  1
  Sc  Sc2  1  0.212457  0.424913  0.212457  1
  Sc  Sc3  1  0.212457  0.000000  0.787544  1
  Sc  Sc4  1  0.787544  0.000000  0.787544  1
  Sc  Sc5  1  0.787544  0.575088  0.787544  1
  Al  Al6  1  0.379000  0.758000  0.137001  1
  Al  Al7  1  0.481999  0.321333  0.160666  1
  Al  Al8  1  0.839333  0.321333  0.160666  1
  Al  Al9  1  0.839333  0.678666  0.160666  1
  Al  Al10  1  0.620999  0.241999  0.379000  1
  Al  Al11  1  0.137001  0.758000  0.379000  1
  Al  Al12  1  0.620999  0.758000  0.379000  1
  Al  Al13  1  0.160666  0.321333  0.481999  1
  Al  Al14  1  0.839333  0.678666  0.518000  1
  Al  Al15  1  0.379000  0.241999  0.620999  1
  Al  Al16  1  0.379000  0.758000  0.620999  1
  Al  Al17  1  0.862999  0.241999  0.621000  1
  Al  Al18  1  0.160666  0.321333  0.839333  1
  Al  Al19  1  0.160666  0.678666  0.839333  1
  Al  Al20  1  0.518000  0.678666  0.839333  1
  Al  Al21  1  0.621000  0.241999  0.862999  1
  Ir  Ir22  1  0.000000  0.000000  0.000000  1
  Ir  Ir23  1  0.499999  0.000000  0.000000  1
  Ir  Ir24  1  0.000000  0.499999  0.000000  1
  Ir  Ir25  1  0.499999  0.499999  0.000000  1
  Ir  Ir26  1  0.000000  0.000000  0.499999  1
  Ir  Ir27  1  0.000000  0.499999  0.499999  1
  Ir  Ir28  1  0.499999  0.499999  0.499999  1
  Ir  Ir29  1  0.500000  0.000000  0.500000  1
