# generated using pymatgen
data_Er3Tm9RuRh3
_symmetry_space_group_name_H-M   'P 1'
_cell_length_a   6.25610001
_cell_length_b   7.14731222
_cell_length_c   9.17369400
_cell_angle_alpha   90.00000000
_cell_angle_beta   90.00000000
_cell_angle_gamma   89.98883092
_symmetry_Int_Tables_number   1
_chemical_formula_structural   Er3Tm9RuRh3
_chemical_formula_sum   'Er3 Tm9 Ru1 Rh3'
_cell_volume   410.19529827
_cell_formula_units_Z   1
loop_
 _symmetry_equiv_pos_site_id
 _symmetry_equiv_pos_as_xyz
  1  'x, y, z'
loop_
 _atom_site_type_symbol
 _atom_site_label
 _atom_site_symmetry_multiplicity
 _atom_site_fract_x
 _atom_site_fract_y
 _atom_site_fract_z
 _atom_site_occupancy
  Er  Er0  1  0.371318  0.534586  0.250000  1
  Er  Er1  1  0.630137  0.466067  0.750000  1
  Er  Er2  1  0.130359  0.034254  0.250000  1
  Tm  Tm3  1  0.673535  0.178083  0.062305  1
  Tm  Tm4  1  0.172889  0.323280  0.935513  1
  Tm  Tm5  1  0.829478  0.678455  0.439566  1
  Tm  Tm6  1  0.323990  0.820266  0.564140  1
  Tm  Tm7  1  0.323990  0.820266  0.935860  1
  Tm  Tm8  1  0.829478  0.678455  0.060434  1
  Tm  Tm9  1  0.172889  0.323280  0.564487  1
  Tm  Tm10  1  0.673535  0.178083  0.437695  1
  Tm  Tm11  1  0.870701  0.963458  0.750000  1
  Ru  Ru12  1  0.043243  0.615955  0.750000  1
  Rh  Rh13  1  0.550278  0.885902  0.250000  1
  Rh  Rh14  1  0.453439  0.114468  0.750000  1
  Rh  Rh15  1  0.950739  0.385142  0.250000  1
