# generated using pymatgen
data_CsTbTe3O8
_symmetry_space_group_name_H-M   'P 1'
_cell_length_a   6.13745868
_cell_length_b   8.02051506
_cell_length_c   11.76792542
_cell_angle_alpha   100.95203916
_cell_angle_beta   89.14732427
_cell_angle_gamma   110.03444024
_symmetry_Int_Tables_number   1
_chemical_formula_structural   CsTbTe3O8
_chemical_formula_sum   'Cs2 Tb2 Te6 O16'
_cell_volume   533.52435726
_cell_formula_units_Z   2
loop_
 _symmetry_equiv_pos_site_id
 _symmetry_equiv_pos_as_xyz
  1  'x, y, z'
loop_
 _atom_site_type_symbol
 _atom_site_label
 _atom_site_symmetry_multiplicity
 _atom_site_fract_x
 _atom_site_fract_y
 _atom_site_fract_z
 _atom_site_occupancy
  Cs  Cs0  1  0.820776  0.111853  0.164643  1
  Cs  Cs1  1  0.179224  0.888147  0.835357  1
  Tb  Tb2  1  0.500000  0.500000  0.000000  1
  Tb  Tb3  1  0.000000  0.500000  0.500000  1
  Te  Te4  1  0.211789  0.991172  0.421177  1
  Te  Te5  1  0.788211  0.008828  0.578823  1
  Te  Te6  1  0.080394  0.685390  0.154486  1
  Te  Te7  1  0.919606  0.314610  0.845514  1
  Te  Te8  1  0.510231  0.518778  0.334004  1
  Te  Te9  1  0.489769  0.481222  0.665996  1
  O  O10  1  0.180775  0.750654  0.425904  1
  O  O11  1  0.819225  0.249346  0.574096  1
  O  O12  1  0.228158  0.931627  0.238289  1
  O  O13  1  0.771842  0.068373  0.761711  1
  O  O14  1  0.889054  0.961297  0.399621  1
  O  O15  1  0.110946  0.038703  0.600379  1
  O  O16  1  0.290638  0.694417  0.035654  1
  O  O17  1  0.709362  0.305583  0.964346  1
  O  O18  1  0.842646  0.724451  0.076109  1
  O  O19  1  0.157354  0.275549  0.923891  1
  O  O20  1  0.410279  0.429768  0.175951  1
  O  O21  1  0.589721  0.570232  0.824049  1
  O  O22  1  0.248047  0.371122  0.401020  1
  O  O23  1  0.751953  0.628878  0.598980  1
  O  O24  1  0.723826  0.399891  0.347534  1
  O  O25  1  0.276174  0.600109  0.652466  1
