# generated using pymatgen
data_Nd12N11
_symmetry_space_group_name_H-M   'P 1'
_cell_length_a   9.67898220
_cell_length_b   9.67898260
_cell_length_c   6.32416811
_cell_angle_alpha   89.89196255
_cell_angle_beta   89.89196121
_cell_angle_gamma   44.46025921
_symmetry_Int_Tables_number   1
_chemical_formula_structural   Nd12N11
_chemical_formula_sum   'Nd12 N11'
_cell_volume   414.97024651
_cell_formula_units_Z   1
loop_
 _symmetry_equiv_pos_site_id
 _symmetry_equiv_pos_as_xyz
  1  'x, y, z'
loop_
 _atom_site_type_symbol
 _atom_site_label
 _atom_site_symmetry_multiplicity
 _atom_site_fract_x
 _atom_site_fract_y
 _atom_site_fract_z
 _atom_site_occupancy
  Nd  Nd0  1  0.500000  0.000000  0.500000  1
  Nd  Nd1  1  0.175380  0.650414  0.827435  1
  Nd  Nd2  1  0.824620  0.349586  0.172565  1
  Nd  Nd3  1  0.349586  0.824620  0.172565  1
  Nd  Nd4  1  0.000000  0.500000  0.500000  1
  Nd  Nd5  1  0.650414  0.175380  0.827435  1
  Nd  Nd6  1  0.912789  0.912789  0.352021  1
  Nd  Nd7  1  0.583099  0.583099  0.672347  1
  Nd  Nd8  1  0.247835  0.247835  0.001157  1
  Nd  Nd9  1  0.416901  0.416901  0.327653  1
  Nd  Nd10  1  0.087211  0.087211  0.647979  1
  Nd  Nd11  1  0.752165  0.752165  0.998843  1
  N  N12  1  0.753587  0.246413  0.500000  1
  N  N13  1  0.414691  0.917247  0.834180  1
  N  N14  1  0.082753  0.585309  0.165820  1
  N  N15  1  0.585309  0.082753  0.165820  1
  N  N16  1  0.246413  0.753587  0.500000  1
  N  N17  1  0.917247  0.414691  0.834180  1
  N  N18  1  0.835215  0.835215  0.661805  1
  N  N19  1  0.500000  0.500000  0.000000  1
  N  N20  1  0.164785  0.164785  0.338195  1
  N  N21  1  0.664147  0.664147  0.326655  1
  N  N22  1  0.335853  0.335853  0.673345  1
