# generated using pymatgen
data_Ca6ReSbO12
_symmetry_space_group_name_H-M   'P 1'
_cell_length_a   5.88740979
_cell_length_b   5.62015719
_cell_length_c   9.86668916
_cell_angle_alpha   55.28195401
_cell_angle_beta   89.77141539
_cell_angle_gamma   90.00783052
_symmetry_Int_Tables_number   1
_chemical_formula_structural   Ca6ReSbO12
_chemical_formula_sum   'Ca6 Re1 Sb1 O12'
_cell_volume   268.34408056
_cell_formula_units_Z   1
loop_
 _symmetry_equiv_pos_site_id
 _symmetry_equiv_pos_as_xyz
  1  'x, y, z'
loop_
 _atom_site_type_symbol
 _atom_site_label
 _atom_site_symmetry_multiplicity
 _atom_site_fract_x
 _atom_site_fract_y
 _atom_site_fract_z
 _atom_site_occupancy
  Ca  Ca0  1  0.559081  0.240430  0.241288  1
  Ca  Ca1  1  0.053932  0.780150  0.230615  1
  Ca  Ca2  1  0.500000  0.000000  0.000000  1
  Ca  Ca3  1  0.000000  0.000000  0.500000  1
  Ca  Ca4  1  0.946068  0.219850  0.769385  1
  Ca  Ca5  1  0.440919  0.759570  0.758712  1
  Re  Re6  1  0.500000  0.500000  0.500000  1
  Sb  Sb7  1  0.000000  0.500000  0.000000  1
  O  O8  1  0.551472  0.395078  0.718730  1
  O  O9  1  0.058285  0.616301  0.766917  1
  O  O10  1  0.448528  0.604922  0.281270  1
  O  O11  1  0.941715  0.383699  0.233083  1
  O  O12  1  0.771917  0.728263  0.429986  1
  O  O13  1  0.283105  0.252951  0.071172  1
  O  O14  1  0.228083  0.271737  0.570014  1
  O  O15  1  0.716895  0.747049  0.928828  1
  O  O16  1  0.183123  0.842405  0.948172  1
  O  O17  1  0.668727  0.170312  0.550809  1
  O  O18  1  0.816877  0.157595  0.051828  1
  O  O19  1  0.331273  0.829688  0.449191  1
