# generated using pymatgen
data_Er3Cd(Rh2O7)2
_symmetry_space_group_name_H-M   'P 1'
_cell_length_a   7.24556543
_cell_length_b   7.24556438
_cell_length_c   7.16572842
_cell_angle_alpha   59.63075509
_cell_angle_beta   59.63075931
_cell_angle_gamma   59.99999724
_symmetry_Int_Tables_number   1
_chemical_formula_structural   Er3Cd(Rh2O7)2
_chemical_formula_sum   'Er3 Cd1 Rh4 O14'
_cell_volume   264.51074318
_cell_formula_units_Z   1
loop_
 _symmetry_equiv_pos_site_id
 _symmetry_equiv_pos_as_xyz
  1  'x, y, z'
loop_
 _atom_site_type_symbol
 _atom_site_label
 _atom_site_symmetry_multiplicity
 _atom_site_fract_x
 _atom_site_fract_y
 _atom_site_fract_z
 _atom_site_occupancy
  Er  Er0  1  0.125000  0.125000  0.125000  1
  Er  Er1  1  0.125000  0.625000  0.125000  1
  Er  Er2  1  0.625000  0.125000  0.125000  1
  Cd  Cd3  1  0.125000  0.125000  0.625000  1
  Rh  Rh4  1  0.625000  0.625000  0.625000  1
  Rh  Rh5  1  0.625000  0.625000  0.125000  1
  Rh  Rh6  1  0.125000  0.625000  0.625000  1
  Rh  Rh7  1  0.625000  0.125000  0.625000  1
  O  O8  1  0.251222  0.251222  0.246332  1
  O  O9  1  0.288673  0.713067  0.285193  1
  O  O10  1  0.955597  0.955597  0.536607  1
  O  O11  1  0.552201  0.955597  0.536607  1
  O  O12  1  0.713067  0.713067  0.285193  1
  O  O13  1  0.955597  0.552201  0.536607  1
  O  O14  1  0.697799  0.294403  0.713393  1
  O  O15  1  0.294403  0.294403  0.713393  1
  O  O16  1  0.713067  0.288673  0.285193  1
  O  O17  1  0.294403  0.697799  0.713393  1
  O  O18  1  0.961327  0.536933  0.964807  1
  O  O19  1  0.536933  0.536933  0.964807  1
  O  O20  1  0.998778  0.998778  0.003668  1
  O  O21  1  0.536933  0.961327  0.964807  1
