# generated using pymatgen
data_La5EuAlGa5O18
_symmetry_space_group_name_H-M   'P 1'
_cell_length_a   7.12870378
_cell_length_b   7.12467957
_cell_length_c   10.45834519
_cell_angle_alpha   89.98795242
_cell_angle_beta   89.98995449
_cell_angle_gamma   120.01369597
_symmetry_Int_Tables_number   1
_chemical_formula_structural   La5EuAlGa5O18
_chemical_formula_sum   'La5 Eu1 Al1 Ga5 O18'
_cell_volume   459.94883547
_cell_formula_units_Z   1
loop_
 _symmetry_equiv_pos_site_id
 _symmetry_equiv_pos_as_xyz
  1  'x, y, z'
loop_
 _atom_site_type_symbol
 _atom_site_label
 _atom_site_symmetry_multiplicity
 _atom_site_fract_x
 _atom_site_fract_y
 _atom_site_fract_z
 _atom_site_occupancy
  La  La0  1  0.831575  0.170003  0.000728  1
  La  La1  1  0.169987  0.831267  0.499305  1
  La  La2  1  0.169760  0.831864  0.000768  1
  La  La3  1  0.497330  0.497363  0.001705  1
  La  La4  1  0.497758  0.497455  0.498423  1
  Eu  Eu5  1  0.831830  0.169918  0.499192  1
  Al  Al6  1  0.097185  0.098585  0.250690  1
  Ga  Ga7  1  0.569867  0.836226  0.250786  1
  Ga  Ga8  1  0.164312  0.432419  0.749204  1
  Ga  Ga9  1  0.835096  0.566423  0.250998  1
  Ga  Ga10  1  0.436142  0.165600  0.749095  1
  Ga  Ga11  1  0.894335  0.895756  0.749280  1
  O  O12  1  0.902030  0.164455  0.748751  1
  O  O13  1  0.842487  0.090387  0.251015  1
  O  O14  1  0.484029  0.838711  0.415001  1
  O  O15  1  0.481134  0.835873  0.086693  1
  O  O16  1  0.163878  0.515264  0.583499  1
  O  O17  1  0.166623  0.518152  0.914798  1
  O  O18  1  0.835735  0.477398  0.414592  1
  O  O19  1  0.835973  0.481162  0.086381  1
  O  O20  1  0.522224  0.166755  0.583896  1
  O  O21  1  0.518221  0.166521  0.915143  1
  O  O22  1  0.088163  0.842429  0.250479  1
  O  O23  1  0.164702  0.904120  0.749530  1
  O  O24  1  0.427546  0.427078  0.749528  1
  O  O25  1  0.814476  0.818249  0.580616  1
  O  O26  1  0.814314  0.814348  0.917720  1
  O  O27  1  0.187018  0.187181  0.091830  1
  O  O28  1  0.183897  0.187099  0.409922  1
  O  O29  1  0.572374  0.571940  0.250430  1
