# generated using pymatgen
data_Ho3Pa3(Sb4Pt3)2
_symmetry_space_group_name_H-M   'P 1'
_cell_length_a   8.44224242
_cell_length_b   8.42878125
_cell_length_c   8.42878304
_cell_angle_alpha   109.49271575
_cell_angle_beta   109.02199431
_cell_angle_gamma   109.83542457
_symmetry_Int_Tables_number   1
_chemical_formula_structural   Ho3Pa3(Sb4Pt3)2
_chemical_formula_sum   'Ho3 Pa3 Sb8 Pt6'
_cell_volume   462.05009890
_cell_formula_units_Z   1
loop_
 _symmetry_equiv_pos_site_id
 _symmetry_equiv_pos_as_xyz
  1  'x, y, z'
loop_
 _atom_site_type_symbol
 _atom_site_label
 _atom_site_symmetry_multiplicity
 _atom_site_fract_x
 _atom_site_fract_y
 _atom_site_fract_z
 _atom_site_occupancy
  Ho  Ho0  1  0.875179  0.249842  0.125284  1
  Ho  Ho1  1  0.624821  0.750105  0.374663  1
  Ho  Ho2  1  0.250000  0.125335  0.875335  1
  Pa  Pa3  1  0.750000  0.373956  0.623956  1
  Pa  Pa4  1  0.123701  0.874762  0.250547  1
  Pa  Pa5  1  0.376299  0.626846  0.751062  1
  Sb  Sb6  1  0.673220  0.498594  0.001292  1
  Sb  Sb7  1  0.499599  0.997200  0.675917  1
  Sb  Sb8  1  0.000401  0.676319  0.497602  1
  Sb  Sb9  1  0.826780  0.828073  0.825374  1
  Sb  Sb10  1  0.499431  0.001260  0.173146  1
  Sb  Sb11  1  0.177487  0.499358  0.001217  1
  Sb  Sb12  1  0.000569  0.173715  0.501829  1
  Sb  Sb13  1  0.322513  0.323730  0.321871  1
  Pt  Pt14  1  0.379819  0.251863  0.621992  1
  Pt  Pt15  1  0.120181  0.742172  0.872044  1
  Pt  Pt16  1  0.250000  0.625511  0.375511  1
  Pt  Pt17  1  0.750000  0.873742  0.123742  1
  Pt  Pt18  1  0.629573  0.378041  0.259149  1
  Pt  Pt19  1  0.870427  0.129575  0.748468  1
