# generated using pymatgen
data_Ho4UPt15
_symmetry_space_group_name_H-M   'P 1'
_cell_length_a   4.10671900
_cell_length_b   4.10671900
_cell_length_c   20.47059000
_cell_angle_alpha   90.00000000
_cell_angle_beta   90.00000000
_cell_angle_gamma   90.00000000
_symmetry_Int_Tables_number   1
_chemical_formula_structural   Ho4UPt15
_chemical_formula_sum   'Ho4 U1 Pt15'
_cell_volume   345.23938558
_cell_formula_units_Z   1
loop_
 _symmetry_equiv_pos_site_id
 _symmetry_equiv_pos_as_xyz
  1  'x, y, z'
loop_
 _atom_site_type_symbol
 _atom_site_label
 _atom_site_symmetry_multiplicity
 _atom_site_fract_x
 _atom_site_fract_y
 _atom_site_fract_z
 _atom_site_occupancy
  Ho  Ho0  1  0.000000  0.000000  0.202300  1
  Ho  Ho1  1  0.000000  0.000000  0.400174  1
  Ho  Ho2  1  0.000000  0.000000  0.599826  1
  Ho  Ho3  1  0.000000  0.000000  0.797700  1
  U  U4  1  0.000000  0.000000  0.000000  1
  Pt  Pt5  1  0.500000  0.500000  0.000000  1
  Pt  Pt6  1  0.500000  0.500000  0.198700  1
  Pt  Pt7  1  0.500000  0.500000  0.399468  1
  Pt  Pt8  1  0.500000  0.500000  0.600532  1
  Pt  Pt9  1  0.500000  0.500000  0.801300  1
  Pt  Pt10  1  0.500000  0.000000  0.097179  1
  Pt  Pt11  1  0.500000  0.000000  0.299382  1
  Pt  Pt12  1  0.500000  0.000000  0.500000  1
  Pt  Pt13  1  0.500000  0.000000  0.700618  1
  Pt  Pt14  1  0.500000  0.000000  0.902821  1
  Pt  Pt15  1  0.000000  0.500000  0.097179  1
  Pt  Pt16  1  0.000000  0.500000  0.299382  1
  Pt  Pt17  1  0.000000  0.500000  0.500000  1
  Pt  Pt18  1  0.000000  0.500000  0.700618  1
  Pt  Pt19  1  0.000000  0.500000  0.902821  1
