# generated using pymatgen
data_Nd2Dy4IrBr10
_symmetry_space_group_name_H-M   'P 1'
_cell_length_a   7.44819279
_cell_length_b   9.35401114
_cell_length_c   9.40128587
_cell_angle_alpha   107.68610327
_cell_angle_beta   95.97281914
_cell_angle_gamma   105.94785450
_symmetry_Int_Tables_number   1
_chemical_formula_structural   Nd2Dy4IrBr10
_chemical_formula_sum   'Nd2 Dy4 Ir1 Br10'
_cell_volume   587.30926364
_cell_formula_units_Z   1
loop_
 _symmetry_equiv_pos_site_id
 _symmetry_equiv_pos_as_xyz
  1  'x, y, z'
loop_
 _atom_site_type_symbol
 _atom_site_label
 _atom_site_symmetry_multiplicity
 _atom_site_fract_x
 _atom_site_fract_y
 _atom_site_fract_z
 _atom_site_occupancy
  Nd  Nd0  1  0.129855  0.049914  0.755644  1
  Nd  Nd1  1  0.870145  0.950086  0.244356  1
  Dy  Dy2  1  0.973318  0.300163  0.096233  1
  Dy  Dy3  1  0.026682  0.699837  0.903767  1
  Dy  Dy4  1  0.640048  0.865238  0.822113  1
  Dy  Dy5  1  0.359952  0.134762  0.177887  1
  Ir  Ir6  1  0.000000  0.000000  0.000000  1
  Br  Br7  1  0.553192  0.176818  0.920756  1
  Br  Br8  1  0.446808  0.823182  0.079244  1
  Br  Br9  1  0.741905  0.913594  0.547980  1
  Br  Br10  1  0.258095  0.086406  0.452020  1
  Br  Br11  1  0.084794  0.378003  0.834589  1
  Br  Br12  1  0.915206  0.621997  0.165411  1
  Br  Br13  1  0.220238  0.739827  0.658035  1
  Br  Br14  1  0.779762  0.260173  0.341965  1
  Br  Br15  1  0.650883  0.551606  0.729091  1
  Br  Br16  1  0.349117  0.448394  0.270909  1
