# generated using pymatgen
data_SrTl2OsO6
_symmetry_space_group_name_H-M   'P 1'
_cell_length_a   6.17263353
_cell_length_b   6.18807216
_cell_length_c   8.74555500
_cell_angle_alpha   90.04788790
_cell_angle_beta   90.02366039
_cell_angle_gamma   90.00156353
_symmetry_Int_Tables_number   1
_chemical_formula_structural   SrTl2OsO6
_chemical_formula_sum   'Sr2 Tl4 Os2 O12'
_cell_volume   334.05121026
_cell_formula_units_Z   2
loop_
 _symmetry_equiv_pos_site_id
 _symmetry_equiv_pos_as_xyz
  1  'x, y, z'
loop_
 _atom_site_type_symbol
 _atom_site_label
 _atom_site_symmetry_multiplicity
 _atom_site_fract_x
 _atom_site_fract_y
 _atom_site_fract_z
 _atom_site_occupancy
  Sr  Sr0  1  0.450074  0.550394  0.999983  1
  Sr  Sr1  1  0.949871  0.049648  0.500003  1
  Tl  Tl2  1  0.449827  0.050083  0.249846  1
  Tl  Tl3  1  0.950085  0.550057  0.250032  1
  Tl  Tl4  1  0.450003  0.049890  0.750093  1
  Tl  Tl5  1  0.950123  0.549953  0.750048  1
  Os  Os6  1  0.950118  0.050473  0.000017  1
  Os  Os7  1  0.449916  0.549537  0.499969  1
  O  O8  1  0.162419  0.832617  0.000580  1
  O  O9  1  0.168759  0.262054  0.000953  1
  O  O10  1  0.948574  0.050540  0.214955  1
  O  O11  1  0.451088  0.549987  0.285052  1
  O  O12  1  0.228266  0.341028  0.498924  1
  O  O13  1  0.240793  0.770494  0.499767  1
  O  O14  1  0.658875  0.328437  0.500135  1
  O  O15  1  0.671547  0.758005  0.501124  1
  O  O16  1  0.448754  0.548771  0.714928  1
  O  O17  1  0.951320  0.050656  0.785055  1
  O  O18  1  0.731557  0.838789  0.999085  1
  O  O19  1  0.738024  0.268601  0.999427  1
