# generated using pymatgen
data_La4Al24Pd7Au2
_symmetry_space_group_name_H-M   'P 1'
_cell_length_a   7.65017597
_cell_length_b   7.66461474
_cell_length_c   13.42253600
_cell_angle_alpha   84.58858643
_cell_angle_beta   79.16044922
_cell_angle_gamma   59.89084429
_symmetry_Int_Tables_number   1
_chemical_formula_structural   La4Al24Pd7Au2
_chemical_formula_sum   'La4 Al24 Pd7 Au2'
_cell_volume   668.69708960
_cell_formula_units_Z   1
loop_
 _symmetry_equiv_pos_site_id
 _symmetry_equiv_pos_as_xyz
  1  'x, y, z'
loop_
 _atom_site_type_symbol
 _atom_site_label
 _atom_site_symmetry_multiplicity
 _atom_site_fract_x
 _atom_site_fract_y
 _atom_site_fract_z
 _atom_site_occupancy
  La  La0  1  0.393090  0.169132  0.808860  1
  La  La1  1  0.606910  0.830868  0.191140  1
  La  La2  1  0.734241  0.498064  0.809526  1
  La  La3  1  0.265759  0.501936  0.190474  1
  Al  Al4  1  0.686969  0.834386  0.947869  1
  Al  Al5  1  0.313031  0.165614  0.052131  1
  Al  Al6  1  0.144674  0.839928  0.559604  1
  Al  Al7  1  0.855326  0.160072  0.440396  1
  Al  Al8  1  0.487326  0.160367  0.558242  1
  Al  Al9  1  0.512674  0.839633  0.441758  1
  Al  Al10  1  0.220025  0.159733  0.332784  1
  Al  Al11  1  0.779975  0.840267  0.667216  1
  Al  Al12  1  0.439315  0.508937  0.667705  1
  Al  Al13  1  0.560685  0.491063  0.332295  1
  Al  Al14  1  0.109923  0.151332  0.666686  1
  Al  Al15  1  0.890077  0.848668  0.333314  1
  Al  Al16  1  0.348319  0.503583  0.947556  1
  Al  Al17  1  0.651681  0.496417  0.052444  1
  Al  Al18  1  0.014420  0.164143  0.958473  1
  Al  Al19  1  0.985580  0.835857  0.041527  1
  Al  Al20  1  0.195099  0.501476  0.438040  1
  Al  Al21  1  0.804901  0.498524  0.561960  1
  Al  Al22  1  0.736475  0.163324  0.184530  1
  Al  Al23  1  0.263525  0.836676  0.815470  1
  Al  Al24  1  0.060690  0.638021  0.817588  1
  Al  Al25  1  0.939310  0.361979  0.182412  1
  Al  Al26  1  0.860237  0.038346  0.815477  1
  Al  Al27  1  0.139763  0.961654  0.184524  1
  Pd  Pd28  1  0.658185  0.170626  0.999783  1
  Pd  Pd29  1  0.341815  0.829374  0.000217  1
  Pd  Pd30  1  0.540059  0.167022  0.365072  1
  Pd  Pd31  1  0.459941  0.832978  0.634928  1
  Pd  Pd32  1  0.781917  0.172529  0.635311  1
  Pd  Pd33  1  0.218083  0.827471  0.364689  1
  Pd  Pd34  1  0.000000  0.500000  0.000000  1
  Au  Au35  1  0.120475  0.494333  0.634989  1
  Au  Au36  1  0.879525  0.505667  0.365011  1
