# generated using pymatgen
data_Dy2Si4Tc7W
_symmetry_space_group_name_H-M   'P 1'
_cell_length_a   7.03567906
_cell_length_b   7.68509032
_cell_length_c   4.18624300
_cell_angle_alpha   90.00000000
_cell_angle_beta   90.00000000
_cell_angle_gamma   89.87776604
_symmetry_Int_Tables_number   1
_chemical_formula_structural   Dy2Si4Tc7W
_chemical_formula_sum   'Dy2 Si4 Tc7 W1'
_cell_volume   226.34892793
_cell_formula_units_Z   1
loop_
 _symmetry_equiv_pos_site_id
 _symmetry_equiv_pos_as_xyz
  1  'x, y, z'
loop_
 _atom_site_type_symbol
 _atom_site_label
 _atom_site_symmetry_multiplicity
 _atom_site_fract_x
 _atom_site_fract_y
 _atom_site_fract_z
 _atom_site_occupancy
  Dy  Dy0  1  0.500178  0.497318  0.500000  1
  Dy  Dy1  1  0.999471  0.998903  0.000000  1
  Si  Si2  1  0.777574  0.196231  0.500000  1
  Si  Si3  1  0.225963  0.805790  0.500000  1
  Si  Si4  1  0.274256  0.305867  0.000000  1
  Si  Si5  1  0.726782  0.689791  0.000000  1
  Tc  Tc6  1  0.342138  0.109021  0.500000  1
  Tc  Tc7  1  0.154270  0.607169  0.000000  1
  Tc  Tc8  1  0.849218  0.391507  0.000000  1
  Tc  Tc9  1  0.916483  0.658606  0.500000  1
  Tc  Tc10  1  0.083113  0.343570  0.500000  1
  Tc  Tc11  1  0.583701  0.162477  0.000000  1
  Tc  Tc12  1  0.419046  0.841264  0.000000  1
  W  W13  1  0.647809  0.892486  0.500000  1
