# generated using pymatgen
data_Nd4Zn4PtRh3
_symmetry_space_group_name_H-M   'P 1'
_cell_length_a   4.02109600
_cell_length_b   7.39160410
_cell_length_c   16.68580686
_cell_angle_alpha   89.98238536
_cell_angle_beta   90.00000000
_cell_angle_gamma   90.00000000
_symmetry_Int_Tables_number   1
_chemical_formula_structural   Nd4Zn4PtRh3
_chemical_formula_sum   'Nd8 Zn8 Pt2 Rh6'
_cell_volume   495.94136257
_cell_formula_units_Z   2
loop_
 _symmetry_equiv_pos_site_id
 _symmetry_equiv_pos_as_xyz
  1  'x, y, z'
loop_
 _atom_site_type_symbol
 _atom_site_label
 _atom_site_symmetry_multiplicity
 _atom_site_fract_x
 _atom_site_fract_y
 _atom_site_fract_z
 _atom_site_occupancy
  Nd  Nd0  1  0.250000  0.169821  0.938634  1
  Nd  Nd1  1  0.250000  0.669898  0.564966  1
  Nd  Nd2  1  0.750000  0.331049  0.442835  1
  Nd  Nd3  1  0.750000  0.948040  0.280546  1
  Nd  Nd4  1  0.750000  0.830049  0.059408  1
  Nd  Nd5  1  0.750000  0.451250  0.213029  1
  Nd  Nd6  1  0.250000  0.050778  0.716630  1
  Nd  Nd7  1  0.250000  0.548595  0.785717  1
  Zn  Zn8  1  0.750000  0.003643  0.563569  1
  Zn  Zn9  1  0.250000  0.622233  0.346089  1
  Zn  Zn10  1  0.750000  0.379480  0.652282  1
  Zn  Zn11  1  0.250000  0.498457  0.058641  1
  Zn  Zn12  1  0.750000  0.501219  0.939969  1
  Zn  Zn13  1  0.250000  0.998916  0.440562  1
  Zn  Zn14  1  0.250000  0.120975  0.148785  1
  Zn  Zn15  1  0.750000  0.878663  0.849052  1
  Pt  Pt16  1  0.750000  0.754607  0.434528  1
  Pt  Pt17  1  0.250000  0.245294  0.313614  1
  Rh  Rh18  1  0.750000  0.253202  0.813431  1
  Rh  Rh19  1  0.750000  0.754718  0.687057  1
  Rh  Rh20  1  0.250000  0.244443  0.565228  1
  Rh  Rh21  1  0.250000  0.744827  0.186079  1
  Rh  Rh22  1  0.750000  0.254783  0.064826  1
  Rh  Rh23  1  0.250000  0.745060  0.934525  1
