# generated using pymatgen
data_Pr2Dy2SiI5
_symmetry_space_group_name_H-M   'P 1'
_cell_length_a   9.94263775
_cell_length_b   9.94263778
_cell_length_c   9.14464175
_cell_angle_alpha   77.82439974
_cell_angle_beta   77.82440034
_cell_angle_gamma   24.95064783
_symmetry_Int_Tables_number   1
_chemical_formula_structural   Pr2Dy2SiI5
_chemical_formula_sum   'Pr2 Dy2 Si1 I5'
_cell_volume   372.33942811
_cell_formula_units_Z   1
loop_
 _symmetry_equiv_pos_site_id
 _symmetry_equiv_pos_as_xyz
  1  'x, y, z'
loop_
 _atom_site_type_symbol
 _atom_site_label
 _atom_site_symmetry_multiplicity
 _atom_site_fract_x
 _atom_site_fract_y
 _atom_site_fract_z
 _atom_site_occupancy
  Pr  Pr0  1  0.500950  0.500950  0.214576  1
  Pr  Pr1  1  0.499050  0.499050  0.785424  1
  Dy  Dy2  1  0.856968  0.856968  0.072695  1
  Dy  Dy3  1  0.143032  0.143032  0.927305  1
  Si  Si4  1  0.000000  0.000000  0.000000  1
  I  I5  1  0.675639  0.675639  0.153498  1
  I  I6  1  0.324361  0.324361  0.846502  1
  I  I7  1  0.669690  0.669690  0.677038  1
  I  I8  1  0.330310  0.330310  0.322962  1
  I  I9  1  0.000000  0.000000  0.500000  1
