# generated using pymatgen
data_BaPrDySe4
_symmetry_space_group_name_H-M   'P 1'
_cell_length_a   4.30436700
_cell_length_b   12.94483000
_cell_length_c   15.44590600
_cell_angle_alpha   90.00000000
_cell_angle_beta   90.00000000
_cell_angle_gamma   90.00000000
_symmetry_Int_Tables_number   1
_chemical_formula_structural   BaPrDySe4
_chemical_formula_sum   'Ba4 Pr4 Dy4 Se16'
_cell_volume   860.63505586
_cell_formula_units_Z   4
loop_
 _symmetry_equiv_pos_site_id
 _symmetry_equiv_pos_as_xyz
  1  'x, y, z'
loop_
 _atom_site_type_symbol
 _atom_site_label
 _atom_site_symmetry_multiplicity
 _atom_site_fract_x
 _atom_site_fract_y
 _atom_site_fract_z
 _atom_site_occupancy
  Ba  Ba0  1  0.250000  0.759229  0.339137  1
  Ba  Ba1  1  0.250000  0.259229  0.160863  1
  Ba  Ba2  1  0.750000  0.240771  0.660863  1
  Ba  Ba3  1  0.750000  0.740771  0.839137  1
  Pr  Pr4  1  0.250000  0.428769  0.389871  1
  Pr  Pr5  1  0.250000  0.928769  0.110129  1
  Pr  Pr6  1  0.750000  0.571231  0.610129  1
  Pr  Pr7  1  0.750000  0.071231  0.889871  1
  Dy  Dy8  1  0.250000  0.423557  0.900623  1
  Dy  Dy9  1  0.250000  0.923557  0.599377  1
  Dy  Dy10  1  0.750000  0.576443  0.099377  1
  Dy  Dy11  1  0.750000  0.076443  0.400623  1
  Se  Se12  1  0.250000  0.215313  0.828602  1
  Se  Se13  1  0.250000  0.715313  0.671398  1
  Se  Se14  1  0.750000  0.784687  0.171398  1
  Se  Se15  1  0.750000  0.284687  0.328602  1
  Se  Se16  1  0.250000  0.126750  0.522969  1
  Se  Se17  1  0.250000  0.626750  0.977031  1
  Se  Se18  1  0.750000  0.873250  0.477031  1
  Se  Se19  1  0.750000  0.373250  0.022969  1
  Se  Se20  1  0.250000  0.521981  0.211695  1
  Se  Se21  1  0.250000  0.021981  0.288305  1
  Se  Se22  1  0.750000  0.478019  0.788305  1
  Se  Se23  1  0.750000  0.978019  0.711695  1
  Se  Se24  1  0.250000  0.415063  0.580466  1
  Se  Se25  1  0.250000  0.915063  0.919534  1
  Se  Se26  1  0.750000  0.584937  0.419534  1
  Se  Se27  1  0.750000  0.084937  0.080466  1
