# generated using pymatgen
data_TbEr3(Ga2Ag)4
_symmetry_space_group_name_H-M   'P 1'
_cell_length_a   4.37842300
_cell_length_b   6.94012076
_cell_length_c   10.24505360
_cell_angle_alpha   90.08161359
_cell_angle_beta   90.00000000
_cell_angle_gamma   90.00000000
_symmetry_Int_Tables_number   1
_chemical_formula_structural   TbEr3(Ga2Ag)4
_chemical_formula_sum   'Tb1 Er3 Ga8 Ag4'
_cell_volume   311.31391862
_cell_formula_units_Z   1
loop_
 _symmetry_equiv_pos_site_id
 _symmetry_equiv_pos_as_xyz
  1  'x, y, z'
loop_
 _atom_site_type_symbol
 _atom_site_label
 _atom_site_symmetry_multiplicity
 _atom_site_fract_x
 _atom_site_fract_y
 _atom_site_fract_z
 _atom_site_occupancy
  Tb  Tb0  1  0.250000  0.279466  0.674706  1
  Er  Er1  1  0.250000  0.779344  0.825873  1
  Er  Er2  1  0.750000  0.220376  0.174497  1
  Er  Er3  1  0.750000  0.720607  0.325515  1
  Ga  Ga4  1  0.250000  0.929074  0.154299  1
  Ga  Ga5  1  0.750000  0.070140  0.846212  1
  Ga  Ga6  1  0.750000  0.572551  0.654100  1
  Ga  Ga7  1  0.250000  0.429291  0.345689  1
  Ga  Ga8  1  0.250000  0.703484  0.536723  1
  Ga  Ga9  1  0.750000  0.297413  0.462468  1
  Ga  Ga10  1  0.750000  0.797802  0.036814  1
  Ga  Ga11  1  0.250000  0.201631  0.964131  1
  Ag  Ag12  1  0.250000  0.544088  0.096480  1
  Ag  Ag13  1  0.750000  0.456044  0.903843  1
  Ag  Ag14  1  0.750000  0.955112  0.595974  1
  Ag  Ag15  1  0.250000  0.043578  0.402675  1
