# generated using pymatgen
data_CoSi12(P4Rh)3
_symmetry_space_group_name_H-M   'P 1'
_cell_length_a   5.85916764
_cell_length_b   6.06679251
_cell_length_c   12.98872251
_cell_angle_alpha   90.05117008
_cell_angle_beta   89.89958248
_cell_angle_gamma   89.95788616
_symmetry_Int_Tables_number   1
_chemical_formula_structural   CoSi12(P4Rh)3
_chemical_formula_sum   'Co1 Si12 P12 Rh3'
_cell_volume   461.70071491
_cell_formula_units_Z   1
loop_
 _symmetry_equiv_pos_site_id
 _symmetry_equiv_pos_as_xyz
  1  'x, y, z'
loop_
 _atom_site_type_symbol
 _atom_site_label
 _atom_site_symmetry_multiplicity
 _atom_site_fract_x
 _atom_site_fract_y
 _atom_site_fract_z
 _atom_site_occupancy
  Co  Co0  1  0.034722  0.519193  0.382921  1
  Si  Si1  1  0.968795  0.173025  0.321346  1
  Si  Si2  1  0.467735  0.838165  0.680942  1
  Si  Si3  1  0.932682  0.625633  0.222040  1
  Si  Si4  1  0.432084  0.373375  0.783735  1
  Si  Si5  1  0.340115  0.915586  0.951063  1
  Si  Si6  1  0.841350  0.083267  0.050533  1
  Si  Si7  1  0.915031  0.531126  0.670733  1
  Si  Si8  1  0.402101  0.471556  0.329190  1
  Si  Si9  1  0.998249  0.061022  0.567638  1
  Si  Si10  1  0.499545  0.932063  0.428285  1
  Si  Si11  1  0.910865  0.627379  0.929110  1
  Si  Si12  1  0.411427  0.372424  0.072445  1
  P  P13  1  0.578514  0.029457  0.824690  1
  P  P14  1  0.078214  0.971911  0.178088  1
  P  P15  1  0.518243  0.562058  0.929485  1
  P  P16  1  0.018291  0.438961  0.073351  1
  P  P17  1  0.609329  0.111818  0.572120  1
  P  P18  1  0.109204  0.874997  0.424253  1
  P  P19  1  0.543425  0.641942  0.183082  1
  P  P20  1  0.044187  0.357596  0.818129  1
  P  P21  1  0.577286  0.135715  0.289504  1
  P  P22  1  0.078550  0.870398  0.710255  1
  P  P23  1  0.151313  0.406849  0.546022  1
  P  P24  1  0.664293  0.591135  0.443361  1
  Rh  Rh25  1  0.965416  0.988372  0.879310  1
  Rh  Rh26  1  0.466097  0.011244  0.121811  1
  Rh  Rh27  1  0.536738  0.483731  0.616557  1
