# generated using pymatgen
data_Ac6Tl3Sn7
_symmetry_space_group_name_H-M   'P 1'
_cell_length_a   6.93692754
_cell_length_b   6.93692949
_cell_length_c   11.04972609
_cell_angle_alpha   90.10471943
_cell_angle_beta   90.10472794
_cell_angle_gamma   102.59586253
_symmetry_Int_Tables_number   1
_chemical_formula_structural   Ac6Tl3Sn7
_chemical_formula_sum   'Ac6 Tl3 Sn7'
_cell_volume   518.92414818
_cell_formula_units_Z   1
loop_
 _symmetry_equiv_pos_site_id
 _symmetry_equiv_pos_as_xyz
  1  'x, y, z'
loop_
 _atom_site_type_symbol
 _atom_site_label
 _atom_site_symmetry_multiplicity
 _atom_site_fract_x
 _atom_site_fract_y
 _atom_site_fract_z
 _atom_site_occupancy
  Ac  Ac0  1  0.641812  0.641812  0.252486  1
  Ac  Ac1  1  0.361039  0.361039  0.748104  1
  Ac  Ac2  1  0.201811  0.798225  0.500108  1
  Ac  Ac3  1  0.201519  0.796499  0.999524  1
  Ac  Ac4  1  0.798225  0.201811  0.500108  1
  Ac  Ac5  1  0.796499  0.201519  0.999524  1
  Tl  Tl6  1  0.310187  0.310187  0.042594  1
  Tl  Tl7  1  0.689316  0.689316  0.955863  1
  Tl  Tl8  1  0.310847  0.310847  0.454972  1
  Sn  Sn9  1  0.035697  0.035697  0.249468  1
  Sn  Sn10  1  0.965485  0.965485  0.749366  1
  Sn  Sn11  1  0.686372  0.686372  0.549308  1
  Sn  Sn12  1  0.490784  0.083386  0.249505  1
  Sn  Sn13  1  0.917463  0.509556  0.749783  1
  Sn  Sn14  1  0.509556  0.917463  0.749783  1
  Sn  Sn15  1  0.083386  0.490784  0.249505  1
