# generated using pymatgen
data_Dy3Ho15(ErBi6)2
_symmetry_space_group_name_H-M   'P 1'
_cell_length_a   8.23972532
_cell_length_b   9.50752600
_cell_length_c   12.00943300
_cell_angle_alpha   90.00000000
_cell_angle_beta   90.01690356
_cell_angle_gamma   90.00000000
_symmetry_Int_Tables_number   1
_chemical_formula_structural   Dy3Ho15(ErBi6)2
_chemical_formula_sum   'Dy3 Ho15 Er2 Bi12'
_cell_volume   940.81176722
_cell_formula_units_Z   1
loop_
 _symmetry_equiv_pos_site_id
 _symmetry_equiv_pos_as_xyz
  1  'x, y, z'
loop_
 _atom_site_type_symbol
 _atom_site_label
 _atom_site_symmetry_multiplicity
 _atom_site_fract_x
 _atom_site_fract_y
 _atom_site_fract_z
 _atom_site_occupancy
  Dy  Dy0  1  0.812935  0.250000  0.281677  1
  Dy  Dy1  1  0.686902  0.750000  0.781790  1
  Dy  Dy2  1  0.186751  0.750000  0.718284  1
  Ho  Ho3  1  0.353065  0.750000  0.216650  1
  Ho  Ho4  1  0.852975  0.750000  0.283300  1
  Ho  Ho5  1  0.646925  0.250000  0.783641  1
  Ho  Ho6  1  0.147150  0.250000  0.716537  1
  Ho  Ho7  1  0.692361  0.564876  0.059110  1
  Ho  Ho8  1  0.192041  0.935113  0.440785  1
  Ho  Ho9  1  0.307823  0.064903  0.940999  1
  Ho  Ho10  1  0.808080  0.435081  0.559075  1
  Ho  Ho11  1  0.307823  0.435097  0.940999  1
  Ho  Ho12  1  0.808080  0.064919  0.559075  1
  Ho  Ho13  1  0.692361  0.935124  0.059110  1
  Ho  Ho14  1  0.192041  0.564887  0.440785  1
  Ho  Ho15  1  0.475939  0.250000  0.488295  1
  Ho  Ho16  1  0.975948  0.250000  0.011814  1
  Ho  Ho17  1  0.312728  0.250000  0.217844  1
  Er  Er18  1  0.524011  0.750000  0.511413  1
  Er  Er19  1  0.024079  0.750000  0.988642  1
  Bi  Bi20  1  0.405652  0.750000  0.958045  1
  Bi  Bi21  1  0.905485  0.750000  0.541939  1
  Bi  Bi22  1  0.593826  0.250000  0.042576  1
  Bi  Bi23  1  0.094743  0.250000  0.457680  1
  Bi  Bi24  1  0.565203  0.995416  0.325608  1
  Bi  Bi25  1  0.066427  0.504657  0.174185  1
  Bi  Bi26  1  0.434310  0.495190  0.674075  1
  Bi  Bi27  1  0.934195  0.004930  0.826097  1
  Bi  Bi28  1  0.434310  0.004810  0.674075  1
  Bi  Bi29  1  0.934195  0.495070  0.826097  1
  Bi  Bi30  1  0.565203  0.504584  0.325608  1
  Bi  Bi31  1  0.066427  0.995343  0.174185  1
