# generated using pymatgen
data_TaNb4Zn(B2Ru5)2
_symmetry_space_group_name_H-M   'P 1'
_cell_length_a   9.39825800
_cell_length_b   9.39825800
_cell_length_c   3.01658900
_cell_angle_alpha   90.00000000
_cell_angle_beta   90.00000000
_cell_angle_gamma   90.00000000
_symmetry_Int_Tables_number   1
_chemical_formula_structural   TaNb4Zn(B2Ru5)2
_chemical_formula_sum   'Ta1 Nb4 Zn1 B4 Ru10'
_cell_volume   266.44702111
_cell_formula_units_Z   1
loop_
 _symmetry_equiv_pos_site_id
 _symmetry_equiv_pos_as_xyz
  1  'x, y, z'
loop_
 _atom_site_type_symbol
 _atom_site_label
 _atom_site_symmetry_multiplicity
 _atom_site_fract_x
 _atom_site_fract_y
 _atom_site_fract_z
 _atom_site_occupancy
  Ta  Ta0  1  0.000000  0.000000  0.000000  1
  Nb  Nb1  1  0.820637  0.674870  0.000000  1
  Nb  Nb2  1  0.179363  0.325130  0.000000  1
  Nb  Nb3  1  0.325130  0.820637  0.000000  1
  Nb  Nb4  1  0.674870  0.179363  0.000000  1
  Zn  Zn5  1  0.500000  0.500000  0.000000  1
  B  B6  1  0.616021  0.869802  0.000000  1
  B  B7  1  0.383979  0.130198  0.000000  1
  B  B8  1  0.130198  0.616021  0.000000  1
  B  B9  1  0.869802  0.383979  0.000000  1
  Ru  Ru10  1  0.500000  0.000000  0.500000  1
  Ru  Ru11  1  0.000000  0.500000  0.500000  1
  Ru  Ru12  1  0.568917  0.715297  0.500000  1
  Ru  Ru13  1  0.431083  0.284703  0.500000  1
  Ru  Ru14  1  0.071524  0.780523  0.500000  1
  Ru  Ru15  1  0.928476  0.219477  0.500000  1
  Ru  Ru16  1  0.284703  0.568917  0.500000  1
  Ru  Ru17  1  0.715297  0.431083  0.500000  1
  Ru  Ru18  1  0.219477  0.071524  0.500000  1
  Ru  Ru19  1  0.780523  0.928476  0.500000  1
