# generated using pymatgen
data_Pr2HgPtAu
_symmetry_space_group_name_H-M   'P 1'
_cell_length_a   8.03817300
_cell_length_b   8.12753300
_cell_length_c   3.89306400
_cell_angle_alpha   90.00000000
_cell_angle_beta   90.00000000
_cell_angle_gamma   90.00000000
_symmetry_Int_Tables_number   1
_chemical_formula_structural   Pr2HgPtAu
_chemical_formula_sum   'Pr4 Hg2 Pt2 Au2'
_cell_volume   254.33588118
_cell_formula_units_Z   2
loop_
 _symmetry_equiv_pos_site_id
 _symmetry_equiv_pos_as_xyz
  1  'x, y, z'
loop_
 _atom_site_type_symbol
 _atom_site_label
 _atom_site_symmetry_multiplicity
 _atom_site_fract_x
 _atom_site_fract_y
 _atom_site_fract_z
 _atom_site_occupancy
  Pr  Pr0  1  0.321836  0.157844  0.500001  1
  Pr  Pr1  1  0.821836  0.342157  0.500001  1
  Pr  Pr2  1  0.171468  0.688179  0.500001  1
  Pr  Pr3  1  0.671468  0.811822  0.500001  1
  Hg  Hg4  1  0.999464  0.997087  0.000000  1
  Hg  Hg5  1  0.499464  0.502913  0.000000  1
  Pt  Pt6  1  0.878262  0.625465  0.000000  1
  Pt  Pt7  1  0.378261  0.874535  0.000000  1
  Au  Au8  1  0.628970  0.123171  0.000000  1
  Au  Au9  1  0.128971  0.376829  0.000000  1
