# generated using pymatgen
data_Be(FeMo)6
_symmetry_space_group_name_H-M   'P 1'
_cell_length_a   4.75544864
_cell_length_b   4.75544722
_cell_length_c   8.99132106
_cell_angle_alpha   74.66593960
_cell_angle_beta   74.66594370
_cell_angle_gamma   60.00001220
_symmetry_Int_Tables_number   1
_chemical_formula_structural   Be(FeMo)6
_chemical_formula_sum   'Be1 Fe6 Mo6'
_cell_volume   167.68052513
_cell_formula_units_Z   1
loop_
 _symmetry_equiv_pos_site_id
 _symmetry_equiv_pos_as_xyz
  1  'x, y, z'
loop_
 _atom_site_type_symbol
 _atom_site_label
 _atom_site_symmetry_multiplicity
 _atom_site_fract_x
 _atom_site_fract_y
 _atom_site_fract_z
 _atom_site_occupancy
  Be  Be0  1  0.000000  0.000000  0.000000  1
  Fe  Fe1  1  0.908071  0.908071  0.775570  1
  Fe  Fe2  1  0.408289  0.908071  0.775570  1
  Fe  Fe3  1  0.908071  0.408289  0.775570  1
  Fe  Fe4  1  0.091929  0.091929  0.224430  1
  Fe  Fe5  1  0.591711  0.091929  0.224430  1
  Fe  Fe6  1  0.091929  0.591711  0.224430  1
  Mo  Mo7  1  0.832950  0.832950  0.501152  1
  Mo  Mo8  1  0.167050  0.167050  0.498848  1
  Mo  Mo9  1  0.651175  0.651175  0.046472  1
  Mo  Mo10  1  0.348825  0.348825  0.953528  1
  Mo  Mo11  1  0.549094  0.549094  0.352718  1
  Mo  Mo12  1  0.450906  0.450906  0.647282  1
