# generated using pymatgen
data_Re(NiS)8
_symmetry_space_group_name_H-M   'P 1'
_cell_length_a   7.06953620
_cell_length_b   7.06953595
_cell_length_c   7.06953700
_cell_angle_alpha   59.99999976
_cell_angle_beta   60.00000094
_cell_angle_gamma   60.00000215
_symmetry_Int_Tables_number   1
_chemical_formula_structural   Re(NiS)8
_chemical_formula_sum   'Re1 Ni8 S8'
_cell_volume   249.83760796
_cell_formula_units_Z   1
loop_
 _symmetry_equiv_pos_site_id
 _symmetry_equiv_pos_as_xyz
  1  'x, y, z'
loop_
 _atom_site_type_symbol
 _atom_site_label
 _atom_site_symmetry_multiplicity
 _atom_site_fract_x
 _atom_site_fract_y
 _atom_site_fract_z
 _atom_site_occupancy
  Re  Re0  1  0.500000  0.500000  0.500000  1
  Ni  Ni1  1  0.621480  0.126174  0.126174  1
  Ni  Ni2  1  0.126174  0.621480  0.126174  1
  Ni  Ni3  1  0.126174  0.126174  0.621480  1
  Ni  Ni4  1  0.126174  0.126174  0.126174  1
  Ni  Ni5  1  0.378520  0.873826  0.873826  1
  Ni  Ni6  1  0.873826  0.378520  0.873826  1
  Ni  Ni7  1  0.873826  0.873826  0.378520  1
  Ni  Ni8  1  0.873826  0.873826  0.873826  1
  S  S9  1  0.250000  0.250000  0.250000  1
  S  S10  1  0.750000  0.750000  0.750000  1
  S  S11  1  0.738046  0.261954  0.261954  1
  S  S12  1  0.738046  0.261954  0.738046  1
  S  S13  1  0.738046  0.738046  0.261954  1
  S  S14  1  0.261954  0.738046  0.738046  1
  S  S15  1  0.261954  0.738046  0.261954  1
  S  S16  1  0.261954  0.261954  0.738046  1
