# generated using pymatgen
data_Ho16Cd4RuRh3
_symmetry_space_group_name_H-M   'P 1'
_cell_length_a   9.56308601
_cell_length_b   9.56277855
_cell_length_c   9.57928294
_cell_angle_alpha   60.05271103
_cell_angle_beta   60.05959623
_cell_angle_gamma   59.99988000
_symmetry_Int_Tables_number   1
_chemical_formula_structural   Ho16Cd4RuRh3
_chemical_formula_sum   'Ho16 Cd4 Ru1 Rh3'
_cell_volume   619.96597949
_cell_formula_units_Z   1
loop_
 _symmetry_equiv_pos_site_id
 _symmetry_equiv_pos_as_xyz
  1  'x, y, z'
loop_
 _atom_site_type_symbol
 _atom_site_label
 _atom_site_symmetry_multiplicity
 _atom_site_fract_x
 _atom_site_fract_y
 _atom_site_fract_z
 _atom_site_occupancy
  Ho  Ho0  1  0.936297  0.936310  0.563435  1
  Ho  Ho1  1  0.562951  0.562958  0.935816  1
  Ho  Ho2  1  0.689281  0.689279  0.311110  1
  Ho  Ho3  1  0.150786  0.549126  0.149303  1
  Ho  Ho4  1  0.687491  0.310948  0.690613  1
  Ho  Ho5  1  0.150794  0.150769  0.149316  1
  Ho  Ho6  1  0.549101  0.150788  0.149333  1
  Ho  Ho7  1  0.689297  0.310337  0.311097  1
  Ho  Ho8  1  0.150266  0.150250  0.549216  1
  Ho  Ho9  1  0.310330  0.689294  0.311101  1
  Ho  Ho10  1  0.310955  0.687488  0.690614  1
  Ho  Ho11  1  0.936296  0.563966  0.563426  1
  Ho  Ho12  1  0.938256  0.562949  0.935831  1
  Ho  Ho13  1  0.563968  0.936294  0.563436  1
  Ho  Ho14  1  0.562953  0.938267  0.935823  1
  Ho  Ho15  1  0.310966  0.310945  0.690613  1
  Cd  Cd16  1  0.919038  0.919039  0.242890  1
  Cd  Cd17  1  0.243026  0.918976  0.919014  1
  Cd  Cd18  1  0.918985  0.918977  0.919001  1
  Cd  Cd19  1  0.918981  0.243034  0.919008  1
  Ru  Ru20  1  0.357870  0.357867  0.926385  1
  Rh  Rh21  1  0.357634  0.926858  0.357866  1
  Rh  Rh22  1  0.926840  0.357638  0.357883  1
  Rh  Rh23  1  0.357638  0.357640  0.357867  1
