# generated using pymatgen
data_Ce2Ho2Al6TcRu
_symmetry_space_group_name_H-M   'P 1'
_cell_length_a   5.46809800
_cell_length_b   5.46809906
_cell_length_c   9.02514100
_cell_angle_alpha   90.00000000
_cell_angle_beta   90.00000000
_cell_angle_gamma   119.99999360
_symmetry_Int_Tables_number   1
_chemical_formula_structural   Ce2Ho2Al6TcRu
_chemical_formula_sum   'Ce2 Ho2 Al6 Tc1 Ru1'
_cell_volume   233.69924980
_cell_formula_units_Z   1
loop_
 _symmetry_equiv_pos_site_id
 _symmetry_equiv_pos_as_xyz
  1  'x, y, z'
loop_
 _atom_site_type_symbol
 _atom_site_label
 _atom_site_symmetry_multiplicity
 _atom_site_fract_x
 _atom_site_fract_y
 _atom_site_fract_z
 _atom_site_occupancy
  Ce  Ce0  1  0.666667  0.333333  0.459013  1
  Ce  Ce1  1  0.333333  0.666667  0.540987  1
  Ho  Ho2  1  0.333333  0.666667  0.939795  1
  Ho  Ho3  1  0.666667  0.333333  0.060205  1
  Al  Al4  1  0.836809  0.163191  0.754235  1
  Al  Al5  1  0.836809  0.673619  0.754235  1
  Al  Al6  1  0.326381  0.163191  0.754235  1
  Al  Al7  1  0.163191  0.836809  0.245765  1
  Al  Al8  1  0.163191  0.326381  0.245765  1
  Al  Al9  1  0.673619  0.836809  0.245765  1
  Tc  Tc10  1  0.000000  0.000000  0.000000  1
  Ru  Ru11  1  0.000000  0.000000  0.500000  1
