# generated using pymatgen
data_Tm4Mn2Re5Tc
_symmetry_space_group_name_H-M   'P 1'
_cell_length_a   5.30263726
_cell_length_b   5.30263749
_cell_length_c   8.88606700
_cell_angle_alpha   90.00000000
_cell_angle_beta   90.00000000
_cell_angle_gamma   120.26574042
_symmetry_Int_Tables_number   1
_chemical_formula_structural   Tm4Mn2Re5Tc
_chemical_formula_sum   'Tm4 Mn2 Re5 Tc1'
_cell_volume   215.80171370
_cell_formula_units_Z   1
loop_
 _symmetry_equiv_pos_site_id
 _symmetry_equiv_pos_as_xyz
  1  'x, y, z'
loop_
 _atom_site_type_symbol
 _atom_site_label
 _atom_site_symmetry_multiplicity
 _atom_site_fract_x
 _atom_site_fract_y
 _atom_site_fract_z
 _atom_site_occupancy
  Tm  Tm0  1  0.333486  0.666514  0.436597  1
  Tm  Tm1  1  0.666463  0.333537  0.563430  1
  Tm  Tm2  1  0.666463  0.333537  0.936570  1
  Tm  Tm3  1  0.333486  0.666514  0.063403  1
  Mn  Mn4  1  0.000798  0.999202  0.499881  1
  Mn  Mn5  1  0.000798  0.999202  0.000119  1
  Re  Re6  1  0.831607  0.664029  0.250000  1
  Re  Re7  1  0.335971  0.168393  0.250000  1
  Re  Re8  1  0.168417  0.831583  0.750000  1
  Re  Re9  1  0.168332  0.336634  0.750000  1
  Re  Re10  1  0.663366  0.831668  0.750000  1
  Tc  Tc11  1  0.830815  0.169185  0.250000  1
