# generated using pymatgen
data_CoH5F7
_symmetry_space_group_name_H-M   'P 1'
_cell_length_a   3.86717005
_cell_length_b   5.62227999
_cell_length_c   7.45982849
_cell_angle_alpha   78.68281201
_cell_angle_beta   87.24448001
_cell_angle_gamma   65.23700115
_symmetry_Int_Tables_number   1
_chemical_formula_structural   CoH5F7
_chemical_formula_sum   'Co1 H5 F7'
_cell_volume   144.31006412
_cell_formula_units_Z   1
loop_
 _symmetry_equiv_pos_site_id
 _symmetry_equiv_pos_as_xyz
  1  'x, y, z'
loop_
 _atom_site_type_symbol
 _atom_site_label
 _atom_site_symmetry_multiplicity
 _atom_site_fract_x
 _atom_site_fract_y
 _atom_site_fract_z
 _atom_site_occupancy
  Co  Co0  1  0.859589  0.237165  0.403984  1
  H  H1  1  0.073874  0.926613  0.125143  1
  H  H2  1  0.918572  0.477348  0.059157  1
  H  H3  1  0.076492  0.929026  0.772940  1
  H  H4  1  0.141172  0.217706  0.911065  1
  H  H5  1  0.432100  0.655964  0.598995  1
  F  F6  1  0.089435  0.993042  0.925113  1
  F  F7  1  0.733977  0.524821  0.160202  1
  F  F8  1  0.168840  0.387318  0.923459  1
  F  F9  1  0.364332  0.228991  0.419710  1
  F  F10  1  0.684492  0.516928  0.584201  1
  F  F11  1  0.070391  0.889322  0.639866  1
  F  F12  1  0.053958  0.915717  0.258822  1
