# generated using pymatgen
data_La6Al7GaCl2
_symmetry_space_group_name_H-M   'P 1'
_cell_length_a   8.23118982
_cell_length_b   8.23118947
_cell_length_c   8.24666908
_cell_angle_alpha   119.23426993
_cell_angle_beta   119.23426961
_cell_angle_gamma   91.12984377
_symmetry_Int_Tables_number   1
_chemical_formula_structural   La6Al7GaCl2
_chemical_formula_sum   'La6 Al7 Ga1 Cl2'
_cell_volume   400.25345850
_cell_formula_units_Z   1
loop_
 _symmetry_equiv_pos_site_id
 _symmetry_equiv_pos_as_xyz
  1  'x, y, z'
loop_
 _atom_site_type_symbol
 _atom_site_label
 _atom_site_symmetry_multiplicity
 _atom_site_fract_x
 _atom_site_fract_y
 _atom_site_fract_z
 _atom_site_occupancy
  La  La0  1  0.660086  0.160086  0.821612  1
  La  La1  1  0.158281  0.339885  0.499128  1
  La  La2  1  0.839885  0.658281  0.499128  1
  La  La3  1  0.750115  0.751433  0.001187  1
  La  La4  1  0.340063  0.840063  0.180546  1
  La  La5  1  0.251433  0.250115  0.001187  1
  Al  Al6  1  0.944801  0.444801  0.789221  1
  Al  Al7  1  0.840928  0.058379  0.498928  1
  Al  Al8  1  0.342363  0.842363  0.786206  1
  Al  Al9  1  0.443376  0.657341  0.499853  1
  Al  Al10  1  0.558379  0.340928  0.498928  1
  Al  Al11  1  0.056188  0.556188  0.213356  1
  Al  Al12  1  0.157341  0.943376  0.499853  1
  Ga  Ga13  1  0.656831  0.156831  0.211147  1
  Cl  Cl14  1  0.500028  0.499902  0.999861  1
  Cl  Cl15  1  0.999902  0.000028  0.999861  1
