# generated using pymatgen
data_PrNd5Er10(CdIr)4
_symmetry_space_group_name_H-M   'P 1'
_cell_length_a   9.70995688
_cell_length_b   9.70518789
_cell_length_c   9.70518744
_cell_angle_alpha   59.97836131
_cell_angle_beta   59.98374366
_cell_angle_gamma   59.98374552
_symmetry_Int_Tables_number   1
_chemical_formula_structural   PrNd5Er10(CdIr)4
_chemical_formula_sum   'Pr1 Nd5 Er10 Cd4 Ir4'
_cell_volume   646.44620624
_cell_formula_units_Z   1
loop_
 _symmetry_equiv_pos_site_id
 _symmetry_equiv_pos_as_xyz
  1  'x, y, z'
loop_
 _atom_site_type_symbol
 _atom_site_label
 _atom_site_symmetry_multiplicity
 _atom_site_fract_x
 _atom_site_fract_y
 _atom_site_fract_z
 _atom_site_occupancy
  Pr  Pr0  1  0.940591  0.559409  0.559409  1
  Nd  Nd1  1  0.558855  0.941145  0.941145  1
  Nd  Nd2  1  0.558768  0.941170  0.558942  1
  Nd  Nd3  1  0.941120  0.558942  0.941170  1
  Nd  Nd4  1  0.558768  0.558942  0.941170  1
  Nd  Nd5  1  0.941120  0.941170  0.558942  1
  Er  Er6  1  0.346752  0.347095  0.347095  1
  Er  Er7  1  0.346938  0.347480  0.958645  1
  Er  Er8  1  0.346938  0.958645  0.347480  1
  Er  Er9  1  0.959058  0.347095  0.347095  1
  Er  Er10  1  0.812724  0.187276  0.187276  1
  Er  Er11  1  0.187213  0.812787  0.812787  1
  Er  Er12  1  0.187890  0.812525  0.186513  1
  Er  Er13  1  0.813072  0.186513  0.812525  1
  Er  Er14  1  0.187890  0.186513  0.812525  1
  Er  Er15  1  0.813072  0.812525  0.186513  1
  Cd  Cd16  1  0.578866  0.579455  0.579455  1
  Cd  Cd17  1  0.579531  0.579542  0.261395  1
  Cd  Cd18  1  0.579531  0.261395  0.579542  1
  Cd  Cd19  1  0.262224  0.579455  0.579455  1
  Ir  Ir20  1  0.140675  0.141526  0.141526  1
  Ir  Ir21  1  0.141065  0.141370  0.576499  1
  Ir  Ir22  1  0.141065  0.576499  0.141370  1
  Ir  Ir23  1  0.576272  0.141526  0.141526  1
