# generated using pymatgen
data_Hf18CrCoRe7Ni
_symmetry_space_group_name_H-M   'P 1'
_cell_length_a   8.57109600
_cell_length_b   8.57109474
_cell_length_c   8.43361200
_cell_angle_alpha   90.00000000
_cell_angle_beta   90.00000000
_cell_angle_gamma   119.99999713
_symmetry_Int_Tables_number   1
_chemical_formula_structural   Hf18CrCoRe7Ni
_chemical_formula_sum   'Hf18 Cr1 Co1 Re7 Ni1'
_cell_volume   536.55829858
_cell_formula_units_Z   1
loop_
 _symmetry_equiv_pos_site_id
 _symmetry_equiv_pos_as_xyz
  1  'x, y, z'
loop_
 _atom_site_type_symbol
 _atom_site_label
 _atom_site_symmetry_multiplicity
 _atom_site_fract_x
 _atom_site_fract_y
 _atom_site_fract_z
 _atom_site_occupancy
  Hf  Hf0  1  0.197210  0.802790  0.443420  1
  Hf  Hf1  1  0.197210  0.394422  0.443420  1
  Hf  Hf2  1  0.605578  0.802790  0.443420  1
  Hf  Hf3  1  0.801542  0.198458  0.557824  1
  Hf  Hf4  1  0.801542  0.603082  0.557824  1
  Hf  Hf5  1  0.396918  0.198458  0.557824  1
  Hf  Hf6  1  0.800596  0.199404  0.941245  1
  Hf  Hf7  1  0.800596  0.601190  0.941245  1
  Hf  Hf8  1  0.398810  0.199404  0.941245  1
  Hf  Hf9  1  0.197998  0.802002  0.057449  1
  Hf  Hf10  1  0.197998  0.395997  0.057449  1
  Hf  Hf11  1  0.604003  0.802002  0.057449  1
  Hf  Hf12  1  0.541709  0.458291  0.250039  1
  Hf  Hf13  1  0.541709  0.083417  0.250039  1
  Hf  Hf14  1  0.916583  0.458291  0.250039  1
  Hf  Hf15  1  0.458484  0.541516  0.749924  1
  Hf  Hf16  1  0.458484  0.916969  0.749924  1
  Hf  Hf17  1  0.083031  0.541516  0.749924  1
  Cr  Cr18  1  0.000000  0.000000  0.499829  1
  Co  Co19  1  0.666667  0.333333  0.750025  1
  Re  Re20  1  0.890494  0.109506  0.254152  1
  Re  Re21  1  0.890494  0.780989  0.254152  1
  Re  Re22  1  0.219011  0.109506  0.254152  1
  Re  Re23  1  0.109394  0.890606  0.745918  1
  Re  Re24  1  0.109394  0.218787  0.745918  1
  Re  Re25  1  0.781213  0.890606  0.745918  1
  Re  Re26  1  0.000000  0.000000  0.000177  1
  Ni  Ni27  1  0.333333  0.666667  0.250061  1
