# generated using pymatgen
data_Ta12MnAl8Cr3C4
_symmetry_space_group_name_H-M   'P 1'
_cell_length_a   8.26667566
_cell_length_b   8.26667613
_cell_length_c   8.26667612
_cell_angle_alpha   59.98408631
_cell_angle_beta   59.98408598
_cell_angle_gamma   59.98408409
_symmetry_Int_Tables_number   1
_chemical_formula_structural   Ta12MnAl8Cr3C4
_chemical_formula_sum   'Ta12 Mn1 Al8 Cr3 C4'
_cell_volume   399.31994225
_cell_formula_units_Z   1
loop_
 _symmetry_equiv_pos_site_id
 _symmetry_equiv_pos_as_xyz
  1  'x, y, z'
loop_
 _atom_site_type_symbol
 _atom_site_label
 _atom_site_symmetry_multiplicity
 _atom_site_fract_x
 _atom_site_fract_y
 _atom_site_fract_z
 _atom_site_occupancy
  Ta  Ta0  1  0.555495  0.944592  0.555495  1
  Ta  Ta1  1  0.305408  0.694505  0.694505  1
  Ta  Ta2  1  0.693351  0.305835  0.305835  1
  Ta  Ta3  1  0.305835  0.693351  0.305835  1
  Ta  Ta4  1  0.694505  0.694505  0.305408  1
  Ta  Ta5  1  0.305835  0.305835  0.693351  1
  Ta  Ta6  1  0.555495  0.555495  0.944592  1
  Ta  Ta7  1  0.944592  0.555495  0.555495  1
  Ta  Ta8  1  0.556649  0.944165  0.944165  1
  Ta  Ta9  1  0.944165  0.944165  0.556649  1
  Ta  Ta10  1  0.694505  0.305408  0.694505  1
  Ta  Ta11  1  0.944165  0.556649  0.944165  1
  Mn  Mn12  1  0.125000  0.125000  0.125000  1
  Al  Al13  1  0.916024  0.916024  0.916024  1
  Al  Al14  1  0.997812  0.333223  0.333223  1
  Al  Al15  1  0.333223  0.997812  0.333223  1
  Al  Al16  1  0.333223  0.333223  0.997812  1
  Al  Al17  1  0.916777  0.252188  0.916777  1
  Al  Al18  1  0.916777  0.916777  0.252188  1
  Al  Al19  1  0.252188  0.916777  0.916777  1
  Al  Al20  1  0.333976  0.333976  0.333976  1
  Cr  Cr21  1  0.625000  0.125000  0.125000  1
  Cr  Cr22  1  0.125000  0.625000  0.125000  1
  Cr  Cr23  1  0.125000  0.125000  0.625000  1
  C  C24  1  0.625000  0.625000  0.625000  1
  C  C25  1  0.125000  0.625000  0.625000  1
  C  C26  1  0.625000  0.125000  0.625000  1
  C  C27  1  0.625000  0.625000  0.125000  1
