# generated using pymatgen
data_Na2Co9Tc3As7
_symmetry_space_group_name_H-M   'P 1'
_cell_length_a   3.79222300
_cell_length_b   9.33470331
_cell_length_c   9.33470500
_cell_angle_alpha   120.00000246
_cell_angle_beta   90.00000000
_cell_angle_gamma   90.00000000
_symmetry_Int_Tables_number   1
_chemical_formula_structural   Na2Co9Tc3As7
_chemical_formula_sum   'Na2 Co9 Tc3 As7'
_cell_volume   286.17098970
_cell_formula_units_Z   1
loop_
 _symmetry_equiv_pos_site_id
 _symmetry_equiv_pos_as_xyz
  1  'x, y, z'
loop_
 _atom_site_type_symbol
 _atom_site_label
 _atom_site_symmetry_multiplicity
 _atom_site_fract_x
 _atom_site_fract_y
 _atom_site_fract_z
 _atom_site_occupancy
  Na  Na0  1  0.000000  0.666667  0.333333  1
  Na  Na1  1  0.500000  0.333333  0.666667  1
  Co  Co2  1  0.000000  0.573232  0.947525  1
  Co  Co3  1  0.000000  0.374293  0.426768  1
  Co  Co4  1  0.000000  0.052475  0.625707  1
  Co  Co5  1  0.000000  0.881564  0.161262  1
  Co  Co6  1  0.000000  0.279697  0.118436  1
  Co  Co7  1  0.000000  0.838738  0.720303  1
  Co  Co8  1  0.500000  0.955115  0.385334  1
  Co  Co9  1  0.500000  0.430217  0.044885  1
  Co  Co10  1  0.500000  0.614666  0.569783  1
  Tc  Tc11  1  0.500000  0.785927  0.907336  1
  Tc  Tc12  1  0.500000  0.121409  0.214073  1
  Tc  Tc13  1  0.500000  0.092664  0.878591  1
  As  As14  1  0.000000  0.000000  0.000000  1
  As  As15  1  0.500000  0.708591  0.125231  1
  As  As16  1  0.500000  0.416641  0.291409  1
  As  As17  1  0.500000  0.874769  0.583359  1
  As  As18  1  0.000000  0.581396  0.703065  1
  As  As19  1  0.000000  0.121669  0.418604  1
  As  As20  1  0.000000  0.296935  0.878331  1
