# generated using pymatgen
data_Sm3Er2In3Cl
_symmetry_space_group_name_H-M   'P 1'
_cell_length_a   9.24450900
_cell_length_b   9.24450906
_cell_length_c   6.70191800
_cell_angle_alpha   90.00000000
_cell_angle_beta   90.00000000
_cell_angle_gamma   119.99999620
_symmetry_Int_Tables_number   1
_chemical_formula_structural   Sm3Er2In3Cl
_chemical_formula_sum   'Sm6 Er4 In6 Cl2'
_cell_volume   496.01802667
_cell_formula_units_Z   2
loop_
 _symmetry_equiv_pos_site_id
 _symmetry_equiv_pos_as_xyz
  1  'x, y, z'
loop_
 _atom_site_type_symbol
 _atom_site_label
 _atom_site_symmetry_multiplicity
 _atom_site_fract_x
 _atom_site_fract_y
 _atom_site_fract_z
 _atom_site_occupancy
  Sm  Sm0  1  0.740589  0.740589  0.250000  1
  Sm  Sm1  1  0.000000  0.740589  0.750000  1
  Sm  Sm2  1  0.740589  0.000000  0.750000  1
  Sm  Sm3  1  0.259411  0.259411  0.750000  1
  Sm  Sm4  1  0.000000  0.259411  0.250000  1
  Sm  Sm5  1  0.259411  0.000000  0.250000  1
  Er  Er6  1  0.333333  0.666667  0.500000  1
  Er  Er7  1  0.666667  0.333333  0.500000  1
  Er  Er8  1  0.333333  0.666667  0.000000  1
  Er  Er9  1  0.666667  0.333333  0.000000  1
  In  In10  1  0.396136  0.000000  0.750000  1
  In  In11  1  0.000000  0.603864  0.250000  1
  In  In12  1  0.603864  0.000000  0.250000  1
  In  In13  1  0.000000  0.396136  0.750000  1
  In  In14  1  0.396136  0.396136  0.250000  1
  In  In15  1  0.603864  0.603864  0.750000  1
  Cl  Cl16  1  0.000000  0.000000  0.500000  1
  Cl  Cl17  1  0.000000  0.000000  0.000000  1
