# generated using pymatgen
data_YbPr6SiI12
_symmetry_space_group_name_H-M   'P 1'
_cell_length_a   10.12688537
_cell_length_b   10.12688590
_cell_length_c   10.12688636
_cell_angle_alpha   107.28566757
_cell_angle_beta   107.28566737
_cell_angle_gamma   107.28566618
_symmetry_Int_Tables_number   1
_chemical_formula_structural   YbPr6SiI12
_chemical_formula_sum   'Yb1 Pr6 Si1 I12'
_cell_volume   858.08583344
_cell_formula_units_Z   1
loop_
 _symmetry_equiv_pos_site_id
 _symmetry_equiv_pos_as_xyz
  1  'x, y, z'
loop_
 _atom_site_type_symbol
 _atom_site_label
 _atom_site_symmetry_multiplicity
 _atom_site_fract_x
 _atom_site_fract_y
 _atom_site_fract_z
 _atom_site_occupancy
  Yb  Yb0  1  0.500000  0.500000  0.500000  1
  Pr  Pr1  1  0.974261  0.899215  0.691928  1
  Pr  Pr2  1  0.025739  0.100785  0.308072  1
  Pr  Pr3  1  0.100785  0.308072  0.025739  1
  Pr  Pr4  1  0.308072  0.025739  0.100785  1
  Pr  Pr5  1  0.899215  0.691928  0.974261  1
  Pr  Pr6  1  0.691928  0.974261  0.899215  1
  Si  Si7  1  0.000000  0.000000  0.000000  1
  I  I8  1  0.539837  0.618527  0.839541  1
  I  I9  1  0.460163  0.381473  0.160459  1
  I  I10  1  0.317975  0.927117  0.774144  1
  I  I11  1  0.381473  0.160459  0.460163  1
  I  I12  1  0.927117  0.774144  0.317975  1
  I  I13  1  0.682025  0.072883  0.225856  1
  I  I14  1  0.072883  0.225856  0.682025  1
  I  I15  1  0.774144  0.317975  0.927117  1
  I  I16  1  0.225856  0.682025  0.072883  1
  I  I17  1  0.839541  0.539837  0.618527  1
  I  I18  1  0.160459  0.460163  0.381473  1
  I  I19  1  0.618527  0.839541  0.539837  1
