# generated using pymatgen
data_Ho3TmHgRh
_symmetry_space_group_name_H-M   'P 1'
_cell_length_a   9.53432280
_cell_length_b   9.53422054
_cell_length_c   9.54357943
_cell_angle_alpha   59.88102424
_cell_angle_beta   59.87954022
_cell_angle_gamma   59.87385482
_symmetry_Int_Tables_number   1
_chemical_formula_structural   Ho3TmHgRh
_chemical_formula_sum   'Ho12 Tm4 Hg4 Rh4'
_cell_volume   611.74278243
_cell_formula_units_Z   4
loop_
 _symmetry_equiv_pos_site_id
 _symmetry_equiv_pos_as_xyz
  1  'x, y, z'
loop_
 _atom_site_type_symbol
 _atom_site_label
 _atom_site_symmetry_multiplicity
 _atom_site_fract_x
 _atom_site_fract_y
 _atom_site_fract_z
 _atom_site_occupancy
  Ho  Ho0  1  0.063050  0.063049  0.437995  1
  Ho  Ho1  1  0.436948  0.061402  0.437515  1
  Ho  Ho2  1  0.063181  0.437865  0.062678  1
  Ho  Ho3  1  0.055464  0.647481  0.647622  1
  Ho  Ho4  1  0.437474  0.437485  0.060933  1
  Ho  Ho5  1  0.647485  0.055465  0.647628  1
  Ho  Ho6  1  0.189474  0.811626  0.188736  1
  Ho  Ho7  1  0.188582  0.188642  0.811874  1
  Ho  Ho8  1  0.810995  0.811021  0.189671  1
  Ho  Ho9  1  0.437903  0.063146  0.062649  1
  Ho  Ho10  1  0.811627  0.189468  0.188756  1
  Ho  Ho11  1  0.061370  0.436930  0.437507  1
  Tm  Tm12  1  0.811421  0.189925  0.810915  1
  Tm  Tm13  1  0.189915  0.811412  0.810919  1
  Tm  Tm14  1  0.647681  0.647659  0.054501  1
  Tm  Tm15  1  0.648600  0.648549  0.649438  1
  Hg  Hg16  1  0.416007  0.415996  0.415309  1
  Hg  Hg17  1  0.754841  0.415458  0.415066  1
  Hg  Hg18  1  0.415471  0.754863  0.415027  1
  Hg  Hg19  1  0.415368  0.415351  0.755071  1
  Rh  Rh20  1  0.855585  0.855623  0.429929  1
  Rh  Rh21  1  0.856975  0.857016  0.857721  1
  Rh  Rh22  1  0.430108  0.854452  0.856275  1
  Rh  Rh23  1  0.854474  0.430118  0.856264  1
