# generated using pymatgen
data_Tm12Si12TcRh3
_symmetry_space_group_name_H-M   'P 1'
_cell_length_a   4.18016800
_cell_length_b   10.61633107
_cell_length_c   12.21072306
_cell_angle_alpha   90.10534803
_cell_angle_beta   90.00000000
_cell_angle_gamma   90.00000000
_symmetry_Int_Tables_number   1
_chemical_formula_structural   Tm12Si12TcRh3
_chemical_formula_sum   'Tm12 Si12 Tc1 Rh3'
_cell_volume   541.88713112
_cell_formula_units_Z   1
loop_
 _symmetry_equiv_pos_site_id
 _symmetry_equiv_pos_as_xyz
  1  'x, y, z'
loop_
 _atom_site_type_symbol
 _atom_site_label
 _atom_site_symmetry_multiplicity
 _atom_site_fract_x
 _atom_site_fract_y
 _atom_site_fract_z
 _atom_site_occupancy
  Tm  Tm0  1  0.250000  0.878012  0.020213  1
  Tm  Tm1  1  0.250000  0.620694  0.521062  1
  Tm  Tm2  1  0.750000  0.119363  0.980301  1
  Tm  Tm3  1  0.750000  0.378751  0.480566  1
  Tm  Tm4  1  0.250000  0.921650  0.603088  1
  Tm  Tm5  1  0.250000  0.579549  0.104727  1
  Tm  Tm6  1  0.750000  0.078654  0.395174  1
  Tm  Tm7  1  0.750000  0.421198  0.895556  1
  Tm  Tm8  1  0.250000  0.665114  0.799130  1
  Tm  Tm9  1  0.250000  0.839073  0.299895  1
  Tm  Tm10  1  0.750000  0.339387  0.199274  1
  Tm  Tm11  1  0.750000  0.159389  0.700362  1
  Si  Si12  1  0.250000  0.013511  0.822923  1
  Si  Si13  1  0.250000  0.485291  0.322551  1
  Si  Si14  1  0.750000  0.985239  0.177858  1
  Si  Si15  1  0.750000  0.514466  0.679259  1
  Si  Si16  1  0.250000  0.248568  0.842120  1
  Si  Si17  1  0.250000  0.250738  0.341660  1
  Si  Si18  1  0.750000  0.751272  0.158237  1
  Si  Si19  1  0.750000  0.751470  0.657052  1
  Si  Si20  1  0.250000  0.198877  0.542722  1
  Si  Si21  1  0.250000  0.300494  0.042402  1
  Si  Si22  1  0.750000  0.802181  0.457142  1
  Si  Si23  1  0.750000  0.696520  0.957560  1
  Tc  Tc24  1  0.250000  0.391910  0.679926  1
  Rh  Rh25  1  0.250000  0.108553  0.180641  1
  Rh  Rh26  1  0.750000  0.609626  0.319170  1
  Rh  Rh27  1  0.750000  0.890448  0.819428  1
