# generated using pymatgen
data_Ho8Ta11Si16Mo
_symmetry_space_group_name_H-M   'P 1'
_cell_length_a   6.83617342
_cell_length_b   7.03151689
_cell_length_c   13.31795637
_cell_angle_alpha   90.02657127
_cell_angle_beta   89.96320006
_cell_angle_gamma   89.96462142
_symmetry_Int_Tables_number   1
_chemical_formula_structural   Ho8Ta11Si16Mo
_chemical_formula_sum   'Ho8 Ta11 Si16 Mo1'
_cell_volume   640.17611145
_cell_formula_units_Z   1
loop_
 _symmetry_equiv_pos_site_id
 _symmetry_equiv_pos_as_xyz
  1  'x, y, z'
loop_
 _atom_site_type_symbol
 _atom_site_label
 _atom_site_symmetry_multiplicity
 _atom_site_fract_x
 _atom_site_fract_y
 _atom_site_fract_z
 _atom_site_occupancy
  Ho  Ho0  1  0.503150  0.329069  0.095756  1
  Ho  Ho1  1  0.001475  0.171954  0.404349  1
  Ho  Ho2  1  0.496700  0.671835  0.595393  1
  Ho  Ho3  1  0.997734  0.829115  0.903935  1
  Ho  Ho4  1  0.497303  0.670927  0.903568  1
  Ho  Ho5  1  0.997838  0.828618  0.595802  1
  Ho  Ho6  1  0.502673  0.328838  0.405538  1
  Ho  Ho7  1  0.003142  0.171679  0.096027  1
  Ta  Ta8  1  0.838612  0.325543  0.624672  1
  Ta  Ta9  1  0.337915  0.174780  0.873492  1
  Ta  Ta10  1  0.162931  0.674472  0.125650  1
  Ta  Ta11  1  0.660920  0.826606  0.375061  1
  Ta  Ta12  1  0.165364  0.675106  0.375945  1
  Ta  Ta13  1  0.663404  0.825286  0.125700  1
  Ta  Ta14  1  0.837061  0.324943  0.873077  1
  Ta  Ta15  1  0.661883  0.009200  0.748962  1
  Ta  Ta16  1  0.160764  0.490504  0.749377  1
  Ta  Ta17  1  0.338401  0.992186  0.250547  1
  Ta  Ta18  1  0.838250  0.509061  0.250350  1
  Si  Si19  1  0.660957  0.037390  0.542277  1
  Si  Si20  1  0.163862  0.463345  0.958611  1
  Si  Si21  1  0.336226  0.963724  0.041120  1
  Si  Si22  1  0.836339  0.537254  0.458735  1
  Si  Si23  1  0.334175  0.965099  0.461008  1
  Si  Si24  1  0.835880  0.536298  0.040617  1
  Si  Si25  1  0.663990  0.036317  0.959136  1
  Si  Si26  1  0.165288  0.459363  0.542329  1
  Si  Si27  1  0.538763  0.376565  0.747584  1
  Si  Si28  1  0.043061  0.121739  0.748826  1
  Si  Si29  1  0.459954  0.621205  0.250261  1
  Si  Si30  1  0.959609  0.878095  0.250639  1
  Si  Si31  1  0.794548  0.628648  0.749598  1
  Si  Si32  1  0.296839  0.871842  0.749585  1
  Si  Si33  1  0.204876  0.371101  0.250649  1
  Si  Si34  1  0.703843  0.130017  0.250009  1
  Mo  Mo35  1  0.336269  0.172277  0.625818  1
