# generated using pymatgen
data_Tb11TmCoTc3
_symmetry_space_group_name_H-M   'P 1'
_cell_length_a   6.31106477
_cell_length_b   7.33424734
_cell_length_c   9.25585138
_cell_angle_alpha   90.04710374
_cell_angle_beta   89.91416515
_cell_angle_gamma   90.08653064
_symmetry_Int_Tables_number   1
_chemical_formula_structural   Tb11TmCoTc3
_chemical_formula_sum   'Tb11 Tm1 Co1 Tc3'
_cell_volume   428.42364640
_cell_formula_units_Z   1
loop_
 _symmetry_equiv_pos_site_id
 _symmetry_equiv_pos_as_xyz
  1  'x, y, z'
loop_
 _atom_site_type_symbol
 _atom_site_label
 _atom_site_symmetry_multiplicity
 _atom_site_fract_x
 _atom_site_fract_y
 _atom_site_fract_z
 _atom_site_occupancy
  Tb  Tb0  1  0.163503  0.177229  0.437308  1
  Tb  Tb1  1  0.665639  0.326178  0.565129  1
  Tb  Tb2  1  0.832554  0.821060  0.936416  1
  Tb  Tb3  1  0.664718  0.327081  0.935469  1
  Tb  Tb4  1  0.832427  0.821176  0.563916  1
  Tb  Tb5  1  0.331027  0.677792  0.433537  1
  Tb  Tb6  1  0.164015  0.177248  0.062531  1
  Tb  Tb7  1  0.872042  0.542672  0.249356  1
  Tb  Tb8  1  0.626107  0.041216  0.249554  1
  Tb  Tb9  1  0.143361  0.457275  0.750671  1
  Tb  Tb10  1  0.372112  0.950210  0.750510  1
  Tm  Tm11  1  0.330860  0.677604  0.066174  1
  Co  Co12  1  0.539377  0.614164  0.750894  1
  Tc  Tc13  1  0.038758  0.887173  0.249257  1
  Tc  Tc14  1  0.459758  0.390212  0.249490  1
  Tc  Tc15  1  0.963742  0.111708  0.749788  1
