# generated using pymatgen
data_Cs4Zr3Sc5Te16
_symmetry_space_group_name_H-M   'P 1'
_cell_length_a   7.20775311
_cell_length_b   8.28542971
_cell_length_c   18.26666700
_cell_angle_alpha   90.00495823
_cell_angle_beta   90.01000803
_cell_angle_gamma   89.97677082
_symmetry_Int_Tables_number   1
_chemical_formula_structural   Cs4Zr3Sc5Te16
_chemical_formula_sum   'Cs4 Zr3 Sc5 Te16'
_cell_volume   1090.87303659
_cell_formula_units_Z   1
loop_
 _symmetry_equiv_pos_site_id
 _symmetry_equiv_pos_as_xyz
  1  'x, y, z'
loop_
 _atom_site_type_symbol
 _atom_site_label
 _atom_site_symmetry_multiplicity
 _atom_site_fract_x
 _atom_site_fract_y
 _atom_site_fract_z
 _atom_site_occupancy
  Cs  Cs0  1  0.347004  0.000746  0.001872  1
  Cs  Cs1  1  0.652996  0.499254  0.498128  1
  Cs  Cs2  1  0.023609  0.000679  0.498325  1
  Cs  Cs3  1  0.976391  0.499321  0.001675  1
  Zr  Zr4  1  0.500000  0.750000  0.750000  1
  Zr  Zr5  1  0.500000  0.750000  0.250000  1
  Zr  Zr6  1  0.500000  0.250000  0.750000  1
  Sc  Sc7  1  0.001714  0.002828  0.248787  1
  Sc  Sc8  1  0.001686  0.999883  0.751045  1
  Sc  Sc9  1  0.998286  0.497172  0.251213  1
  Sc  Sc10  1  0.998314  0.500117  0.748955  1
  Sc  Sc11  1  0.500000  0.250000  0.250000  1
  Te  Te12  1  0.832749  0.247831  0.342621  1
  Te  Te13  1  0.831828  0.751662  0.657808  1
  Te  Te14  1  0.167279  0.748390  0.157763  1
  Te  Te15  1  0.168161  0.251632  0.842110  1
  Te  Te16  1  0.167251  0.252169  0.157379  1
  Te  Te17  1  0.168172  0.748338  0.842192  1
  Te  Te18  1  0.832721  0.751610  0.342237  1
  Te  Te19  1  0.831839  0.248368  0.657890  1
  Te  Te20  1  0.671214  0.998377  0.157068  1
  Te  Te21  1  0.670227  0.999941  0.842966  1
  Te  Te22  1  0.328786  0.501623  0.342932  1
  Te  Te23  1  0.329773  0.500059  0.657034  1
  Te  Te24  1  0.338327  0.999060  0.342037  1
  Te  Te25  1  0.337892  0.000023  0.657714  1
  Te  Te26  1  0.661673  0.500940  0.157963  1
  Te  Te27  1  0.662108  0.499977  0.842286  1
