# generated using pymatgen
data_Sc3Al12(FePt)2
_symmetry_space_group_name_H-M   'P 1'
_cell_length_a   8.65077661
_cell_length_b   8.62322446
_cell_length_c   9.26792100
_cell_angle_alpha   90.00000000
_cell_angle_beta   90.00000000
_cell_angle_gamma   119.89470367
_symmetry_Int_Tables_number   1
_chemical_formula_structural   Sc3Al12(FePt)2
_chemical_formula_sum   'Sc6 Al24 Fe4 Pt4'
_cell_volume   599.37354157
_cell_formula_units_Z   2
loop_
 _symmetry_equiv_pos_site_id
 _symmetry_equiv_pos_as_xyz
  1  'x, y, z'
loop_
 _atom_site_type_symbol
 _atom_site_label
 _atom_site_symmetry_multiplicity
 _atom_site_fract_x
 _atom_site_fract_y
 _atom_site_fract_z
 _atom_site_occupancy
  Sc  Sc0  1  0.809575  0.194734  0.750000  1
  Sc  Sc1  1  0.190425  0.805266  0.250000  1
  Sc  Sc2  1  0.385448  0.192723  0.750000  1
  Sc  Sc3  1  0.614552  0.807277  0.250000  1
  Sc  Sc4  1  0.809575  0.614840  0.750000  1
  Sc  Sc5  1  0.190425  0.385160  0.250000  1
  Al  Al6  1  0.680109  0.340054  0.961705  1
  Al  Al7  1  0.319891  0.659946  0.038295  1
  Al  Al8  1  0.319891  0.659946  0.461705  1
  Al  Al9  1  0.680109  0.340054  0.538295  1
  Al  Al10  1  0.847660  0.168769  0.422235  1
  Al  Al11  1  0.152340  0.831231  0.577765  1
  Al  Al12  1  0.315610  0.157804  0.421385  1
  Al  Al13  1  0.152340  0.831231  0.922235  1
  Al  Al14  1  0.684390  0.842196  0.578615  1
  Al  Al15  1  0.847660  0.168769  0.077765  1
  Al  Al16  1  0.847660  0.678890  0.422235  1
  Al  Al17  1  0.684390  0.842196  0.921385  1
  Al  Al18  1  0.152340  0.321110  0.577765  1
  Al  Al19  1  0.315610  0.157804  0.078615  1
  Al  Al20  1  0.152340  0.321110  0.922235  1
  Al  Al21  1  0.847660  0.678890  0.077765  1
  Al  Al22  1  0.435116  0.562333  0.750000  1
  Al  Al23  1  0.564884  0.437667  0.250000  1
  Al  Al24  1  0.108775  0.554387  0.750000  1
  Al  Al25  1  0.891225  0.445613  0.250000  1
  Al  Al26  1  0.435116  0.872783  0.750000  1
  Al  Al27  1  0.564884  0.127217  0.250000  1
  Al  Al28  1  0.002829  0.001414  0.750000  1
  Al  Al29  1  0.997171  0.998586  0.250000  1
  Fe  Fe30  1  0.000000  0.500000  0.000000  1
  Fe  Fe31  1  0.000000  0.500000  0.500000  1
  Fe  Fe32  1  0.000000  0.000000  0.000000  1
  Fe  Fe33  1  0.000000  0.000000  0.500000  1
  Pt  Pt34  1  0.500000  0.500000  0.000000  1
  Pt  Pt35  1  0.500000  0.500000  0.500000  1
  Pt  Pt36  1  0.500000  0.000000  0.000000  1
  Pt  Pt37  1  0.500000  0.000000  0.500000  1
