# generated using pymatgen
data_CaAl2GaAg
_symmetry_space_group_name_H-M   'P 1'
_cell_length_a   6.61886394
_cell_length_b   6.61886402
_cell_length_c   6.61886362
_cell_angle_alpha   143.52037354
_cell_angle_beta   143.52037171
_cell_angle_gamma   52.54510812
_symmetry_Int_Tables_number   1
_chemical_formula_structural   CaAl2GaAg
_chemical_formula_sum   'Ca1 Al2 Ga1 Ag1'
_cell_volume   101.88998551
_cell_formula_units_Z   1
loop_
 _symmetry_equiv_pos_site_id
 _symmetry_equiv_pos_as_xyz
  1  'x, y, z'
loop_
 _atom_site_type_symbol
 _atom_site_label
 _atom_site_symmetry_multiplicity
 _atom_site_fract_x
 _atom_site_fract_y
 _atom_site_fract_z
 _atom_site_occupancy
  Ca  Ca0  1  0.010404  0.010404  0.000000  1
  Al  Al1  1  0.747619  0.247619  0.500000  1
  Al  Al2  1  0.247619  0.747619  0.500000  1
  Ga  Ga3  1  0.606734  0.606734  0.000000  1
  Ag  Ag4  1  0.387625  0.387625  0.000000  1
