# generated using pymatgen
data_CaYbY2(Ga2Ag)4
_symmetry_space_group_name_H-M   'P 1'
_cell_length_a   4.36032100
_cell_length_b   7.01458124
_cell_length_c   10.43626252
_cell_angle_alpha   89.90480192
_cell_angle_beta   90.00000000
_cell_angle_gamma   90.00000000
_symmetry_Int_Tables_number   1
_chemical_formula_structural   CaYbY2(Ga2Ag)4
_chemical_formula_sum   'Ca1 Yb1 Y2 Ga8 Ag4'
_cell_volume   319.20126779
_cell_formula_units_Z   1
loop_
 _symmetry_equiv_pos_site_id
 _symmetry_equiv_pos_as_xyz
  1  'x, y, z'
loop_
 _atom_site_type_symbol
 _atom_site_label
 _atom_site_symmetry_multiplicity
 _atom_site_fract_x
 _atom_site_fract_y
 _atom_site_fract_z
 _atom_site_occupancy
  Ca  Ca0  1  0.250000  0.775846  0.825466  1
  Yb  Yb1  1  0.250000  0.275704  0.672490  1
  Y  Y2  1  0.750000  0.221007  0.171748  1
  Y  Y3  1  0.750000  0.721369  0.329423  1
  Ga  Ga4  1  0.250000  0.703154  0.533223  1
  Ga  Ga5  1  0.750000  0.298372  0.465001  1
  Ga  Ga6  1  0.750000  0.795810  0.036553  1
  Ga  Ga7  1  0.250000  0.203305  0.966275  1
  Ga  Ga8  1  0.250000  0.925819  0.156669  1
  Ga  Ga9  1  0.750000  0.074576  0.850775  1
  Ga  Ga10  1  0.750000  0.571444  0.648208  1
  Ga  Ga11  1  0.250000  0.425714  0.344000  1
  Ag  Ag12  1  0.250000  0.544107  0.098201  1
  Ag  Ag13  1  0.750000  0.457307  0.899874  1
  Ag  Ag14  1  0.750000  0.960880  0.599268  1
  Ag  Ag15  1  0.250000  0.045585  0.402823  1
