# generated using pymatgen
data_Dy3LuAl8
_symmetry_space_group_name_H-M   'P 1'
_cell_length_a   9.61106023
_cell_length_b   9.61106023
_cell_length_c   9.61106085
_cell_angle_alpha   33.51464830
_cell_angle_beta   33.51464948
_cell_angle_gamma   33.51464752
_symmetry_Int_Tables_number   1
_chemical_formula_structural   Dy3LuAl8
_chemical_formula_sum   'Dy3 Lu1 Al8'
_cell_volume   241.06869235
_cell_formula_units_Z   1
loop_
 _symmetry_equiv_pos_site_id
 _symmetry_equiv_pos_as_xyz
  1  'x, y, z'
loop_
 _atom_site_type_symbol
 _atom_site_label
 _atom_site_symmetry_multiplicity
 _atom_site_fract_x
 _atom_site_fract_y
 _atom_site_fract_z
 _atom_site_occupancy
  Dy  Dy0  1  0.312560  0.312560  0.312560  1
  Dy  Dy1  1  0.687552  0.687552  0.687552  1
  Dy  Dy2  1  0.187363  0.187363  0.187363  1
  Lu  Lu3  1  0.812507  0.812507  0.812507  1
  Al  Al4  1  0.499941  0.499941  0.499941  1
  Al  Al5  1  0.000041  0.000041  0.000041  1
  Al  Al6  1  0.250099  0.250099  0.750004  1
  Al  Al7  1  0.749933  0.749933  0.249967  1
  Al  Al8  1  0.250099  0.750004  0.250099  1
  Al  Al9  1  0.749933  0.249967  0.749933  1
  Al  Al10  1  0.750004  0.250099  0.250099  1
  Al  Al11  1  0.249967  0.749933  0.749933  1
