# generated using pymatgen
data_Pu2Ga3Ir
_symmetry_space_group_name_H-M   'P 1'
_cell_length_a   5.37840636
_cell_length_b   5.48996734
_cell_length_c   5.48996800
_cell_angle_alpha   60.00000810
_cell_angle_beta   59.31145044
_cell_angle_gamma   59.31145214
_symmetry_Int_Tables_number   1
_chemical_formula_structural   Pu2Ga3Ir
_chemical_formula_sum   'Pu2 Ga3 Ir1'
_cell_volume   113.41723285
_cell_formula_units_Z   1
loop_
 _symmetry_equiv_pos_site_id
 _symmetry_equiv_pos_as_xyz
  1  'x, y, z'
loop_
 _atom_site_type_symbol
 _atom_site_label
 _atom_site_symmetry_multiplicity
 _atom_site_fract_x
 _atom_site_fract_y
 _atom_site_fract_z
 _atom_site_occupancy
  Pu  Pu0  1  0.255538  0.248154  0.248154  1
  Pu  Pu1  1  0.994462  0.001846  0.001846  1
  Ga  Ga2  1  0.625000  0.125000  0.625000  1
  Ga  Ga3  1  0.625000  0.625000  0.125000  1
  Ga  Ga4  1  0.625000  0.625000  0.625000  1
  Ir  Ir5  1  0.125000  0.625000  0.625000  1
