# generated using pymatgen
data_Lu3RuRhAu
_symmetry_space_group_name_H-M   'P 1'
_cell_length_a   3.36567100
_cell_length_b   3.36567100
_cell_length_c   10.46366800
_cell_angle_alpha   90.00000000
_cell_angle_beta   90.00000000
_cell_angle_gamma   90.00000000
_symmetry_Int_Tables_number   1
_chemical_formula_structural   Lu3RuRhAu
_chemical_formula_sum   'Lu3 Ru1 Rh1 Au1'
_cell_volume   118.52972395
_cell_formula_units_Z   1
loop_
 _symmetry_equiv_pos_site_id
 _symmetry_equiv_pos_as_xyz
  1  'x, y, z'
loop_
 _atom_site_type_symbol
 _atom_site_label
 _atom_site_symmetry_multiplicity
 _atom_site_fract_x
 _atom_site_fract_y
 _atom_site_fract_z
 _atom_site_occupancy
  Lu  Lu0  1  0.000000  0.000000  0.994908  1
  Lu  Lu1  1  0.000000  0.000000  0.320272  1
  Lu  Lu2  1  0.000000  0.000000  0.682840  1
  Ru  Ru3  1  0.500001  0.500001  0.836087  1
  Rh  Rh4  1  0.500001  0.500001  0.166473  1
  Au  Au5  1  0.500001  0.500001  0.499418  1
