# generated using pymatgen
data_AcBi(SeO3)3
_symmetry_space_group_name_H-M   'P 1'
_cell_length_a   7.22576360
_cell_length_b   8.21004894
_cell_length_c   9.44515600
_cell_angle_alpha   69.44357943
_cell_angle_beta   76.00712946
_cell_angle_gamma   63.97937678
_symmetry_Int_Tables_number   1
_chemical_formula_structural   AcBi(SeO3)3
_chemical_formula_sum   'Ac2 Bi2 Se6 O18'
_cell_volume   468.89403359
_cell_formula_units_Z   2
loop_
 _symmetry_equiv_pos_site_id
 _symmetry_equiv_pos_as_xyz
  1  'x, y, z'
loop_
 _atom_site_type_symbol
 _atom_site_label
 _atom_site_symmetry_multiplicity
 _atom_site_fract_x
 _atom_site_fract_y
 _atom_site_fract_z
 _atom_site_occupancy
  Ac  Ac0  1  0.632842  0.348087  0.318493  1
  Ac  Ac1  1  0.367158  0.651913  0.681507  1
  Bi  Bi2  1  0.235915  0.296341  0.126510  1
  Bi  Bi3  1  0.764085  0.703659  0.873490  1
  Se  Se4  1  0.449162  0.167727  0.750166  1
  Se  Se5  1  0.187413  0.766108  0.034690  1
  Se  Se6  1  0.858803  0.777176  0.498120  1
  Se  Se7  1  0.812587  0.233892  0.965310  1
  Se  Se8  1  0.550838  0.832273  0.249834  1
  Se  Se9  1  0.141197  0.222824  0.501880  1
  O  O10  1  0.674587  0.017249  0.837279  1
  O  O11  1  0.325413  0.982751  0.162721  1
  O  O12  1  0.632180  0.805338  0.625165  1
  O  O13  1  0.367820  0.194662  0.374835  1
  O  O14  1  0.391920  0.785733  0.898358  1
  O  O15  1  0.321626  0.322648  0.860805  1
  O  O16  1  0.902556  0.332297  0.060239  1
  O  O17  1  0.528777  0.323908  0.599062  1
  O  O18  1  0.708262  0.432753  0.822861  1
  O  O19  1  0.097444  0.667703  0.939761  1
  O  O20  1  0.157150  0.001225  0.587322  1
  O  O21  1  0.021689  0.682048  0.641891  1
  O  O22  1  0.608080  0.214267  0.101642  1
  O  O23  1  0.678374  0.677352  0.139195  1
  O  O24  1  0.471223  0.676092  0.400938  1
  O  O25  1  0.291738  0.567247  0.177139  1
  O  O26  1  0.842850  0.998775  0.412678  1
  O  O27  1  0.978311  0.317952  0.358109  1
