# generated using pymatgen
data_Th2Co2AsP3Pd2
_symmetry_space_group_name_H-M   'P 1'
_cell_length_a   4.18239100
_cell_length_b   4.18239100
_cell_length_c   9.46081300
_cell_angle_alpha   90.00000000
_cell_angle_beta   90.00000000
_cell_angle_gamma   90.00000000
_symmetry_Int_Tables_number   1
_chemical_formula_structural   Th2Co2AsP3Pd2
_chemical_formula_sum   'Th2 Co2 As1 P3 Pd2'
_cell_volume   165.49227307
_cell_formula_units_Z   1
loop_
 _symmetry_equiv_pos_site_id
 _symmetry_equiv_pos_as_xyz
  1  'x, y, z'
loop_
 _atom_site_type_symbol
 _atom_site_label
 _atom_site_symmetry_multiplicity
 _atom_site_fract_x
 _atom_site_fract_y
 _atom_site_fract_z
 _atom_site_occupancy
  Th  Th0  1  0.000000  0.500000  0.264610  1
  Th  Th1  1  0.500000  0.000000  0.731165  1
  Co  Co2  1  0.000000  0.500000  0.593861  1
  Co  Co3  1  0.500000  0.000000  0.396900  1
  As  As4  1  0.000000  0.500000  0.844369  1
  P  P5  1  0.000000  0.000000  0.497019  1
  P  P6  1  0.500000  0.500000  0.497019  1
  P  P7  1  0.500000  0.000000  0.156765  1
  Pd  Pd8  1  0.000000  0.000000  0.009145  1
  Pd  Pd9  1  0.500000  0.500000  0.009145  1
