# generated using pymatgen
data_Er4Fe2TcRu5
_symmetry_space_group_name_H-M   'P 1'
_cell_length_a   5.13114687
_cell_length_b   5.23558559
_cell_length_c   8.84303500
_cell_angle_alpha   90.00000000
_cell_angle_beta   90.00000000
_cell_angle_gamma   118.86372324
_symmetry_Int_Tables_number   1
_chemical_formula_structural   Er4Fe2TcRu5
_chemical_formula_sum   'Er4 Fe2 Tc1 Ru5'
_cell_volume   208.05170868
_cell_formula_units_Z   1
loop_
 _symmetry_equiv_pos_site_id
 _symmetry_equiv_pos_as_xyz
  1  'x, y, z'
loop_
 _atom_site_type_symbol
 _atom_site_label
 _atom_site_symmetry_multiplicity
 _atom_site_fract_x
 _atom_site_fract_y
 _atom_site_fract_z
 _atom_site_occupancy
  Er  Er0  1  0.328684  0.667716  0.433526  1
  Er  Er1  1  0.663674  0.328587  0.564122  1
  Er  Er2  1  0.663674  0.328587  0.935878  1
  Er  Er3  1  0.328684  0.667716  0.066474  1
  Fe  Fe4  1  0.838723  0.162982  0.250000  1
  Fe  Fe5  1  0.174676  0.839844  0.750000  1
  Tc  Tc6  1  0.662865  0.830132  0.750000  1
  Ru  Ru7  1  0.988912  0.992821  0.500600  1
  Ru  Ru8  1  0.988912  0.992821  0.999400  1
  Ru  Ru9  1  0.825793  0.657432  0.250000  1
  Ru  Ru10  1  0.352251  0.177532  0.250000  1
  Ru  Ru11  1  0.183153  0.353829  0.750000  1
