# generated using pymatgen
data_Tm4Ge2As4Rh7
_symmetry_space_group_name_H-M   'P 1'
_cell_length_a   7.23438464
_cell_length_b   7.23438536
_cell_length_c   7.23979764
_cell_angle_alpha   109.56368527
_cell_angle_beta   109.56367230
_cell_angle_gamma   109.25605196
_symmetry_Int_Tables_number   1
_chemical_formula_structural   Tm4Ge2As4Rh7
_chemical_formula_sum   'Tm4 Ge2 As4 Rh7'
_cell_volume   291.78750059
_cell_formula_units_Z   1
loop_
 _symmetry_equiv_pos_site_id
 _symmetry_equiv_pos_as_xyz
  1  'x, y, z'
loop_
 _atom_site_type_symbol
 _atom_site_label
 _atom_site_symmetry_multiplicity
 _atom_site_fract_x
 _atom_site_fract_y
 _atom_site_fract_z
 _atom_site_occupancy
  Tm  Tm0  1  0.000510  0.000510  0.500200  1
  Tm  Tm1  1  0.000224  0.500224  0.000449  1
  Tm  Tm2  1  0.500224  0.000224  0.000449  1
  Tm  Tm3  1  0.499691  0.499691  0.500200  1
  Ge  Ge4  1  0.682060  0.998494  0.680554  1
  Ge  Ge5  1  0.998494  0.682060  0.680554  1
  As  As6  1  0.682151  0.682151  0.998012  1
  As  As7  1  0.321520  0.999035  0.320554  1
  As  As8  1  0.999035  0.321520  0.320554  1
  As  As9  1  0.315861  0.315861  0.998012  1
  Rh  Rh10  1  0.751261  0.251261  0.502521  1
  Rh  Rh11  1  0.748956  0.501195  0.250150  1
  Rh  Rh12  1  0.501362  0.249849  0.751211  1
  Rh  Rh13  1  0.249849  0.501362  0.751211  1
  Rh  Rh14  1  0.251261  0.751261  0.502521  1
  Rh  Rh15  1  0.501195  0.748956  0.250150  1
  Rh  Rh16  1  0.996351  0.996351  0.992702  1
