# generated using pymatgen
data_Ni9B4Pt3
_symmetry_space_group_name_H-M   'P 1'
_cell_length_a   4.44159448
_cell_length_b   5.40964162
_cell_length_c   6.88816000
_cell_angle_alpha   90.00000000
_cell_angle_beta   90.00000000
_cell_angle_gamma   90.91726357
_symmetry_Int_Tables_number   1
_chemical_formula_structural   Ni9B4Pt3
_chemical_formula_sum   'Ni9 B4 Pt3'
_cell_volume   165.48360347
_cell_formula_units_Z   1
loop_
 _symmetry_equiv_pos_site_id
 _symmetry_equiv_pos_as_xyz
  1  'x, y, z'
loop_
 _atom_site_type_symbol
 _atom_site_label
 _atom_site_symmetry_multiplicity
 _atom_site_fract_x
 _atom_site_fract_y
 _atom_site_fract_z
 _atom_site_occupancy
  Ni  Ni0  1  0.654995  0.828101  0.929499  1
  Ni  Ni1  1  0.146362  0.681629  0.060549  1
  Ni  Ni2  1  0.854718  0.313885  0.570285  1
  Ni  Ni3  1  0.349553  0.171283  0.440167  1
  Ni  Ni4  1  0.134556  0.967231  0.750000  1
  Ni  Ni5  1  0.654995  0.828101  0.570501  1
  Ni  Ni6  1  0.146362  0.681629  0.439451  1
  Ni  Ni7  1  0.854718  0.313885  0.929715  1
  Ni  Ni8  1  0.349553  0.171283  0.059833  1
  B  B9  1  0.568516  0.112827  0.750000  1
  B  B10  1  0.095342  0.388486  0.250000  1
  B  B11  1  0.918922  0.621233  0.750000  1
  B  B12  1  0.408239  0.886361  0.250000  1
  Pt  Pt13  1  0.868565  0.032217  0.250000  1
  Pt  Pt14  1  0.366087  0.471472  0.750000  1
  Pt  Pt15  1  0.628517  0.530379  0.250000  1
