# generated using pymatgen
data_TbDy3(Ga2Ag)4
_symmetry_space_group_name_H-M   'P 1'
_cell_length_a   4.38563700
_cell_length_b   6.96436243
_cell_length_c   10.26656463
_cell_angle_alpha   90.04012867
_cell_angle_beta   90.00000000
_cell_angle_gamma   90.00000000
_symmetry_Int_Tables_number   1
_chemical_formula_structural   TbDy3(Ga2Ag)4
_chemical_formula_sum   'Tb1 Dy3 Ga8 Ag4'
_cell_volume   313.57330611
_cell_formula_units_Z   1
loop_
 _symmetry_equiv_pos_site_id
 _symmetry_equiv_pos_as_xyz
  1  'x, y, z'
loop_
 _atom_site_type_symbol
 _atom_site_label
 _atom_site_symmetry_multiplicity
 _atom_site_fract_x
 _atom_site_fract_y
 _atom_site_fract_z
 _atom_site_occupancy
  Tb  Tb0  1  0.250000  0.279700  0.674964  1
  Dy  Dy1  1  0.250000  0.779621  0.825332  1
  Dy  Dy2  1  0.750000  0.220263  0.174859  1
  Dy  Dy3  1  0.750000  0.720308  0.325114  1
  Ga  Ga4  1  0.250000  0.928210  0.154071  1
  Ga  Ga5  1  0.750000  0.071420  0.846148  1
  Ga  Ga6  1  0.750000  0.572383  0.654021  1
  Ga  Ga7  1  0.250000  0.428356  0.345894  1
  Ga  Ga8  1  0.250000  0.702185  0.536332  1
  Ga  Ga9  1  0.750000  0.298244  0.463357  1
  Ga  Ga10  1  0.750000  0.798334  0.036428  1
  Ga  Ga11  1  0.250000  0.201368  0.964006  1
  Ag  Ag12  1  0.250000  0.544326  0.096057  1
  Ag  Ag13  1  0.750000  0.455750  0.904112  1
  Ag  Ag14  1  0.750000  0.955428  0.595805  1
  Ag  Ag15  1  0.250000  0.044105  0.403502  1
