# generated using pymatgen
data_TmLu2Th(CdCu2)2
_symmetry_space_group_name_H-M   'P 1'
_cell_length_a   3.65660000
_cell_length_b   7.59052145
_cell_length_c   7.57676608
_cell_angle_alpha   91.02453588
_cell_angle_beta   90.00000000
_cell_angle_gamma   90.00000000
_symmetry_Int_Tables_number   1
_chemical_formula_structural   TmLu2Th(CdCu2)2
_chemical_formula_sum   'Tm1 Lu2 Th1 Cd2 Cu4'
_cell_volume   210.26331630
_cell_formula_units_Z   1
loop_
 _symmetry_equiv_pos_site_id
 _symmetry_equiv_pos_as_xyz
  1  'x, y, z'
loop_
 _atom_site_type_symbol
 _atom_site_label
 _atom_site_symmetry_multiplicity
 _atom_site_fract_x
 _atom_site_fract_y
 _atom_site_fract_z
 _atom_site_occupancy
  Tm  Tm0  1  0.500000  0.675826  0.832230  1
  Lu  Lu1  1  0.500000  0.824524  0.323585  1
  Lu  Lu2  1  0.500000  0.331570  0.176417  1
  Th  Th3  1  0.500000  0.171263  0.670476  1
  Cd  Cd4  1  0.000000  0.996690  0.007224  1
  Cd  Cd5  1  0.000000  0.507161  0.496008  1
  Cu  Cu6  1  0.000000  0.619960  0.124107  1
  Cu  Cu7  1  0.000000  0.383774  0.885452  1
  Cu  Cu8  1  0.000000  0.872477  0.615009  1
  Cu  Cu9  1  0.000000  0.116753  0.369490  1
