# generated using pymatgen
data_La11Tb4Pr5Ir12
_symmetry_space_group_name_H-M   'P 1'
_cell_length_a   11.33249108
_cell_length_b   11.36213205
_cell_length_c   6.57775135
_cell_angle_alpha   89.99830485
_cell_angle_beta   89.90335882
_cell_angle_gamma   90.08410534
_symmetry_Int_Tables_number   1
_chemical_formula_structural   La11Tb4Pr5Ir12
_chemical_formula_sum   'La11 Tb4 Pr5 Ir12'
_cell_volume   846.95743454
_cell_formula_units_Z   1
loop_
 _symmetry_equiv_pos_site_id
 _symmetry_equiv_pos_as_xyz
  1  'x, y, z'
loop_
 _atom_site_type_symbol
 _atom_site_label
 _atom_site_symmetry_multiplicity
 _atom_site_fract_x
 _atom_site_fract_y
 _atom_site_fract_z
 _atom_site_occupancy
  La  La0  1  0.288182  0.088779  0.384340  1
  La  La1  1  0.288221  0.911147  0.884392  1
  La  La2  1  0.711802  0.088781  0.884559  1
  La  La3  1  0.711946  0.910802  0.385068  1
  La  La4  1  0.589869  0.788041  0.884799  1
  La  La5  1  0.589629  0.211616  0.385664  1
  La  La6  1  0.410740  0.788348  0.384750  1
  La  La7  1  0.410427  0.211610  0.885365  1
  La  La8  1  0.209624  0.411727  0.614513  1
  La  La9  1  0.209980  0.588393  0.114718  1
  La  La10  1  0.790365  0.412463  0.114344  1
  Tb  Tb11  1  0.999775  0.000019  0.499887  1
  Tb  Tb12  1  0.999973  0.000012  0.999871  1
  Tb  Tb13  1  0.500134  0.499926  0.000512  1
  Tb  Tb14  1  0.500688  0.500387  0.501082  1
  Pr  Pr15  1  0.790173  0.588147  0.615687  1
  Pr  Pr16  1  0.912005  0.711241  0.116159  1
  Pr  Pr17  1  0.912418  0.289225  0.615706  1
  Pr  Pr18  1  0.086371  0.711229  0.616046  1
  Pr  Pr19  1  0.087549  0.288124  0.116178  1
  Ir  Ir20  1  0.850159  0.148019  0.248157  1
  Ir  Ir21  1  0.850295  0.852129  0.748455  1
  Ir  Ir22  1  0.149890  0.147812  0.747761  1
  Ir  Ir23  1  0.149646  0.851837  0.248113  1
  Ir  Ir24  1  0.649059  0.350820  0.750167  1
  Ir  Ir25  1  0.648023  0.649775  0.248745  1
  Ir  Ir26  1  0.351116  0.350524  0.250604  1
  Ir  Ir27  1  0.351005  0.649419  0.750159  1
  Ir  Ir28  1  0.499905  0.000191  0.119035  1
  Ir  Ir29  1  0.500058  0.999839  0.618950  1
  Ir  Ir30  1  0.000842  0.499564  0.884057  1
  Ir  Ir31  1  0.000131  0.500054  0.382156  1
