# generated using pymatgen
data_Ba6YLu(BO3)6
_symmetry_space_group_name_H-M   'P 1'
_cell_length_a   8.18834732
_cell_length_b   8.18834717
_cell_length_c   8.18834832
_cell_angle_alpha   105.67743613
_cell_angle_beta   105.67744166
_cell_angle_gamma   105.67744249
_symmetry_Int_Tables_number   1
_chemical_formula_structural   Ba6YLu(BO3)6
_chemical_formula_sum   'Ba6 Y1 Lu1 B6 O18'
_cell_volume   472.75708105
_cell_formula_units_Z   1
loop_
 _symmetry_equiv_pos_site_id
 _symmetry_equiv_pos_as_xyz
  1  'x, y, z'
loop_
 _atom_site_type_symbol
 _atom_site_label
 _atom_site_symmetry_multiplicity
 _atom_site_fract_x
 _atom_site_fract_y
 _atom_site_fract_z
 _atom_site_occupancy
  Ba  Ba0  1  0.650895  0.263652  0.160841  1
  Ba  Ba1  1  0.160841  0.650895  0.263651  1
  Ba  Ba2  1  0.736348  0.839159  0.349105  1
  Ba  Ba3  1  0.263652  0.160841  0.650895  1
  Ba  Ba4  1  0.839159  0.349105  0.736348  1
  Ba  Ba5  1  0.349105  0.736348  0.839159  1
  Y  Y6  1  0.000000  0.000000  0.000000  1
  Lu  Lu7  1  0.500000  0.500000  0.500000  1
  B  B8  1  0.293509  0.374169  0.045965  1
  B  B9  1  0.374169  0.045966  0.293509  1
  B  B10  1  0.045966  0.293509  0.374169  1
  B  B11  1  0.954034  0.706491  0.625831  1
  B  B12  1  0.625831  0.954034  0.706491  1
  B  B13  1  0.706491  0.625831  0.954034  1
  O  O14  1  0.738704  0.812866  0.011867  1
  O  O15  1  0.799823  0.555434  0.066133  1
  O  O16  1  0.988133  0.261296  0.187134  1
  O  O17  1  0.444565  0.933866  0.200177  1
  O  O18  1  0.428539  0.490054  0.217335  1
  O  O19  1  0.187134  0.988133  0.261296  1
  O  O20  1  0.490054  0.217335  0.428538  1
  O  O21  1  0.933866  0.200178  0.444565  1
  O  O22  1  0.217335  0.428539  0.490054  1
  O  O23  1  0.782665  0.571461  0.509946  1
  O  O24  1  0.066134  0.799822  0.555435  1
  O  O25  1  0.509946  0.782665  0.571462  1
  O  O26  1  0.812866  0.011867  0.738704  1
  O  O27  1  0.571461  0.509946  0.782665  1
  O  O28  1  0.555435  0.066134  0.799823  1
  O  O29  1  0.011867  0.738704  0.812866  1
  O  O30  1  0.200177  0.444566  0.933867  1
  O  O31  1  0.261296  0.187134  0.988133  1
