# generated using pymatgen
data_CsK2Rb(NiP2)2
_symmetry_space_group_name_H-M   'P 1'
_cell_length_a   7.47179955
_cell_length_b   7.47179900
_cell_length_c   5.87752800
_cell_angle_alpha   90.00000000
_cell_angle_beta   90.00000000
_cell_angle_gamma   124.87594995
_symmetry_Int_Tables_number   1
_chemical_formula_structural   CsK2Rb(NiP2)2
_chemical_formula_sum   'Cs1 K2 Rb1 Ni2 P4'
_cell_volume   269.19469461
_cell_formula_units_Z   1
loop_
 _symmetry_equiv_pos_site_id
 _symmetry_equiv_pos_as_xyz
  1  'x, y, z'
loop_
 _atom_site_type_symbol
 _atom_site_label
 _atom_site_symmetry_multiplicity
 _atom_site_fract_x
 _atom_site_fract_y
 _atom_site_fract_z
 _atom_site_occupancy
  Cs  Cs0  1  0.399604  0.600396  0.250000  1
  K  K1  1  0.787673  0.212327  0.250000  1
  K  K2  1  0.211827  0.788173  0.750000  1
  Rb  Rb3  1  0.594828  0.405172  0.750000  1
  Ni  Ni4  1  0.000875  0.999125  0.999766  1
  Ni  Ni5  1  0.000875  0.999125  0.500234  1
  P  P6  1  0.942751  0.740979  0.250000  1
  P  P7  1  0.059533  0.256989  0.750000  1
  P  P8  1  0.259021  0.057249  0.250000  1
  P  P9  1  0.743011  0.940467  0.750000  1
