# generated using pymatgen
data_YbTm(Ga4Ni)2
_symmetry_space_group_name_H-M   'P 1'
_cell_length_a   7.88122647
_cell_length_b   7.88122647
_cell_length_c   6.53317700
_cell_angle_alpha   90.00000000
_cell_angle_beta   90.00000000
_cell_angle_gamma   149.56375096
_symmetry_Int_Tables_number   1
_chemical_formula_structural   YbTm(Ga4Ni)2
_chemical_formula_sum   'Yb1 Tm1 Ga8 Ni2'
_cell_volume   205.56989654
_cell_formula_units_Z   1
loop_
 _symmetry_equiv_pos_site_id
 _symmetry_equiv_pos_as_xyz
  1  'x, y, z'
loop_
 _atom_site_type_symbol
 _atom_site_label
 _atom_site_symmetry_multiplicity
 _atom_site_fract_x
 _atom_site_fract_y
 _atom_site_fract_z
 _atom_site_occupancy
  Yb  Yb0  1  0.375671  0.624329  0.250000  1
  Tm  Tm1  1  0.623421  0.376579  0.750000  1
  Ga  Ga2  1  0.185078  0.814922  0.448990  1
  Ga  Ga3  1  0.816099  0.183901  0.549537  1
  Ga  Ga4  1  0.999902  0.000098  0.000140  1
  Ga  Ga5  1  0.999902  0.000098  0.499860  1
  Ga  Ga6  1  0.568100  0.431900  0.250000  1
  Ga  Ga7  1  0.431359  0.568641  0.750000  1
  Ga  Ga8  1  0.185078  0.814922  0.051010  1
  Ga  Ga9  1  0.816099  0.183901  0.950463  1
  Ni  Ni10  1  0.722802  0.277198  0.250000  1
  Ni  Ni11  1  0.276491  0.723509  0.750000  1
