# generated using pymatgen
data_KBi4(AuO4)3
_symmetry_space_group_name_H-M   'P 1'
_cell_length_a   7.29047956
_cell_length_b   7.29047990
_cell_length_c   7.29048000
_cell_angle_alpha   109.47122092
_cell_angle_beta   109.47122184
_cell_angle_gamma   109.47121850
_symmetry_Int_Tables_number   1
_chemical_formula_structural   KBi4(AuO4)3
_chemical_formula_sum   'K1 Bi4 Au3 O12'
_cell_volume   298.29532657
_cell_formula_units_Z   1
loop_
 _symmetry_equiv_pos_site_id
 _symmetry_equiv_pos_as_xyz
  1  'x, y, z'
loop_
 _atom_site_type_symbol
 _atom_site_label
 _atom_site_symmetry_multiplicity
 _atom_site_fract_x
 _atom_site_fract_y
 _atom_site_fract_z
 _atom_site_occupancy
  K  K0  1  0.000000  0.000000  0.000000  1
  Bi  Bi1  1  0.500000  0.500000  0.500000  1
  Bi  Bi2  1  0.000000  0.500000  0.000000  1
  Bi  Bi3  1  0.000000  0.000000  0.500000  1
  Bi  Bi4  1  0.500000  0.000000  0.000000  1
  Au  Au5  1  0.500000  0.500000  0.000000  1
  Au  Au6  1  0.500000  0.000000  0.500000  1
  Au  Au7  1  0.000000  0.500000  0.500000  1
  O  O8  1  0.321388  0.835776  0.157165  1
  O  O9  1  0.678612  0.164224  0.842835  1
  O  O10  1  0.678612  0.835776  0.514388  1
  O  O11  1  0.842835  0.678612  0.164224  1
  O  O12  1  0.835776  0.157165  0.321388  1
  O  O13  1  0.164224  0.485612  0.321388  1
  O  O14  1  0.485612  0.321388  0.164224  1
  O  O15  1  0.164224  0.842835  0.678612  1
  O  O16  1  0.321388  0.164224  0.485612  1
  O  O17  1  0.157165  0.321388  0.835776  1
  O  O18  1  0.835776  0.514388  0.678612  1
  O  O19  1  0.514388  0.678612  0.835776  1
