# generated using pymatgen
data_Pr16Cd3AgPt4
_symmetry_space_group_name_H-M   'P 1'
_cell_length_a   10.08582296
_cell_length_b   10.08582301
_cell_length_c   10.08582318
_cell_angle_alpha   60.12618827
_cell_angle_beta   60.12618565
_cell_angle_gamma   60.12618620
_symmetry_Int_Tables_number   1
_chemical_formula_structural   Pr16Cd3AgPt4
_chemical_formula_sum   'Pr16 Cd3 Ag1 Pt4'
_cell_volume   727.54318104
_cell_formula_units_Z   1
loop_
 _symmetry_equiv_pos_site_id
 _symmetry_equiv_pos_as_xyz
  1  'x, y, z'
loop_
 _atom_site_type_symbol
 _atom_site_label
 _atom_site_symmetry_multiplicity
 _atom_site_fract_x
 _atom_site_fract_y
 _atom_site_fract_z
 _atom_site_occupancy
  Pr  Pr0  1  0.349371  0.349371  0.349371  1
  Pr  Pr1  1  0.351978  0.351978  0.945307  1
  Pr  Pr2  1  0.351978  0.945307  0.351978  1
  Pr  Pr3  1  0.945307  0.351978  0.351978  1
  Pr  Pr4  1  0.809900  0.191604  0.191604  1
  Pr  Pr5  1  0.190452  0.808456  0.808456  1
  Pr  Pr6  1  0.191604  0.809900  0.191604  1
  Pr  Pr7  1  0.808456  0.190452  0.808456  1
  Pr  Pr8  1  0.191604  0.191604  0.809900  1
  Pr  Pr9  1  0.808456  0.808456  0.190452  1
  Pr  Pr10  1  0.936112  0.563553  0.563553  1
  Pr  Pr11  1  0.561242  0.936180  0.936180  1
  Pr  Pr12  1  0.563553  0.936112  0.563553  1
  Pr  Pr13  1  0.936180  0.561242  0.936180  1
  Pr  Pr14  1  0.563553  0.563553  0.936112  1
  Pr  Pr15  1  0.936180  0.936180  0.561242  1
  Cd  Cd16  1  0.580865  0.580865  0.259873  1
  Cd  Cd17  1  0.580865  0.259873  0.580865  1
  Cd  Cd18  1  0.259873  0.580865  0.580865  1
  Ag  Ag19  1  0.582210  0.582210  0.582210  1
  Pt  Pt20  1  0.144201  0.144201  0.144201  1
  Pt  Pt21  1  0.142640  0.142640  0.570774  1
  Pt  Pt22  1  0.142640  0.570774  0.142640  1
  Pt  Pt23  1  0.570774  0.142640  0.142640  1
