# generated using pymatgen
data_La16Mg2Cd2NiOs3
_symmetry_space_group_name_H-M   'P 1'
_cell_length_a   10.03648050
_cell_length_b   10.15575843
_cell_length_c   10.17332747
_cell_angle_alpha   59.89048324
_cell_angle_beta   59.49976356
_cell_angle_gamma   59.62525123
_symmetry_Int_Tables_number   1
_chemical_formula_structural   La16Mg2Cd2NiOs3
_chemical_formula_sum   'La16 Mg2 Cd2 Ni1 Os3'
_cell_volume   727.74819647
_cell_formula_units_Z   1
loop_
 _symmetry_equiv_pos_site_id
 _symmetry_equiv_pos_as_xyz
  1  'x, y, z'
loop_
 _atom_site_type_symbol
 _atom_site_label
 _atom_site_symmetry_multiplicity
 _atom_site_fract_x
 _atom_site_fract_y
 _atom_site_fract_z
 _atom_site_occupancy
  La  La0  1  0.596815  0.594083  0.593835  1
  La  La1  1  0.597046  0.594101  0.214565  1
  La  La2  1  0.597788  0.211635  0.595009  1
  La  La3  1  0.213592  0.595561  0.595179  1
  La  La4  1  0.060861  0.439982  0.439770  1
  La  La5  1  0.438098  0.061179  0.061320  1
  La  La6  1  0.438517  0.060852  0.439482  1
  La  La7  1  0.060911  0.439963  0.059316  1
  La  La8  1  0.437843  0.438449  0.061737  1
  La  La9  1  0.059487  0.057364  0.441603  1
  La  La10  1  0.190241  0.808093  0.808426  1
  La  La11  1  0.804861  0.189543  0.191398  1
  La  La12  1  0.805274  0.189281  0.814585  1
  La  La13  1  0.190292  0.807581  0.194024  1
  La  La14  1  0.805156  0.814831  0.190173  1
  La  La15  1  0.191012  0.193602  0.807674  1
  Mg  Mg16  1  0.827556  0.518534  0.826892  1
  Mg  Mg17  1  0.518941  0.828261  0.826296  1
  Cd  Cd18  1  0.828280  0.829020  0.829973  1
  Cd  Cd19  1  0.828301  0.829177  0.512375  1
  Ni  Ni20  1  0.831176  0.390203  0.389431  1
  Os  Os21  1  0.392743  0.387833  0.386705  1
  Os  Os22  1  0.392577  0.387807  0.833008  1
  Os  Os23  1  0.392630  0.833062  0.387222  1
