# generated using pymatgen
data_Yb4Zn(OsO4)3
_symmetry_space_group_name_H-M   'P 1'
_cell_length_a   5.32003498
_cell_length_b   5.62719651
_cell_length_c   7.66201395
_cell_angle_alpha   90.41378471
_cell_angle_beta   90.34374893
_cell_angle_gamma   90.02218961
_symmetry_Int_Tables_number   1
_chemical_formula_structural   Yb4Zn(OsO4)3
_chemical_formula_sum   'Yb4 Zn1 Os3 O12'
_cell_volume   229.36667843
_cell_formula_units_Z   1
loop_
 _symmetry_equiv_pos_site_id
 _symmetry_equiv_pos_as_xyz
  1  'x, y, z'
loop_
 _atom_site_type_symbol
 _atom_site_label
 _atom_site_symmetry_multiplicity
 _atom_site_fract_x
 _atom_site_fract_y
 _atom_site_fract_z
 _atom_site_occupancy
  Yb  Yb0  1  0.980079  0.072889  0.261931  1
  Yb  Yb1  1  0.520144  0.562929  0.259531  1
  Yb  Yb2  1  0.479856  0.437071  0.740469  1
  Yb  Yb3  1  0.019921  0.927112  0.738069  1
  Zn  Zn4  1  0.000000  0.499999  0.500000  1
  Os  Os5  1  0.500000  0.000000  0.000001  1
  Os  Os6  1  0.000000  0.500000  0.000000  1
  Os  Os7  1  0.500001  0.999999  0.500000  1
  O  O8  1  0.693811  0.302373  0.053095  1
  O  O9  1  0.806490  0.800304  0.054405  1
  O  O10  1  0.107263  0.466346  0.241934  1
  O  O11  1  0.396334  0.967026  0.250378  1
  O  O12  1  0.683286  0.292968  0.446557  1
  O  O13  1  0.801216  0.810871  0.449505  1
  O  O14  1  0.198785  0.189130  0.550494  1
  O  O15  1  0.316713  0.707033  0.553443  1
  O  O16  1  0.603666  0.032974  0.749621  1
  O  O17  1  0.892737  0.533652  0.758065  1
  O  O18  1  0.193511  0.199696  0.945596  1
  O  O19  1  0.306189  0.697627  0.946906  1
