# generated using pymatgen
data_ErTm9Os3Rh
_symmetry_space_group_name_H-M   'P 1'
_cell_length_a   6.31362408
_cell_length_b   7.29082892
_cell_length_c   8.27852600
_cell_angle_alpha   96.81161770
_cell_angle_beta   112.29491392
_cell_angle_gamma   89.96695011
_symmetry_Int_Tables_number   1
_chemical_formula_structural   ErTm9Os3Rh
_chemical_formula_sum   'Er1 Tm9 Os3 Rh1'
_cell_volume   349.68748343
_cell_formula_units_Z   1
loop_
 _symmetry_equiv_pos_site_id
 _symmetry_equiv_pos_as_xyz
  1  'x, y, z'
loop_
 _atom_site_type_symbol
 _atom_site_label
 _atom_site_symmetry_multiplicity
 _atom_site_fract_x
 _atom_site_fract_y
 _atom_site_fract_z
 _atom_site_occupancy
  Er  Er0  1  0.970125  0.915636  0.179964  1
  Tm  Tm1  1  0.789798  0.581983  0.817929  1
  Tm  Tm2  1  0.024146  0.083513  0.813223  1
  Tm  Tm3  1  0.207895  0.419201  0.179779  1
  Tm  Tm4  1  0.648692  0.816449  0.439679  1
  Tm  Tm5  1  0.209781  0.681483  0.562131  1
  Tm  Tm6  1  0.351744  0.182134  0.564820  1
  Tm  Tm7  1  0.795139  0.320607  0.439956  1
  Tm  Tm8  1  0.421593  0.748230  0.998967  1
  Tm  Tm9  1  0.578542  0.250991  0.998821  1
  Os  Os10  1  0.823147  0.576464  0.217741  1
  Os  Os11  1  0.607053  0.924504  0.781749  1
  Os  Os12  1  0.176280  0.422566  0.783419  1
  Rh  Rh13  1  0.396067  0.076237  0.221824  1
