# generated using pymatgen
data_Dy4Cd2CuPd3
_symmetry_space_group_name_H-M   'P 1'
_cell_length_a   7.70045237
_cell_length_b   7.70045237
_cell_length_c   3.70695300
_cell_angle_alpha   90.00000000
_cell_angle_beta   90.00000000
_cell_angle_gamma   89.56545460
_symmetry_Int_Tables_number   1
_chemical_formula_structural   Dy4Cd2CuPd3
_chemical_formula_sum   'Dy4 Cd2 Cu1 Pd3'
_cell_volume   219.80474661
_cell_formula_units_Z   1
loop_
 _symmetry_equiv_pos_site_id
 _symmetry_equiv_pos_as_xyz
  1  'x, y, z'
loop_
 _atom_site_type_symbol
 _atom_site_label
 _atom_site_symmetry_multiplicity
 _atom_site_fract_x
 _atom_site_fract_y
 _atom_site_fract_z
 _atom_site_occupancy
  Dy  Dy0  1  0.327512  0.826425  0.500000  1
  Dy  Dy1  1  0.826486  0.673514  0.500000  1
  Dy  Dy2  1  0.172613  0.327387  0.500000  1
  Dy  Dy3  1  0.673575  0.172488  0.500000  1
  Cd  Cd4  1  0.003172  0.001335  0.000000  1
  Cd  Cd5  1  0.498665  0.496828  0.000000  1
  Cu  Cu6  1  0.375933  0.124067  0.000000  1
  Pd  Pd7  1  0.871238  0.371408  0.000000  1
  Pd  Pd8  1  0.128592  0.628762  0.000000  1
  Pd  Pd9  1  0.622215  0.877785  0.000000  1
