# generated using pymatgen
data_Ta12Mn13Al9Ir2
_symmetry_space_group_name_H-M   'P 1'
_cell_length_a   8.55631000
_cell_length_b   8.55630915
_cell_length_c   8.03090300
_cell_angle_alpha   90.00000000
_cell_angle_beta   90.00000000
_cell_angle_gamma   119.99998781
_symmetry_Int_Tables_number   1
_chemical_formula_structural   Ta12Mn13Al9Ir2
_chemical_formula_sum   'Ta12 Mn13 Al9 Ir2'
_cell_volume   509.17613988
_cell_formula_units_Z   1
loop_
 _symmetry_equiv_pos_site_id
 _symmetry_equiv_pos_as_xyz
  1  'x, y, z'
loop_
 _atom_site_type_symbol
 _atom_site_label
 _atom_site_symmetry_multiplicity
 _atom_site_fract_x
 _atom_site_fract_y
 _atom_site_fract_z
 _atom_site_occupancy
  Ta  Ta0  1  0.338999  0.998788  0.061834  1
  Ta  Ta1  1  0.659789  0.998788  0.938166  1
  Ta  Ta2  1  0.001212  0.340211  0.061834  1
  Ta  Ta3  1  0.661794  0.999976  0.558771  1
  Ta  Ta4  1  0.000024  0.338206  0.441229  1
  Ta  Ta5  1  0.001212  0.661001  0.938166  1
  Ta  Ta6  1  0.338182  0.999976  0.441229  1
  Ta  Ta7  1  0.000024  0.661818  0.558771  1
  Ta  Ta8  1  0.659789  0.661001  0.061834  1
  Ta  Ta9  1  0.338999  0.340211  0.938166  1
  Ta  Ta10  1  0.338182  0.338206  0.558771  1
  Ta  Ta11  1  0.661794  0.661818  0.441229  1
  Mn  Mn12  1  0.167533  0.505462  0.743623  1
  Mn  Mn13  1  0.835788  0.495637  0.250965  1
  Mn  Mn14  1  0.494538  0.662071  0.743623  1
  Mn  Mn15  1  0.504363  0.164212  0.749035  1
  Mn  Mn16  1  0.504363  0.340150  0.250965  1
  Mn  Mn17  1  0.494538  0.832467  0.256377  1
  Mn  Mn18  1  0.337929  0.832467  0.743623  1
  Mn  Mn19  1  0.659850  0.495637  0.749035  1
  Mn  Mn20  1  0.659850  0.164212  0.250965  1
  Mn  Mn21  1  0.337929  0.505462  0.256377  1
  Mn  Mn22  1  0.835788  0.340150  0.749035  1
  Mn  Mn23  1  0.167533  0.662071  0.256377  1
  Mn  Mn24  1  0.333333  0.666667  0.500000  1
  Al  Al25  1  0.666667  0.333333  0.500000  1
  Al  Al26  1  0.666667  0.333333  0.000000  1
  Al  Al27  1  0.333333  0.666667  0.000000  1
  Al  Al28  1  0.179970  0.000396  0.751917  1
  Al  Al29  1  0.820427  0.000396  0.248083  1
  Al  Al30  1  0.999604  0.179573  0.751917  1
  Al  Al31  1  0.999604  0.820030  0.248083  1
  Al  Al32  1  0.820427  0.820030  0.751917  1
  Al  Al33  1  0.179970  0.179573  0.248083  1
  Ir  Ir34  1  0.000000  0.000000  0.500000  1
  Ir  Ir35  1  0.000000  0.000000  0.000000  1
