# generated using pymatgen
data_Hf7Fe2Co6Si14Mo
_symmetry_space_group_name_H-M   'P 1'
_cell_length_a   9.37426601
_cell_length_b   9.37437388
_cell_length_c   9.39502500
_cell_angle_alpha   94.15245836
_cell_angle_beta   94.15246650
_cell_angle_gamma   148.74415611
_symmetry_Int_Tables_number   1
_chemical_formula_structural   Hf7Fe2Co6Si14Mo
_chemical_formula_sum   'Hf7 Fe2 Co6 Si14 Mo1'
_cell_volume   412.61331790
_cell_formula_units_Z   1
loop_
 _symmetry_equiv_pos_site_id
 _symmetry_equiv_pos_as_xyz
  1  'x, y, z'
loop_
 _atom_site_type_symbol
 _atom_site_label
 _atom_site_symmetry_multiplicity
 _atom_site_fract_x
 _atom_site_fract_y
 _atom_site_fract_z
 _atom_site_occupancy
  Hf  Hf0  1  0.864507  0.864505  0.729016  1
  Hf  Hf1  1  0.137282  0.861641  0.999340  1
  Hf  Hf2  1  0.862057  0.137700  0.999342  1
  Hf  Hf3  1  0.303331  0.498780  0.804352  1
  Hf  Hf4  1  0.694992  0.502220  0.198530  1
  Hf  Hf5  1  0.503523  0.696298  0.198526  1
  Hf  Hf6  1  0.501023  0.305573  0.804349  1
  Fe  Fe7  1  0.101510  0.601500  0.203016  1
  Fe  Fe8  1  0.399129  0.899131  0.798254  1
  Co  Co9  1  0.897494  0.103257  0.498612  1
  Co  Co10  1  0.601107  0.395356  0.498613  1
  Co  Co11  1  0.602716  0.102723  0.205444  1
  Co  Co12  1  0.897875  0.397868  0.795738  1
  Co  Co13  1  0.101698  0.898813  0.498646  1
  Co  Co14  1  0.396948  0.599826  0.498648  1
  Si  Si15  1  0.285561  0.285563  0.571152  1
  Si  Si16  1  0.711314  0.711317  0.422578  1
  Si  Si17  1  0.290667  0.709651  0.000782  1
  Si  Si18  1  0.710122  0.291139  0.000784  1
  Si  Si19  1  0.096419  0.506298  0.593754  1
  Si  Si20  1  0.913548  0.503837  0.406741  1
  Si  Si21  1  0.493196  0.902904  0.406740  1
  Si  Si22  1  0.497344  0.087464  0.593753  1
  Si  Si23  1  0.249061  0.249177  0.004913  1
  Si  Si24  1  0.755851  0.755737  0.004915  1
  Si  Si25  1  0.296517  0.999818  0.300937  1
  Si  Si26  1  0.695075  0.997368  0.697129  1
  Si  Si27  1  0.002051  0.699755  0.697127  1
  Si  Si28  1  0.004406  0.301105  0.300941  1
  Mo  Mo29  1  0.133674  0.133676  0.267327  1
