# generated using pymatgen
data_Nb4CrCo3P4
_symmetry_space_group_name_H-M   'P 1'
_cell_length_a   3.57836800
_cell_length_b   6.18566381
_cell_length_c   7.05675729
_cell_angle_alpha   89.87325186
_cell_angle_beta   90.00000000
_cell_angle_gamma   90.00000000
_symmetry_Int_Tables_number   1
_chemical_formula_structural   Nb4CrCo3P4
_chemical_formula_sum   'Nb4 Cr1 Co3 P4'
_cell_volume   156.19798665
_cell_formula_units_Z   1
loop_
 _symmetry_equiv_pos_site_id
 _symmetry_equiv_pos_as_xyz
  1  'x, y, z'
loop_
 _atom_site_type_symbol
 _atom_site_label
 _atom_site_symmetry_multiplicity
 _atom_site_fract_x
 _atom_site_fract_y
 _atom_site_fract_z
 _atom_site_occupancy
  Nb  Nb0  1  0.250000  0.023385  0.823690  1
  Nb  Nb1  1  0.250000  0.528957  0.673086  1
  Nb  Nb2  1  0.750000  0.978891  0.173618  1
  Nb  Nb3  1  0.750000  0.472138  0.330910  1
  Cr  Cr4  1  0.250000  0.140035  0.436254  1
  Co  Co5  1  0.250000  0.641173  0.060736  1
  Co  Co6  1  0.750000  0.857131  0.561174  1
  Co  Co7  1  0.750000  0.356312  0.938766  1
  P  P8  1  0.250000  0.772888  0.376490  1
  P  P9  1  0.250000  0.277939  0.119172  1
  P  P10  1  0.750000  0.227785  0.627404  1
  P  P11  1  0.750000  0.723365  0.878700  1
