# generated using pymatgen
data_Hf6SnBiIr
_symmetry_space_group_name_H-M   'P 1'
_cell_length_a   3.58011400
_cell_length_b   7.96836157
_cell_length_c   7.96836300
_cell_angle_alpha   119.99999348
_cell_angle_beta   90.00000000
_cell_angle_gamma   90.00000000
_symmetry_Int_Tables_number   1
_chemical_formula_structural   Hf6SnBiIr
_chemical_formula_sum   'Hf6 Sn1 Bi1 Ir1'
_cell_volume   196.86370697
_cell_formula_units_Z   1
loop_
 _symmetry_equiv_pos_site_id
 _symmetry_equiv_pos_as_xyz
  1  'x, y, z'
loop_
 _atom_site_type_symbol
 _atom_site_label
 _atom_site_symmetry_multiplicity
 _atom_site_fract_x
 _atom_site_fract_y
 _atom_site_fract_z
 _atom_site_occupancy
  Hf  Hf0  1  0.500000  0.752346  0.749509  1
  Hf  Hf1  1  0.500000  0.997163  0.247654  1
  Hf  Hf2  1  0.500000  0.250491  0.002837  1
  Hf  Hf3  1  0.000000  0.394741  0.389708  1
  Hf  Hf4  1  0.000000  0.994967  0.605259  1
  Hf  Hf5  1  0.000000  0.610292  0.005033  1
  Sn  Sn6  1  0.500000  0.666667  0.333333  1
  Bi  Bi7  1  0.500000  0.333333  0.666667  1
  Ir  Ir8  1  0.000000  0.000000  0.000000  1
