# generated using pymatgen
data_Na3Li2DyPt6
_symmetry_space_group_name_H-M   'P 1'
_cell_length_a   5.44908200
_cell_length_b   5.44908212
_cell_length_c   8.32609700
_cell_angle_alpha   90.00000000
_cell_angle_beta   90.00000000
_cell_angle_gamma   120.00001142
_symmetry_Int_Tables_number   1
_chemical_formula_structural   Na3Li2DyPt6
_chemical_formula_sum   'Na3 Li2 Dy1 Pt6'
_cell_volume   214.10102389
_cell_formula_units_Z   1
loop_
 _symmetry_equiv_pos_site_id
 _symmetry_equiv_pos_as_xyz
  1  'x, y, z'
loop_
 _atom_site_type_symbol
 _atom_site_label
 _atom_site_symmetry_multiplicity
 _atom_site_fract_x
 _atom_site_fract_y
 _atom_site_fract_z
 _atom_site_occupancy
  Na  Na0  1  0.333333  0.666666  0.449660  1
  Na  Na1  1  0.666667  0.333333  0.571143  1
  Na  Na2  1  0.666667  0.333333  0.918621  1
  Li  Li3  1  0.000000  0.000000  0.997447  1
  Li  Li4  1  0.000000  0.000000  0.499403  1
  Dy  Dy5  1  0.333333  0.666666  0.066430  1
  Pt  Pt6  1  0.336001  0.168000  0.238634  1
  Pt  Pt7  1  0.831998  0.168000  0.238634  1
  Pt  Pt8  1  0.832001  0.664000  0.238634  1
  Pt  Pt9  1  0.167338  0.334675  0.760464  1
  Pt  Pt10  1  0.167337  0.832663  0.760464  1
  Pt  Pt11  1  0.665325  0.832663  0.760464  1
