# generated using pymatgen
data_PaAl10CrOs
_symmetry_space_group_name_H-M   'P 1'
_cell_length_a   6.84557908
_cell_length_b   6.84558327
_cell_length_c   9.08921737
_cell_angle_alpha   89.91568931
_cell_angle_beta   90.08431467
_cell_angle_gamma   97.49143872
_symmetry_Int_Tables_number   1
_chemical_formula_structural   PaAl10CrOs
_chemical_formula_sum   'Pa2 Al20 Cr2 Os2'
_cell_volume   422.30226634
_cell_formula_units_Z   2
loop_
 _symmetry_equiv_pos_site_id
 _symmetry_equiv_pos_as_xyz
  1  'x, y, z'
loop_
 _atom_site_type_symbol
 _atom_site_label
 _atom_site_symmetry_multiplicity
 _atom_site_fract_x
 _atom_site_fract_y
 _atom_site_fract_z
 _atom_site_occupancy
  Pa  Pa0  1  0.869600  0.130399  0.759362  1
  Pa  Pa1  1  0.130400  0.869601  0.240638  1
  Al  Al2  1  0.521013  0.783990  0.751853  1
  Al  Al3  1  0.783991  0.521013  0.248147  1
  Al  Al4  1  0.478987  0.216010  0.248147  1
  Al  Al5  1  0.216009  0.478987  0.751853  1
  Al  Al6  1  0.624234  0.375766  0.955079  1
  Al  Al7  1  0.375766  0.624234  0.044921  1
  Al  Al8  1  0.623136  0.376864  0.546662  1
  Al  Al9  1  0.376864  0.623136  0.453338  1
  Al  Al10  1  0.410195  0.140811  0.752750  1
  Al  Al11  1  0.140811  0.410195  0.247250  1
  Al  Al12  1  0.589805  0.859189  0.247250  1
  Al  Al13  1  0.859189  0.589805  0.752750  1
  Al  Al14  1  0.845860  0.154140  0.399070  1
  Al  Al15  1  0.154140  0.845860  0.600930  1
  Al  Al16  1  0.841717  0.158283  0.100628  1
  Al  Al17  1  0.158283  0.841717  0.899372  1
  Al  Al18  1  0.772530  0.772530  0.000000  1
  Al  Al19  1  0.777073  0.777073  0.500000  1
  Al  Al20  1  0.227470  0.227470  0.000000  1
  Al  Al21  1  0.222927  0.222927  0.500000  1
  Cr  Cr22  1  0.500000  0.000000  0.000000  1
  Cr  Cr23  1  0.000000  0.500000  0.000000  1
  Os  Os24  1  0.500000  0.000000  0.500000  1
  Os  Os25  1  0.000000  0.500000  0.500000  1
