# generated using pymatgen
data_Cu6SnWSe8
_symmetry_space_group_name_H-M   'P 1'
_cell_length_a   8.04262100
_cell_length_b   8.04262066
_cell_length_c   13.19969400
_cell_angle_alpha   90.00000000
_cell_angle_beta   90.00000000
_cell_angle_gamma   119.99999727
_symmetry_Int_Tables_number   1
_chemical_formula_structural   Cu6SnWSe8
_chemical_formula_sum   'Cu12 Sn2 W2 Se16'
_cell_volume   739.41745060
_cell_formula_units_Z   2
loop_
 _symmetry_equiv_pos_site_id
 _symmetry_equiv_pos_as_xyz
  1  'x, y, z'
loop_
 _atom_site_type_symbol
 _atom_site_label
 _atom_site_symmetry_multiplicity
 _atom_site_fract_x
 _atom_site_fract_y
 _atom_site_fract_z
 _atom_site_occupancy
  Cu  Cu0  1  0.832652  0.665306  0.101669  1
  Cu  Cu1  1  0.498496  0.501504  0.356618  1
  Cu  Cu2  1  0.996993  0.498496  0.856618  1
  Cu  Cu3  1  0.832652  0.167348  0.101669  1
  Cu  Cu4  1  0.501504  0.498496  0.856618  1
  Cu  Cu5  1  0.167348  0.334694  0.601669  1
  Cu  Cu6  1  0.498496  0.996993  0.356618  1
  Cu  Cu7  1  0.003007  0.501504  0.356618  1
  Cu  Cu8  1  0.167348  0.832652  0.601669  1
  Cu  Cu9  1  0.501504  0.003007  0.856618  1
  Cu  Cu10  1  0.665306  0.832652  0.601669  1
  Cu  Cu11  1  0.334694  0.167348  0.101669  1
  Sn  Sn12  1  0.000000  0.000000  0.852304  1
  Sn  Sn13  1  0.000000  0.000000  0.352304  1
  W  W14  1  0.333333  0.666667  0.479656  1
  W  W15  1  0.666667  0.333333  0.979656  1
  Se  Se16  1  0.000000  0.000000  0.049628  1
  Se  Se17  1  0.352759  0.176380  0.287318  1
  Se  Se18  1  0.823620  0.176380  0.287318  1
  Se  Se19  1  0.006228  0.503115  0.540270  1
  Se  Se20  1  0.823620  0.647241  0.287318  1
  Se  Se21  1  0.666667  0.333333  0.796789  1
  Se  Se22  1  0.176380  0.352759  0.787318  1
  Se  Se23  1  0.496885  0.503115  0.540270  1
  Se  Se24  1  0.000000  0.000000  0.549628  1
  Se  Se25  1  0.333333  0.666667  0.296789  1
  Se  Se26  1  0.993772  0.496885  0.040270  1
  Se  Se27  1  0.496885  0.993772  0.540270  1
  Se  Se28  1  0.176380  0.823620  0.787318  1
  Se  Se29  1  0.647241  0.823620  0.787318  1
  Se  Se30  1  0.503115  0.006228  0.040270  1
  Se  Se31  1  0.503115  0.496885  0.040270  1
