# generated using pymatgen
data_Ho8Ti11NbSi15As
_symmetry_space_group_name_H-M   'P 1'
_cell_length_a   7.04434241
_cell_length_b   7.04093837
_cell_length_c   12.94559251
_cell_angle_alpha   89.95444582
_cell_angle_beta   89.88244750
_cell_angle_gamma   89.96253621
_symmetry_Int_Tables_number   1
_chemical_formula_structural   Ho8Ti11NbSi15As
_chemical_formula_sum   'Ho8 Ti11 Nb1 Si15 As1'
_cell_volume   642.08391408
_cell_formula_units_Z   1
loop_
 _symmetry_equiv_pos_site_id
 _symmetry_equiv_pos_as_xyz
  1  'x, y, z'
loop_
 _atom_site_type_symbol
 _atom_site_label
 _atom_site_symmetry_multiplicity
 _atom_site_fract_x
 _atom_site_fract_y
 _atom_site_fract_z
 _atom_site_occupancy
  Ho  Ho0  1  0.341049  0.001373  0.466215  1
  Ho  Ho1  1  0.498066  0.841276  0.717388  1
  Ho  Ho2  1  0.500927  0.158826  0.216292  1
  Ho  Ho3  1  0.839211  0.497599  0.283120  1
  Ho  Ho4  1  0.159194  0.500068  0.783647  1
  Ho  Ho5  1  0.660532  0.996267  0.967735  1
  Ho  Ho6  1  0.999454  0.343176  0.531725  1
  Ho  Ho7  1  0.998961  0.658786  0.033299  1
  Ti  Ti8  1  0.173247  0.827315  0.250134  1
  Ti  Ti9  1  0.824359  0.173739  0.749908  1
  Ti  Ti10  1  0.672807  0.672752  0.500090  1
  Ti  Ti11  1  0.155552  0.009932  0.875673  1
  Ti  Ti12  1  0.491713  0.651555  0.124723  1
  Ti  Ti13  1  0.508324  0.347735  0.626278  1
  Ti  Ti14  1  0.653914  0.494625  0.875925  1
  Ti  Ti15  1  0.347326  0.507469  0.374562  1
  Ti  Ti16  1  0.847084  0.992809  0.375412  1
  Ti  Ti17  1  0.008766  0.153169  0.124123  1
  Ti  Ti18  1  0.990038  0.843866  0.623393  1
  Nb  Nb19  1  0.326296  0.326677  0.999880  1
  Si  Si20  1  0.369327  0.704172  0.933293  1
  Si  Si21  1  0.629072  0.297674  0.434256  1
  Si  Si22  1  0.703903  0.369794  0.066839  1
  Si  Si23  1  0.297207  0.630301  0.566174  1
  Si  Si24  1  0.797243  0.869717  0.184312  1
  Si  Si25  1  0.129916  0.203059  0.316618  1
  Si  Si26  1  0.870971  0.797773  0.815534  1
  Si  Si27  1  0.291594  0.951950  0.064842  1
  Si  Si28  1  0.546124  0.791202  0.314594  1
  Si  Si29  1  0.463833  0.209434  0.817657  1
  Si  Si30  1  0.791206  0.545970  0.685269  1
  Si  Si31  1  0.207411  0.454450  0.186929  1
  Si  Si32  1  0.708107  0.046026  0.564272  1
  Si  Si33  1  0.952457  0.291214  0.935184  1
  Si  Si34  1  0.046312  0.709259  0.434826  1
  As  As35  1  0.198495  0.128991  0.679879  1
