# generated using pymatgen
data_Ti10Ga2Sn3Bi
_symmetry_space_group_name_H-M   'P 1'
_cell_length_a   5.19155079
_cell_length_b   7.93095605
_cell_length_c   7.93892892
_cell_angle_alpha   83.86034298
_cell_angle_beta   70.89238177
_cell_angle_gamma   70.87224246
_symmetry_Int_Tables_number   1
_chemical_formula_structural   Ti10Ga2Sn3Bi
_chemical_formula_sum   'Ti10 Ga2 Sn3 Bi1'
_cell_volume   291.81545008
_cell_formula_units_Z   1
loop_
 _symmetry_equiv_pos_site_id
 _symmetry_equiv_pos_as_xyz
  1  'x, y, z'
loop_
 _atom_site_type_symbol
 _atom_site_label
 _atom_site_symmetry_multiplicity
 _atom_site_fract_x
 _atom_site_fract_y
 _atom_site_fract_z
 _atom_site_occupancy
  Ti  Ti0  1  0.716903  0.857569  0.708841  1
  Ti  Ti1  1  0.285674  0.138011  0.290743  1
  Ti  Ti2  1  0.785286  0.287367  0.142145  1
  Ti  Ti3  1  0.217984  0.710780  0.853619  1
  Ti  Ti4  1  0.572049  0.712810  0.142005  1
  Ti  Ti5  1  0.428915  0.289084  0.853663  1
  Ti  Ti6  1  0.073862  0.142337  0.708951  1
  Ti  Ti7  1  0.924009  0.862091  0.290495  1
  Ti  Ti8  1  0.744824  0.499924  0.505287  1
  Ti  Ti9  1  0.249929  0.500065  0.505100  1
  Ga  Ga10  1  0.250349  0.000060  0.999254  1
  Ga  Ga11  1  0.750383  0.999964  0.999290  1
  Sn  Sn12  1  0.833962  0.499929  0.832329  1
  Sn  Sn13  1  0.335285  0.830418  0.499263  1
  Sn  Sn14  1  0.665400  0.169524  0.499472  1
  Bi  Bi15  1  0.165186  0.500068  0.169544  1
