# generated using pymatgen
data_NiCl30
_symmetry_space_group_name_H-M   'P 1'
_cell_length_a   13.17911535
_cell_length_b   13.17911544
_cell_length_c   15.43230429
_cell_angle_alpha   83.98589726
_cell_angle_beta   83.98589759
_cell_angle_gamma   125.63772920
_symmetry_Int_Tables_number   1
_chemical_formula_structural   NiCl30
_chemical_formula_sum   'Ni1 Cl30'
_cell_volume   2120.35214091
_cell_formula_units_Z   1
loop_
 _symmetry_equiv_pos_site_id
 _symmetry_equiv_pos_as_xyz
  1  'x, y, z'
loop_
 _atom_site_type_symbol
 _atom_site_label
 _atom_site_symmetry_multiplicity
 _atom_site_fract_x
 _atom_site_fract_y
 _atom_site_fract_z
 _atom_site_occupancy
  Ni  Ni0  1  0.000000  0.000000  0.000000  1
  Cl  Cl1  1  0.946431  0.946431  0.150166  1
  Cl  Cl2  1  0.053569  0.053569  0.849834  1
  Cl  Cl3  1  0.062865  0.193162  0.005654  1
  Cl  Cl4  1  0.937135  0.806838  0.994346  1
  Cl  Cl5  1  0.193162  0.062865  0.005654  1
  Cl  Cl6  1  0.806838  0.937135  0.994346  1
  Cl  Cl7  1  0.203244  0.740691  0.066303  1
  Cl  Cl8  1  0.796756  0.259309  0.933697  1
  Cl  Cl9  1  0.698379  0.076755  0.266644  1
  Cl  Cl10  1  0.259309  0.796756  0.933697  1
  Cl  Cl11  1  0.301621  0.923245  0.733356  1
  Cl  Cl12  1  0.740691  0.203244  0.066303  1
  Cl  Cl13  1  0.978827  0.196370  0.782592  1
  Cl  Cl14  1  0.923245  0.301621  0.733356  1
  Cl  Cl15  1  0.021173  0.803630  0.217408  1
  Cl  Cl16  1  0.076755  0.698379  0.266644  1
  Cl  Cl17  1  0.803630  0.021173  0.217408  1
  Cl  Cl18  1  0.196370  0.978827  0.782592  1
  Cl  Cl19  1  0.463871  0.548838  0.259564  1
  Cl  Cl20  1  0.536129  0.451162  0.740436  1
  Cl  Cl21  1  0.508287  0.204258  0.449537  1
  Cl  Cl22  1  0.451162  0.536129  0.740436  1
  Cl  Cl23  1  0.491713  0.795742  0.550463  1
  Cl  Cl24  1  0.548838  0.463871  0.259564  1
  Cl  Cl25  1  0.239625  0.427054  0.545841  1
  Cl  Cl26  1  0.795742  0.491713  0.550463  1
  Cl  Cl27  1  0.760375  0.572946  0.454159  1
  Cl  Cl28  1  0.204258  0.508287  0.449537  1
  Cl  Cl29  1  0.572946  0.760375  0.454159  1
  Cl  Cl30  1  0.427054  0.239625  0.545841  1
