# generated using pymatgen
data_Sc4VRe7
_symmetry_space_group_name_H-M   'P 1'
_cell_length_a   5.26487800
_cell_length_b   5.26483847
_cell_length_c   8.65806500
_cell_angle_alpha   90.00000000
_cell_angle_beta   90.00000000
_cell_angle_gamma   119.99974673
_symmetry_Int_Tables_number   1
_chemical_formula_structural   Sc4VRe7
_chemical_formula_sum   'Sc4 V1 Re7'
_cell_volume   207.83847413
_cell_formula_units_Z   1
loop_
 _symmetry_equiv_pos_site_id
 _symmetry_equiv_pos_as_xyz
  1  'x, y, z'
loop_
 _atom_site_type_symbol
 _atom_site_label
 _atom_site_symmetry_multiplicity
 _atom_site_fract_x
 _atom_site_fract_y
 _atom_site_fract_z
 _atom_site_occupancy
  Sc  Sc0  1  0.333556  0.666779  0.436756  1
  Sc  Sc1  1  0.666465  0.333232  0.940983  1
  Sc  Sc2  1  0.666465  0.333232  0.559017  1
  Sc  Sc3  1  0.333556  0.666779  0.063244  1
  V  V4  1  0.659310  0.829655  0.750000  1
  Re  Re5  1  0.339332  0.169666  0.250000  1
  Re  Re6  1  0.828592  0.170596  0.250000  1
  Re  Re7  1  0.170439  0.345020  0.750000  1
  Re  Re8  1  0.170439  0.825419  0.750000  1
  Re  Re9  1  0.828592  0.657996  0.250000  1
  Re  Re10  1  0.001628  0.000814  0.504101  1
  Re  Re11  1  0.001628  0.000814  0.995899  1
