# generated using pymatgen
data_Nb4Te4Os
_symmetry_space_group_name_H-M   'P 1'
_cell_length_a   4.97755000
_cell_length_b   11.15134400
_cell_length_c   19.41543500
_cell_angle_alpha   90.00000000
_cell_angle_beta   90.00000000
_cell_angle_gamma   90.00000000
_symmetry_Int_Tables_number   1
_chemical_formula_structural   Nb4Te4Os
_chemical_formula_sum   'Nb16 Te16 Os4'
_cell_volume   1077.68036400
_cell_formula_units_Z   4
loop_
 _symmetry_equiv_pos_site_id
 _symmetry_equiv_pos_as_xyz
  1  'x, y, z'
loop_
 _atom_site_type_symbol
 _atom_site_label
 _atom_site_symmetry_multiplicity
 _atom_site_fract_x
 _atom_site_fract_y
 _atom_site_fract_z
 _atom_site_occupancy
  Nb  Nb0  1  0.500000  0.565322  0.380370  1
  Nb  Nb1  1  0.500000  0.434678  0.619630  1
  Nb  Nb2  1  0.500000  0.065322  0.119630  1
  Nb  Nb3  1  0.500000  0.934678  0.880370  1
  Nb  Nb4  1  0.500000  0.708662  0.537213  1
  Nb  Nb5  1  0.500000  0.291338  0.462787  1
  Nb  Nb6  1  0.500000  0.208662  0.962787  1
  Nb  Nb7  1  0.500000  0.791338  0.037213  1
  Nb  Nb8  1  0.000000  0.693667  0.441553  1
  Nb  Nb9  1  0.000000  0.306333  0.558447  1
  Nb  Nb10  1  0.000000  0.193667  0.058447  1
  Nb  Nb11  1  0.000000  0.806333  0.941553  1
  Nb  Nb12  1  0.000000  0.398588  0.388993  1
  Nb  Nb13  1  0.000000  0.601412  0.611007  1
  Nb  Nb14  1  0.000000  0.898588  0.111007  1
  Nb  Nb15  1  0.000000  0.101412  0.888993  1
  Te  Te16  1  0.000000  0.843871  0.561555  1
  Te  Te17  1  0.000000  0.156129  0.438445  1
  Te  Te18  1  0.000000  0.343871  0.938445  1
  Te  Te19  1  0.000000  0.656129  0.061555  1
  Te  Te20  1  0.500000  0.333127  0.317042  1
  Te  Te21  1  0.500000  0.666873  0.682958  1
  Te  Te22  1  0.500000  0.833127  0.182958  1
  Te  Te23  1  0.500000  0.166873  0.817042  1
  Te  Te24  1  0.500000  0.819656  0.403808  1
  Te  Te25  1  0.500000  0.180344  0.596192  1
  Te  Te26  1  0.500000  0.319656  0.096192  1
  Te  Te27  1  0.500000  0.680344  0.903808  1
  Te  Te28  1  0.000000  0.607165  0.302548  1
  Te  Te29  1  0.000000  0.392835  0.697452  1
  Te  Te30  1  0.000000  0.107165  0.197452  1
  Te  Te31  1  0.000000  0.892835  0.802548  1
  Os  Os32  1  0.249869  0.500000  0.500000  1
  Os  Os33  1  0.750131  0.000000  0.000000  1
  Os  Os34  1  0.750131  0.500000  0.500000  1
  Os  Os35  1  0.249869  0.000000  0.000000  1
