# generated using pymatgen
data_Sc17Si16W3
_symmetry_space_group_name_H-M   'P 1'
_cell_length_a   6.80755331
_cell_length_b   7.08214670
_cell_length_c   13.38833400
_cell_angle_alpha   90.00000000
_cell_angle_beta   90.00000000
_cell_angle_gamma   90.12457544
_symmetry_Int_Tables_number   1
_chemical_formula_structural   Sc17Si16W3
_chemical_formula_sum   'Sc17 Si16 W3'
_cell_volume   645.47805368
_cell_formula_units_Z   1
loop_
 _symmetry_equiv_pos_site_id
 _symmetry_equiv_pos_as_xyz
  1  'x, y, z'
loop_
 _atom_site_type_symbol
 _atom_site_label
 _atom_site_symmetry_multiplicity
 _atom_site_fract_x
 _atom_site_fract_y
 _atom_site_fract_z
 _atom_site_occupancy
  Sc  Sc0  1  0.009815  0.177097  0.097488  1
  Sc  Sc1  1  0.990105  0.817711  0.904339  1
  Sc  Sc2  1  0.483713  0.678292  0.905579  1
  Sc  Sc3  1  0.990105  0.817711  0.595661  1
  Sc  Sc4  1  0.512351  0.320468  0.099542  1
  Sc  Sc5  1  0.009815  0.177097  0.402512  1
  Sc  Sc6  1  0.512351  0.320468  0.400458  1
  Sc  Sc7  1  0.483713  0.678292  0.594421  1
  Sc  Sc8  1  0.652989  0.992965  0.750000  1
  Sc  Sc9  1  0.327352  0.174857  0.624434  1
  Sc  Sc10  1  0.674786  0.824813  0.372213  1
  Sc  Sc11  1  0.174552  0.672077  0.373857  1
  Sc  Sc12  1  0.674786  0.824813  0.127787  1
  Sc  Sc13  1  0.824268  0.331456  0.625191  1
  Sc  Sc14  1  0.327352  0.174857  0.875566  1
  Sc  Sc15  1  0.824268  0.331456  0.874809  1
  Sc  Sc16  1  0.174552  0.672077  0.126143  1
  Si  Si17  1  0.027722  0.114251  0.750000  1
  Si  Si18  1  0.980451  0.899561  0.250000  1
  Si  Si19  1  0.478716  0.597535  0.250000  1
  Si  Si20  1  0.516344  0.406091  0.750000  1
  Si  Si21  1  0.277737  0.852360  0.750000  1
  Si  Si22  1  0.714460  0.142099  0.250000  1
  Si  Si23  1  0.212443  0.354606  0.250000  1
  Si  Si24  1  0.790037  0.638710  0.750000  1
  Si  Si25  1  0.157905  0.472295  0.544707  1
  Si  Si26  1  0.841859  0.524112  0.451880  1
  Si  Si27  1  0.341962  0.974024  0.451191  1
  Si  Si28  1  0.841859  0.524112  0.048120  1
  Si  Si29  1  0.662722  0.033674  0.536060  1
  Si  Si30  1  0.157905  0.472295  0.955293  1
  Si  Si31  1  0.662722  0.033674  0.963940  1
  Si  Si32  1  0.341962  0.974024  0.048809  1
  W  W33  1  0.148327  0.501549  0.750000  1
  W  W34  1  0.850050  0.494335  0.250000  1
  W  W35  1  0.347939  0.004188  0.250000  1
