# generated using pymatgen
data_Sr3(GaPd)2
_symmetry_space_group_name_H-M   'P 1'
_cell_length_a   6.14651900
_cell_length_b   8.34319300
_cell_length_c   14.34095100
_cell_angle_alpha   90.00000000
_cell_angle_beta   90.00000000
_cell_angle_gamma   90.00000000
_symmetry_Int_Tables_number   1
_chemical_formula_structural   Sr3(GaPd)2
_chemical_formula_sum   'Sr12 Ga8 Pd8'
_cell_volume   735.42683099
_cell_formula_units_Z   4
loop_
 _symmetry_equiv_pos_site_id
 _symmetry_equiv_pos_as_xyz
  1  'x, y, z'
loop_
 _atom_site_type_symbol
 _atom_site_label
 _atom_site_symmetry_multiplicity
 _atom_site_fract_x
 _atom_site_fract_y
 _atom_site_fract_z
 _atom_site_occupancy
  Sr  Sr0  1  0.141666  0.605392  0.098266  1
  Sr  Sr1  1  0.141666  0.894608  0.901734  1
  Sr  Sr2  1  0.858334  0.105392  0.401734  1
  Sr  Sr3  1  0.858334  0.394608  0.598266  1
  Sr  Sr4  1  0.858334  0.394608  0.901734  1
  Sr  Sr5  1  0.858334  0.105392  0.098266  1
  Sr  Sr6  1  0.141666  0.894608  0.598266  1
  Sr  Sr7  1  0.141666  0.605392  0.401734  1
  Sr  Sr8  1  0.362675  0.256282  0.250000  1
  Sr  Sr9  1  0.362675  0.243718  0.750000  1
  Sr  Sr10  1  0.637325  0.756282  0.250000  1
  Sr  Sr11  1  0.637325  0.743718  0.750000  1
  Ga  Ga12  1  0.383020  0.250000  0.000000  1
  Ga  Ga13  1  0.616980  0.750000  0.500000  1
  Ga  Ga14  1  0.616980  0.750000  0.000000  1
  Ga  Ga15  1  0.383020  0.250000  0.500000  1
  Ga  Ga16  1  0.844494  0.406101  0.250000  1
  Ga  Ga17  1  0.844494  0.093899  0.750000  1
  Ga  Ga18  1  0.155506  0.906101  0.250000  1
  Ga  Ga19  1  0.155506  0.593899  0.750000  1
  Pd  Pd20  1  0.630190  0.469124  0.091659  1
  Pd  Pd21  1  0.630190  0.030876  0.908341  1
  Pd  Pd22  1  0.369810  0.969124  0.408341  1
  Pd  Pd23  1  0.369810  0.530876  0.591659  1
  Pd  Pd24  1  0.369810  0.530876  0.908341  1
  Pd  Pd25  1  0.369810  0.969124  0.091659  1
  Pd  Pd26  1  0.630190  0.030876  0.591659  1
  Pd  Pd27  1  0.630190  0.469124  0.408341  1
