# generated using pymatgen
data_LaNd(Th2Ir9)2
_symmetry_space_group_name_H-M   'P 1'
_cell_length_a   5.37285800
_cell_length_b   5.37285668
_cell_length_c   17.75313000
_cell_angle_alpha   90.00000000
_cell_angle_beta   90.00000000
_cell_angle_gamma   120.00000810
_symmetry_Int_Tables_number   1
_chemical_formula_structural   LaNd(Th2Ir9)2
_chemical_formula_sum   'La1 Nd1 Th4 Ir18'
_cell_volume   443.82948313
_cell_formula_units_Z   1
loop_
 _symmetry_equiv_pos_site_id
 _symmetry_equiv_pos_as_xyz
  1  'x, y, z'
loop_
 _atom_site_type_symbol
 _atom_site_label
 _atom_site_symmetry_multiplicity
 _atom_site_fract_x
 _atom_site_fract_y
 _atom_site_fract_z
 _atom_site_occupancy
  La  La0  1  0.333333  0.666667  0.959336  1
  Nd  Nd1  1  0.333333  0.666667  0.542280  1
  Th  Th2  1  0.666667  0.333333  0.039868  1
  Th  Th3  1  0.666667  0.333333  0.459731  1
  Th  Th4  1  0.333333  0.666667  0.752082  1
  Th  Th5  1  0.666667  0.333333  0.250119  1
  Ir  Ir6  1  0.167078  0.832922  0.373190  1
  Ir  Ir7  1  0.167078  0.334155  0.373190  1
  Ir  Ir8  1  0.665845  0.832922  0.373190  1
  Ir  Ir9  1  0.833191  0.166809  0.627152  1
  Ir  Ir10  1  0.833191  0.666380  0.627152  1
  Ir  Ir11  1  0.333620  0.166809  0.627152  1
  Ir  Ir12  1  0.833332  0.166668  0.871360  1
  Ir  Ir13  1  0.833332  0.666661  0.871360  1
  Ir  Ir14  1  0.333339  0.166668  0.871360  1
  Ir  Ir15  1  0.166892  0.833108  0.127596  1
  Ir  Ir16  1  0.166892  0.333787  0.127596  1
  Ir  Ir17  1  0.666213  0.833108  0.127596  1
  Ir  Ir18  1  0.333333  0.666667  0.250192  1
  Ir  Ir19  1  0.666667  0.333333  0.749228  1
  Ir  Ir20  1  0.000000  0.000000  0.250449  1
  Ir  Ir21  1  0.000000  0.000000  0.749003  1
  Ir  Ir22  1  0.000000  0.000000  0.500342  1
  Ir  Ir23  1  0.000000  0.000000  0.999474  1
