# generated using pymatgen
data_Zr10TlZnBiPb5
_symmetry_space_group_name_H-M   'P 1'
_cell_length_a   8.91155647
_cell_length_b   8.89864517
_cell_length_c   6.02685203
_cell_angle_alpha   89.99355586
_cell_angle_beta   90.01286960
_cell_angle_gamma   120.04800794
_symmetry_Int_Tables_number   1
_chemical_formula_structural   Zr10TlZnBiPb5
_chemical_formula_sum   'Zr10 Tl1 Zn1 Bi1 Pb5'
_cell_volume   413.70265215
_cell_formula_units_Z   1
loop_
 _symmetry_equiv_pos_site_id
 _symmetry_equiv_pos_as_xyz
  1  'x, y, z'
loop_
 _atom_site_type_symbol
 _atom_site_label
 _atom_site_symmetry_multiplicity
 _atom_site_fract_x
 _atom_site_fract_y
 _atom_site_fract_z
 _atom_site_occupancy
  Zr  Zr0  1  0.332500  0.665952  0.999610  1
  Zr  Zr1  1  0.666678  0.333506  0.500345  1
  Zr  Zr2  1  0.666549  0.334048  0.999610  1
  Zr  Zr3  1  0.333171  0.666494  0.500345  1
  Zr  Zr4  1  0.272829  0.000000  0.262993  1
  Zr  Zr5  1  0.273000  0.273031  0.737008  1
  Zr  Zr6  1  0.999970  0.726969  0.737008  1
  Zr  Zr7  1  0.001419  0.273608  0.263422  1
  Zr  Zr8  1  0.727811  0.726392  0.263422  1
  Zr  Zr9  1  0.727240  0.000000  0.736178  1
  Tl  Tl10  1  0.000797  0.000000  0.999575  1
  Zn  Zn11  1  0.000532  0.000000  0.500424  1
  Bi  Bi12  1  0.614157  0.000000  0.246128  1
  Pb  Pb13  1  0.615833  0.615832  0.754958  1
  Pb  Pb14  1  0.000002  0.384168  0.754958  1
  Pb  Pb15  1  0.999860  0.615686  0.244529  1
  Pb  Pb16  1  0.384174  0.384314  0.244529  1
  Pb  Pb17  1  0.383478  0.000000  0.754957  1
