# generated using pymatgen
data_LiLa16Cd2HgRu4
_symmetry_space_group_name_H-M   'P 1'
_cell_length_a   10.09173136
_cell_length_b   10.08821960
_cell_length_c   10.09286901
_cell_angle_alpha   60.01522685
_cell_angle_beta   59.85781364
_cell_angle_gamma   60.01150274
_symmetry_Int_Tables_number   1
_chemical_formula_structural   LiLa16Cd2HgRu4
_chemical_formula_sum   'Li1 La16 Cd2 Hg1 Ru4'
_cell_volume   725.93628633
_cell_formula_units_Z   1
loop_
 _symmetry_equiv_pos_site_id
 _symmetry_equiv_pos_as_xyz
  1  'x, y, z'
loop_
 _atom_site_type_symbol
 _atom_site_label
 _atom_site_symmetry_multiplicity
 _atom_site_fract_x
 _atom_site_fract_y
 _atom_site_fract_z
 _atom_site_occupancy
  Li  Li0  1  0.681148  0.679171  0.960510  1
  La  La1  1  0.905054  0.904632  0.904034  1
  La  La2  1  0.436735  0.437093  0.061688  1
  La  La3  1  0.059844  0.060942  0.439324  1
  La  La4  1  0.436735  0.064484  0.061688  1
  La  La5  1  0.304683  0.691555  0.312207  1
  La  La6  1  0.690474  0.691030  0.312421  1
  La  La7  1  0.690474  0.306074  0.312421  1
  La  La8  1  0.285828  0.904788  0.904595  1
  La  La9  1  0.905054  0.286280  0.904034  1
  La  La10  1  0.307855  0.692042  0.690163  1
  La  La11  1  0.904207  0.903084  0.289626  1
  La  La12  1  0.062793  0.437687  0.061832  1
  La  La13  1  0.307855  0.309940  0.690163  1
  La  La14  1  0.059844  0.439889  0.439324  1
  La  La15  1  0.438802  0.061500  0.438197  1
  La  La16  1  0.690899  0.310213  0.688674  1
  Cd  Cd17  1  0.669440  0.987012  0.673389  1
  Cd  Cd18  1  0.669440  0.670159  0.673389  1
  Hg  Hg19  1  0.993524  0.666988  0.672500  1
  Ru  Ru20  1  0.112797  0.111256  0.664689  1
  Ru  Ru21  1  0.112824  0.111582  0.114781  1
  Ru  Ru22  1  0.112824  0.660811  0.114781  1
  Ru  Ru23  1  0.660862  0.111783  0.115569  1
