# generated using pymatgen
data_Ta4Be3Nb2Si
_symmetry_space_group_name_H-M   'P 1'
_cell_length_a   6.58554481
_cell_length_b   6.58554579
_cell_length_c   3.38924600
_cell_angle_alpha   90.00000000
_cell_angle_beta   90.00000000
_cell_angle_gamma   89.84842419
_symmetry_Int_Tables_number   1
_chemical_formula_structural   Ta4Be3Nb2Si
_chemical_formula_sum   'Ta4 Be3 Nb2 Si1'
_cell_volume   146.98907458
_cell_formula_units_Z   1
loop_
 _symmetry_equiv_pos_site_id
 _symmetry_equiv_pos_as_xyz
  1  'x, y, z'
loop_
 _atom_site_type_symbol
 _atom_site_label
 _atom_site_symmetry_multiplicity
 _atom_site_fract_x
 _atom_site_fract_y
 _atom_site_fract_z
 _atom_site_occupancy
  Ta  Ta0  1  0.504481  0.497793  0.000000  1
  Ta  Ta1  1  0.997793  0.004481  0.000000  1
  Ta  Ta2  1  0.677154  0.177154  0.500000  1
  Ta  Ta3  1  0.328649  0.828649  0.500000  1
  Be  Be4  1  0.879878  0.379878  0.000000  1
  Be  Be5  1  0.615029  0.886228  0.000000  1
  Be  Be6  1  0.386228  0.115029  0.000000  1
  Nb  Nb7  1  0.179650  0.314940  0.500000  1
  Nb  Nb8  1  0.814940  0.679650  0.500000  1
  Si  Si9  1  0.116200  0.616200  0.000000  1
