# generated using pymatgen
data_Dy9Ho(Ir2Os)2
_symmetry_space_group_name_H-M   'P 1'
_cell_length_a   10.86455700
_cell_length_b   10.86455700
_cell_length_c   6.41667600
_cell_angle_alpha   90.00000000
_cell_angle_beta   90.00000000
_cell_angle_gamma   90.00000000
_symmetry_Int_Tables_number   1
_chemical_formula_structural   Dy9Ho(Ir2Os)2
_chemical_formula_sum   'Dy18 Ho2 Ir8 Os4'
_cell_volume   757.41544403
_cell_formula_units_Z   2
loop_
 _symmetry_equiv_pos_site_id
 _symmetry_equiv_pos_as_xyz
  1  'x, y, z'
loop_
 _atom_site_type_symbol
 _atom_site_label
 _atom_site_symmetry_multiplicity
 _atom_site_fract_x
 _atom_site_fract_y
 _atom_site_fract_z
 _atom_site_occupancy
  Dy  Dy0  1  0.293646  0.086248  0.377051  1
  Dy  Dy1  1  0.293646  0.913752  0.877051  1
  Dy  Dy2  1  0.706354  0.086248  0.877051  1
  Dy  Dy3  1  0.706354  0.913752  0.377051  1
  Dy  Dy4  1  0.586236  0.793489  0.876967  1
  Dy  Dy5  1  0.586236  0.206511  0.376967  1
  Dy  Dy6  1  0.413764  0.793489  0.376967  1
  Dy  Dy7  1  0.413764  0.206511  0.876967  1
  Dy  Dy8  1  0.206511  0.413764  0.623033  1
  Dy  Dy9  1  0.206511  0.586236  0.123033  1
  Dy  Dy10  1  0.793489  0.413764  0.123033  1
  Dy  Dy11  1  0.793489  0.586236  0.623033  1
  Dy  Dy12  1  0.913752  0.706354  0.122949  1
  Dy  Dy13  1  0.913752  0.293646  0.622949  1
  Dy  Dy14  1  0.086248  0.706354  0.622949  1
  Dy  Dy15  1  0.086248  0.293646  0.122949  1
  Dy  Dy16  1  0.000000  0.000000  0.500000  1
  Dy  Dy17  1  0.000000  0.000000  0.000000  1
  Ho  Ho18  1  0.500000  0.500000  0.000000  1
  Ho  Ho19  1  0.500000  0.500000  0.500000  1
  Ir  Ir20  1  0.847852  0.152148  0.250000  1
  Ir  Ir21  1  0.847852  0.847852  0.750000  1
  Ir  Ir22  1  0.152148  0.152148  0.750000  1
  Ir  Ir23  1  0.152148  0.847852  0.250000  1
  Ir  Ir24  1  0.651841  0.348159  0.750000  1
  Ir  Ir25  1  0.651841  0.651841  0.250000  1
  Ir  Ir26  1  0.348159  0.348159  0.250000  1
  Ir  Ir27  1  0.348159  0.651841  0.750000  1
  Os  Os28  1  0.500000  0.000000  0.122437  1
  Os  Os29  1  0.500000  0.000000  0.622437  1
  Os  Os30  1  0.000000  0.500000  0.877563  1
  Os  Os31  1  0.000000  0.500000  0.377563  1
