# generated using pymatgen
data_Dy20IrRu9Rh2
_symmetry_space_group_name_H-M   'P 1'
_cell_length_a   10.83644335
_cell_length_b   10.83644400
_cell_length_c   6.40231026
_cell_angle_alpha   90.00579578
_cell_angle_beta   90.00591043
_cell_angle_gamma   89.85617361
_symmetry_Int_Tables_number   1
_chemical_formula_structural   Dy20IrRu9Rh2
_chemical_formula_sum   'Dy20 Ir1 Ru9 Rh2'
_cell_volume   751.81138794
_cell_formula_units_Z   1
loop_
 _symmetry_equiv_pos_site_id
 _symmetry_equiv_pos_as_xyz
  1  'x, y, z'
loop_
 _atom_site_type_symbol
 _atom_site_label
 _atom_site_symmetry_multiplicity
 _atom_site_fract_x
 _atom_site_fract_y
 _atom_site_fract_z
 _atom_site_occupancy
  Dy  Dy0  1  0.292438  0.088494  0.377824  1
  Dy  Dy1  1  0.293864  0.914822  0.875391  1
  Dy  Dy2  1  0.706359  0.086328  0.875375  1
  Dy  Dy3  1  0.707716  0.911542  0.377823  1
  Dy  Dy4  1  0.587005  0.791927  0.877709  1
  Dy  Dy5  1  0.585241  0.207728  0.377169  1
  Dy  Dy6  1  0.415291  0.792419  0.377167  1
  Dy  Dy7  1  0.413198  0.208818  0.877624  1
  Dy  Dy8  1  0.208073  0.412999  0.622292  1
  Dy  Dy9  1  0.207582  0.584710  0.122830  1
  Dy  Dy10  1  0.792274  0.414757  0.122834  1
  Dy  Dy11  1  0.791180  0.586805  0.622372  1
  Dy  Dy12  1  0.911504  0.707562  0.122173  1
  Dy  Dy13  1  0.913671  0.293641  0.624627  1
  Dy  Dy14  1  0.085176  0.706136  0.624610  1
  Dy  Dy15  1  0.088457  0.292284  0.122178  1
  Dy  Dy16  1  0.000109  0.999955  0.501938  1
  Dy  Dy17  1  0.000045  0.999891  0.998063  1
  Dy  Dy18  1  0.501158  0.499560  0.000709  1
  Dy  Dy19  1  0.500442  0.498847  0.499295  1
  Ir  Ir20  1  0.345500  0.654498  0.749995  1
  Ru  Ru21  1  0.848814  0.848687  0.749786  1
  Ru  Ru22  1  0.151315  0.151183  0.750218  1
  Ru  Ru23  1  0.653669  0.346330  0.750002  1
  Ru  Ru24  1  0.652110  0.653058  0.250462  1
  Ru  Ru25  1  0.346944  0.347887  0.249537  1
  Ru  Ru26  1  0.500081  0.999663  0.125247  1
  Ru  Ru27  1  0.499939  0.000188  0.624493  1
  Ru  Ru28  1  0.999812  0.500061  0.875505  1
  Ru  Ru29  1  0.000337  0.499917  0.374751  1
  Rh  Rh30  1  0.847000  0.152998  0.250003  1
  Rh  Rh31  1  0.153695  0.846305  0.249998  1
