# generated using pymatgen
data_Sm2(As2Pd7)3
_symmetry_space_group_name_H-M   'P 1'
_cell_length_a   8.86553379
_cell_length_b   8.86553275
_cell_length_c   8.86553300
_cell_angle_alpha   60.00000278
_cell_angle_beta   60.00000669
_cell_angle_gamma   59.99999625
_symmetry_Int_Tables_number   1
_chemical_formula_structural   Sm2(As2Pd7)3
_chemical_formula_sum   'Sm2 As6 Pd21'
_cell_volume   492.71932877
_cell_formula_units_Z   1
loop_
 _symmetry_equiv_pos_site_id
 _symmetry_equiv_pos_as_xyz
  1  'x, y, z'
loop_
 _atom_site_type_symbol
 _atom_site_label
 _atom_site_symmetry_multiplicity
 _atom_site_fract_x
 _atom_site_fract_y
 _atom_site_fract_z
 _atom_site_occupancy
  Sm  Sm0  1  0.750000  0.750000  0.750000  1
  Sm  Sm1  1  0.250000  0.250000  0.250000  1
  As  As2  1  0.739101  0.739101  0.260899  1
  As  As3  1  0.260899  0.739101  0.260899  1
  As  As4  1  0.739101  0.260899  0.260899  1
  As  As5  1  0.260899  0.260899  0.739101  1
  As  As6  1  0.739101  0.260899  0.739101  1
  As  As7  1  0.260899  0.739101  0.739101  1
  Pd  Pd8  1  0.000000  0.000000  0.000000  1
  Pd  Pd9  1  0.615759  0.615759  0.152724  1
  Pd  Pd10  1  0.615759  0.152724  0.615759  1
  Pd  Pd11  1  0.152724  0.615759  0.615759  1
  Pd  Pd12  1  0.615759  0.615759  0.615759  1
  Pd  Pd13  1  0.384241  0.384241  0.847276  1
  Pd  Pd14  1  0.384241  0.847276  0.384241  1
  Pd  Pd15  1  0.847276  0.384241  0.384241  1
  Pd  Pd16  1  0.384241  0.384241  0.384241  1
  Pd  Pd17  1  0.000000  0.000000  0.348855  1
  Pd  Pd18  1  0.651145  0.000000  0.348855  1
  Pd  Pd19  1  0.000000  0.651145  0.348855  1
  Pd  Pd20  1  0.651145  0.348855  0.000000  1
  Pd  Pd21  1  0.000000  0.348855  0.000000  1
  Pd  Pd22  1  0.000000  0.348855  0.651145  1
  Pd  Pd23  1  0.348855  0.651145  0.000000  1
  Pd  Pd24  1  0.348855  0.000000  0.651145  1
  Pd  Pd25  1  0.348855  0.000000  0.000000  1
  Pd  Pd26  1  0.000000  0.000000  0.651145  1
  Pd  Pd27  1  0.000000  0.651145  0.000000  1
  Pd  Pd28  1  0.651145  0.000000  0.000000  1
