# generated using pymatgen
data_Tb2Ho3Pb4
_symmetry_space_group_name_H-M   'P 1'
_cell_length_a   8.20963300
_cell_length_b   8.29261600
_cell_length_c   15.65462600
_cell_angle_alpha   90.00000000
_cell_angle_beta   90.00000000
_cell_angle_gamma   90.00000000
_symmetry_Int_Tables_number   1
_chemical_formula_structural   Tb2Ho3Pb4
_chemical_formula_sum   'Tb8 Ho12 Pb16'
_cell_volume   1065.75651163
_cell_formula_units_Z   4
loop_
 _symmetry_equiv_pos_site_id
 _symmetry_equiv_pos_as_xyz
  1  'x, y, z'
loop_
 _atom_site_type_symbol
 _atom_site_label
 _atom_site_symmetry_multiplicity
 _atom_site_fract_x
 _atom_site_fract_y
 _atom_site_fract_z
 _atom_site_occupancy
  Tb  Tb0  1  0.533985  0.322736  0.899866  1
  Tb  Tb1  1  0.033985  0.177264  0.600134  1
  Tb  Tb2  1  0.466015  0.677264  0.399866  1
  Tb  Tb3  1  0.966015  0.822736  0.100134  1
  Tb  Tb4  1  0.466015  0.677264  0.100134  1
  Tb  Tb5  1  0.966015  0.822736  0.399866  1
  Tb  Tb6  1  0.533985  0.322736  0.600134  1
  Tb  Tb7  1  0.033985  0.177264  0.899866  1
  Ho  Ho8  1  0.376795  0.840593  0.879640  1
  Ho  Ho9  1  0.876795  0.659407  0.620360  1
  Ho  Ho10  1  0.623205  0.159407  0.379640  1
  Ho  Ho11  1  0.123205  0.340593  0.120360  1
  Ho  Ho12  1  0.623205  0.159407  0.120360  1
  Ho  Ho13  1  0.123205  0.340593  0.379640  1
  Ho  Ho14  1  0.376795  0.840593  0.620360  1
  Ho  Ho15  1  0.876795  0.659407  0.879640  1
  Ho  Ho16  1  0.208205  0.504076  0.750000  1
  Ho  Ho17  1  0.708205  0.995924  0.750000  1
  Ho  Ho18  1  0.791795  0.495924  0.250000  1
  Ho  Ho19  1  0.291795  0.004076  0.250000  1
  Pb  Pb20  1  0.281695  0.033218  0.042727  1
  Pb  Pb21  1  0.781695  0.466782  0.457273  1
  Pb  Pb22  1  0.718305  0.966782  0.542727  1
  Pb  Pb23  1  0.218305  0.533218  0.957273  1
  Pb  Pb24  1  0.718305  0.966782  0.957273  1
  Pb  Pb25  1  0.218305  0.533218  0.542727  1
  Pb  Pb26  1  0.281695  0.033218  0.457273  1
  Pb  Pb27  1  0.781695  0.466782  0.042727  1
  Pb  Pb28  1  0.571845  0.627234  0.750000  1
  Pb  Pb29  1  0.071845  0.872766  0.750000  1
  Pb  Pb30  1  0.428155  0.372766  0.250000  1
  Pb  Pb31  1  0.928155  0.127234  0.250000  1
  Pb  Pb32  1  0.344574  0.151234  0.750000  1
  Pb  Pb33  1  0.844574  0.348766  0.750000  1
  Pb  Pb34  1  0.655426  0.848766  0.250000  1
  Pb  Pb35  1  0.155426  0.651234  0.250000  1
