# generated using pymatgen
data_Pr3In3Ga2Ni
_symmetry_space_group_name_H-M   'P 1'
_cell_length_a   7.47474900
_cell_length_b   7.47475016
_cell_length_c   4.45671500
_cell_angle_alpha   90.00000000
_cell_angle_beta   90.00000000
_cell_angle_gamma   120.00000812
_symmetry_Int_Tables_number   1
_chemical_formula_structural   Pr3In3Ga2Ni
_chemical_formula_sum   'Pr3 In3 Ga2 Ni1'
_cell_volume   215.64468267
_cell_formula_units_Z   1
loop_
 _symmetry_equiv_pos_site_id
 _symmetry_equiv_pos_as_xyz
  1  'x, y, z'
loop_
 _atom_site_type_symbol
 _atom_site_label
 _atom_site_symmetry_multiplicity
 _atom_site_fract_x
 _atom_site_fract_y
 _atom_site_fract_z
 _atom_site_occupancy
  Pr  Pr0  1  0.403612  0.000000  0.500000  1
  Pr  Pr1  1  0.000000  0.403612  0.500000  1
  Pr  Pr2  1  0.596388  0.596388  0.500000  1
  In  In3  1  0.758791  0.000000  0.000000  1
  In  In4  1  0.000000  0.758791  0.000000  1
  In  In5  1  0.241209  0.241209  0.000000  1
  Ga  Ga6  1  0.333333  0.666667  0.000000  1
  Ga  Ga7  1  0.666667  0.333333  0.000000  1
  Ni  Ni8  1  0.000000  0.000000  0.500000  1
