# generated using pymatgen
data_SmHo3Lu(In2Pt)2
_symmetry_space_group_name_H-M   'P 1'
_cell_length_a   3.60677500
_cell_length_b   8.17685912
_cell_length_c   18.24978547
_cell_angle_alpha   89.90690559
_cell_angle_beta   90.00000000
_cell_angle_gamma   90.00000000
_symmetry_Int_Tables_number   1
_chemical_formula_structural   SmHo3Lu(In2Pt)2
_chemical_formula_sum   'Sm2 Ho6 Lu2 In8 Pt4'
_cell_volume   538.22362428
_cell_formula_units_Z   2
loop_
 _symmetry_equiv_pos_site_id
 _symmetry_equiv_pos_as_xyz
  1  'x, y, z'
loop_
 _atom_site_type_symbol
 _atom_site_label
 _atom_site_symmetry_multiplicity
 _atom_site_fract_x
 _atom_site_fract_y
 _atom_site_fract_z
 _atom_site_occupancy
  Sm  Sm0  1  0.000000  0.000000  0.000000  1
  Sm  Sm1  1  0.000000  0.500000  0.500000  1
  Ho  Ho2  1  0.000000  0.380706  0.914001  1
  Ho  Ho3  1  0.000000  0.619294  0.085999  1
  Ho  Ho4  1  0.000000  0.242058  0.220058  1
  Ho  Ho5  1  0.000000  0.757942  0.779942  1
  Ho  Ho6  1  0.000000  0.259125  0.718022  1
  Ho  Ho7  1  0.000000  0.740875  0.281978  1
  Lu  Lu8  1  0.000000  0.118557  0.413478  1
  Lu  Lu9  1  0.000000  0.881443  0.586522  1
  In  In10  1  0.500000  0.419514  0.349863  1
  In  In11  1  0.500000  0.580486  0.650137  1
  In  In12  1  0.500000  0.077837  0.848298  1
  In  In13  1  0.500000  0.922163  0.151702  1
  In  In14  1  0.500000  0.297422  0.067320  1
  In  In15  1  0.500000  0.702578  0.932680  1
  In  In16  1  0.500000  0.199033  0.565011  1
  In  In17  1  0.500000  0.800967  0.434989  1
  Pt  Pt18  1  0.500000  0.025206  0.305366  1
  Pt  Pt19  1  0.500000  0.974794  0.694634  1
  Pt  Pt20  1  0.500000  0.474513  0.802889  1
  Pt  Pt21  1  0.500000  0.525487  0.197111  1
