# generated using pymatgen
data_Rb4MnZnTe4
_symmetry_space_group_name_H-M   'P 1'
_cell_length_a   9.03293775
_cell_length_b   9.03293853
_cell_length_c   9.03293711
_cell_angle_alpha   133.80586310
_cell_angle_beta   129.64202411
_cell_angle_gamma   70.71872130
_symmetry_Int_Tables_number   1
_chemical_formula_structural   Rb4MnZnTe4
_chemical_formula_sum   'Rb4 Mn1 Zn1 Te4'
_cell_volume   401.27740798
_cell_formula_units_Z   1
loop_
 _symmetry_equiv_pos_site_id
 _symmetry_equiv_pos_as_xyz
  1  'x, y, z'
loop_
 _atom_site_type_symbol
 _atom_site_label
 _atom_site_symmetry_multiplicity
 _atom_site_fract_x
 _atom_site_fract_y
 _atom_site_fract_z
 _atom_site_occupancy
  Rb  Rb0  1  0.467119  0.142667  0.322991  1
  Rb  Rb1  1  0.819676  0.644128  0.177009  1
  Rb  Rb2  1  0.532881  0.855872  0.675548  1
  Rb  Rb3  1  0.180324  0.357333  0.824452  1
  Mn  Mn4  1  0.000000  0.250000  0.250000  1
  Zn  Zn5  1  0.000000  0.750000  0.750000  1
  Te  Te6  1  0.084410  0.894291  0.185072  1
  Te  Te7  1  0.915590  0.100662  0.809880  1
  Te  Te8  1  0.290781  0.605709  0.690120  1
  Te  Te9  1  0.709219  0.399338  0.314928  1
