# generated using pymatgen
data_RbSr3(U2Se5)4
_symmetry_space_group_name_H-M   'P 1'
_cell_length_a   7.81459223
_cell_length_b   8.71195451
_cell_length_c   12.25963485
_cell_angle_alpha   89.83553817
_cell_angle_beta   90.00676171
_cell_angle_gamma   90.10627682
_symmetry_Int_Tables_number   1
_chemical_formula_structural   RbSr3(U2Se5)4
_chemical_formula_sum   'Rb1 Sr3 U8 Se20'
_cell_volume   834.63562259
_cell_formula_units_Z   1
loop_
 _symmetry_equiv_pos_site_id
 _symmetry_equiv_pos_as_xyz
  1  'x, y, z'
loop_
 _atom_site_type_symbol
 _atom_site_label
 _atom_site_symmetry_multiplicity
 _atom_site_fract_x
 _atom_site_fract_y
 _atom_site_fract_z
 _atom_site_occupancy
  Rb  Rb0  1  0.445550  0.491113  0.829331  1
  Sr  Sr1  1  0.052120  0.492039  0.332383  1
  Sr  Sr2  1  0.550307  0.507369  0.167872  1
  Sr  Sr3  1  0.950749  0.507580  0.672095  1
  U  U4  1  0.020058  0.000387  0.320439  1
  U  U5  1  0.522025  0.000100  0.182495  1
  U  U6  1  0.974212  0.000167  0.680401  1
  U  U7  1  0.479218  0.998792  0.818652  1
  U  U8  1  0.074459  0.751756  0.009728  1
  U  U9  1  0.569448  0.248846  0.491159  1
  U  U10  1  0.930625  0.246841  0.992712  1
  U  U11  1  0.429272  0.752477  0.507896  1
  Se  Se12  1  0.663743  0.955532  0.403083  1
  Se  Se13  1  0.162689  0.045240  0.097798  1
  Se  Se14  1  0.335629  0.046761  0.595624  1
  Se  Se15  1  0.835942  0.954743  0.904754  1
  Se  Se16  1  0.455037  0.789122  0.004322  1
  Se  Se17  1  0.953710  0.216262  0.497744  1
  Se  Se18  1  0.549945  0.210228  0.002567  1
  Se  Se19  1  0.045133  0.785539  0.500942  1
  Se  Se20  1  0.836861  0.775722  0.188169  1
  Se  Se21  1  0.336195  0.222454  0.310896  1
  Se  Se22  1  0.157278  0.216550  0.812044  1
  Se  Se23  1  0.669101  0.782817  0.685003  1
  Se  Se24  1  0.309453  0.766498  0.284008  1
  Se  Se25  1  0.809495  0.234221  0.217967  1
  Se  Se26  1  0.693996  0.226986  0.713694  1
  Se  Se27  1  0.186799  0.775677  0.783040  1
  Se  Se28  1  0.174527  0.458688  0.084756  1
  Se  Se29  1  0.681102  0.541039  0.422698  1
  Se  Se30  1  0.834848  0.539048  0.921882  1
  Se  Se31  1  0.310472  0.459408  0.563844  1
