# generated using pymatgen
data_Tb6DyTh(TcB6)4
_symmetry_space_group_name_H-M   'P 1'
_cell_length_a   3.73140500
_cell_length_b   9.21207507
_cell_length_c   11.61789500
_cell_angle_alpha   90.03937995
_cell_angle_beta   90.00000000
_cell_angle_gamma   90.00000000
_symmetry_Int_Tables_number   1
_chemical_formula_structural   Tb6DyTh(TcB6)4
_chemical_formula_sum   'Tb6 Dy1 Th1 Tc4 B24'
_cell_volume   399.35323050
_cell_formula_units_Z   1
loop_
 _symmetry_equiv_pos_site_id
 _symmetry_equiv_pos_as_xyz
  1  'x, y, z'
loop_
 _atom_site_type_symbol
 _atom_site_label
 _atom_site_symmetry_multiplicity
 _atom_site_fract_x
 _atom_site_fract_y
 _atom_site_fract_z
 _atom_site_occupancy
  Tb  Tb0  1  0.000000  0.677348  0.587165  1
  Tb  Tb1  1  0.000000  0.823634  0.084891  1
  Tb  Tb2  1  0.000000  0.175773  0.914125  1
  Tb  Tb3  1  0.000000  0.941074  0.368490  1
  Tb  Tb4  1  0.000000  0.056942  0.632278  1
  Tb  Tb5  1  0.000000  0.442749  0.129078  1
  Dy  Dy6  1  0.000000  0.558258  0.869544  1
  Th  Th7  1  0.000000  0.322669  0.414241  1
  Tc  Tc8  1  0.000000  0.638266  0.320489  1
  Tc  Tc9  1  0.000000  0.362445  0.680231  1
  Tc  Tc10  1  0.000000  0.138188  0.178525  1
  Tc  Tc11  1  0.000000  0.861565  0.820872  1
  B  B12  1  0.500000  0.555471  0.432153  1
  B  B13  1  0.500000  0.447129  0.569671  1
  B  B14  1  0.500000  0.052995  0.066607  1
  B  B15  1  0.500000  0.946437  0.932690  1
  B  B16  1  0.500000  0.748915  0.417832  1
  B  B17  1  0.500000  0.252118  0.585232  1
  B  B18  1  0.500000  0.247823  0.080684  1
  B  B19  1  0.500000  0.751467  0.918103  1
  B  B20  1  0.500000  0.790930  0.264923  1
  B  B21  1  0.500000  0.209450  0.736105  1
  B  B22  1  0.500000  0.289413  0.232325  1
  B  B23  1  0.500000  0.708854  0.765770  1
  B  B24  1  0.500000  0.631673  0.184940  1
  B  B25  1  0.500000  0.370033  0.814945  1
  B  B26  1  0.500000  0.129299  0.311994  1
  B  B27  1  0.500000  0.869003  0.686653  1
  B  B28  1  0.500000  0.982439  0.210646  1
  B  B29  1  0.500000  0.016698  0.788986  1
  B  B30  1  0.500000  0.485587  0.286722  1
  B  B31  1  0.500000  0.517976  0.713275  1
  B  B32  1  0.500000  0.601710  0.027527  1
  B  B33  1  0.500000  0.399346  0.971098  1
  B  B34  1  0.500000  0.097758  0.472665  1
  B  B35  1  0.500000  0.898568  0.528523  1
