# generated using pymatgen
data_AgBiIrRuO7
_symmetry_space_group_name_H-M   'P 1'
_cell_length_a   7.19196324
_cell_length_b   7.27290817
_cell_length_c   7.27290809
_cell_angle_alpha   60.98089105
_cell_angle_beta   60.36749002
_cell_angle_gamma   60.36748725
_symmetry_Int_Tables_number   1
_chemical_formula_structural   AgBiIrRuO7
_chemical_formula_sum   'Ag2 Bi2 Ir2 Ru2 O14'
_cell_volume   272.45267799
_cell_formula_units_Z   2
loop_
 _symmetry_equiv_pos_site_id
 _symmetry_equiv_pos_as_xyz
  1  'x, y, z'
loop_
 _atom_site_type_symbol
 _atom_site_label
 _atom_site_symmetry_multiplicity
 _atom_site_fract_x
 _atom_site_fract_y
 _atom_site_fract_z
 _atom_site_occupancy
  Ag  Ag0  1  0.625000  0.125000  0.125000  1
  Ag  Ag1  1  0.125000  0.125000  0.125000  1
  Bi  Bi2  1  0.125000  0.125000  0.625000  1
  Bi  Bi3  1  0.125000  0.625000  0.125000  1
  Ir  Ir4  1  0.125000  0.625000  0.625000  1
  Ir  Ir5  1  0.625000  0.625000  0.625000  1
  Ru  Ru6  1  0.625000  0.625000  0.125000  1
  Ru  Ru7  1  0.625000  0.125000  0.625000  1
  O  O8  1  0.259265  0.240735  0.240735  1
  O  O9  1  0.990735  0.009265  0.009265  1
  O  O10  1  0.540506  0.948099  0.558005  1
  O  O11  1  0.296610  0.691995  0.301901  1
  O  O12  1  0.540506  0.558005  0.948099  1
  O  O13  1  0.957952  0.542048  0.542048  1
  O  O14  1  0.568392  0.931608  0.931608  1
  O  O15  1  0.953390  0.948099  0.558005  1
  O  O16  1  0.953390  0.558005  0.948099  1
  O  O17  1  0.681608  0.318392  0.318392  1
  O  O18  1  0.292048  0.707952  0.707952  1
  O  O19  1  0.709494  0.301901  0.691995  1
  O  O20  1  0.296610  0.301901  0.691995  1
  O  O21  1  0.709494  0.691995  0.301901  1
