# generated using pymatgen
data_Tm12Ir3Os
_symmetry_space_group_name_H-M   'P 1'
_cell_length_a   7.20956591
_cell_length_b   8.89636700
_cell_length_c   6.38066342
_cell_angle_alpha   90.00000000
_cell_angle_beta   89.88097251
_cell_angle_gamma   90.00000000
_symmetry_Int_Tables_number   1
_chemical_formula_structural   Tm12Ir3Os
_chemical_formula_sum   'Tm12 Ir3 Os1'
_cell_volume   409.24813250
_cell_formula_units_Z   1
loop_
 _symmetry_equiv_pos_site_id
 _symmetry_equiv_pos_as_xyz
  1  'x, y, z'
loop_
 _atom_site_type_symbol
 _atom_site_label
 _atom_site_symmetry_multiplicity
 _atom_site_fract_x
 _atom_site_fract_y
 _atom_site_fract_z
 _atom_site_occupancy
  Tm  Tm0  1  0.033784  0.250000  0.622074  1
  Tm  Tm1  1  0.965164  0.750000  0.377062  1
  Tm  Tm2  1  0.465082  0.750000  0.125165  1
  Tm  Tm3  1  0.534715  0.250000  0.877748  1
  Tm  Tm4  1  0.175406  0.062239  0.172761  1
  Tm  Tm5  1  0.823486  0.941941  0.829551  1
  Tm  Tm6  1  0.322207  0.939410  0.673746  1
  Tm  Tm7  1  0.823486  0.558059  0.829551  1
  Tm  Tm8  1  0.678814  0.062301  0.323786  1
  Tm  Tm9  1  0.175406  0.437761  0.172761  1
  Tm  Tm10  1  0.678814  0.437699  0.323786  1
  Tm  Tm11  1  0.322207  0.560590  0.673746  1
  Ir  Ir12  1  0.387906  0.250000  0.465071  1
  Ir  Ir13  1  0.612711  0.750000  0.536956  1
  Ir  Ir14  1  0.113881  0.750000  0.964418  1
  Os  Os15  1  0.886929  0.250000  0.031819  1
