# generated using pymatgen
data_Sc8Ta3Ti8Si16W
_symmetry_space_group_name_H-M   'P 1'
_cell_length_a   6.68167145
_cell_length_b   6.82149308
_cell_length_c   12.99576400
_cell_angle_alpha   90.00000000
_cell_angle_beta   90.00000000
_cell_angle_gamma   90.03340037
_symmetry_Int_Tables_number   1
_chemical_formula_structural   Sc8Ta3Ti8Si16W
_chemical_formula_sum   'Sc8 Ta3 Ti8 Si16 W1'
_cell_volume   592.33350957
_cell_formula_units_Z   1
loop_
 _symmetry_equiv_pos_site_id
 _symmetry_equiv_pos_as_xyz
  1  'x, y, z'
loop_
 _atom_site_type_symbol
 _atom_site_label
 _atom_site_symmetry_multiplicity
 _atom_site_fract_x
 _atom_site_fract_y
 _atom_site_fract_z
 _atom_site_occupancy
  Sc  Sc0  1  0.502638  0.674892  0.595293  1
  Sc  Sc1  1  0.002784  0.825863  0.904628  1
  Sc  Sc2  1  0.498035  0.325001  0.096866  1
  Sc  Sc3  1  0.997628  0.173818  0.403288  1
  Sc  Sc4  1  0.498035  0.325001  0.403134  1
  Sc  Sc5  1  0.997628  0.173818  0.096712  1
  Sc  Sc6  1  0.502638  0.674892  0.904707  1
  Sc  Sc7  1  0.002784  0.825863  0.595372  1
  Ta  Ta8  1  0.837899  0.492502  0.750000  1
  Ta  Ta9  1  0.338174  0.007046  0.750000  1
  Ta  Ta10  1  0.162264  0.507655  0.250000  1
  Ti  Ti11  1  0.664673  0.174852  0.625590  1
  Ti  Ti12  1  0.164032  0.325202  0.874247  1
  Ti  Ti13  1  0.335932  0.826312  0.126654  1
  Ti  Ti14  1  0.834422  0.674980  0.373662  1
  Ti  Ti15  1  0.335932  0.826312  0.373346  1
  Ti  Ti16  1  0.834422  0.674980  0.126338  1
  Ti  Ti17  1  0.664673  0.174852  0.874410  1
  Ti  Ti18  1  0.164032  0.325202  0.625753  1
  Si  Si19  1  0.664785  0.966050  0.458447  1
  Si  Si20  1  0.165073  0.533944  0.040342  1
  Si  Si21  1  0.334636  0.034531  0.960643  1
  Si  Si22  1  0.835361  0.466013  0.539508  1
  Si  Si23  1  0.334636  0.034531  0.539357  1
  Si  Si24  1  0.835361  0.466013  0.960492  1
  Si  Si25  1  0.664785  0.966050  0.041553  1
  Si  Si26  1  0.165073  0.533944  0.459658  1
  Si  Si27  1  0.461059  0.383977  0.750000  1
  Si  Si28  1  0.961369  0.115602  0.750000  1
  Si  Si29  1  0.539543  0.617174  0.250000  1
  Si  Si30  1  0.035856  0.885588  0.250000  1
  Si  Si31  1  0.706346  0.864170  0.750000  1
  Si  Si32  1  0.206462  0.635544  0.750000  1
  Si  Si33  1  0.296577  0.134658  0.250000  1
  Si  Si34  1  0.793033  0.361838  0.250000  1
  W  W35  1  0.661421  0.991330  0.250000  1
