# generated using pymatgen
data_Be4VAu
_symmetry_space_group_name_H-M   'P 1'
_cell_length_a   4.41270200
_cell_length_b   4.41270197
_cell_length_c   7.39630000
_cell_angle_alpha   90.00000000
_cell_angle_beta   90.00000000
_cell_angle_gamma   120.00000020
_symmetry_Int_Tables_number   1
_chemical_formula_structural   Be4VAu
_chemical_formula_sum   'Be8 V2 Au2'
_cell_volume   124.72523916
_cell_formula_units_Z   2
loop_
 _symmetry_equiv_pos_site_id
 _symmetry_equiv_pos_as_xyz
  1  'x, y, z'
loop_
 _atom_site_type_symbol
 _atom_site_label
 _atom_site_symmetry_multiplicity
 _atom_site_fract_x
 _atom_site_fract_y
 _atom_site_fract_z
 _atom_site_occupancy
  Be  Be0  1  0.000000  0.000000  0.500000  1
  Be  Be1  1  0.000000  0.000000  0.000000  1
  Be  Be2  1  0.832733  0.167267  0.238674  1
  Be  Be3  1  0.832733  0.665465  0.238674  1
  Be  Be4  1  0.334535  0.167267  0.238674  1
  Be  Be5  1  0.167267  0.832733  0.761326  1
  Be  Be6  1  0.167267  0.334535  0.761326  1
  Be  Be7  1  0.665465  0.832733  0.761326  1
  V  V8  1  0.666667  0.333333  0.952343  1
  V  V9  1  0.333333  0.666667  0.047657  1
  Au  Au10  1  0.333333  0.666667  0.413063  1
  Au  Au11  1  0.666667  0.333333  0.586937  1
