# generated using pymatgen
data_AcPO4
_symmetry_space_group_name_H-M   'P 1'
_cell_length_a   7.33783300
_cell_length_b   6.71500536
_cell_length_c   8.56071360
_cell_angle_alpha   53.50378093
_cell_angle_beta   90.00000000
_cell_angle_gamma   90.00000000
_symmetry_Int_Tables_number   1
_chemical_formula_structural   AcPO4
_chemical_formula_sum   'Ac4 P4 O16'
_cell_volume   339.09710587
_cell_formula_units_Z   4
loop_
 _symmetry_equiv_pos_site_id
 _symmetry_equiv_pos_as_xyz
  1  'x, y, z'
loop_
 _atom_site_type_symbol
 _atom_site_label
 _atom_site_symmetry_multiplicity
 _atom_site_fract_x
 _atom_site_fract_y
 _atom_site_fract_z
 _atom_site_occupancy
  Ac  Ac0  1  0.339185  0.184458  0.216419  1
  Ac  Ac1  1  0.839185  0.815542  0.283581  1
  Ac  Ac2  1  0.660815  0.815542  0.783581  1
  Ac  Ac3  1  0.160815  0.184458  0.716419  1
  P  P4  1  0.337956  0.693938  0.195342  1
  P  P5  1  0.837956  0.306062  0.304658  1
  P  P6  1  0.662044  0.306062  0.804658  1
  P  P7  1  0.162044  0.693938  0.695342  1
  O  O8  1  0.394375  0.671939  0.030730  1
  O  O9  1  0.894375  0.328061  0.469270  1
  O  O10  1  0.605625  0.328061  0.969270  1
  O  O11  1  0.105625  0.671939  0.530730  1
  O  O12  1  0.173924  0.880189  0.120848  1
  O  O13  1  0.673924  0.119811  0.379152  1
  O  O14  1  0.826076  0.119811  0.879152  1
  O  O15  1  0.326076  0.880189  0.620848  1
  O  O16  1  0.213341  0.426896  0.868635  1
  O  O17  1  0.713341  0.573104  0.631365  1
  O  O18  1  0.786659  0.573104  0.131365  1
  O  O19  1  0.286659  0.426896  0.368635  1
  O  O20  1  0.009542  0.803793  0.748855  1
  O  O21  1  0.509542  0.196207  0.751145  1
  O  O22  1  0.990458  0.196207  0.251145  1
  O  O23  1  0.490458  0.803793  0.248855  1
