# generated using pymatgen
data_TmFe2NiP2
_symmetry_space_group_name_H-M   'P 1'
_cell_length_a   3.71483900
_cell_length_b   10.53770700
_cell_length_c   12.06231600
_cell_angle_alpha   90.00000000
_cell_angle_beta   90.00000000
_cell_angle_gamma   90.00000000
_symmetry_Int_Tables_number   1
_chemical_formula_structural   TmFe2NiP2
_chemical_formula_sum   'Tm6 Fe12 Ni6 P12'
_cell_volume   472.19003418
_cell_formula_units_Z   6
loop_
 _symmetry_equiv_pos_site_id
 _symmetry_equiv_pos_as_xyz
  1  'x, y, z'
loop_
 _atom_site_type_symbol
 _atom_site_label
 _atom_site_symmetry_multiplicity
 _atom_site_fract_x
 _atom_site_fract_y
 _atom_site_fract_z
 _atom_site_occupancy
  Tm  Tm0  1  0.000000  0.500000  0.522240  1
  Tm  Tm1  1  0.500000  0.000000  0.477760  1
  Tm  Tm2  1  0.500000  0.819173  0.204384  1
  Tm  Tm3  1  0.500000  0.180827  0.204384  1
  Tm  Tm4  1  0.000000  0.680827  0.795616  1
  Tm  Tm5  1  0.000000  0.319173  0.795616  1
  Fe  Fe6  1  0.500000  0.500000  0.156037  1
  Fe  Fe7  1  0.000000  0.000000  0.843963  1
  Fe  Fe8  1  0.000000  0.500000  0.988219  1
  Fe  Fe9  1  0.500000  0.000000  0.011781  1
  Fe  Fe10  1  0.500000  0.332928  0.996445  1
  Fe  Fe11  1  0.500000  0.667072  0.996445  1
  Fe  Fe12  1  0.000000  0.167072  0.003555  1
  Fe  Fe13  1  0.000000  0.832928  0.003555  1
  Fe  Fe14  1  0.500000  0.297332  0.427708  1
  Fe  Fe15  1  0.500000  0.702668  0.427708  1
  Fe  Fe16  1  0.000000  0.202668  0.572292  1
  Fe  Fe17  1  0.000000  0.797332  0.572292  1
  Ni  Ni18  1  0.500000  0.500000  0.703011  1
  Ni  Ni19  1  0.000000  0.000000  0.296989  1
  Ni  Ni20  1  0.500000  0.878214  0.711358  1
  Ni  Ni21  1  0.500000  0.121786  0.711358  1
  Ni  Ni22  1  0.000000  0.621786  0.288642  1
  Ni  Ni23  1  0.000000  0.378214  0.288642  1
  P  P24  1  0.500000  0.500000  0.886531  1
  P  P25  1  0.000000  0.000000  0.113469  1
  P  P26  1  0.500000  0.500000  0.347794  1
  P  P27  1  0.000000  0.000000  0.652206  1
  P  P28  1  0.500000  0.310608  0.611970  1
  P  P29  1  0.500000  0.689392  0.611970  1
  P  P30  1  0.000000  0.189392  0.388030  1
  P  P31  1  0.000000  0.810608  0.388030  1
  P  P32  1  0.500000  0.843200  0.896696  1
  P  P33  1  0.500000  0.156800  0.896696  1
  P  P34  1  0.000000  0.656800  0.103304  1
  P  P35  1  0.000000  0.343200  0.103304  1
