# generated using pymatgen
data_Dy8Tm2(IrPt)3
_symmetry_space_group_name_H-M   'P 1'
_cell_length_a   11.00303950
_cell_length_b   10.99579400
_cell_length_c   6.31512325
_cell_angle_alpha   90.00000000
_cell_angle_beta   90.04130799
_cell_angle_gamma   90.00000000
_symmetry_Int_Tables_number   1
_chemical_formula_structural   Dy8Tm2(IrPt)3
_chemical_formula_sum   'Dy16 Tm4 Ir6 Pt6'
_cell_volume   764.04860087
_cell_formula_units_Z   2
loop_
 _symmetry_equiv_pos_site_id
 _symmetry_equiv_pos_as_xyz
  1  'x, y, z'
loop_
 _atom_site_type_symbol
 _atom_site_label
 _atom_site_symmetry_multiplicity
 _atom_site_fract_x
 _atom_site_fract_y
 _atom_site_fract_z
 _atom_site_occupancy
  Dy  Dy0  1  0.294690  0.090342  0.373648  1
  Dy  Dy1  1  0.294690  0.909658  0.873648  1
  Dy  Dy2  1  0.705011  0.087081  0.872704  1
  Dy  Dy3  1  0.705011  0.912919  0.372704  1
  Dy  Dy4  1  0.583596  0.791330  0.873333  1
  Dy  Dy5  1  0.583596  0.208670  0.373333  1
  Dy  Dy6  1  0.410846  0.792352  0.378278  1
  Dy  Dy7  1  0.410846  0.207648  0.878278  1
  Dy  Dy8  1  0.210341  0.414359  0.623405  1
  Dy  Dy9  1  0.210341  0.585641  0.123405  1
  Dy  Dy10  1  0.794421  0.412507  0.124925  1
  Dy  Dy11  1  0.794421  0.587493  0.624925  1
  Dy  Dy12  1  0.914029  0.705297  0.126707  1
  Dy  Dy13  1  0.914029  0.294703  0.626707  1
  Dy  Dy14  1  0.091402  0.705072  0.626913  1
  Dy  Dy15  1  0.091402  0.294928  0.126913  1
  Tm  Tm16  1  0.999696  0.999571  0.499859  1
  Tm  Tm17  1  0.999696  0.000429  0.999859  1
  Tm  Tm18  1  0.497225  0.498905  0.000076  1
  Tm  Tm19  1  0.497225  0.501095  0.500076  1
  Ir  Ir20  1  0.347597  0.346619  0.250320  1
  Ir  Ir21  1  0.347597  0.653381  0.750320  1
  Ir  Ir22  1  0.500050  0.999763  0.121321  1
  Ir  Ir23  1  0.500050  0.000237  0.621321  1
  Ir  Ir24  1  0.999781  0.500153  0.878731  1
  Ir  Ir25  1  0.999781  0.499847  0.378731  1
  Pt  Pt26  1  0.846319  0.152262  0.250819  1
  Pt  Pt27  1  0.846319  0.847738  0.750819  1
  Pt  Pt28  1  0.151518  0.152627  0.749256  1
  Pt  Pt29  1  0.151518  0.847373  0.249256  1
  Pt  Pt30  1  0.653480  0.347417  0.749705  1
  Pt  Pt31  1  0.653480  0.652583  0.249705  1
