# generated using pymatgen
data_Er4Co5
_symmetry_space_group_name_H-M   'P 1'
_cell_length_a   5.41612900
_cell_length_b   5.41612892
_cell_length_c   8.61954493
_cell_angle_alpha   72.66813188
_cell_angle_beta   72.66813310
_cell_angle_gamma   43.18014685
_symmetry_Int_Tables_number   1
_chemical_formula_structural   Er4Co5
_chemical_formula_sum   'Er4 Co5'
_cell_volume   163.90315039
_cell_formula_units_Z   1
loop_
 _symmetry_equiv_pos_site_id
 _symmetry_equiv_pos_as_xyz
  1  'x, y, z'
loop_
 _atom_site_type_symbol
 _atom_site_label
 _atom_site_symmetry_multiplicity
 _atom_site_fract_x
 _atom_site_fract_y
 _atom_site_fract_z
 _atom_site_occupancy
  Er  Er0  1  0.738679  0.738679  0.660598  1
  Er  Er1  1  0.261321  0.261321  0.339402  1
  Er  Er2  1  0.389700  0.389700  0.880377  1
  Er  Er3  1  0.610300  0.610300  0.119623  1
  Co  Co4  1  0.500000  0.500000  0.500000  1
  Co  Co5  1  0.033598  0.033598  0.634408  1
  Co  Co6  1  0.966402  0.966402  0.365592  1
  Co  Co7  1  0.087294  0.087294  0.876442  1
  Co  Co8  1  0.912706  0.912706  0.123558  1
