# generated using pymatgen
data_TiRe(IrRh)3
_symmetry_space_group_name_H-M   'P 1'
_cell_length_a   5.50590300
_cell_length_b   5.50590200
_cell_length_c   4.40892200
_cell_angle_alpha   90.00000000
_cell_angle_beta   90.00000000
_cell_angle_gamma   120.00000001
_symmetry_Int_Tables_number   1
_chemical_formula_structural   TiRe(IrRh)3
_chemical_formula_sum   'Ti1 Re1 Ir3 Rh3'
_cell_volume   115.74975491
_cell_formula_units_Z   1
loop_
 _symmetry_equiv_pos_site_id
 _symmetry_equiv_pos_as_xyz
  1  'x, y, z'
loop_
 _atom_site_type_symbol
 _atom_site_label
 _atom_site_symmetry_multiplicity
 _atom_site_fract_x
 _atom_site_fract_y
 _atom_site_fract_z
 _atom_site_occupancy
  Ti  Ti0  1  0.333333  0.666667  0.750000  1
  Re  Re1  1  0.666667  0.333333  0.250000  1
  Ir  Ir2  1  0.832291  0.664581  0.750000  1
  Ir  Ir3  1  0.335419  0.167709  0.750000  1
  Ir  Ir4  1  0.832291  0.167709  0.750000  1
  Rh  Rh5  1  0.165242  0.330484  0.250000  1
  Rh  Rh6  1  0.669516  0.834758  0.250000  1
  Rh  Rh7  1  0.165242  0.834758  0.250000  1
