# generated using pymatgen
data_LiLa2Si2(PPd5)4
_symmetry_space_group_name_H-M   'P 1'
_cell_length_a   8.71254945
_cell_length_b   8.71833493
_cell_length_c   8.71833392
_cell_angle_alpha   59.95610494
_cell_angle_beta   60.02194626
_cell_angle_gamma   60.02194467
_symmetry_Int_Tables_number   1
_chemical_formula_structural   LiLa2Si2(PPd5)4
_chemical_formula_sum   'Li1 La2 Si2 P4 Pd20'
_cell_volume   468.27062007
_cell_formula_units_Z   1
loop_
 _symmetry_equiv_pos_site_id
 _symmetry_equiv_pos_as_xyz
  1  'x, y, z'
loop_
 _atom_site_type_symbol
 _atom_site_label
 _atom_site_symmetry_multiplicity
 _atom_site_fract_x
 _atom_site_fract_y
 _atom_site_fract_z
 _atom_site_occupancy
  Li  Li0  1  0.000000  0.000000  0.000000  1
  La  La1  1  0.250000  0.250000  0.250000  1
  La  La2  1  0.750000  0.750000  0.750000  1
  Si  Si3  1  0.738675  0.261325  0.261325  1
  Si  Si4  1  0.261325  0.738675  0.738675  1
  P  P5  1  0.261280  0.738720  0.261280  1
  P  P6  1  0.738720  0.261280  0.738720  1
  P  P7  1  0.261280  0.261280  0.738720  1
  P  P8  1  0.738720  0.738720  0.261280  1
  Pd  Pd9  1  0.385214  0.386866  0.386866  1
  Pd  Pd10  1  0.614786  0.613134  0.613134  1
  Pd  Pd11  1  0.386866  0.385214  0.841054  1
  Pd  Pd12  1  0.386866  0.841054  0.385214  1
  Pd  Pd13  1  0.613134  0.614786  0.158946  1
  Pd  Pd14  1  0.613134  0.158946  0.614786  1
  Pd  Pd15  1  0.841054  0.386866  0.386866  1
  Pd  Pd16  1  0.158946  0.613134  0.613134  1
  Pd  Pd17  1  0.343289  0.000000  0.000000  1
  Pd  Pd18  1  0.656711  0.000000  0.000000  1
  Pd  Pd19  1  0.000000  0.343289  0.656711  1
  Pd  Pd20  1  0.000000  0.656711  0.343289  1
  Pd  Pd21  1  0.001936  0.345235  0.998064  1
  Pd  Pd22  1  0.654765  0.998064  0.345235  1
  Pd  Pd23  1  0.998064  0.654765  0.001936  1
  Pd  Pd24  1  0.345235  0.001936  0.654765  1
  Pd  Pd25  1  0.001936  0.998064  0.345235  1
  Pd  Pd26  1  0.998064  0.001936  0.654765  1
  Pd  Pd27  1  0.654765  0.345235  0.998064  1
  Pd  Pd28  1  0.345235  0.654765  0.001936  1
