# generated using pymatgen
data_Dy5Ho(SnRh)6
_symmetry_space_group_name_H-M   'P 1'
_cell_length_a   7.48849515
_cell_length_b   7.50307585
_cell_length_c   7.89183700
_cell_angle_alpha   90.00000000
_cell_angle_beta   90.00000000
_cell_angle_gamma   120.06249125
_symmetry_Int_Tables_number   1
_chemical_formula_structural   Dy5Ho(SnRh)6
_chemical_formula_sum   'Dy5 Ho1 Sn6 Rh6'
_cell_volume   383.76804238
_cell_formula_units_Z   1
loop_
 _symmetry_equiv_pos_site_id
 _symmetry_equiv_pos_as_xyz
  1  'x, y, z'
loop_
 _atom_site_type_symbol
 _atom_site_label
 _atom_site_symmetry_multiplicity
 _atom_site_fract_x
 _atom_site_fract_y
 _atom_site_fract_z
 _atom_site_occupancy
  Dy  Dy0  1  0.595741  0.004486  0.750000  1
  Dy  Dy1  1  0.404337  0.408859  0.750000  1
  Dy  Dy2  1  0.000047  0.591599  0.750000  1
  Dy  Dy3  1  0.591711  0.996970  0.250000  1
  Dy  Dy4  1  0.408371  0.404956  0.250000  1
  Ho  Ho5  1  0.999838  0.595105  0.250000  1
  Sn  Sn6  1  0.260599  0.001527  0.998519  1
  Sn  Sn7  1  0.739369  0.741124  0.501361  1
  Sn  Sn8  1  0.000022  0.256910  0.496309  1
  Sn  Sn9  1  0.000022  0.256910  0.003691  1
  Sn  Sn10  1  0.739369  0.741124  0.998639  1
  Sn  Sn11  1  0.260599  0.001527  0.501481  1
  Rh  Rh12  1  0.669977  0.335857  0.002499  1
  Rh  Rh13  1  0.669977  0.335857  0.497501  1
  Rh  Rh14  1  0.329971  0.665722  0.003047  1
  Rh  Rh15  1  0.329971  0.665722  0.496953  1
  Rh  Rh16  1  0.999977  0.000874  0.750000  1
  Rh  Rh17  1  0.000104  0.994872  0.250000  1
