# generated using pymatgen
data_Sc12Si16MoOs7
_symmetry_space_group_name_H-M   'P 1'
_cell_length_a   10.11829661
_cell_length_b   10.13356765
_cell_length_c   13.67395108
_cell_angle_alpha   55.43830222
_cell_angle_beta   55.48095183
_cell_angle_gamma   31.00545985
_symmetry_Int_Tables_number   1
_chemical_formula_structural   Sc12Si16MoOs7
_chemical_formula_sum   'Sc12 Si16 Mo1 Os7'
_cell_volume   583.97140299
_cell_formula_units_Z   1
loop_
 _symmetry_equiv_pos_site_id
 _symmetry_equiv_pos_as_xyz
  1  'x, y, z'
loop_
 _atom_site_type_symbol
 _atom_site_label
 _atom_site_symmetry_multiplicity
 _atom_site_fract_x
 _atom_site_fract_y
 _atom_site_fract_z
 _atom_site_occupancy
  Sc  Sc0  1  0.749809  0.485783  0.050646  1
  Sc  Sc1  1  0.541904  0.299322  0.155459  1
  Sc  Sc2  1  0.516117  0.250231  0.450650  1
  Sc  Sc3  1  0.457813  0.699749  0.846201  1
  Sc  Sc4  1  0.294970  0.037268  0.135593  1
  Sc  Sc5  1  0.963921  0.705326  0.363731  1
  Sc  Sc6  1  0.706014  0.963017  0.864110  1
  Sc  Sc7  1  0.035362  0.295915  0.635265  1
  Sc  Sc8  1  0.250751  0.514019  0.950486  1
  Sc  Sc9  1  0.485344  0.748823  0.548933  1
  Sc  Sc10  1  0.303089  0.533619  0.658694  1
  Sc  Sc11  1  0.698581  0.465574  0.340513  1
  Si  Si12  1  0.891859  0.110419  0.249777  1
  Si  Si13  1  0.109048  0.889614  0.752263  1
  Si  Si14  1  0.357662  0.642379  0.250617  1
  Si  Si15  1  0.641693  0.358497  0.751259  1
  Si  Si16  1  0.997685  0.230885  0.876945  1
  Si  Si17  1  0.768015  0.993302  0.628186  1
  Si  Si18  1  0.002129  0.769849  0.123341  1
  Si  Si19  1  0.231738  0.002136  0.374099  1
  Si  Si20  1  0.596136  0.053403  0.073023  1
  Si  Si21  1  0.946515  0.406471  0.422901  1
  Si  Si22  1  0.405034  0.946311  0.925995  1
  Si  Si23  1  0.052042  0.595277  0.574302  1
  Si  Si24  1  0.395096  0.151640  0.387439  1
  Si  Si25  1  0.848833  0.608111  0.110617  1
  Si  Si26  1  0.605735  0.848714  0.611012  1
  Si  Si27  1  0.149961  0.393561  0.889143  1
  Mo  Mo28  1  0.911336  0.137374  0.576550  1
  Os  Os29  1  0.640430  0.833306  0.282823  1
  Os  Os30  1  0.828174  0.637753  0.786311  1
  Os  Os31  1  0.357783  0.168173  0.715458  1
  Os  Os32  1  0.172107  0.363340  0.211709  1
  Os  Os33  1  0.140577  0.911393  0.078612  1
  Os  Os34  1  0.088537  0.859094  0.423216  1
  Os  Os35  1  0.858198  0.090350  0.924123  1
