# generated using pymatgen
data_Dy2HoSc7(Si5Ir2)4
_symmetry_space_group_name_H-M   'P 1'
_cell_length_a   12.46010500
_cell_length_b   12.46009236
_cell_length_c   4.14177400
_cell_angle_alpha   90.00000000
_cell_angle_beta   90.00000000
_cell_angle_gamma   90.05657343
_symmetry_Int_Tables_number   1
_chemical_formula_structural   Dy2HoSc7(Si5Ir2)4
_chemical_formula_sum   'Dy2 Ho1 Sc7 Si20 Ir8'
_cell_volume   643.02691229
_cell_formula_units_Z   1
loop_
 _symmetry_equiv_pos_site_id
 _symmetry_equiv_pos_as_xyz
  1  'x, y, z'
loop_
 _atom_site_type_symbol
 _atom_site_label
 _atom_site_symmetry_multiplicity
 _atom_site_fract_x
 _atom_site_fract_y
 _atom_site_fract_z
 _atom_site_occupancy
  Dy  Dy0  1  0.115703  0.615655  0.500000  1
  Dy  Dy1  1  0.615379  0.884619  0.500000  1
  Ho  Ho2  1  0.884321  0.384279  0.500000  1
  Sc  Sc3  1  0.384574  0.115426  0.500000  1
  Sc  Sc4  1  0.673256  0.174134  0.500000  1
  Sc  Sc5  1  0.325905  0.826787  0.500000  1
  Sc  Sc6  1  0.174873  0.325082  0.500000  1
  Sc  Sc7  1  0.825864  0.674091  0.500000  1
  Sc  Sc8  1  0.000324  0.000064  0.000000  1
  Sc  Sc9  1  0.499975  0.499665  0.000000  1
  Si  Si10  1  0.566080  0.067743  0.000000  1
  Si  Si11  1  0.432257  0.933921  0.000000  1
  Si  Si12  1  0.067722  0.432170  0.000000  1
  Si  Si13  1  0.932507  0.567387  0.000000  1
  Si  Si14  1  0.201045  0.165133  0.000000  1
  Si  Si15  1  0.800342  0.834553  0.000000  1
  Si  Si16  1  0.165946  0.801191  0.000000  1
  Si  Si17  1  0.698900  0.334054  0.000000  1
  Si  Si18  1  0.834164  0.199790  0.000000  1
  Si  Si19  1  0.300306  0.665838  0.000000  1
  Si  Si20  1  0.665463  0.699625  0.000000  1
  Si  Si21  1  0.334882  0.298923  0.000000  1
  Si  Si22  1  0.007538  0.150592  0.500000  1
  Si  Si23  1  0.992831  0.849498  0.500000  1
  Si  Si24  1  0.152215  0.993882  0.500000  1
  Si  Si25  1  0.506129  0.347786  0.500000  1
  Si  Si26  1  0.849108  0.007865  0.500000  1
  Si  Si27  1  0.492143  0.650892  0.500000  1
  Si  Si28  1  0.650550  0.507167  0.500000  1
  Si  Si29  1  0.349455  0.492460  0.500000  1
  Ir  Ir30  1  0.020555  0.244176  0.000000  1
  Ir  Ir31  1  0.979874  0.755868  0.000000  1
  Ir  Ir32  1  0.246166  0.981012  0.000000  1
  Ir  Ir33  1  0.519019  0.253833  0.000000  1
  Ir  Ir34  1  0.754819  0.020464  0.000000  1
  Ir  Ir35  1  0.479569  0.745185  0.000000  1
  Ir  Ir36  1  0.744273  0.519935  0.000000  1
  Ir  Ir37  1  0.255968  0.479253  0.000000  1
