# generated using pymatgen
data_Ho16Cd4RuPt3
_symmetry_space_group_name_H-M   'P 1'
_cell_length_a   9.65496043
_cell_length_b   9.65496052
_cell_length_c   9.65496036
_cell_angle_alpha   59.57530197
_cell_angle_beta   59.57530185
_cell_angle_gamma   59.57529786
_symmetry_Int_Tables_number   1
_chemical_formula_structural   Ho16Cd4RuPt3
_chemical_formula_sum   'Ho16 Cd4 Ru1 Pt3'
_cell_volume   630.26513388
_cell_formula_units_Z   1
loop_
 _symmetry_equiv_pos_site_id
 _symmetry_equiv_pos_as_xyz
  1  'x, y, z'
loop_
 _atom_site_type_symbol
 _atom_site_label
 _atom_site_symmetry_multiplicity
 _atom_site_fract_x
 _atom_site_fract_y
 _atom_site_fract_z
 _atom_site_occupancy
  Ho  Ho0  1  0.601454  0.601454  0.601454  1
  Ho  Ho1  1  0.600008  0.600008  0.197229  1
  Ho  Ho2  1  0.600008  0.197229  0.600008  1
  Ho  Ho3  1  0.197229  0.600008  0.600008  1
  Ho  Ho4  1  0.064424  0.438954  0.438954  1
  Ho  Ho5  1  0.439169  0.060048  0.060048  1
  Ho  Ho6  1  0.438954  0.064424  0.438954  1
  Ho  Ho7  1  0.060048  0.439169  0.060048  1
  Ho  Ho8  1  0.438954  0.438954  0.064424  1
  Ho  Ho9  1  0.060048  0.060048  0.439169  1
  Ho  Ho10  1  0.185498  0.815704  0.815704  1
  Ho  Ho11  1  0.810891  0.186444  0.186444  1
  Ho  Ho12  1  0.815704  0.185498  0.815704  1
  Ho  Ho13  1  0.186444  0.810891  0.186444  1
  Ho  Ho14  1  0.815704  0.815704  0.185498  1
  Ho  Ho15  1  0.186444  0.186444  0.810891  1
  Cd  Cd16  1  0.830753  0.830753  0.830753  1
  Cd  Cd17  1  0.831326  0.831326  0.504111  1
  Cd  Cd18  1  0.831326  0.504111  0.831326  1
  Cd  Cd19  1  0.504111  0.831326  0.831326  1
  Ru  Ru20  1  0.393205  0.393205  0.393205  1
  Pt  Pt21  1  0.393282  0.393282  0.821730  1
  Pt  Pt22  1  0.393282  0.821730  0.393282  1
  Pt  Pt23  1  0.821730  0.393282  0.393282  1
