# generated using pymatgen
data_K5SrVAs4
_symmetry_space_group_name_H-M   'P 1'
_cell_length_a   10.31754469
_cell_length_b   10.31754604
_cell_length_c   7.94550347
_cell_angle_alpha   88.60272177
_cell_angle_beta   88.60273048
_cell_angle_gamma   120.90801241
_symmetry_Int_Tables_number   1
_chemical_formula_structural   K5SrVAs4
_chemical_formula_sum   'K10 Sr2 V2 As8'
_cell_volume   724.81363257
_cell_formula_units_Z   2
loop_
 _symmetry_equiv_pos_site_id
 _symmetry_equiv_pos_as_xyz
  1  'x, y, z'
loop_
 _atom_site_type_symbol
 _atom_site_label
 _atom_site_symmetry_multiplicity
 _atom_site_fract_x
 _atom_site_fract_y
 _atom_site_fract_z
 _atom_site_occupancy
  K  K0  1  0.467649  0.525790  0.606789  1
  K  K1  1  0.058865  0.527783  0.608955  1
  K  K2  1  0.525790  0.467649  0.106789  1
  K  K3  1  0.527783  0.058865  0.108955  1
  K  K4  1  0.865704  0.143447  0.788129  1
  K  K5  1  0.291842  0.152198  0.820636  1
  K  K6  1  0.855111  0.713377  0.769059  1
  K  K7  1  0.143447  0.865704  0.288129  1
  K  K8  1  0.713377  0.855111  0.269059  1
  K  K9  1  0.152198  0.291842  0.320636  1
  Sr  Sr10  1  0.467773  0.941617  0.606859  1
  Sr  Sr11  1  0.941617  0.467773  0.106859  1
  V  V12  1  0.669327  0.330254  0.500056  1
  V  V13  1  0.330254  0.669327  0.000056  1
  As  As14  1  0.681224  0.333512  0.801706  1
  As  As15  1  0.333512  0.681224  0.301706  1
  As  As16  1  0.198971  0.792017  0.897242  1
  As  As17  1  0.583505  0.798307  0.881045  1
  As  As18  1  0.193414  0.408313  0.926724  1
  As  As19  1  0.792017  0.198971  0.397242  1
  As  As20  1  0.408313  0.193414  0.426724  1
  As  As21  1  0.798307  0.583505  0.381045  1
