# generated using pymatgen
data_Tb2ErSc2(GaO4)3
_symmetry_space_group_name_H-M   'P 1'
_cell_length_a   10.78799714
_cell_length_b   10.78761310
_cell_length_c   10.78835300
_cell_angle_alpha   109.47566529
_cell_angle_beta   109.47036412
_cell_angle_gamma   109.46758307
_symmetry_Int_Tables_number   1
_chemical_formula_structural   Tb2ErSc2(GaO4)3
_chemical_formula_sum   'Tb8 Er4 Sc8 Ga12 O48'
_cell_volume   966.49520892
_cell_formula_units_Z   4
loop_
 _symmetry_equiv_pos_site_id
 _symmetry_equiv_pos_as_xyz
  1  'x, y, z'
loop_
 _atom_site_type_symbol
 _atom_site_label
 _atom_site_symmetry_multiplicity
 _atom_site_fract_x
 _atom_site_fract_y
 _atom_site_fract_z
 _atom_site_occupancy
  Tb  Tb0  1  0.374998  0.124948  0.250028  1
  Tb  Tb1  1  0.125072  0.375052  0.750049  1
  Tb  Tb2  1  0.374994  0.750054  0.124970  1
  Tb  Tb3  1  0.125081  0.250024  0.375031  1
  Tb  Tb4  1  0.249947  0.374970  0.124968  1
  Tb  Tb5  1  0.749897  0.124954  0.374954  1
  Tb  Tb6  1  0.874955  0.750082  0.625336  1
  Tb  Tb7  1  0.874954  0.624875  0.249620  1
  Er  Er8  1  0.624776  0.875081  0.750084  1
  Er  Er9  1  0.749844  0.624968  0.874980  1
  Er  Er10  1  0.250720  0.875316  0.625299  1
  Er  Er11  1  0.624825  0.249652  0.874744  1
  Sc  Sc12  1  0.499938  0.999925  0.998997  1
  Sc  Sc13  1  0.999149  0.499855  0.999528  1
  Sc  Sc14  1  0.000541  0.999893  0.500201  1
  Sc  Sc15  1  0.500350  0.499694  0.999421  1
  Sc  Sc16  1  0.500362  0.500648  0.500924  1
  Sc  Sc17  1  0.000532  0.500646  0.500351  1
  Sc  Sc18  1  0.499952  0.000035  0.500951  1
  Sc  Sc19  1  0.999160  0.999303  0.999611  1
  Ga  Ga20  1  0.124751  0.750029  0.874797  1
  Ga  Ga21  1  0.874120  0.249439  0.123990  1
  Ga  Ga22  1  0.624933  0.374820  0.249476  1
  Ga  Ga23  1  0.749845  0.874521  0.124030  1
  Ga  Ga24  1  0.874117  0.124682  0.750132  1
  Ga  Ga25  1  0.250608  0.625902  0.376010  1
  Ga  Ga26  1  0.749835  0.375326  0.625827  1
  Ga  Ga27  1  0.250602  0.124690  0.874578  1
  Ga  Ga28  1  0.124741  0.874718  0.249948  1
  Ga  Ga29  1  0.375787  0.249948  0.625767  1
  Ga  Ga30  1  0.624929  0.750120  0.375462  1
  Ga  Ga31  1  0.375768  0.625823  0.750011  1
  O  O32  1  0.469081  0.374691  0.286715  1
  O  O33  1  0.317618  0.905580  0.031000  1
  O  O34  1  0.594519  0.912021  0.125373  1
  O  O35  1  0.587863  0.182134  0.213291  1
  O  O36  1  0.125495  0.031179  0.213633  1
  O  O37  1  0.182828  0.213853  0.588221  1
  O  O38  1  0.182831  0.468972  0.594606  1
  O  O39  1  0.213347  0.588088  0.182747  1
  O  O40  1  0.374504  0.588089  0.905294  1
  O  O41  1  0.911940  0.286518  0.317241  1
  O  O42  1  0.286369  0.317449  0.911857  1
  O  O43  1  0.213358  0.125271  0.030626  1
  O  O44  1  0.469071  0.594404  0.182349  1
  O  O45  1  0.905441  0.374625  0.588246  1
  O  O46  1  0.030974  0.213495  0.125536  1
  O  O47  1  0.594512  0.182498  0.469127  1
  O  O48  1  0.587847  0.905724  0.374568  1
  O  O49  1  0.030992  0.317495  0.905449  1
  O  O50  1  0.911915  0.125416  0.594679  1
  O  O51  1  0.625355  0.410297  0.092847  1
  O  O52  1  0.125509  0.594328  0.911878  1
  O  O53  1  0.286374  0.468948  0.374517  1
  O  O54  1  0.905444  0.030831  0.317211  1
  O  O55  1  0.317601  0.912025  0.286612  1
  O  O56  1  0.533430  0.628009  0.715353  1
  O  O57  1  0.681663  0.094280  0.966467  1
  O  O58  1  0.405616  0.087131  0.872053  1
  O  O59  1  0.412999  0.818282  0.784837  1
  O  O60  1  0.871883  0.967666  0.785926  1
  O  O61  1  0.817387  0.786087  0.411734  1
  O  O62  1  0.817396  0.531320  0.405654  1
  O  O63  1  0.784718  0.412528  0.818257  1
  O  O64  1  0.681671  0.087387  0.715192  1
  O  O65  1  0.095755  0.967614  0.681782  1
  O  O66  1  0.713978  0.532379  0.628267  1
  O  O67  1  0.625356  0.715056  0.532509  1
  O  O68  1  0.871885  0.404211  0.085951  1
  O  O69  1  0.089654  0.874427  0.406838  1
  O  O70  1  0.967550  0.682577  0.093270  1
  O  O71  1  0.413005  0.094715  0.628153  1
  O  O72  1  0.405611  0.818474  0.533570  1
  O  O73  1  0.967565  0.784989  0.874284  1
  O  O74  1  0.095752  0.628125  0.413947  1
  O  O75  1  0.533444  0.405417  0.818095  1
  O  O76  1  0.784709  0.872189  0.966448  1
  O  O77  1  0.713976  0.681589  0.085722  1
  O  O78  1  0.089634  0.715215  0.682806  1
  O  O79  1  0.374485  0.286413  0.469192  1
