# generated using pymatgen
data_Er4TaVOs6
_symmetry_space_group_name_H-M   'P 1'
_cell_length_a   5.23253596
_cell_length_b   5.23253686
_cell_length_c   8.93060200
_cell_angle_alpha   90.00000000
_cell_angle_beta   90.00000000
_cell_angle_gamma   116.44796398
_symmetry_Int_Tables_number   1
_chemical_formula_structural   Er4TaVOs6
_chemical_formula_sum   'Er4 Ta1 V1 Os6'
_cell_volume   218.92374396
_cell_formula_units_Z   1
loop_
 _symmetry_equiv_pos_site_id
 _symmetry_equiv_pos_as_xyz
  1  'x, y, z'
loop_
 _atom_site_type_symbol
 _atom_site_label
 _atom_site_symmetry_multiplicity
 _atom_site_fract_x
 _atom_site_fract_y
 _atom_site_fract_z
 _atom_site_occupancy
  Er  Er0  1  0.329418  0.670582  0.438946  1
  Er  Er1  1  0.669056  0.330944  0.567134  1
  Er  Er2  1  0.669056  0.330944  0.932866  1
  Er  Er3  1  0.329418  0.670582  0.061054  1
  Ta  Ta4  1  0.841931  0.158069  0.250000  1
  V  V5  1  0.159032  0.840968  0.750000  1
  Os  Os6  1  0.001940  0.998060  0.505924  1
  Os  Os7  1  0.001940  0.998060  0.994076  1
  Os  Os8  1  0.824774  0.649591  0.250000  1
  Os  Os9  1  0.350409  0.175226  0.250000  1
  Os  Os10  1  0.175672  0.352646  0.750000  1
  Os  Os11  1  0.647354  0.824328  0.750000  1
