# generated using pymatgen
data_Hf3BeTc2GeAsRh
_symmetry_space_group_name_H-M   'P 1'
_cell_length_a   6.89966100
_cell_length_b   6.88389757
_cell_length_c   3.45453700
_cell_angle_alpha   90.00000000
_cell_angle_beta   90.00000000
_cell_angle_gamma   119.92444219
_symmetry_Int_Tables_number   1
_chemical_formula_structural   Hf3BeTc2GeAsRh
_chemical_formula_sum   'Hf3 Be1 Tc2 Ge1 As1 Rh1'
_cell_volume   142.20431967
_cell_formula_units_Z   1
loop_
 _symmetry_equiv_pos_site_id
 _symmetry_equiv_pos_as_xyz
  1  'x, y, z'
loop_
 _atom_site_type_symbol
 _atom_site_label
 _atom_site_symmetry_multiplicity
 _atom_site_fract_x
 _atom_site_fract_y
 _atom_site_fract_z
 _atom_site_occupancy
  Hf  Hf0  1  0.396965  0.389083  0.500000  1
  Hf  Hf1  1  0.603644  0.992295  0.500000  1
  Hf  Hf2  1  0.000270  0.618809  0.500000  1
  Be  Be3  1  0.999591  0.004986  0.500000  1
  Tc  Tc4  1  0.757220  0.757247  0.000000  1
  Tc  Tc5  1  0.243560  0.002280  0.000000  1
  Ge  Ge6  1  0.329181  0.661632  0.000000  1
  As  As7  1  0.670130  0.332234  0.000000  1
  Rh  Rh8  1  0.999440  0.241433  0.000000  1
