# generated using pymatgen
data_ErSc9(Ga2Bi)2
_symmetry_space_group_name_H-M   'P 1'
_cell_length_a   8.30433859
_cell_length_b   8.29778627
_cell_length_c   6.10365600
_cell_angle_alpha   90.00000000
_cell_angle_beta   90.00000000
_cell_angle_gamma   120.19873257
_symmetry_Int_Tables_number   1
_chemical_formula_structural   ErSc9(Ga2Bi)2
_chemical_formula_sum   'Er1 Sc9 Ga4 Bi2'
_cell_volume   363.50867887
_cell_formula_units_Z   1
loop_
 _symmetry_equiv_pos_site_id
 _symmetry_equiv_pos_as_xyz
  1  'x, y, z'
loop_
 _atom_site_type_symbol
 _atom_site_label
 _atom_site_symmetry_multiplicity
 _atom_site_fract_x
 _atom_site_fract_y
 _atom_site_fract_z
 _atom_site_occupancy
  Er  Er0  1  0.227911  0.227397  0.750000  1
  Sc  Sc1  1  0.308452  0.655176  0.000045  1
  Sc  Sc2  1  0.673868  0.337057  0.499751  1
  Sc  Sc3  1  0.673868  0.337057  0.000249  1
  Sc  Sc4  1  0.308452  0.655176  0.499955  1
  Sc  Sc5  1  0.229645  0.998985  0.250000  1
  Sc  Sc6  1  0.016318  0.763604  0.750000  1
  Sc  Sc7  1  0.016850  0.251597  0.250000  1
  Sc  Sc8  1  0.770667  0.751742  0.250000  1
  Sc  Sc9  1  0.765906  0.018027  0.750000  1
  Ga  Ga10  1  0.993928  0.400600  0.750000  1
  Ga  Ga11  1  0.996836  0.599289  0.250000  1
  Ga  Ga12  1  0.400524  0.396409  0.250000  1
  Ga  Ga13  1  0.403544  0.000006  0.750000  1
  Bi  Bi14  1  0.605209  0.993293  0.250000  1
  Bi  Bi15  1  0.608024  0.614583  0.750000  1
