# generated using pymatgen
data_Li3La2Pr2ZnPd4
_symmetry_space_group_name_H-M   'P 1'
_cell_length_a   7.36100298
_cell_length_b   4.19177700
_cell_length_c   8.66408642
_cell_angle_alpha   90.00000000
_cell_angle_beta   89.52623244
_cell_angle_gamma   90.00000000
_symmetry_Int_Tables_number   1
_chemical_formula_structural   Li3La2Pr2ZnPd4
_chemical_formula_sum   'Li3 La2 Pr2 Zn1 Pd4'
_cell_volume   267.32716467
_cell_formula_units_Z   1
loop_
 _symmetry_equiv_pos_site_id
 _symmetry_equiv_pos_as_xyz
  1  'x, y, z'
loop_
 _atom_site_type_symbol
 _atom_site_label
 _atom_site_symmetry_multiplicity
 _atom_site_fract_x
 _atom_site_fract_y
 _atom_site_fract_z
 _atom_site_occupancy
  Li  Li0  1  0.631103  0.250000  0.559319  1
  Li  Li1  1  0.122959  0.250000  0.943872  1
  Li  Li2  1  0.371650  0.750000  0.444275  1
  La  La3  1  0.041683  0.250000  0.308808  1
  La  La4  1  0.551472  0.250000  0.183726  1
  Pr  Pr5  1  0.953359  0.750000  0.693869  1
  Pr  Pr6  1  0.455328  0.750000  0.811210  1
  Zn  Zn7  1  0.870143  0.750000  0.057501  1
  Pd  Pd8  1  0.247960  0.250000  0.615270  1
  Pd  Pd9  1  0.752829  0.250000  0.888447  1
  Pd  Pd10  1  0.753860  0.750000  0.379719  1
  Pd  Pd11  1  0.247654  0.750000  0.113984  1
