# generated using pymatgen
data_Yb4Ag5Ge3
_symmetry_space_group_name_H-M   'P 1'
_cell_length_a   5.79352814
_cell_length_b   5.79352737
_cell_length_c   10.75940212
_cell_angle_alpha   84.69501499
_cell_angle_beta   84.69501621
_cell_angle_gamma   46.97939872
_symmetry_Int_Tables_number   1
_chemical_formula_structural   Yb4Ag5Ge3
_chemical_formula_sum   'Yb4 Ag5 Ge3'
_cell_volume   262.68663599
_cell_formula_units_Z   1
loop_
 _symmetry_equiv_pos_site_id
 _symmetry_equiv_pos_as_xyz
  1  'x, y, z'
loop_
 _atom_site_type_symbol
 _atom_site_label
 _atom_site_symmetry_multiplicity
 _atom_site_fract_x
 _atom_site_fract_y
 _atom_site_fract_z
 _atom_site_occupancy
  Yb  Yb0  1  0.684172  0.684172  0.682277  1
  Yb  Yb1  1  0.187519  0.187519  0.186994  1
  Yb  Yb2  1  0.396423  0.396423  0.900057  1
  Yb  Yb3  1  0.895891  0.895891  0.396383  1
  Ag  Ag4  1  0.680021  0.680021  0.990504  1
  Ag  Ag5  1  0.385988  0.385988  0.604303  1
  Ag  Ag6  1  0.907022  0.907022  0.104563  1
  Ag  Ag7  1  0.098650  0.098650  0.879322  1
  Ag  Ag8  1  0.604192  0.604192  0.391119  1
  Ge  Ge9  1  0.175551  0.175551  0.486550  1
  Ge  Ge10  1  0.984814  0.984814  0.669876  1
  Ge  Ge11  1  0.480956  0.480956  0.189251  1
