# generated using pymatgen
data_Lu3ZrZn2Ir3
_symmetry_space_group_name_H-M   'P 1'
_cell_length_a   7.01742700
_cell_length_b   7.07849545
_cell_length_c   4.09441300
_cell_angle_alpha   90.00000000
_cell_angle_beta   90.00000000
_cell_angle_gamma   119.71501390
_symmetry_Int_Tables_number   1
_chemical_formula_structural   Lu3ZrZn2Ir3
_chemical_formula_sum   'Lu3 Zr1 Zn2 Ir3'
_cell_volume   176.63678752
_cell_formula_units_Z   1
loop_
 _symmetry_equiv_pos_site_id
 _symmetry_equiv_pos_as_xyz
  1  'x, y, z'
loop_
 _atom_site_type_symbol
 _atom_site_label
 _atom_site_symmetry_multiplicity
 _atom_site_fract_x
 _atom_site_fract_y
 _atom_site_fract_z
 _atom_site_occupancy
  Lu  Lu0  1  0.389551  0.000000  0.499999  1
  Lu  Lu1  1  0.012029  0.429807  0.499999  1
  Lu  Lu2  1  0.582222  0.570192  0.499999  1
  Zr  Zr3  1  0.759695  0.000000  0.000000  1
  Zn  Zn4  1  0.251370  0.250682  0.000000  1
  Zn  Zn5  1  0.000688  0.749319  0.000000  1
  Ir  Ir6  1  0.670077  0.329028  0.000000  1
  Ir  Ir7  1  0.341050  0.670972  0.000000  1
  Ir  Ir8  1  0.993317  0.000000  0.499999  1
