# generated using pymatgen
data_Ho4Tm16Co4Bi5Sb3
_symmetry_space_group_name_H-M   'P 1'
_cell_length_a   7.84692474
_cell_length_b   8.80309788
_cell_length_c   12.21229363
_cell_angle_alpha   89.98866234
_cell_angle_beta   90.05818995
_cell_angle_gamma   90.04971844
_symmetry_Int_Tables_number   1
_chemical_formula_structural   Ho4Tm16Co4Bi5Sb3
_chemical_formula_sum   'Ho4 Tm16 Co4 Bi5 Sb3'
_cell_volume   843.59084945
_cell_formula_units_Z   1
loop_
 _symmetry_equiv_pos_site_id
 _symmetry_equiv_pos_as_xyz
  1  'x, y, z'
loop_
 _atom_site_type_symbol
 _atom_site_label
 _atom_site_symmetry_multiplicity
 _atom_site_fract_x
 _atom_site_fract_y
 _atom_site_fract_z
 _atom_site_occupancy
  Ho  Ho0  1  0.619996  0.744895  0.309802  1
  Ho  Ho1  1  0.119868  0.255247  0.190089  1
  Ho  Ho2  1  0.383727  0.247098  0.689607  1
  Ho  Ho3  1  0.878270  0.752534  0.811593  1
  Tm  Tm4  1  0.155167  0.743869  0.201238  1
  Tm  Tm5  1  0.655037  0.256299  0.297806  1
  Tm  Tm6  1  0.843180  0.246392  0.800135  1
  Tm  Tm7  1  0.347138  0.753132  0.701498  1
  Tm  Tm8  1  0.446790  0.750034  0.997846  1
  Tm  Tm9  1  0.944723  0.252364  0.500654  1
  Tm  Tm10  1  0.552974  0.249469  0.002677  1
  Tm  Tm11  1  0.054127  0.747793  0.496182  1
  Tm  Tm12  1  0.825945  0.962550  0.062710  1
  Tm  Tm13  1  0.326408  0.037785  0.435691  1
  Tm  Tm14  1  0.173704  0.462643  0.937615  1
  Tm  Tm15  1  0.673942  0.537662  0.562653  1
  Tm  Tm16  1  0.176589  0.037646  0.936366  1
  Tm  Tm17  1  0.673717  0.962710  0.565509  1
  Tm  Tm18  1  0.824182  0.537360  0.066380  1
  Tm  Tm19  1  0.324693  0.462097  0.433416  1
  Co  Co20  1  0.433577  0.749136  0.491669  1
  Co  Co21  1  0.933702  0.250735  0.008709  1
  Co  Co22  1  0.567010  0.250142  0.507235  1
  Co  Co23  1  0.066039  0.750286  0.992435  1
  Bi  Bi24  1  0.930146  0.991368  0.326232  1
  Bi  Bi25  1  0.430456  0.008365  0.173660  1
  Bi  Bi26  1  0.069409  0.491103  0.673792  1
  Bi  Bi27  1  0.569146  0.508592  0.827211  1
  Bi  Bi28  1  0.068879  0.008965  0.671595  1
  Sb  Sb29  1  0.567925  0.991427  0.829289  1
  Sb  Sb30  1  0.931607  0.508611  0.328245  1
  Sb  Sb31  1  0.431924  0.491693  0.170459  1
