# generated using pymatgen
data_Hf2Zr2Cu4Si3Ge
_symmetry_space_group_name_H-M   'P 1'
_cell_length_a   3.92605000
_cell_length_b   6.50194704
_cell_length_c   7.34456700
_cell_angle_alpha   90.05483997
_cell_angle_beta   90.00000000
_cell_angle_gamma   90.00000000
_symmetry_Int_Tables_number   1
_chemical_formula_structural   Hf2Zr2Cu4Si3Ge
_chemical_formula_sum   'Hf2 Zr2 Cu4 Si3 Ge1'
_cell_volume   187.48444954
_cell_formula_units_Z   1
loop_
 _symmetry_equiv_pos_site_id
 _symmetry_equiv_pos_as_xyz
  1  'x, y, z'
loop_
 _atom_site_type_symbol
 _atom_site_label
 _atom_site_symmetry_multiplicity
 _atom_site_fract_x
 _atom_site_fract_y
 _atom_site_fract_z
 _atom_site_occupancy
  Hf  Hf0  1  0.250000  0.511411  0.689793  1
  Hf  Hf1  1  0.250000  0.007970  0.806108  1
  Zr  Zr2  1  0.750000  0.490591  0.310222  1
  Zr  Zr3  1  0.750000  0.985671  0.193165  1
  Cu  Cu4  1  0.750000  0.831958  0.578845  1
  Cu  Cu5  1  0.250000  0.163961  0.431643  1
  Cu  Cu6  1  0.750000  0.334067  0.914362  1
  Cu  Cu7  1  0.250000  0.674901  0.074400  1
  Si  Si8  1  0.750000  0.720219  0.896799  1
  Si  Si9  1  0.250000  0.779669  0.400771  1
  Si  Si10  1  0.750000  0.220858  0.602743  1
  Ge  Ge11  1  0.250000  0.278725  0.101149  1
