# generated using pymatgen
data_Ac3U5Te12
_symmetry_space_group_name_H-M   'P 1'
_cell_length_a   4.44234471
_cell_length_b   12.27295788
_cell_length_c   12.37569009
_cell_angle_alpha   89.80835928
_cell_angle_beta   90.03073218
_cell_angle_gamma   89.94496405
_symmetry_Int_Tables_number   1
_chemical_formula_structural   Ac3U5Te12
_chemical_formula_sum   'Ac3 U5 Te12'
_cell_volume   674.72722021
_cell_formula_units_Z   1
loop_
 _symmetry_equiv_pos_site_id
 _symmetry_equiv_pos_as_xyz
  1  'x, y, z'
loop_
 _atom_site_type_symbol
 _atom_site_label
 _atom_site_symmetry_multiplicity
 _atom_site_fract_x
 _atom_site_fract_y
 _atom_site_fract_z
 _atom_site_occupancy
  Ac  Ac0  1  0.249829  0.309543  0.018473  1
  Ac  Ac1  1  0.249826  0.515456  0.690722  1
  Ac  Ac2  1  0.249734  0.181237  0.513736  1
  U  U3  1  0.748773  0.988884  0.805394  1
  U  U4  1  0.249425  0.982318  0.190961  1
  U  U5  1  0.749880  0.814668  0.485928  1
  U  U6  1  0.750142  0.509441  0.305317  1
  U  U7  1  0.749985  0.690290  0.992098  1
  Te  Te8  1  0.249686  0.564242  0.122771  1
  Te  Te9  1  0.250452  0.934013  0.621524  1
  Te  Te10  1  0.750760  0.718339  0.731728  1
  Te  Te11  1  0.250253  0.638664  0.442628  1
  Te  Te12  1  0.250605  0.180149  0.780967  1
  Te  Te13  1  0.250227  0.868545  0.953587  1
  Te  Te14  1  0.749558  0.795541  0.226756  1
  Te  Te15  1  0.750483  0.046307  0.367165  1
  Te  Te16  1  0.749902  0.382153  0.538579  1
  Te  Te17  1  0.750750  0.108302  0.049324  1
  Te  Te18  1  0.749674  0.454119  0.881299  1
  Te  Te19  1  0.250057  0.317788  0.281044  1
