# generated using pymatgen
data_Y3Al3SiPdPt
_symmetry_space_group_name_H-M   'P 1'
_cell_length_a   7.03312400
_cell_length_b   7.03312445
_cell_length_c   4.17880200
_cell_angle_alpha   90.00000000
_cell_angle_beta   90.00000000
_cell_angle_gamma   120.00000727
_symmetry_Int_Tables_number   1
_chemical_formula_structural   Y3Al3SiPdPt
_chemical_formula_sum   'Y3 Al3 Si1 Pd1 Pt1'
_cell_volume   179.01069175
_cell_formula_units_Z   1
loop_
 _symmetry_equiv_pos_site_id
 _symmetry_equiv_pos_as_xyz
  1  'x, y, z'
loop_
 _atom_site_type_symbol
 _atom_site_label
 _atom_site_symmetry_multiplicity
 _atom_site_fract_x
 _atom_site_fract_y
 _atom_site_fract_z
 _atom_site_occupancy
  Y  Y0  1  0.417253  0.419593  0.500000  1
  Y  Y1  1  0.580407  0.997661  0.500000  1
  Y  Y2  1  0.002339  0.582747  0.500000  1
  Al  Al3  1  0.009403  0.244784  0.000000  1
  Al  Al4  1  0.755216  0.764618  0.000000  1
  Al  Al5  1  0.235382  0.990597  0.000000  1
  Si  Si6  1  0.666667  0.333333  0.000000  1
  Pd  Pd7  1  0.000000  0.000000  0.500000  1
  Pt  Pt8  1  0.333333  0.666667  0.000000  1
