# generated using pymatgen
data_CsYbWF7
_symmetry_space_group_name_H-M   'P 1'
_cell_length_a   6.66189000
_cell_length_b   6.66188931
_cell_length_c   8.58976500
_cell_angle_alpha   90.00000000
_cell_angle_beta   90.00000000
_cell_angle_gamma   117.88593251
_symmetry_Int_Tables_number   1
_chemical_formula_structural   CsYbWF7
_chemical_formula_sum   'Cs2 Yb2 W2 F14'
_cell_volume   336.95328990
_cell_formula_units_Z   2
loop_
 _symmetry_equiv_pos_site_id
 _symmetry_equiv_pos_as_xyz
  1  'x, y, z'
loop_
 _atom_site_type_symbol
 _atom_site_label
 _atom_site_symmetry_multiplicity
 _atom_site_fract_x
 _atom_site_fract_y
 _atom_site_fract_z
 _atom_site_occupancy
  Cs  Cs0  1  0.000000  0.000000  0.000000  1
  Cs  Cs1  1  0.000000  0.000000  0.500000  1
  Yb  Yb2  1  0.310616  0.689384  0.750000  1
  Yb  Yb3  1  0.689384  0.310616  0.250000  1
  W  W4  1  0.693070  0.306930  0.750000  1
  W  W5  1  0.306930  0.693070  0.250000  1
  F  F6  1  0.353246  0.061759  0.750000  1
  F  F7  1  0.646754  0.938241  0.250000  1
  F  F8  1  0.938241  0.646754  0.750000  1
  F  F9  1  0.061759  0.353246  0.250000  1
  F  F10  1  0.512558  0.487442  0.750000  1
  F  F11  1  0.487442  0.512558  0.250000  1
  F  F12  1  0.697470  0.302530  0.991429  1
  F  F13  1  0.302530  0.697470  0.008571  1
  F  F14  1  0.302530  0.697470  0.491429  1
  F  F15  1  0.697470  0.302530  0.508571  1
  F  F16  1  0.667347  0.981771  0.750000  1
  F  F17  1  0.332653  0.018229  0.250000  1
  F  F18  1  0.018229  0.332653  0.750000  1
  F  F19  1  0.981771  0.667347  0.250000  1
