# generated using pymatgen
data_Nd12AlGa3(GeRh2)4
_symmetry_space_group_name_H-M   'P 1'
_cell_length_a   5.77038800
_cell_length_b   8.16185890
_cell_length_c   13.50947948
_cell_angle_alpha   90.05369194
_cell_angle_beta   90.00000000
_cell_angle_gamma   90.00000000
_symmetry_Int_Tables_number   1
_chemical_formula_structural   Nd12AlGa3(GeRh2)4
_chemical_formula_sum   'Nd12 Al1 Ga3 Ge4 Rh8'
_cell_volume   636.25692723
_cell_formula_units_Z   1
loop_
 _symmetry_equiv_pos_site_id
 _symmetry_equiv_pos_as_xyz
  1  'x, y, z'
loop_
 _atom_site_type_symbol
 _atom_site_label
 _atom_site_symmetry_multiplicity
 _atom_site_fract_x
 _atom_site_fract_y
 _atom_site_fract_z
 _atom_site_occupancy
  Nd  Nd0  1  0.637881  0.251574  0.250949  1
  Nd  Nd1  1  0.362250  0.748176  0.749233  1
  Nd  Nd2  1  0.362250  0.751824  0.250767  1
  Nd  Nd3  1  0.637881  0.248426  0.749051  1
  Nd  Nd4  1  0.148917  0.396956  0.100896  1
  Nd  Nd5  1  0.851037  0.605235  0.899851  1
  Nd  Nd6  1  0.849805  0.604395  0.600056  1
  Nd  Nd7  1  0.849805  0.895605  0.399944  1
  Nd  Nd8  1  0.150313  0.395680  0.400112  1
  Nd  Nd9  1  0.150313  0.104320  0.599888  1
  Nd  Nd10  1  0.148917  0.103044  0.899104  1
  Nd  Nd11  1  0.851037  0.894765  0.100149  1
  Al  Al12  1  0.627328  0.250000  0.000000  1
  Ga  Ga13  1  0.364339  0.750000  0.000000  1
  Ga  Ga14  1  0.363595  0.750000  0.500000  1
  Ga  Ga15  1  0.636392  0.250000  0.500000  1
  Ge  Ge16  1  0.138536  0.108464  0.249750  1
  Ge  Ge17  1  0.860873  0.891329  0.749785  1
  Ge  Ge18  1  0.860873  0.608671  0.250215  1
  Ge  Ge19  1  0.138536  0.391536  0.750250  1
  Rh  Rh20  1  0.373949  0.032101  0.093359  1
  Rh  Rh21  1  0.630753  0.972138  0.907305  1
  Rh  Rh22  1  0.628393  0.969436  0.593265  1
  Rh  Rh23  1  0.628393  0.530564  0.406735  1
  Rh  Rh24  1  0.371466  0.030328  0.406632  1
  Rh  Rh25  1  0.371466  0.469672  0.593368  1
  Rh  Rh26  1  0.373949  0.467899  0.906641  1
  Rh  Rh27  1  0.630753  0.527862  0.092695  1
