# generated using pymatgen
data_K9Rb7(SnSe4)4
_symmetry_space_group_name_H-M   'P 1'
_cell_length_a   8.35774209
_cell_length_b   10.62379900
_cell_length_c   15.56775414
_cell_angle_alpha   90.00000000
_cell_angle_beta   90.15695832
_cell_angle_gamma   90.00000000
_symmetry_Int_Tables_number   1
_chemical_formula_structural   K9Rb7(SnSe4)4
_chemical_formula_sum   'K9 Rb7 Sn4 Se16'
_cell_volume   1382.27083668
_cell_formula_units_Z   1
loop_
 _symmetry_equiv_pos_site_id
 _symmetry_equiv_pos_as_xyz
  1  'x, y, z'
loop_
 _atom_site_type_symbol
 _atom_site_label
 _atom_site_symmetry_multiplicity
 _atom_site_fract_x
 _atom_site_fract_y
 _atom_site_fract_z
 _atom_site_occupancy
  K  K0  1  0.525316  0.750000  0.927642  1
  K  K1  1  0.837883  0.048944  0.266203  1
  K  K2  1  0.337568  0.949448  0.231494  1
  K  K3  1  0.161463  0.550888  0.734284  1
  K  K4  1  0.661707  0.450920  0.768468  1
  K  K5  1  0.161463  0.949112  0.734284  1
  K  K6  1  0.661707  0.049080  0.768468  1
  K  K7  1  0.837883  0.451056  0.266203  1
  K  K8  1  0.337568  0.550552  0.231494  1
  Rb  Rb9  1  0.000474  0.998981  0.999362  1
  Rb  Rb10  1  0.499761  0.000145  0.500694  1
  Rb  Rb11  1  0.000474  0.501019  0.999362  1
  Rb  Rb12  1  0.499761  0.499855  0.500694  1
  Rb  Rb13  1  0.990160  0.750000  0.426093  1
  Rb  Rb14  1  0.490397  0.250000  0.074096  1
  Rb  Rb15  1  0.009842  0.250000  0.574732  1
  Sn  Sn16  1  0.763939  0.750000  0.671027  1
  Sn  Sn17  1  0.233449  0.250000  0.329312  1
  Sn  Sn18  1  0.731433  0.750000  0.168464  1
  Sn  Sn19  1  0.269027  0.250000  0.830581  1
  Se  Se20  1  0.960981  0.250000  0.825212  1
  Se  Se21  1  0.541080  0.250000  0.324302  1
  Se  Se22  1  0.456620  0.750000  0.675703  1
  Se  Se23  1  0.038699  0.750000  0.175204  1
  Se  Se24  1  0.631555  0.555130  0.089952  1
  Se  Se25  1  0.134789  0.446429  0.406274  1
  Se  Se26  1  0.367129  0.052224  0.907533  1
  Se  Se27  1  0.865109  0.945802  0.594311  1
  Se  Se28  1  0.367129  0.447776  0.907533  1
  Se  Se29  1  0.865109  0.554198  0.594311  1
  Se  Se30  1  0.631555  0.944870  0.089952  1
  Se  Se31  1  0.134789  0.053571  0.406274  1
  Se  Se32  1  0.614127  0.750000  0.322474  1
  Se  Se33  1  0.114236  0.250000  0.175597  1
  Se  Se34  1  0.386458  0.250000  0.676574  1
  Se  Se35  1  0.879366  0.750000  0.825837  1
