# generated using pymatgen
data_Tm16Cd4NiIr2Ru
_symmetry_space_group_name_H-M   'P 1'
_cell_length_a   9.46998599
_cell_length_b   9.50708513
_cell_length_c   9.53196600
_cell_angle_alpha   59.91338962
_cell_angle_beta   59.78325960
_cell_angle_gamma   59.65104445
_symmetry_Int_Tables_number   1
_chemical_formula_structural   Tm16Cd4NiIr2Ru
_chemical_formula_sum   'Tm16 Cd4 Ni1 Ir2 Ru1'
_cell_volume   603.82406470
_cell_formula_units_Z   1
loop_
 _symmetry_equiv_pos_site_id
 _symmetry_equiv_pos_as_xyz
  1  'x, y, z'
loop_
 _atom_site_type_symbol
 _atom_site_label
 _atom_site_symmetry_multiplicity
 _atom_site_fract_x
 _atom_site_fract_y
 _atom_site_fract_z
 _atom_site_occupancy
  Tm  Tm0  1  0.352412  0.347141  0.345017  1
  Tm  Tm1  1  0.352412  0.347141  0.955430  1
  Tm  Tm2  1  0.354055  0.953877  0.346035  1
  Tm  Tm3  1  0.953150  0.349684  0.348583  1
  Tm  Tm4  1  0.808183  0.188742  0.189488  1
  Tm  Tm5  1  0.187249  0.809423  0.813588  1
  Tm  Tm6  1  0.187249  0.809423  0.189740  1
  Tm  Tm7  1  0.808183  0.188742  0.813587  1
  Tm  Tm8  1  0.189013  0.189786  0.810600  1
  Tm  Tm9  1  0.811271  0.811957  0.188386  1
  Tm  Tm10  1  0.938781  0.562686  0.560167  1
  Tm  Tm11  1  0.561073  0.936918  0.935397  1
  Tm  Tm12  1  0.561073  0.936918  0.566612  1
  Tm  Tm13  1  0.938781  0.562686  0.938364  1
  Tm  Tm14  1  0.560004  0.567316  0.936340  1
  Tm  Tm15  1  0.938095  0.938554  0.561675  1
  Cd  Cd16  1  0.579513  0.581342  0.581622  1
  Cd  Cd17  1  0.579513  0.581342  0.257525  1
  Cd  Cd18  1  0.579508  0.257630  0.581432  1
  Cd  Cd19  1  0.255238  0.581434  0.581664  1
  Ni  Ni20  1  0.576516  0.141344  0.141071  1
  Ir  Ir21  1  0.143133  0.141119  0.141548  1
  Ir  Ir22  1  0.143133  0.141119  0.574202  1
  Ru  Ru23  1  0.142462  0.573681  0.141929  1
