# generated using pymatgen
data_Sr14SmAs11
_symmetry_space_group_name_H-M   'P 1'
_cell_length_a   16.58599935
_cell_length_b   16.58599993
_cell_length_c   16.58600000
_cell_angle_alpha   93.57391413
_cell_angle_beta   117.97325002
_cell_angle_gamma   117.94375525
_symmetry_Int_Tables_number   1
_chemical_formula_structural   Sr14SmAs11
_chemical_formula_sum   'Sr56 Sm4 As44'
_cell_volume   3318.90995701
_cell_formula_units_Z   4
loop_
 _symmetry_equiv_pos_site_id
 _symmetry_equiv_pos_as_xyz
  1  'x, y, z'
loop_
 _atom_site_type_symbol
 _atom_site_label
 _atom_site_symmetry_multiplicity
 _atom_site_fract_x
 _atom_site_fract_y
 _atom_site_fract_z
 _atom_site_occupancy
  Sr  Sr0  1  0.148622  0.750000  0.898622  1
  Sr  Sr1  1  0.026603  0.745197  0.628662  1
  Sr  Sr2  1  0.037667  0.787729  0.407769  1
  Sr  Sr3  1  0.086243  0.518057  0.751013  1
  Sr  Sr4  1  0.356804  0.964660  0.875311  1
  Sr  Sr5  1  0.120047  0.370103  0.907776  1
  Sr  Sr6  1  0.088889  0.128559  0.982039  1
  Sr  Sr7  1  0.143968  0.625381  0.536187  1
  Sr  Sr8  1  0.418623  0.751960  0.978707  1
  Sr  Sr9  1  0.149269  0.902253  0.253970  1
  Sr  Sr10  1  0.472839  0.870009  0.753991  1
  Sr  Sr11  1  0.353475  0.893147  0.482042  1
  Sr  Sr12  1  0.351718  0.597747  0.747017  1
  Sr  Sr13  1  0.232956  0.981943  0.068185  1
  Sr  Sr14  1  0.271237  0.335132  0.749576  1
  Sr  Sr15  1  0.226748  0.748040  0.166663  1
  Sr  Sr16  1  0.265573  0.428306  0.518570  1
  Sr  Sr17  1  0.088679  0.459563  0.106878  1
  Sr  Sr18  1  0.147314  0.018194  0.606878  1
  Sr  Sr19  1  0.588895  0.606853  0.960328  1
  Sr  Sr20  1  0.090264  0.071694  0.337268  1
  Sr  Sr21  1  0.119824  0.250612  0.212724  1
  Sr  Sr22  1  0.586243  0.835232  0.568186  1
  Sr  Sr23  1  0.620040  0.712271  0.749937  1
  Sr  Sr24  1  0.351488  0.250000  0.601488  1
  Sr  Sr25  1  0.526607  0.897942  0.281407  1
  Sr  Sr26  1  0.410652  0.518507  0.375310  1
  Sr  Sr27  1  0.619821  0.407099  0.869211  1
  Sr  Sr28  1  0.383465  0.602058  0.128665  1
  Sr  Sr29  1  0.588684  0.481806  0.629120  1
  Sr  Sr30  1  0.462113  0.092901  0.712722  1
  Sr  Sr31  1  0.648620  0.750000  0.398620  1
  Sr  Sr32  1  0.383978  0.281149  0.253990  1
  Sr  Sr33  1  0.414444  0.164868  0.436105  1
  Sr  Sr34  1  0.883465  0.754803  0.781406  1
  Sr  Sr35  1  0.918621  0.939912  0.666661  1
  Sr  Sr36  1  0.410812  0.392221  0.036189  1
  Sr  Sr37  1  0.856803  0.981493  0.392145  1
  Sr  Sr38  1  0.910651  0.535340  0.892143  1
  Sr  Sr39  1  0.726749  0.560088  0.478709  1
  Sr  Sr40  1  0.765573  0.247003  0.837267  1
  Sr  Sr41  1  0.732954  0.664768  0.251010  1
  Sr  Sr42  1  0.771235  0.021660  0.936101  1
  Sr  Sr43  1  0.649267  0.395296  0.247018  1
  Sr  Sr44  1  0.643969  0.107779  0.518591  1
  Sr  Sr45  1  0.537672  0.129897  0.249943  1
  Sr  Sr46  1  0.851721  0.104704  0.753970  1
  Sr  Sr47  1  0.590264  0.252997  0.018570  1
  Sr  Sr48  1  0.853479  0.371441  0.460329  1
  Sr  Sr49  1  0.910806  0.874619  0.018586  1
  Sr  Sr50  1  0.883982  0.629991  0.102830  1
  Sr  Sr51  1  0.647315  0.040437  0.129116  1
  Sr  Sr52  1  0.914441  0.478340  0.249575  1
  Sr  Sr53  1  0.972842  0.218851  0.602830  1
  Sr  Sr54  1  0.962112  0.249388  0.369211  1
  Sr  Sr55  1  0.851491  0.250000  0.101491  1
  Sm  Sm56  1  0.251276  0.125435  0.875807  1
  Sm  Sm57  1  0.250367  0.624529  0.375810  1
  Sm  Sm58  1  0.750371  0.374565  0.625841  1
  Sm  Sm59  1  0.751280  0.875471  0.125839  1
  As  As60  1  0.117046  0.917854  0.815361  1
  As  As61  1  0.157176  0.584645  0.981105  1
  As  As62  1  0.249903  0.858624  0.641346  1
  As  As63  1  0.250319  0.744716  0.755493  1
  As  As64  1  0.100896  0.426864  0.582197  1
  As  As65  1  0.104808  0.186908  0.805179  1
  As  As66  1  0.118273  0.700372  0.305179  1
  As  As67  1  0.010777  0.755284  0.005603  1
  As  As68  1  0.341640  0.520916  0.914688  1
  As  As69  1  0.103172  0.416856  0.300483  1
  As  As70  1  0.103371  0.176883  0.520640  1
  As  As71  1  0.393772  0.979084  0.320723  1
  As  As72  1  0.385000  0.684281  0.583385  1
  As  As73  1  0.604807  0.799628  0.917900  1
  As  As74  1  0.473235  0.486380  0.736519  1
  As  As75  1  0.383615  0.197303  0.800476  1
  As  As76  1  0.397510  0.698313  0.315363  1
  As  As77  1  0.396460  0.915355  0.072530  1
  As  As78  1  0.343757  0.323117  0.426488  1
  As  As79  1  0.250139  0.013620  0.486855  1
  As  As80  1  0.841634  0.926954  0.820716  1
  As  As81  1  0.282725  0.391444  0.141348  1
  As  As82  1  0.155333  0.073136  0.174032  1
  As  As83  1  0.750323  0.994827  0.505611  1
  As  As84  1  0.782722  0.641376  0.891279  1
  As  As85  1  0.657177  0.676073  0.572529  1
  As  As86  1  0.603375  0.082732  0.926492  1
  As  As87  1  0.603173  0.302697  0.686313  1
  As  As88  1  0.617050  0.801687  0.199197  1
  As  As89  1  0.510784  0.505173  0.255496  1
  As  As90  1  0.399106  0.198383  0.083386  1
  As  As91  1  0.618271  0.313092  0.417900  1
  As  As92  1  0.600897  0.018699  0.674034  1
  As  As93  1  0.896456  0.823927  0.481104  1
  As  As94  1  0.897506  0.582146  0.699192  1
  As  As95  1  0.655335  0.481301  0.082198  1
  As  As96  1  0.973234  0.236716  0.986854  1
  As  As97  1  0.885003  0.301617  0.700723  1
  As  As98  1  0.899104  0.815719  0.200720  1
  As  As99  1  0.893762  0.573046  0.414679  1
  As  As100  1  0.749904  0.108556  0.391281  1
  As  As101  1  0.750138  0.263284  0.236519  1
  As  As102  1  0.843759  0.417268  0.020643  1
  As  As103  1  0.883627  0.083144  0.186316  1
