# generated using pymatgen
data_YLu4Ir2Ru
_symmetry_space_group_name_H-M   'P 1'
_cell_length_a   10.65256000
_cell_length_b   10.65604700
_cell_length_c   6.33604900
_cell_angle_alpha   90.00000000
_cell_angle_beta   90.00000000
_cell_angle_gamma   90.00000000
_symmetry_Int_Tables_number   1
_chemical_formula_structural   YLu4Ir2Ru
_chemical_formula_sum   'Y4 Lu16 Ir8 Ru4'
_cell_volume   719.23140687
_cell_formula_units_Z   4
loop_
 _symmetry_equiv_pos_site_id
 _symmetry_equiv_pos_as_xyz
  1  'x, y, z'
loop_
 _atom_site_type_symbol
 _atom_site_label
 _atom_site_symmetry_multiplicity
 _atom_site_fract_x
 _atom_site_fract_y
 _atom_site_fract_z
 _atom_site_occupancy
  Y  Y0  1  0.912576  0.707567  0.123941  1
  Y  Y1  1  0.912576  0.292433  0.623941  1
  Y  Y2  1  0.087424  0.707567  0.623941  1
  Y  Y3  1  0.087424  0.292433  0.123941  1
  Lu  Lu4  1  0.294477  0.085802  0.378008  1
  Lu  Lu5  1  0.294477  0.914198  0.878008  1
  Lu  Lu6  1  0.705523  0.085802  0.878008  1
  Lu  Lu7  1  0.705523  0.914198  0.378008  1
  Lu  Lu8  1  0.586143  0.793937  0.877458  1
  Lu  Lu9  1  0.586143  0.206063  0.377458  1
  Lu  Lu10  1  0.413857  0.793937  0.377458  1
  Lu  Lu11  1  0.413857  0.206063  0.877458  1
  Lu  Lu12  1  0.207688  0.413593  0.622519  1
  Lu  Lu13  1  0.207688  0.586407  0.122519  1
  Lu  Lu14  1  0.792312  0.413593  0.122519  1
  Lu  Lu15  1  0.792312  0.586407  0.622519  1
  Lu  Lu16  1  0.000000  0.000000  0.499440  1
  Lu  Lu17  1  0.000000  0.000000  0.999440  1
  Lu  Lu18  1  0.500000  0.500000  0.000064  1
  Lu  Lu19  1  0.500000  0.500000  0.500064  1
  Ir  Ir20  1  0.845403  0.150583  0.247014  1
  Ir  Ir21  1  0.845403  0.849417  0.747014  1
  Ir  Ir22  1  0.154597  0.150583  0.747014  1
  Ir  Ir23  1  0.154597  0.849417  0.247014  1
  Ir  Ir24  1  0.650200  0.347672  0.751176  1
  Ir  Ir25  1  0.650200  0.652328  0.251176  1
  Ir  Ir26  1  0.349800  0.347672  0.251176  1
  Ir  Ir27  1  0.349800  0.652328  0.751176  1
  Ru  Ru28  1  0.500000  0.000000  0.125036  1
  Ru  Ru29  1  0.500000  0.000000  0.625036  1
  Ru  Ru30  1  0.000000  0.500000  0.875227  1
  Ru  Ru31  1  0.000000  0.500000  0.375227  1
