# generated using pymatgen
data_HoU9S20
_symmetry_space_group_name_H-M   'P 1'
_cell_length_a   10.13506702
_cell_length_b   10.12633619
_cell_length_c   6.27011113
_cell_angle_alpha   89.81548819
_cell_angle_beta   89.75953038
_cell_angle_gamma   89.82181535
_symmetry_Int_Tables_number   1
_chemical_formula_structural   HoU9S20
_chemical_formula_sum   'Ho1 U9 S20'
_cell_volume   643.49628851
_cell_formula_units_Z   1
loop_
 _symmetry_equiv_pos_site_id
 _symmetry_equiv_pos_as_xyz
  1  'x, y, z'
loop_
 _atom_site_type_symbol
 _atom_site_label
 _atom_site_symmetry_multiplicity
 _atom_site_fract_x
 _atom_site_fract_y
 _atom_site_fract_z
 _atom_site_occupancy
  Ho  Ho0  1  0.839212  0.152166  0.247711  1
  U  U1  1  0.652554  0.659345  0.250559  1
  U  U2  1  0.349787  0.339155  0.247707  1
  U  U3  1  0.158705  0.847582  0.250454  1
  U  U4  1  0.499087  0.999902  0.856290  1
  U  U5  1  0.340393  0.651580  0.750861  1
  U  U6  1  0.151586  0.159408  0.749689  1
  U  U7  1  0.849361  0.840313  0.751478  1
  U  U8  1  0.660732  0.346506  0.750400  1
  U  U9  1  0.999912  0.499116  0.141334  1
  S  S10  1  0.709402  0.088842  0.629461  1
  S  S11  1  0.590012  0.789787  0.619855  1
  S  S12  1  0.409467  0.207556  0.618284  1
  S  S13  1  0.292170  0.910028  0.617939  1
  S  S14  1  0.705844  0.908800  0.105041  1
  S  S15  1  0.585099  0.208258  0.108101  1
  S  S16  1  0.410237  0.791279  0.108198  1
  S  S17  1  0.289484  0.088417  0.108109  1
  S  S18  1  0.501267  0.501561  0.999528  1
  S  S19  1  0.000149  0.999642  0.999903  1
  S  S20  1  0.210343  0.411219  0.891671  1
  S  S21  1  0.088714  0.708384  0.891264  1
  S  S22  1  0.912316  0.293151  0.886937  1
  S  S23  1  0.791413  0.589520  0.893182  1
  S  S24  1  0.499369  0.498082  0.500246  1
  S  S25  1  0.000222  0.000752  0.500408  1
  S  S26  1  0.208530  0.590792  0.381463  1
  S  S27  1  0.092120  0.294309  0.383321  1
  S  S28  1  0.910623  0.710540  0.378772  1
  S  S29  1  0.791889  0.414004  0.381834  1
