# generated using pymatgen
data_Gd2Er2BCl6
_symmetry_space_group_name_H-M   'P 1'
_cell_length_a   3.88049700
_cell_length_b   12.75190200
_cell_length_c   13.17026800
_cell_angle_alpha   90.00000000
_cell_angle_beta   90.00000000
_cell_angle_gamma   90.00000000
_symmetry_Int_Tables_number   1
_chemical_formula_structural   Gd2Er2BCl6
_chemical_formula_sum   'Gd4 Er4 B2 Cl12'
_cell_volume   651.71382052
_cell_formula_units_Z   2
loop_
 _symmetry_equiv_pos_site_id
 _symmetry_equiv_pos_as_xyz
  1  'x, y, z'
loop_
 _atom_site_type_symbol
 _atom_site_label
 _atom_site_symmetry_multiplicity
 _atom_site_fract_x
 _atom_site_fract_y
 _atom_site_fract_z
 _atom_site_occupancy
  Gd  Gd0  1  0.500000  0.128089  0.849613  1
  Gd  Gd1  1  0.500000  0.871911  0.150387  1
  Gd  Gd2  1  0.500000  0.628089  0.650387  1
  Gd  Gd3  1  0.500000  0.371911  0.349613  1
  Er  Er4  1  0.000000  0.103540  0.082787  1
  Er  Er5  1  0.000000  0.896460  0.917213  1
  Er  Er6  1  0.000000  0.603540  0.417213  1
  Er  Er7  1  0.000000  0.396460  0.582787  1
  B  B8  1  0.500000  0.000000  0.000000  1
  B  B9  1  0.500000  0.500000  0.500000  1
  Cl  Cl10  1  0.500000  0.273402  0.679547  1
  Cl  Cl11  1  0.500000  0.726598  0.320453  1
  Cl  Cl12  1  0.500000  0.773402  0.820453  1
  Cl  Cl13  1  0.500000  0.226598  0.179547  1
  Cl  Cl14  1  0.000000  0.256074  0.934871  1
  Cl  Cl15  1  0.000000  0.743926  0.065129  1
  Cl  Cl16  1  0.000000  0.482528  0.244104  1
  Cl  Cl17  1  0.000000  0.517472  0.755896  1
  Cl  Cl18  1  0.000000  0.982528  0.255896  1
  Cl  Cl19  1  0.000000  0.017472  0.744104  1
  Cl  Cl20  1  0.000000  0.243926  0.434871  1
  Cl  Cl21  1  0.000000  0.756074  0.565129  1
