# generated using pymatgen
data_Ho9Th3Tc3Ni
_symmetry_space_group_name_H-M   'P 1'
_cell_length_a   6.33866969
_cell_length_b   7.21226625
_cell_length_c   9.42219500
_cell_angle_alpha   90.00000000
_cell_angle_beta   90.00000000
_cell_angle_gamma   90.56262537
_symmetry_Int_Tables_number   1
_chemical_formula_structural   Ho9Th3Tc3Ni
_chemical_formula_sum   'Ho9 Th3 Tc3 Ni1'
_cell_volume   430.72593393
_cell_formula_units_Z   1
loop_
 _symmetry_equiv_pos_site_id
 _symmetry_equiv_pos_as_xyz
  1  'x, y, z'
loop_
 _atom_site_type_symbol
 _atom_site_label
 _atom_site_symmetry_multiplicity
 _atom_site_fract_x
 _atom_site_fract_y
 _atom_site_fract_z
 _atom_site_occupancy
  Ho  Ho0  1  0.326231  0.677282  0.065280  1
  Ho  Ho1  1  0.165027  0.176318  0.437560  1
  Ho  Ho2  1  0.666188  0.325822  0.566653  1
  Ho  Ho3  1  0.832904  0.822035  0.932018  1
  Ho  Ho4  1  0.666188  0.325822  0.933347  1
  Ho  Ho5  1  0.832904  0.822035  0.567982  1
  Ho  Ho6  1  0.326231  0.677282  0.434720  1
  Ho  Ho7  1  0.165027  0.176318  0.062440  1
  Ho  Ho8  1  0.373464  0.960387  0.750000  1
  Th  Th9  1  0.855397  0.548589  0.250000  1
  Th  Th10  1  0.634776  0.047929  0.250000  1
  Th  Th11  1  0.149616  0.449213  0.750000  1
  Tc  Tc12  1  0.016501  0.873167  0.250000  1
  Tc  Tc13  1  0.477017  0.372583  0.250000  1
  Tc  Tc14  1  0.967384  0.128331  0.750000  1
  Ni  Ni15  1  0.545142  0.616884  0.750000  1
