# generated using pymatgen
data_Lu4Co17(ReP4)3
_symmetry_space_group_name_H-M   'P 1'
_cell_length_a   3.67231500
_cell_length_b   10.26978787
_cell_length_c   11.70871333
_cell_angle_alpha   89.92657542
_cell_angle_beta   90.00000000
_cell_angle_gamma   90.00000000
_symmetry_Int_Tables_number   1
_chemical_formula_structural   Lu4Co17(ReP4)3
_chemical_formula_sum   'Lu4 Co17 Re3 P12'
_cell_volume   441.58083486
_cell_formula_units_Z   1
loop_
 _symmetry_equiv_pos_site_id
 _symmetry_equiv_pos_as_xyz
  1  'x, y, z'
loop_
 _atom_site_type_symbol
 _atom_site_label
 _atom_site_symmetry_multiplicity
 _atom_site_fract_x
 _atom_site_fract_y
 _atom_site_fract_z
 _atom_site_occupancy
  Lu  Lu0  1  0.250000  0.581319  0.702458  1
  Lu  Lu1  1  0.250000  0.915161  0.205272  1
  Lu  Lu2  1  0.750000  0.414711  0.296043  1
  Lu  Lu3  1  0.750000  0.083763  0.794563  1
  Co  Co4  1  0.750000  0.216708  0.509918  1
  Co  Co5  1  0.250000  0.406151  0.487379  1
  Co  Co6  1  0.250000  0.093257  0.987521  1
  Co  Co7  1  0.750000  0.592755  0.511663  1
  Co  Co8  1  0.750000  0.906757  0.012561  1
  Co  Co9  1  0.250000  0.220696  0.177348  1
  Co  Co10  1  0.250000  0.277707  0.676731  1
  Co  Co11  1  0.750000  0.777791  0.822246  1
  Co  Co12  1  0.750000  0.722649  0.323182  1
  Co  Co13  1  0.250000  0.887116  0.701691  1
  Co  Co14  1  0.250000  0.612782  0.202718  1
  Co  Co15  1  0.750000  0.115757  0.300862  1
  Co  Co16  1  0.750000  0.386558  0.797111  1
  Co  Co17  1  0.250000  0.464129  0.932218  1
  Co  Co18  1  0.250000  0.035464  0.431948  1
  Co  Co19  1  0.750000  0.536266  0.068308  1
  Co  Co20  1  0.750000  0.966439  0.568788  1
  Re  Re21  1  0.250000  0.711043  0.989042  1
  Re  Re22  1  0.250000  0.788881  0.489603  1
  Re  Re23  1  0.750000  0.288552  0.010751  1
  P  P24  1  0.250000  0.419116  0.115491  1
  P  P25  1  0.250000  0.082585  0.612776  1
  P  P26  1  0.750000  0.579382  0.884431  1
  P  P27  1  0.750000  0.921376  0.385851  1
  P  P28  1  0.250000  0.267639  0.864504  1
  P  P29  1  0.250000  0.232124  0.369050  1
  P  P30  1  0.750000  0.732263  0.135134  1
  P  P31  1  0.750000  0.768353  0.633533  1
  P  P32  1  0.250000  0.593711  0.390443  1
  P  P33  1  0.250000  0.906099  0.889555  1
  P  P34  1  0.750000  0.400083  0.607404  1
  P  P35  1  0.750000  0.094854  0.111903  1
