# generated using pymatgen
data_DyTm2In3NiRh2
_symmetry_space_group_name_H-M   'P 1'
_cell_length_a   7.58879343
_cell_length_b   7.58879313
_cell_length_c   3.72405200
_cell_angle_alpha   90.00000000
_cell_angle_beta   90.00000000
_cell_angle_gamma   120.18998362
_symmetry_Int_Tables_number   1
_chemical_formula_structural   DyTm2In3NiRh2
_chemical_formula_sum   'Dy1 Tm2 In3 Ni1 Rh2'
_cell_volume   185.37758184
_cell_formula_units_Z   1
loop_
 _symmetry_equiv_pos_site_id
 _symmetry_equiv_pos_as_xyz
  1  'x, y, z'
loop_
 _atom_site_type_symbol
 _atom_site_label
 _atom_site_symmetry_multiplicity
 _atom_site_fract_x
 _atom_site_fract_y
 _atom_site_fract_z
 _atom_site_occupancy
  Dy  Dy0  1  0.410432  0.410432  0.500000  1
  Tm  Tm1  1  0.999574  0.589913  0.500000  1
  Tm  Tm2  1  0.589913  0.999574  0.500000  1
  In  In3  1  0.998438  0.251680  0.000000  1
  In  In4  1  0.251680  0.998438  0.000000  1
  In  In5  1  0.749377  0.749377  0.000000  1
  Ni  Ni6  1  0.999384  0.999384  0.500000  1
  Rh  Rh7  1  0.668488  0.332715  0.000000  1
  Rh  Rh8  1  0.332715  0.668488  0.000000  1
