# generated using pymatgen
data_YEr5Al24CuOs6Rh
_symmetry_space_group_name_H-M   'P 1'
_cell_length_a   8.77237900
_cell_length_b   8.80099130
_cell_length_c   9.56730000
_cell_angle_alpha   90.00000000
_cell_angle_beta   90.00000000
_cell_angle_gamma   119.67397846
_symmetry_Int_Tables_number   1
_chemical_formula_structural   YEr5Al24CuOs6Rh
_chemical_formula_sum   'Y1 Er5 Al24 Cu1 Os6 Rh1'
_cell_volume   641.78032189
_cell_formula_units_Z   1
loop_
 _symmetry_equiv_pos_site_id
 _symmetry_equiv_pos_as_xyz
  1  'x, y, z'
loop_
 _atom_site_type_symbol
 _atom_site_label
 _atom_site_symmetry_multiplicity
 _atom_site_fract_x
 _atom_site_fract_y
 _atom_site_fract_z
 _atom_site_occupancy
  Y  Y0  1  0.802647  0.185412  0.751986  1
  Er  Er1  1  0.199357  0.386412  0.248149  1
  Er  Er2  1  0.800014  0.613173  0.751934  1
  Er  Er3  1  0.607521  0.804842  0.250048  1
  Er  Er4  1  0.392176  0.195619  0.750022  1
  Er  Er5  1  0.199793  0.814755  0.247958  1
  Al  Al6  1  0.334026  0.667337  0.025350  1
  Al  Al7  1  0.665267  0.332234  0.975556  1
  Al  Al8  1  0.666709  0.332914  0.522986  1
  Al  Al9  1  0.332790  0.666997  0.476216  1
  Al  Al10  1  0.164391  0.326316  0.575290  1
  Al  Al11  1  0.836106  0.674182  0.424264  1
  Al  Al12  1  0.671681  0.835060  0.574783  1
  Al  Al13  1  0.832740  0.674499  0.077840  1
  Al  Al14  1  0.327777  0.164493  0.424634  1
  Al  Al15  1  0.167661  0.325805  0.922693  1
  Al  Al16  1  0.164020  0.837550  0.575100  1
  Al  Al17  1  0.328791  0.165134  0.075215  1
  Al  Al18  1  0.835934  0.162611  0.423843  1
  Al  Al19  1  0.670632  0.834545  0.925525  1
  Al  Al20  1  0.832609  0.158790  0.078120  1
  Al  Al21  1  0.167195  0.841120  0.922769  1
  Al  Al22  1  0.562874  0.125639  0.249485  1
  Al  Al23  1  0.436822  0.874705  0.750624  1
  Al  Al24  1  0.879657  0.440425  0.249516  1
  Al  Al25  1  0.121193  0.560981  0.750150  1
  Al  Al26  1  0.563049  0.438551  0.249425  1
  Al  Al27  1  0.436642  0.561712  0.750749  1
  Al  Al28  1  0.001186  0.002089  0.250141  1
  Al  Al29  1  0.999969  0.996520  0.749920  1
  Cu  Cu30  1  0.999428  0.499172  0.999704  1
  Os  Os31  1  0.499724  0.999633  0.000619  1
  Os  Os32  1  0.499646  0.999586  0.499510  1
  Os  Os33  1  0.499761  0.499862  0.000236  1
  Os  Os34  1  0.499687  0.499956  0.499978  1
  Os  Os35  1  0.000053  0.000281  0.999888  1
  Os  Os36  1  0.000058  0.000121  0.500110  1
  Rh  Rh37  1  0.000413  0.500963  0.499664  1
