# generated using pymatgen
data_Cs2Nb3Br7O5
_symmetry_space_group_name_H-M   'P 1'
_cell_length_a   10.51865047
_cell_length_b   10.51864987
_cell_length_c   11.62236618
_cell_angle_alpha   72.59204086
_cell_angle_beta   72.59204189
_cell_angle_gamma   50.88398433
_symmetry_Int_Tables_number   1
_chemical_formula_structural   Cs2Nb3Br7O5
_chemical_formula_sum   'Cs4 Nb6 Br14 O10'
_cell_volume   941.36218918
_cell_formula_units_Z   2
loop_
 _symmetry_equiv_pos_site_id
 _symmetry_equiv_pos_as_xyz
  1  'x, y, z'
loop_
 _atom_site_type_symbol
 _atom_site_label
 _atom_site_symmetry_multiplicity
 _atom_site_fract_x
 _atom_site_fract_y
 _atom_site_fract_z
 _atom_site_occupancy
  Cs  Cs0  1  0.755287  0.847614  0.857545  1
  Cs  Cs1  1  0.152386  0.244713  0.642455  1
  Cs  Cs2  1  0.244713  0.152386  0.142455  1
  Cs  Cs3  1  0.847614  0.755287  0.357545  1
  Nb  Nb4  1  0.215270  0.788663  0.523712  1
  Nb  Nb5  1  0.211337  0.784730  0.976288  1
  Nb  Nb6  1  0.784730  0.211337  0.476288  1
  Nb  Nb7  1  0.788663  0.215270  0.023712  1
  Nb  Nb8  1  0.470146  0.529854  0.250000  1
  Nb  Nb9  1  0.529854  0.470146  0.750000  1
  Br  Br10  1  0.071303  0.641561  0.615430  1
  Br  Br11  1  0.358439  0.928697  0.884570  1
  Br  Br12  1  0.928697  0.358439  0.384570  1
  Br  Br13  1  0.641561  0.071303  0.115430  1
  Br  Br14  1  0.365956  0.927202  0.456445  1
  Br  Br15  1  0.072798  0.634044  0.043555  1
  Br  Br16  1  0.634044  0.072798  0.543555  1
  Br  Br17  1  0.927202  0.365956  0.956445  1
  Br  Br18  1  0.298700  0.415328  0.326016  1
  Br  Br19  1  0.584672  0.701300  0.173984  1
  Br  Br20  1  0.701300  0.584672  0.673984  1
  Br  Br21  1  0.415328  0.298700  0.826016  1
  Br  Br22  1  0.079222  0.920778  0.750000  1
  Br  Br23  1  0.920778  0.079222  0.250000  1
  O  O24  1  0.296208  0.705155  0.381375  1
  O  O25  1  0.294845  0.703792  0.118625  1
  O  O26  1  0.703792  0.294845  0.618625  1
  O  O27  1  0.705155  0.296208  0.881375  1
  O  O28  1  0.392609  0.609285  0.628950  1
  O  O29  1  0.390715  0.607391  0.871050  1
  O  O30  1  0.607391  0.390715  0.371050  1
  O  O31  1  0.609285  0.392609  0.128950  1
  O  O32  1  0.000000  0.000000  0.500000  1
  O  O33  1  0.000000  0.000000  0.000000  1
