# generated using pymatgen
data_Sr3La3P17Pd6
_symmetry_space_group_name_H-M   'P 1'
_cell_length_a   9.10633437
_cell_length_b   9.10633376
_cell_length_c   9.14931078
_cell_angle_alpha   109.92406912
_cell_angle_beta   109.01161718
_cell_angle_gamma   109.28820148
_symmetry_Int_Tables_number   1
_chemical_formula_structural   Sr3La3P17Pd6
_chemical_formula_sum   'Sr3 La3 P17 Pd6'
_cell_volume   585.38942393
_cell_formula_units_Z   1
loop_
 _symmetry_equiv_pos_site_id
 _symmetry_equiv_pos_as_xyz
  1  'x, y, z'
loop_
 _atom_site_type_symbol
 _atom_site_label
 _atom_site_symmetry_multiplicity
 _atom_site_fract_x
 _atom_site_fract_y
 _atom_site_fract_z
 _atom_site_occupancy
  Sr  Sr0  1  0.282036  0.282036  0.000000  1
  Sr  Sr1  1  0.001147  0.712918  0.712516  1
  Sr  Sr2  1  0.000402  0.288630  0.287484  1
  La  La3  1  0.275777  0.000450  0.274608  1
  La  La4  1  0.725842  0.001169  0.725392  1
  La  La5  1  0.718912  0.718912  0.000000  1
  P  P6  1  0.639119  0.423029  0.641063  1
  P  P7  1  0.781965  0.998056  0.358937  1
  P  P8  1  0.363621  0.000344  0.782511  1
  P  P9  1  0.780146  0.358877  0.998151  1
  P  P10  1  0.217869  0.215531  0.574881  1
  P  P11  1  0.575894  0.217473  0.219456  1
  P  P12  1  0.998017  0.356438  0.780544  1
  P  P13  1  0.000176  0.782402  0.355353  1
  P  P14  1  0.360726  0.781996  0.001849  1
  P  P15  1  0.640650  0.642987  0.425119  1
  P  P16  1  0.427049  0.644823  0.644647  1
  P  P17  1  0.217834  0.581110  0.217489  1
  P  P18  1  0.439200  0.438029  0.439520  1
  P  P19  1  0.998509  0.999681  0.560480  1
  P  P20  1  0.562485  0.998585  0.999372  1
  P  P21  1  0.999213  0.563112  0.000628  1
  P  P22  1  0.992214  0.992214  0.000000  1
  Pd  Pd23  1  0.254259  0.754259  0.500000  1
  Pd  Pd24  1  0.499616  0.248621  0.748211  1
  Pd  Pd25  1  0.500409  0.751404  0.251789  1
  Pd  Pd26  1  0.251489  0.499286  0.750952  1
  Pd  Pd27  1  0.748334  0.500536  0.249048  1
  Pd  Pd28  1  0.747090  0.247090  0.500000  1
