# generated using pymatgen
data_K2Al3GaAg6
_symmetry_space_group_name_H-M   'P 1'
_cell_length_a   5.51533000
_cell_length_b   7.11401073
_cell_length_c   14.00593700
_cell_angle_alpha   90.00000000
_cell_angle_beta   90.00000000
_cell_angle_gamma   89.80140567
_symmetry_Int_Tables_number   1
_chemical_formula_structural   K2Al3GaAg6
_chemical_formula_sum   'K4 Al6 Ga2 Ag12'
_cell_volume   549.53527924
_cell_formula_units_Z   2
loop_
 _symmetry_equiv_pos_site_id
 _symmetry_equiv_pos_as_xyz
  1  'x, y, z'
loop_
 _atom_site_type_symbol
 _atom_site_label
 _atom_site_symmetry_multiplicity
 _atom_site_fract_x
 _atom_site_fract_y
 _atom_site_fract_z
 _atom_site_occupancy
  K  K0  1  0.249488  0.124235  0.082157  1
  K  K1  1  0.250512  0.375765  0.582157  1
  K  K2  1  0.750325  0.875876  0.918122  1
  K  K3  1  0.749675  0.624124  0.418122  1
  Al  Al4  1  0.000661  0.866221  0.648642  1
  Al  Al5  1  0.499339  0.633779  0.148642  1
  Al  Al6  1  0.500716  0.134645  0.351437  1
  Al  Al7  1  0.999284  0.365355  0.851437  1
  Al  Al8  1  0.999887  0.134659  0.352092  1
  Al  Al9  1  0.500113  0.365341  0.852092  1
  Ga  Ga10  1  0.500102  0.862154  0.647006  1
  Ga  Ga11  1  0.999898  0.637846  0.147006  1
  Ag  Ag12  1  0.249337  0.077582  0.781708  1
  Ag  Ag13  1  0.250663  0.422418  0.281708  1
  Ag  Ag14  1  0.748396  0.924515  0.219249  1
  Ag  Ag15  1  0.751604  0.575485  0.719249  1
  Ag  Ag16  1  0.247828  0.663166  0.781297  1
  Ag  Ag17  1  0.252172  0.836834  0.281297  1
  Ag  Ag18  1  0.749655  0.336121  0.219601  1
  Ag  Ag19  1  0.750345  0.163879  0.719601  1
  Ag  Ag20  1  0.251220  0.570257  0.985587  1
  Ag  Ag21  1  0.248780  0.929743  0.485587  1
  Ag  Ag22  1  0.748720  0.428276  0.013104  1
  Ag  Ag23  1  0.751280  0.071724  0.513104  1
