# generated using pymatgen
data_Ca3Si(Ni3B)2
_symmetry_space_group_name_H-M   'P 1'
_cell_length_a   7.56594957
_cell_length_b   7.56594902
_cell_length_c   7.56594873
_cell_angle_alpha   40.29114573
_cell_angle_beta   40.29115212
_cell_angle_gamma   40.29114617
_symmetry_Int_Tables_number   1
_chemical_formula_structural   Ca3Si(Ni3B)2
_chemical_formula_sum   'Ca3 Si1 Ni6 B2'
_cell_volume   163.28259298
_cell_formula_units_Z   1
loop_
 _symmetry_equiv_pos_site_id
 _symmetry_equiv_pos_as_xyz
  1  'x, y, z'
loop_
 _atom_site_type_symbol
 _atom_site_label
 _atom_site_symmetry_multiplicity
 _atom_site_fract_x
 _atom_site_fract_y
 _atom_site_fract_z
 _atom_site_occupancy
  Ca  Ca0  1  0.644696  0.644696  0.644696  1
  Ca  Ca1  1  0.355304  0.355304  0.355304  1
  Ca  Ca2  1  0.500000  0.500000  0.500000  1
  Si  Si3  1  0.000000  0.000000  0.000000  1
  Ni  Ni4  1  0.573596  0.061776  0.061776  1
  Ni  Ni5  1  0.061776  0.061776  0.573596  1
  Ni  Ni6  1  0.061776  0.573596  0.061776  1
  Ni  Ni7  1  0.938224  0.426404  0.938224  1
  Ni  Ni8  1  0.938224  0.938224  0.426404  1
  Ni  Ni9  1  0.426404  0.938224  0.938224  1
  B  B10  1  0.829619  0.829619  0.829619  1
  B  B11  1  0.170381  0.170381  0.170381  1
