# generated using pymatgen
data_Na2Ga(SiPt2)3
_symmetry_space_group_name_H-M   'P 1'
_cell_length_a   6.81069177
_cell_length_b   6.72804849
_cell_length_c   6.81069168
_cell_angle_alpha   128.89641993
_cell_angle_beta   116.79244288
_cell_angle_gamma   85.87529062
_symmetry_Int_Tables_number   1
_chemical_formula_structural   Na2Ga(SiPt2)3
_chemical_formula_sum   'Na2 Ga1 Si3 Pt6'
_cell_volume   206.56145853
_cell_formula_units_Z   1
loop_
 _symmetry_equiv_pos_site_id
 _symmetry_equiv_pos_as_xyz
  1  'x, y, z'
loop_
 _atom_site_type_symbol
 _atom_site_label
 _atom_site_symmetry_multiplicity
 _atom_site_fract_x
 _atom_site_fract_y
 _atom_site_fract_z
 _atom_site_occupancy
  Na  Na0  1  0.001802  0.981133  0.979331  1
  Na  Na1  1  0.498632  0.047171  0.548539  1
  Ga  Ga2  1  0.350950  0.408077  0.057127  1
  Si  Si3  1  0.808969  0.242738  0.433768  1
  Si  Si4  1  0.650361  0.698922  0.048561  1
  Si  Si5  1  0.193329  0.622218  0.428887  1
  Pt  Pt6  1  0.947961  0.500860  0.952103  1
  Pt  Pt7  1  0.548756  0.500860  0.552898  1
  Pt  Pt8  1  0.037381  0.994865  0.536025  1
  Pt  Pt9  1  0.793482  0.496648  0.287113  1
  Pt  Pt10  1  0.209535  0.496648  0.703165  1
  Pt  Pt11  1  0.458840  0.994865  0.957484  1
