# generated using pymatgen
data_La4SbI5
_symmetry_space_group_name_H-M   'P 1'
_cell_length_a   10.22655372
_cell_length_b   10.22655431
_cell_length_c   9.53276339
_cell_angle_alpha   78.58482412
_cell_angle_beta   78.58482243
_cell_angle_gamma   24.81974795
_symmetry_Int_Tables_number   1
_chemical_formula_structural   La4SbI5
_chemical_formula_sum   'La4 Sb1 I5'
_cell_volume   409.80529001
_cell_formula_units_Z   1
loop_
 _symmetry_equiv_pos_site_id
 _symmetry_equiv_pos_as_xyz
  1  'x, y, z'
loop_
 _atom_site_type_symbol
 _atom_site_label
 _atom_site_symmetry_multiplicity
 _atom_site_fract_x
 _atom_site_fract_y
 _atom_site_fract_z
 _atom_site_occupancy
  La  La0  1  0.841783  0.841783  0.079607  1
  La  La1  1  0.158217  0.158217  0.920393  1
  La  La2  1  0.501735  0.501735  0.227361  1
  La  La3  1  0.498265  0.498265  0.772639  1
  Sb  Sb4  1  0.000000  0.000000  0.000000  1
  I  I5  1  0.671202  0.671202  0.173160  1
  I  I6  1  0.328798  0.328798  0.826840  1
  I  I7  1  0.664477  0.664477  0.664130  1
  I  I8  1  0.335523  0.335523  0.335870  1
  I  I9  1  0.000000  0.000000  0.500000  1
