# generated using pymatgen
data_K8Pr3NpI20
_symmetry_space_group_name_H-M   'P 1'
_cell_length_a   9.34195327
_cell_length_b   9.91913300
_cell_length_c   14.68241330
_cell_angle_alpha   90.00000000
_cell_angle_beta   90.11191677
_cell_angle_gamma   90.00000000
_symmetry_Int_Tables_number   1
_chemical_formula_structural   K8Pr3NpI20
_chemical_formula_sum   'K8 Pr3 Np1 I20'
_cell_volume   1360.52968058
_cell_formula_units_Z   1
loop_
 _symmetry_equiv_pos_site_id
 _symmetry_equiv_pos_as_xyz
  1  'x, y, z'
loop_
 _atom_site_type_symbol
 _atom_site_label
 _atom_site_symmetry_multiplicity
 _atom_site_fract_x
 _atom_site_fract_y
 _atom_site_fract_z
 _atom_site_occupancy
  K  K0  1  0.935640  0.004843  0.172594  1
  K  K1  1  0.935640  0.495158  0.172594  1
  K  K2  1  0.435365  0.504567  0.327290  1
  K  K3  1  0.435365  0.995434  0.327290  1
  K  K4  1  0.564453  0.004816  0.672657  1
  K  K5  1  0.564453  0.495185  0.672657  1
  K  K6  1  0.064709  0.504394  0.827467  1
  K  K7  1  0.064709  0.995607  0.827467  1
  Pr  Pr8  1  0.919436  0.750000  0.494046  1
  Pr  Pr9  1  0.080619  0.250000  0.505896  1
  Pr  Pr10  1  0.580270  0.750000  0.994132  1
  Np  Np11  1  0.421015  0.250000  0.005334  1
  I  I12  1  0.072581  0.250000  0.007094  1
  I  I13  1  0.331236  0.545055  0.073616  1
  I  I14  1  0.331236  0.954946  0.073616  1
  I  I15  1  0.618658  0.250000  0.182398  1
  I  I16  1  0.656234  0.750000  0.205970  1
  I  I17  1  0.156693  0.250000  0.293036  1
  I  I18  1  0.120851  0.750000  0.315905  1
  I  I19  1  0.830330  0.046599  0.425676  1
  I  I20  1  0.830330  0.453401  0.425676  1
  I  I21  1  0.570648  0.750000  0.493005  1
  I  I22  1  0.429389  0.250000  0.507091  1
  I  I23  1  0.169620  0.546541  0.574328  1
  I  I24  1  0.169620  0.953460  0.574328  1
  I  I25  1  0.879041  0.250000  0.684172  1
  I  I26  1  0.843293  0.750000  0.707088  1
  I  I27  1  0.343880  0.250000  0.795131  1
  I  I28  1  0.379488  0.750000  0.816954  1
  I  I29  1  0.668268  0.046883  0.926178  1
  I  I30  1  0.668268  0.453117  0.926178  1
  I  I31  1  0.928665  0.750000  0.993134  1
