# generated using pymatgen
data_Ho7TmRe3B24Rh
_symmetry_space_group_name_H-M   'P 1'
_cell_length_a   3.66656900
_cell_length_b   9.14134670
_cell_length_c   11.51845810
_cell_angle_alpha   90.17212853
_cell_angle_beta   90.00000000
_cell_angle_gamma   90.00000000
_symmetry_Int_Tables_number   1
_chemical_formula_structural   Ho7TmRe3B24Rh
_chemical_formula_sum   'Ho7 Tm1 Re3 B24 Rh1'
_cell_volume   386.06677681
_cell_formula_units_Z   1
loop_
 _symmetry_equiv_pos_site_id
 _symmetry_equiv_pos_as_xyz
  1  'x, y, z'
loop_
 _atom_site_type_symbol
 _atom_site_label
 _atom_site_symmetry_multiplicity
 _atom_site_fract_x
 _atom_site_fract_y
 _atom_site_fract_z
 _atom_site_occupancy
  Ho  Ho0  1  0.000000  0.318285  0.415586  1
  Ho  Ho1  1  0.000000  0.678197  0.591383  1
  Ho  Ho2  1  0.000000  0.826945  0.081146  1
  Ho  Ho3  1  0.000000  0.177650  0.912665  1
  Ho  Ho4  1  0.000000  0.943029  0.369988  1
  Ho  Ho5  1  0.000000  0.055918  0.629035  1
  Ho  Ho6  1  0.000000  0.441519  0.128671  1
  Tm  Tm7  1  0.000000  0.556832  0.871369  1
  Re  Re8  1  0.000000  0.363161  0.678135  1
  Re  Re9  1  0.000000  0.138378  0.179769  1
  Re  Re10  1  0.000000  0.860894  0.820934  1
  B  B11  1  0.500000  0.553902  0.433827  1
  B  B12  1  0.500000  0.446791  0.566688  1
  B  B13  1  0.500000  0.053410  0.066400  1
  B  B14  1  0.500000  0.946982  0.932680  1
  B  B15  1  0.500000  0.748902  0.420284  1
  B  B16  1  0.500000  0.250713  0.580982  1
  B  B17  1  0.500000  0.249434  0.081215  1
  B  B18  1  0.500000  0.751021  0.918894  1
  B  B19  1  0.500000  0.790996  0.264906  1
  B  B20  1  0.500000  0.208709  0.734280  1
  B  B21  1  0.500000  0.291843  0.235321  1
  B  B22  1  0.500000  0.707548  0.765957  1
  B  B23  1  0.500000  0.631877  0.183913  1
  B  B24  1  0.500000  0.370071  0.814565  1
  B  B25  1  0.500000  0.130679  0.314991  1
  B  B26  1  0.500000  0.868283  0.685482  1
  B  B27  1  0.500000  0.982810  0.211810  1
  B  B28  1  0.500000  0.017365  0.787162  1
  B  B29  1  0.500000  0.483108  0.288074  1
  B  B30  1  0.500000  0.518612  0.712806  1
  B  B31  1  0.500000  0.603634  0.028654  1
  B  B32  1  0.500000  0.398427  0.971713  1
  B  B33  1  0.500000  0.101672  0.471073  1
  B  B34  1  0.500000  0.894811  0.528294  1
  Rh  Rh35  1  0.000000  0.637592  0.321347  1
