# generated using pymatgen
data_Yb2SmLu5(B6Ru)4
_symmetry_space_group_name_H-M   'P 1'
_cell_length_a   3.61445300
_cell_length_b   9.07740627
_cell_length_c   11.47221502
_cell_angle_alpha   90.02006851
_cell_angle_beta   90.00000000
_cell_angle_gamma   90.00000000
_symmetry_Int_Tables_number   1
_chemical_formula_structural   Yb2SmLu5(B6Ru)4
_chemical_formula_sum   'Yb2 Sm1 Lu5 B24 Ru4'
_cell_volume   376.40172624
_cell_formula_units_Z   1
loop_
 _symmetry_equiv_pos_site_id
 _symmetry_equiv_pos_as_xyz
  1  'x, y, z'
loop_
 _atom_site_type_symbol
 _atom_site_label
 _atom_site_symmetry_multiplicity
 _atom_site_fract_x
 _atom_site_fract_y
 _atom_site_fract_z
 _atom_site_occupancy
  Yb  Yb0  1  0.000000  0.677319  0.585927  1
  Yb  Yb1  1  0.000000  0.822730  0.085127  1
  Sm  Sm2  1  0.000000  0.323741  0.414828  1
  Lu  Lu3  1  0.000000  0.175958  0.915030  1
  Lu  Lu4  1  0.000000  0.940989  0.368669  1
  Lu  Lu5  1  0.000000  0.055885  0.630790  1
  Lu  Lu6  1  0.000000  0.443798  0.129189  1
  Lu  Lu7  1  0.000000  0.558833  0.869920  1
  B  B8  1  0.500000  0.555840  0.432788  1
  B  B9  1  0.500000  0.445846  0.569658  1
  B  B10  1  0.500000  0.054382  0.066381  1
  B  B11  1  0.500000  0.946435  0.933135  1
  B  B12  1  0.500000  0.749736  0.417754  1
  B  B13  1  0.500000  0.249704  0.584080  1
  B  B14  1  0.500000  0.249775  0.080175  1
  B  B15  1  0.500000  0.751234  0.917943  1
  B  B16  1  0.500000  0.791014  0.264124  1
  B  B17  1  0.500000  0.207391  0.737111  1
  B  B18  1  0.500000  0.291318  0.233287  1
  B  B19  1  0.500000  0.709539  0.765075  1
  B  B20  1  0.500000  0.630510  0.184163  1
  B  B21  1  0.500000  0.369008  0.816495  1
  B  B22  1  0.500000  0.129375  0.313623  1
  B  B23  1  0.500000  0.869995  0.685120  1
  B  B24  1  0.500000  0.982499  0.211197  1
  B  B25  1  0.500000  0.017849  0.788673  1
  B  B26  1  0.500000  0.484233  0.286847  1
  B  B27  1  0.500000  0.517167  0.713327  1
  B  B28  1  0.500000  0.599544  0.026863  1
  B  B29  1  0.500000  0.398906  0.972085  1
  B  B30  1  0.500000  0.097627  0.473022  1
  B  B31  1  0.500000  0.901016  0.526844  1
  Ru  Ru32  1  0.000000  0.639005  0.319159  1
  Ru  Ru33  1  0.000000  0.359358  0.682456  1
  Ru  Ru34  1  0.000000  0.139522  0.178928  1
  Ru  Ru35  1  0.000000  0.862921  0.820207  1
