# generated using pymatgen
data_Tb8HfZr8Si16Mo3
_symmetry_space_group_name_H-M   'P 1'
_cell_length_a   7.25254617
_cell_length_b   7.25068931
_cell_length_c   13.27923685
_cell_angle_alpha   90.07050939
_cell_angle_beta   90.07502537
_cell_angle_gamma   90.03815784
_symmetry_Int_Tables_number   1
_chemical_formula_structural   Tb8HfZr8Si16Mo3
_chemical_formula_sum   'Tb8 Hf1 Zr8 Si16 Mo3'
_cell_volume   698.30012109
_cell_formula_units_Z   1
loop_
 _symmetry_equiv_pos_site_id
 _symmetry_equiv_pos_as_xyz
  1  'x, y, z'
loop_
 _atom_site_type_symbol
 _atom_site_label
 _atom_site_symmetry_multiplicity
 _atom_site_fract_x
 _atom_site_fract_y
 _atom_site_fract_z
 _atom_site_occupancy
  Tb  Tb0  1  0.999678  0.346162  0.214304  1
  Tb  Tb1  1  0.003465  0.654065  0.713403  1
  Tb  Tb2  1  0.152519  0.500743  0.462080  1
  Tb  Tb3  1  0.500081  0.847222  0.037655  1
  Tb  Tb4  1  0.848991  0.501591  0.967224  1
  Tb  Tb5  1  0.498119  0.151033  0.533091  1
  Tb  Tb6  1  0.345631  0.996041  0.786933  1
  Tb  Tb7  1  0.653281  0.000566  0.285429  1
  Hf  Hf8  1  0.007831  0.855192  0.126619  1
  Zr  Zr9  1  0.676758  0.323186  0.750121  1
  Zr  Zr10  1  0.144759  0.993283  0.373355  1
  Zr  Zr11  1  0.856007  0.004401  0.877240  1
  Zr  Zr12  1  0.504949  0.647152  0.621462  1
  Zr  Zr13  1  0.352431  0.494911  0.878830  1
  Zr  Zr14  1  0.493314  0.354386  0.126317  1
  Zr  Zr15  1  0.645871  0.507329  0.373228  1
  Zr  Zr16  1  0.995304  0.143714  0.622993  1
  Si  Si17  1  0.359006  0.297182  0.316269  1
  Si  Si18  1  0.640112  0.705804  0.816782  1
  Si  Si19  1  0.203278  0.859456  0.564799  1
  Si  Si20  1  0.140164  0.797309  0.936044  1
  Si  Si21  1  0.797628  0.139154  0.067503  1
  Si  Si22  1  0.859538  0.203552  0.432917  1
  Si  Si23  1  0.293873  0.359627  0.683503  1
  Si  Si24  1  0.704778  0.641087  0.182829  1
  Si  Si25  1  0.294428  0.052973  0.184416  1
  Si  Si26  1  0.705587  0.943754  0.682351  1
  Si  Si27  1  0.446279  0.794317  0.432330  1
  Si  Si28  1  0.205641  0.554735  0.067920  1
  Si  Si29  1  0.548870  0.203387  0.937979  1
  Si  Si30  1  0.796539  0.451197  0.561937  1
  Si  Si31  1  0.056022  0.294186  0.817928  1
  Si  Si32  1  0.946996  0.705696  0.314564  1
  Mo  Mo33  1  0.176746  0.174806  0.002324  1
  Mo  Mo34  1  0.823754  0.822455  0.497804  1
  Mo  Mo35  1  0.321775  0.678343  0.249516  1
