# generated using pymatgen
data_Nd8GePd23Pt
_symmetry_space_group_name_H-M   'P 1'
_cell_length_a   8.49152800
_cell_length_b   8.49889700
_cell_length_c   8.49889700
_cell_angle_alpha   90.00000000
_cell_angle_beta   90.00000000
_cell_angle_gamma   90.00000000
_symmetry_Int_Tables_number   1
_chemical_formula_structural   Nd8GePd23Pt
_chemical_formula_sum   'Nd8 Ge1 Pd23 Pt1'
_cell_volume   613.35368369
_cell_formula_units_Z   1
loop_
 _symmetry_equiv_pos_site_id
 _symmetry_equiv_pos_as_xyz
  1  'x, y, z'
loop_
 _atom_site_type_symbol
 _atom_site_label
 _atom_site_symmetry_multiplicity
 _atom_site_fract_x
 _atom_site_fract_y
 _atom_site_fract_z
 _atom_site_occupancy
  Nd  Nd0  1  0.252871  0.252821  0.252821  1
  Nd  Nd1  1  0.747031  0.746737  0.746737  1
  Nd  Nd2  1  0.747031  0.746737  0.253263  1
  Nd  Nd3  1  0.747031  0.253263  0.746737  1
  Nd  Nd4  1  0.252871  0.252821  0.747179  1
  Nd  Nd5  1  0.252871  0.747179  0.252821  1
  Nd  Nd6  1  0.252871  0.747179  0.747179  1
  Nd  Nd7  1  0.747031  0.253263  0.253263  1
  Ge  Ge8  1  0.001577  0.000000  0.000000  1
  Pd  Pd9  1  0.259744  0.500000  0.000000  1
  Pd  Pd10  1  0.739792  0.500000  0.000000  1
  Pd  Pd11  1  0.999879  0.260087  0.500000  1
  Pd  Pd12  1  0.499826  0.259947  0.000000  1
  Pd  Pd13  1  0.999879  0.739913  0.500000  1
  Pd  Pd14  1  0.499826  0.740053  0.000000  1
  Pd  Pd15  1  0.499826  0.000000  0.259947  1
  Pd  Pd16  1  0.259744  0.000000  0.500000  1
  Pd  Pd17  1  0.499826  0.000000  0.740053  1
  Pd  Pd18  1  0.739792  0.000000  0.500000  1
  Pd  Pd19  1  0.999879  0.500000  0.260087  1
  Pd  Pd20  1  0.999879  0.500000  0.739913  1
  Pd  Pd21  1  0.253094  0.500000  0.500000  1
  Pd  Pd22  1  0.747135  0.500000  0.500000  1
  Pd  Pd23  1  0.500145  0.253068  0.500000  1
  Pd  Pd24  1  0.500145  0.746932  0.500000  1
  Pd  Pd25  1  0.500145  0.500000  0.253068  1
  Pd  Pd26  1  0.500145  0.500000  0.746932  1
  Pd  Pd27  1  0.710901  0.000000  0.000000  1
  Pd  Pd28  1  0.999654  0.290940  0.000000  1
  Pd  Pd29  1  0.999654  0.709060  0.000000  1
  Pd  Pd30  1  0.999654  0.000000  0.290940  1
  Pd  Pd31  1  0.999654  0.000000  0.709060  1
  Pt  Pt32  1  0.290594  0.000000  0.000000  1
