# generated using pymatgen
data_Tm16CdIn3IrRh3
_symmetry_space_group_name_H-M   'P 1'
_cell_length_a   9.51299962
_cell_length_b   9.51299966
_cell_length_c   9.53129013
_cell_angle_alpha   60.09645934
_cell_angle_beta   60.09645995
_cell_angle_gamma   60.03885465
_symmetry_Int_Tables_number   1
_chemical_formula_structural   Tm16CdIn3IrRh3
_chemical_formula_sum   'Tm16 Cd1 In3 Ir1 Rh3'
_cell_volume   610.98570333
_cell_formula_units_Z   1
loop_
 _symmetry_equiv_pos_site_id
 _symmetry_equiv_pos_as_xyz
  1  'x, y, z'
loop_
 _atom_site_type_symbol
 _atom_site_label
 _atom_site_symmetry_multiplicity
 _atom_site_fract_x
 _atom_site_fract_y
 _atom_site_fract_z
 _atom_site_occupancy
  Tm  Tm0  1  0.060647  0.060647  0.438068  1
  Tm  Tm1  1  0.437826  0.064022  0.436216  1
  Tm  Tm2  1  0.061610  0.438141  0.061448  1
  Tm  Tm3  1  0.050536  0.648737  0.648452  1
  Tm  Tm4  1  0.436276  0.436276  0.064738  1
  Tm  Tm5  1  0.648737  0.050536  0.648452  1
  Tm  Tm6  1  0.188809  0.812251  0.189020  1
  Tm  Tm7  1  0.188608  0.188608  0.812281  1
  Tm  Tm8  1  0.809951  0.809951  0.191077  1
  Tm  Tm9  1  0.438141  0.061610  0.061448  1
  Tm  Tm10  1  0.812251  0.188809  0.189020  1
  Tm  Tm11  1  0.064022  0.437826  0.436216  1
  Tm  Tm12  1  0.810356  0.190743  0.809884  1
  Tm  Tm13  1  0.190743  0.810356  0.809884  1
  Tm  Tm14  1  0.648477  0.648477  0.051071  1
  Tm  Tm15  1  0.652084  0.652084  0.651281  1
  Cd  Cd16  1  0.417465  0.417465  0.417180  1
  In  In17  1  0.748342  0.417228  0.417267  1
  In  In18  1  0.417228  0.748342  0.417267  1
  In  In19  1  0.417139  0.417139  0.748659  1
  Ir  Ir20  1  0.858748  0.858748  0.426135  1
  Rh  Rh21  1  0.856888  0.856888  0.857363  1
  Rh  Rh22  1  0.426706  0.858410  0.858786  1
  Rh  Rh23  1  0.858410  0.426706  0.858786  1
