# generated using pymatgen
data_NdHo9In8(PdRh)2
_symmetry_space_group_name_H-M   'P 1'
_cell_length_a   3.61572900
_cell_length_b   8.11327302
_cell_length_c   18.35764800
_cell_angle_alpha   89.96887469
_cell_angle_beta   90.00000000
_cell_angle_gamma   90.00000000
_symmetry_Int_Tables_number   1
_chemical_formula_structural   NdHo9In8(PdRh)2
_chemical_formula_sum   'Nd1 Ho9 In8 Pd2 Rh2'
_cell_volume   538.52880450
_cell_formula_units_Z   1
loop_
 _symmetry_equiv_pos_site_id
 _symmetry_equiv_pos_as_xyz
  1  'x, y, z'
loop_
 _atom_site_type_symbol
 _atom_site_label
 _atom_site_symmetry_multiplicity
 _atom_site_fract_x
 _atom_site_fract_y
 _atom_site_fract_z
 _atom_site_occupancy
  Nd  Nd0  1  0.000000  0.000000  0.000000  1
  Ho  Ho1  1  0.000000  0.500000  0.500000  1
  Ho  Ho2  1  0.000000  0.731460  0.279786  1
  Ho  Ho3  1  0.000000  0.268540  0.720214  1
  Ho  Ho4  1  0.000000  0.745883  0.779364  1
  Ho  Ho5  1  0.000000  0.254117  0.220636  1
  Ho  Ho6  1  0.000000  0.618850  0.088337  1
  Ho  Ho7  1  0.000000  0.381150  0.911663  1
  Ho  Ho8  1  0.000000  0.882688  0.584731  1
  Ho  Ho9  1  0.000000  0.117312  0.415269  1
  In  In10  1  0.500000  0.701495  0.930330  1
  In  In11  1  0.500000  0.298505  0.069670  1
  In  In12  1  0.500000  0.792730  0.433102  1
  In  In13  1  0.500000  0.207270  0.566898  1
  In  In14  1  0.500000  0.576198  0.649013  1
  In  In15  1  0.500000  0.423802  0.350987  1
  In  In16  1  0.500000  0.923148  0.153390  1
  In  In17  1  0.500000  0.076852  0.846610  1
  Pd  Pd18  1  0.500000  0.979298  0.695151  1
  Pd  Pd19  1  0.500000  0.020702  0.304849  1
  Rh  Rh20  1  0.500000  0.522549  0.195894  1
  Rh  Rh21  1  0.500000  0.477451  0.804106  1
