# generated using pymatgen
data_Hf8In4IrPd7
_symmetry_space_group_name_H-M   'P 1'
_cell_length_a   7.56589972
_cell_length_b   7.56589972
_cell_length_c   6.72723721
_cell_angle_alpha   90.16015719
_cell_angle_beta   90.16015719
_cell_angle_gamma   90.09032393
_symmetry_Int_Tables_number   1
_chemical_formula_structural   Hf8In4IrPd7
_chemical_formula_sum   'Hf8 In4 Ir1 Pd7'
_cell_volume   385.08266137
_cell_formula_units_Z   1
loop_
 _symmetry_equiv_pos_site_id
 _symmetry_equiv_pos_as_xyz
  1  'x, y, z'
loop_
 _atom_site_type_symbol
 _atom_site_label
 _atom_site_symmetry_multiplicity
 _atom_site_fract_x
 _atom_site_fract_y
 _atom_site_fract_z
 _atom_site_occupancy
  Hf  Hf0  1  0.159834  0.159834  0.005261  1
  Hf  Hf1  1  0.848445  0.848445  0.998847  1
  Hf  Hf2  1  0.647752  0.342109  0.494483  1
  Hf  Hf3  1  0.342109  0.647752  0.494483  1
  Hf  Hf4  1  0.673833  0.317773  0.003385  1
  Hf  Hf5  1  0.317773  0.673833  0.003385  1
  Hf  Hf6  1  0.820135  0.820135  0.500628  1
  Hf  Hf7  1  0.184602  0.184602  0.495690  1
  In  In8  1  0.499846  0.997765  0.249302  1
  In  In9  1  0.499464  0.997851  0.749615  1
  In  In10  1  0.997765  0.499846  0.249302  1
  In  In11  1  0.997851  0.499464  0.749615  1
  Ir  Ir12  1  0.373559  0.373559  0.231275  1
  Pd  Pd13  1  0.629793  0.629793  0.775329  1
  Pd  Pd14  1  0.635293  0.635293  0.221202  1
  Pd  Pd15  1  0.870716  0.130630  0.723548  1
  Pd  Pd16  1  0.871109  0.129168  0.276601  1
  Pd  Pd17  1  0.370323  0.370323  0.777896  1
  Pd  Pd18  1  0.129168  0.871109  0.276601  1
  Pd  Pd19  1  0.130630  0.870716  0.723548  1
