# generated using pymatgen
data_Ba3Tb2Lu2O9
_symmetry_space_group_name_H-M   'P 1'
_cell_length_a   6.11382239
_cell_length_b   6.11381938
_cell_length_c   9.12930055
_cell_angle_alpha   109.56317218
_cell_angle_beta   70.43683069
_cell_angle_gamma   119.99999180
_symmetry_Int_Tables_number   1
_chemical_formula_structural   Ba3Tb2Lu2O9
_chemical_formula_sum   'Ba3 Tb2 Lu2 O9'
_cell_volume   272.54099393
_cell_formula_units_Z   1
loop_
 _symmetry_equiv_pos_site_id
 _symmetry_equiv_pos_as_xyz
  1  'x, y, z'
loop_
 _atom_site_type_symbol
 _atom_site_label
 _atom_site_symmetry_multiplicity
 _atom_site_fract_x
 _atom_site_fract_y
 _atom_site_fract_z
 _atom_site_occupancy
  Ba  Ba0  1  0.994891  0.005109  0.015326  1
  Ba  Ba1  1  0.828348  0.171651  0.514956  1
  Ba  Ba2  1  0.411299  0.588699  0.766101  1
  Tb  Tb3  1  0.255394  0.744606  0.233817  1
  Tb  Tb4  1  0.567852  0.432147  0.296443  1
  Lu  Lu5  1  0.129182  0.870818  0.612454  1
  Lu  Lu6  1  0.694178  0.305822  0.917466  1
  O  O7  1  0.529605  0.046676  0.091350  1
  O  O8  1  0.425720  0.470396  0.091350  1
  O  O9  1  0.953323  0.574279  0.091350  1
  O  O10  1  0.400426  0.129620  0.438297  1
  O  O11  1  0.290896  0.599574  0.438297  1
  O  O12  1  0.870380  0.709103  0.438297  1
  O  O13  1  0.411352  0.038998  0.765197  1
  O  O14  1  0.961002  0.137549  0.765197  1
  O  O15  1  0.862452  0.588649  0.765197  1
