# generated using pymatgen
data_Nd11Y(Si7Br3)2
_symmetry_space_group_name_H-M   'P 1'
_cell_length_a   4.08984400
_cell_length_b   11.81642700
_cell_length_c   16.61220900
_cell_angle_alpha   90.00000000
_cell_angle_beta   90.00000000
_cell_angle_gamma   90.00000000
_symmetry_Int_Tables_number   1
_chemical_formula_structural   Nd11Y(Si7Br3)2
_chemical_formula_sum   'Nd11 Y1 Si14 Br6'
_cell_volume   802.82392345
_cell_formula_units_Z   1
loop_
 _symmetry_equiv_pos_site_id
 _symmetry_equiv_pos_as_xyz
  1  'x, y, z'
loop_
 _atom_site_type_symbol
 _atom_site_label
 _atom_site_symmetry_multiplicity
 _atom_site_fract_x
 _atom_site_fract_y
 _atom_site_fract_z
 _atom_site_occupancy
  Nd  Nd0  1  0.500000  0.343282  0.500000  1
  Nd  Nd1  1  0.000000  0.657181  0.000000  1
  Nd  Nd2  1  0.500000  0.360338  0.756006  1
  Nd  Nd3  1  0.000000  0.640250  0.741995  1
  Nd  Nd4  1  0.500000  0.360338  0.243994  1
  Nd  Nd5  1  0.000000  0.640250  0.258005  1
  Nd  Nd6  1  0.500000  0.065889  0.880378  1
  Nd  Nd7  1  0.000000  0.932680  0.618946  1
  Nd  Nd8  1  0.500000  0.065889  0.119622  1
  Nd  Nd9  1  0.000000  0.932680  0.381054  1
  Nd  Nd10  1  0.500000  0.355940  0.000000  1
  Y  Y11  1  0.000000  0.645116  0.500000  1
  Si  Si12  1  0.000000  0.151122  0.000000  1
  Si  Si13  1  0.500000  0.847369  0.500000  1
  Si  Si14  1  0.500000  0.567878  0.875993  1
  Si  Si15  1  0.000000  0.434506  0.622094  1
  Si  Si16  1  0.500000  0.567878  0.124007  1
  Si  Si17  1  0.000000  0.434506  0.377906  1
  Si  Si18  1  0.000000  0.253310  0.873511  1
  Si  Si19  1  0.500000  0.745224  0.624938  1
  Si  Si20  1  0.000000  0.253310  0.126489  1
  Si  Si21  1  0.500000  0.745224  0.375062  1
  Si  Si22  1  0.000000  0.457921  0.876438  1
  Si  Si23  1  0.500000  0.542866  0.620641  1
  Si  Si24  1  0.500000  0.542866  0.379359  1
  Si  Si25  1  0.000000  0.457921  0.123562  1
  Br  Br26  1  0.500000  0.108691  0.692830  1
  Br  Br27  1  0.000000  0.890546  0.806589  1
  Br  Br28  1  0.000000  0.138774  0.500000  1
  Br  Br29  1  0.500000  0.861021  0.000000  1
  Br  Br30  1  0.500000  0.108691  0.307170  1
  Br  Br31  1  0.000000  0.890546  0.193411  1
