# generated using pymatgen
data_Nb2Zn2IrRh3
_symmetry_space_group_name_H-M   'P 1'
_cell_length_a   4.08875600
_cell_length_b   7.24887504
_cell_length_c   12.24978406
_cell_angle_alpha   89.98851824
_cell_angle_beta   90.00000000
_cell_angle_gamma   90.00000000
_symmetry_Int_Tables_number   1
_chemical_formula_structural   Nb2Zn2IrRh3
_chemical_formula_sum   'Nb6 Zn6 Ir3 Rh9'
_cell_volume   363.06988844
_cell_formula_units_Z   3
loop_
 _symmetry_equiv_pos_site_id
 _symmetry_equiv_pos_as_xyz
  1  'x, y, z'
loop_
 _atom_site_type_symbol
 _atom_site_label
 _atom_site_symmetry_multiplicity
 _atom_site_fract_x
 _atom_site_fract_y
 _atom_site_fract_z
 _atom_site_occupancy
  Nb  Nb0  1  0.000000  0.499675  0.999978  1
  Nb  Nb1  1  0.500007  0.001163  0.166606  1
  Nb  Nb2  1  0.000000  0.499657  0.333582  1
  Nb  Nb3  1  0.499999  0.999638  0.500178  1
  Nb  Nb4  1  0.000000  0.500116  0.666342  1
  Nb  Nb5  1  0.499992  0.999812  0.833297  1
  Zn  Zn6  1  0.000000  0.999005  0.999560  1
  Zn  Zn7  1  0.500004  0.501349  0.167410  1
  Zn  Zn8  1  0.000000  0.999230  0.333345  1
  Zn  Zn9  1  0.499999  0.500250  0.499825  1
  Zn  Zn10  1  0.000000  0.000011  0.667065  1
  Zn  Zn11  1  0.499994  0.500117  0.832815  1
  Ir  Ir12  1  0.499999  0.249566  0.999721  1
  Ir  Ir13  1  0.499999  0.750386  0.000019  1
  Ir  Ir14  1  0.000000  0.249697  0.166840  1
  Rh  Rh15  1  0.000000  0.748684  0.166964  1
  Rh  Rh16  1  0.500009  0.250401  0.334199  1
  Rh  Rh17  1  0.500009  0.749639  0.333814  1
  Rh  Rh18  1  0.000000  0.249734  0.500429  1
  Rh  Rh19  1  0.000000  0.751226  0.499999  1
  Rh  Rh20  1  0.499992  0.250603  0.666280  1
  Rh  Rh21  1  0.499992  0.749457  0.666236  1
  Rh  Rh22  1  0.000000  0.250390  0.832650  1
  Rh  Rh23  1  0.000000  0.750190  0.832844  1
