# generated using pymatgen
data_EuAsPd4
_symmetry_space_group_name_H-M   'P 1'
_cell_length_a   5.25993137
_cell_length_b   5.68315286
_cell_length_c   4.49894600
_cell_angle_alpha   90.00000000
_cell_angle_beta   90.00000000
_cell_angle_gamma   122.69934399
_symmetry_Int_Tables_number   1
_chemical_formula_structural   EuAsPd4
_chemical_formula_sum   'Eu1 As1 Pd4'
_cell_volume   113.17306359
_cell_formula_units_Z   1
loop_
 _symmetry_equiv_pos_site_id
 _symmetry_equiv_pos_as_xyz
  1  'x, y, z'
loop_
 _atom_site_type_symbol
 _atom_site_label
 _atom_site_symmetry_multiplicity
 _atom_site_fract_x
 _atom_site_fract_y
 _atom_site_fract_z
 _atom_site_occupancy
  Eu  Eu0  1  0.000000  0.000000  0.000000  1
  As  As1  1  0.000000  0.500001  0.499999  1
  Pd  Pd2  1  0.679728  0.339863  0.000000  1
  Pd  Pd3  1  0.320272  0.660137  0.000000  1
  Pd  Pd4  1  0.500000  0.000000  0.499999  1
  Pd  Pd5  1  0.500001  0.500001  0.499999  1
