# generated using pymatgen
data_Sm3Th5(Pt2Pb)4
_symmetry_space_group_name_H-M   'P 1'
_cell_length_a   8.09017844
_cell_length_b   8.09017850
_cell_length_c   7.50289200
_cell_angle_alpha   90.00000000
_cell_angle_beta   90.00000000
_cell_angle_gamma   90.32878440
_symmetry_Int_Tables_number   1
_chemical_formula_structural   Sm3Th5(Pt2Pb)4
_chemical_formula_sum   'Sm3 Th5 Pt8 Pb4'
_cell_volume   491.06360670
_cell_formula_units_Z   1
loop_
 _symmetry_equiv_pos_site_id
 _symmetry_equiv_pos_as_xyz
  1  'x, y, z'
loop_
 _atom_site_type_symbol
 _atom_site_label
 _atom_site_symmetry_multiplicity
 _atom_site_fract_x
 _atom_site_fract_y
 _atom_site_fract_z
 _atom_site_occupancy
  Sm  Sm0  1  0.668256  0.668256  0.500000  1
  Sm  Sm1  1  0.834366  0.165867  0.000000  1
  Sm  Sm2  1  0.165867  0.834366  0.000000  1
  Th  Th3  1  0.675926  0.675926  0.000000  1
  Th  Th4  1  0.335604  0.335604  0.500000  1
  Th  Th5  1  0.824295  0.173556  0.500000  1
  Th  Th6  1  0.325592  0.325592  0.000000  1
  Th  Th7  1  0.173556  0.824295  0.500000  1
  Pt  Pt8  1  0.874208  0.874208  0.739150  1
  Pt  Pt9  1  0.130085  0.130085  0.736292  1
  Pt  Pt10  1  0.624815  0.371029  0.758914  1
  Pt  Pt11  1  0.624815  0.371029  0.241086  1
  Pt  Pt12  1  0.371029  0.624815  0.241086  1
  Pt  Pt13  1  0.130085  0.130085  0.263708  1
  Pt  Pt14  1  0.874208  0.874208  0.260850  1
  Pt  Pt15  1  0.371029  0.624815  0.758914  1
  Pb  Pb16  1  0.501092  0.997041  0.752981  1
  Pb  Pb17  1  0.501092  0.997041  0.247019  1
  Pb  Pb18  1  0.997041  0.501092  0.752981  1
  Pb  Pb19  1  0.997041  0.501092  0.247019  1
