# generated using pymatgen
data_LaGa4Ni9
_symmetry_space_group_name_H-M   'P 1'
_cell_length_a   8.15412116
_cell_length_b   8.15412186
_cell_length_c   8.15412154
_cell_angle_alpha   120.92007436
_cell_angle_beta   120.92008263
_cell_angle_gamma   88.41363452
_symmetry_Int_Tables_number   1
_chemical_formula_structural   LaGa4Ni9
_chemical_formula_sum   'La2 Ga8 Ni18'
_cell_volume   377.87990216
_cell_formula_units_Z   2
loop_
 _symmetry_equiv_pos_site_id
 _symmetry_equiv_pos_as_xyz
  1  'x, y, z'
loop_
 _atom_site_type_symbol
 _atom_site_label
 _atom_site_symmetry_multiplicity
 _atom_site_fract_x
 _atom_site_fract_y
 _atom_site_fract_z
 _atom_site_occupancy
  La  La0  1  0.750000  0.750000  0.000000  1
  La  La1  1  0.250000  0.250000  0.000000  1
  Ga  Ga2  1  0.800744  0.300743  0.858228  1
  Ga  Ga3  1  0.442515  0.942516  0.141773  1
  Ga  Ga4  1  0.699258  0.557485  0.500000  1
  Ga  Ga5  1  0.057484  0.199257  0.500000  1
  Ga  Ga6  1  0.199258  0.699258  0.141773  1
  Ga  Ga7  1  0.557484  0.057484  0.858228  1
  Ga  Ga8  1  0.942516  0.800743  0.500000  1
  Ga  Ga9  1  0.300743  0.442516  0.500000  1
  Ni  Ni10  1  0.204198  0.064662  0.268859  1
  Ni  Ni11  1  0.795800  0.935339  0.731142  1
  Ni  Ni12  1  0.295801  0.564661  0.860461  1
  Ni  Ni13  1  0.704197  0.435338  0.139538  1
  Ni  Ni14  1  0.435340  0.295801  0.731142  1
  Ni  Ni15  1  0.564661  0.704197  0.268859  1
  Ni  Ni16  1  0.935339  0.204198  0.139540  1
  Ni  Ni17  1  0.064662  0.795801  0.860462  1
  Ni  Ni18  1  0.499999  0.000000  0.499999  1
  Ni  Ni19  1  0.000000  0.499999  0.499999  1
  Ni  Ni20  1  0.295200  0.795199  0.733452  1
  Ni  Ni21  1  0.061747  0.561748  0.266549  1
  Ni  Ni22  1  0.204801  0.938253  0.499999  1
  Ni  Ni23  1  0.438254  0.704802  0.500002  1
  Ni  Ni24  1  0.704802  0.204801  0.266549  1
  Ni  Ni25  1  0.938253  0.438254  0.733452  1
  Ni  Ni26  1  0.561748  0.295200  0.500002  1
  Ni  Ni27  1  0.795199  0.061747  0.499999  1
