# generated using pymatgen
data_Dy3Er13In4(RuRh)2
_symmetry_space_group_name_H-M   'P 1'
_cell_length_a   9.60291956
_cell_length_b   9.60925756
_cell_length_c   9.60704741
_cell_angle_alpha   59.89739598
_cell_angle_beta   59.92025238
_cell_angle_gamma   59.98401479
_symmetry_Int_Tables_number   1
_chemical_formula_structural   Dy3Er13In4(RuRh)2
_chemical_formula_sum   'Dy3 Er13 In4 Ru2 Rh2'
_cell_volume   625.91562145
_cell_formula_units_Z   1
loop_
 _symmetry_equiv_pos_site_id
 _symmetry_equiv_pos_as_xyz
  1  'x, y, z'
loop_
 _atom_site_type_symbol
 _atom_site_label
 _atom_site_symmetry_multiplicity
 _atom_site_fract_x
 _atom_site_fract_y
 _atom_site_fract_z
 _atom_site_occupancy
  Dy  Dy0  1  0.189218  0.193613  0.809348  1
  Dy  Dy1  1  0.438014  0.062152  0.061904  1
  Dy  Dy2  1  0.442120  0.059832  0.437595  1
  Er  Er3  1  0.059696  0.438834  0.059643  1
  Er  Er4  1  0.651817  0.046240  0.650353  1
  Er  Er5  1  0.192270  0.807615  0.808427  1
  Er  Er6  1  0.059404  0.059423  0.438542  1
  Er  Er7  1  0.808415  0.192090  0.192536  1
  Er  Er8  1  0.808704  0.808624  0.193989  1
  Er  Er9  1  0.651409  0.650482  0.046610  1
  Er  Er10  1  0.653738  0.650229  0.650118  1
  Er  Er11  1  0.059463  0.440804  0.439683  1
  Er  Er12  1  0.045364  0.650619  0.650100  1
  Er  Er13  1  0.807866  0.194045  0.808659  1
  Er  Er14  1  0.442298  0.438471  0.059180  1
  Er  Er15  1  0.189365  0.808730  0.194121  1
  In  In16  1  0.417591  0.747209  0.417180  1
  In  In17  1  0.417562  0.417311  0.747639  1
  In  In18  1  0.749765  0.416654  0.416614  1
  In  In19  1  0.416847  0.417672  0.417348  1
  Ru  Ru20  1  0.858027  0.422562  0.859421  1
  Ru  Ru21  1  0.858865  0.859284  0.422239  1
  Rh  Rh22  1  0.422386  0.858073  0.859331  1
  Rh  Rh23  1  0.859796  0.859430  0.859418  1
