# generated using pymatgen
data_Tm5Th(Si3Pt2)4
_symmetry_space_group_name_H-M   'P 1'
_cell_length_a   4.22293900
_cell_length_b   8.52208863
_cell_length_c   12.89492300
_cell_angle_alpha   80.26306666
_cell_angle_beta   90.00000000
_cell_angle_gamma   90.00000000
_symmetry_Int_Tables_number   1
_chemical_formula_structural   Tm5Th(Si3Pt2)4
_chemical_formula_sum   'Tm5 Th1 Si12 Pt8'
_cell_volume   457.38081844
_cell_formula_units_Z   1
loop_
 _symmetry_equiv_pos_site_id
 _symmetry_equiv_pos_as_xyz
  1  'x, y, z'
loop_
 _atom_site_type_symbol
 _atom_site_label
 _atom_site_symmetry_multiplicity
 _atom_site_fract_x
 _atom_site_fract_y
 _atom_site_fract_z
 _atom_site_occupancy
  Tm  Tm0  1  0.250000  0.765422  0.439194  1
  Tm  Tm1  1  0.250000  0.584090  0.187700  1
  Tm  Tm2  1  0.750000  0.233415  0.562052  1
  Tm  Tm3  1  0.750000  0.413904  0.812893  1
  Tm  Tm4  1  0.750000  0.929391  0.814696  1
  Th  Th5  1  0.250000  0.074065  0.186868  1
  Si  Si6  1  0.750000  0.587896  0.570237  1
  Si  Si7  1  0.750000  0.126448  0.001916  1
  Si  Si8  1  0.750000  0.872350  0.573704  1
  Si  Si9  1  0.250000  0.696206  0.712615  1
  Si  Si10  1  0.750000  0.306967  0.286222  1
  Si  Si11  1  0.750000  0.800512  0.278225  1
  Si  Si12  1  0.250000  0.872993  0.993413  1
  Si  Si13  1  0.250000  0.194876  0.722656  1
  Si  Si14  1  0.250000  0.380923  0.999096  1
  Si  Si15  1  0.250000  0.126300  0.430245  1
  Si  Si16  1  0.750000  0.622873  0.996889  1
  Si  Si17  1  0.250000  0.410764  0.430549  1
  Pt  Pt18  1  0.750000  0.355104  0.097399  1
  Pt  Pt19  1  0.250000  0.970662  0.624958  1
  Pt  Pt20  1  0.750000  0.847417  0.088556  1
  Pt  Pt21  1  0.750000  0.027738  0.378799  1
  Pt  Pt22  1  0.250000  0.649326  0.898470  1
  Pt  Pt23  1  0.250000  0.151600  0.910107  1
  Pt  Pt24  1  0.750000  0.531758  0.378116  1
  Pt  Pt25  1  0.250000  0.467001  0.624422  1
