# generated using pymatgen
data_NdTm5Al24ZnOs7
_symmetry_space_group_name_H-M   'P 1'
_cell_length_a   8.81710929
_cell_length_b   8.80324350
_cell_length_c   9.55689516
_cell_angle_alpha   89.99244136
_cell_angle_beta   89.94283976
_cell_angle_gamma   119.49343616
_symmetry_Int_Tables_number   1
_chemical_formula_structural   NdTm5Al24ZnOs7
_chemical_formula_sum   'Nd1 Tm5 Al24 Zn1 Os7'
_cell_volume   645.66962186
_cell_formula_units_Z   1
loop_
 _symmetry_equiv_pos_site_id
 _symmetry_equiv_pos_as_xyz
  1  'x, y, z'
loop_
 _atom_site_type_symbol
 _atom_site_label
 _atom_site_symmetry_multiplicity
 _atom_site_fract_x
 _atom_site_fract_y
 _atom_site_fract_z
 _atom_site_occupancy
  Nd  Nd0  1  0.188752  0.379760  0.247183  1
  Tm  Tm1  1  0.809209  0.612671  0.750651  1
  Tm  Tm2  1  0.609283  0.808420  0.249174  1
  Tm  Tm3  1  0.388927  0.190914  0.751313  1
  Tm  Tm4  1  0.196826  0.805446  0.255106  1
  Tm  Tm5  1  0.805703  0.196245  0.745083  1
  Al  Al6  1  0.327767  0.672397  0.021670  1
  Al  Al7  1  0.671277  0.329274  0.973737  1
  Al  Al8  1  0.667503  0.333831  0.524550  1
  Al  Al9  1  0.333757  0.667054  0.478726  1
  Al  Al10  1  0.165056  0.327574  0.575559  1
  Al  Al11  1  0.836545  0.673377  0.427734  1
  Al  Al12  1  0.673324  0.836346  0.573616  1
  Al  Al13  1  0.849274  0.677894  0.079477  1
  Al  Al14  1  0.328655  0.163888  0.429251  1
  Al  Al15  1  0.150245  0.322957  0.916595  1
  Al  Al16  1  0.163733  0.836656  0.578725  1
  Al  Al17  1  0.323065  0.149429  0.078903  1
  Al  Al18  1  0.834473  0.162904  0.423481  1
  Al  Al19  1  0.677656  0.849464  0.919259  1
  Al  Al20  1  0.833686  0.163667  0.075321  1
  Al  Al21  1  0.163672  0.836317  0.921329  1
  Al  Al22  1  0.561292  0.122721  0.249267  1
  Al  Al23  1  0.439926  0.878872  0.750764  1
  Al  Al24  1  0.876829  0.440033  0.248721  1
  Al  Al25  1  0.122288  0.562198  0.750166  1
  Al  Al26  1  0.566609  0.437198  0.256079  1
  Al  Al27  1  0.437521  0.564381  0.746682  1
  Al  Al28  1  0.992560  0.992911  0.250366  1
  Al  Al29  1  0.003024  0.998584  0.749374  1
  Zn  Zn30  1  0.500374  0.501134  0.001198  1
  Os  Os31  1  0.500197  0.000715  0.999683  1
  Os  Os32  1  0.998307  0.500959  0.997580  1
  Os  Os33  1  0.500421  0.000638  0.500481  1
  Os  Os34  1  0.999463  0.500788  0.501173  1
  Os  Os35  1  0.502480  0.501112  0.502312  1
  Os  Os36  1  0.000103  0.000784  0.999594  1
  Os  Os37  1  0.000220  0.000490  0.500116  1
