# generated using pymatgen
data_La8Yb2(IrRu)3
_symmetry_space_group_name_H-M   'P 1'
_cell_length_a   11.25996979
_cell_length_b   11.25805900
_cell_length_c   6.56922121
_cell_angle_alpha   90.00000000
_cell_angle_beta   90.11472219
_cell_angle_gamma   90.00000000
_symmetry_Int_Tables_number   1
_chemical_formula_structural   La8Yb2(IrRu)3
_chemical_formula_sum   'La16 Yb4 Ir6 Ru6'
_cell_volume   832.74831255
_cell_formula_units_Z   2
loop_
 _symmetry_equiv_pos_site_id
 _symmetry_equiv_pos_as_xyz
  1  'x, y, z'
loop_
 _atom_site_type_symbol
 _atom_site_label
 _atom_site_symmetry_multiplicity
 _atom_site_fract_x
 _atom_site_fract_y
 _atom_site_fract_z
 _atom_site_occupancy
  La  La0  1  0.290870  0.088514  0.388177  1
  La  La1  1  0.290870  0.911486  0.888177  1
  La  La2  1  0.711307  0.088962  0.891627  1
  La  La3  1  0.711307  0.911038  0.391627  1
  La  La4  1  0.590626  0.791019  0.887115  1
  La  La5  1  0.590626  0.208981  0.387115  1
  La  La6  1  0.411774  0.790994  0.387852  1
  La  La7  1  0.411774  0.209006  0.887852  1
  La  La8  1  0.208639  0.411548  0.611830  1
  La  La9  1  0.208639  0.588452  0.111830  1
  La  La10  1  0.790659  0.409603  0.113294  1
  La  La11  1  0.790659  0.590397  0.613294  1
  La  La12  1  0.910215  0.710723  0.108622  1
  La  La13  1  0.910215  0.289277  0.608622  1
  La  La14  1  0.087531  0.709838  0.611385  1
  La  La15  1  0.087531  0.290162  0.111385  1
  Yb  Yb16  1  0.999290  0.000032  0.499986  1
  Yb  Yb17  1  0.999290  0.999968  0.999986  1
  Yb  Yb18  1  0.500021  0.500183  0.000018  1
  Yb  Yb19  1  0.500021  0.499817  0.500018  1
  Ir  Ir20  1  0.155641  0.154640  0.749848  1
  Ir  Ir21  1  0.155641  0.845360  0.249848  1
  Ir  Ir22  1  0.653837  0.345845  0.750363  1
  Ir  Ir23  1  0.653837  0.654155  0.250363  1
  Ir  Ir24  1  0.345046  0.345355  0.249637  1
  Ir  Ir25  1  0.345046  0.654645  0.749637  1
  Ru  Ru26  1  0.844492  0.156675  0.250231  1
  Ru  Ru27  1  0.844492  0.843325  0.750231  1
  Ru  Ru28  1  0.499182  0.000300  0.117003  1
  Ru  Ru29  1  0.499182  0.999700  0.617003  1
  Ru  Ru30  1  0.000870  0.500031  0.883013  1
  Ru  Ru31  1  0.000870  0.499969  0.383013  1
