# generated using pymatgen
data_Li6Ru5Rh7W6
_symmetry_space_group_name_H-M   'P 1'
_cell_length_a   4.29753700
_cell_length_b   6.07504312
_cell_length_c   12.83118425
_cell_angle_alpha   90.02292464
_cell_angle_beta   89.99920272
_cell_angle_gamma   89.99892920
_symmetry_Int_Tables_number   1
_chemical_formula_structural   Li6Ru5Rh7W6
_chemical_formula_sum   'Li6 Ru5 Rh7 W6'
_cell_volume   334.99297224
_cell_formula_units_Z   1
loop_
 _symmetry_equiv_pos_site_id
 _symmetry_equiv_pos_as_xyz
  1  'x, y, z'
loop_
 _atom_site_type_symbol
 _atom_site_label
 _atom_site_symmetry_multiplicity
 _atom_site_fract_x
 _atom_site_fract_y
 _atom_site_fract_z
 _atom_site_occupancy
  Li  Li0  1  0.999990  0.000346  0.000948  1
  Li  Li1  1  0.499738  0.499899  0.166636  1
  Li  Li2  1  0.999750  0.001091  0.332621  1
  Li  Li3  1  0.499980  0.497852  0.499123  1
  Li  Li4  1  0.000213  0.000755  0.666430  1
  Li  Li5  1  0.500272  0.500096  0.834155  1
  Ru  Ru6  1  0.000000  0.748303  0.498382  1
  Ru  Ru7  1  0.500177  0.249302  0.666320  1
  Ru  Ru8  1  0.500185  0.749591  0.666239  1
  Ru  Ru9  1  0.000177  0.250749  0.834568  1
  Ru  Ru10  1  0.000194  0.749526  0.834432  1
  Rh  Rh11  1  0.500003  0.247973  0.001700  1
  Rh  Rh12  1  0.500003  0.753198  0.001746  1
  Rh  Rh13  1  0.999820  0.253619  0.166812  1
  Rh  Rh14  1  0.999821  0.745975  0.167128  1
  Rh  Rh15  1  0.499824  0.246858  0.332297  1
  Rh  Rh16  1  0.499826  0.753339  0.331833  1
  Rh  Rh17  1  0.000005  0.250428  0.498679  1
  W  W18  1  0.000014  0.500595  0.994578  1
  W  W19  1  0.499819  0.001004  0.166479  1
  W  W20  1  0.999823  0.502253  0.335913  1
  W  W21  1  0.500013  0.994069  0.504875  1
  W  W22  1  0.000169  0.501909  0.669095  1
  W  W23  1  0.500186  0.001272  0.829008  1
