# generated using pymatgen
data_Y5Ho15(Al3Ru)2
_symmetry_space_group_name_H-M   'P 1'
_cell_length_a   9.50620208
_cell_length_b   9.50620095
_cell_length_c   9.60252100
_cell_angle_alpha   90.00000000
_cell_angle_beta   90.00000000
_cell_angle_gamma   119.98518451
_symmetry_Int_Tables_number   1
_chemical_formula_structural   Y5Ho15(Al3Ru)2
_chemical_formula_sum   'Y5 Ho15 Al6 Ru2'
_cell_volume   751.61380241
_cell_formula_units_Z   1
loop_
 _symmetry_equiv_pos_site_id
 _symmetry_equiv_pos_as_xyz
  1  'x, y, z'
loop_
 _atom_site_type_symbol
 _atom_site_label
 _atom_site_symmetry_multiplicity
 _atom_site_fract_x
 _atom_site_fract_y
 _atom_site_fract_z
 _atom_site_occupancy
  Y  Y0  1  0.539921  0.080009  0.250000  1
  Y  Y1  1  0.919991  0.460079  0.250000  1
  Y  Y2  1  0.460186  0.539814  0.750000  1
  Y  Y3  1  0.460165  0.920446  0.750000  1
  Y  Y4  1  0.079554  0.539835  0.750000  1
  Ho  Ho5  1  0.000019  0.999981  0.499999  1
  Ho  Ho6  1  0.000019  0.999981  0.000001  1
  Ho  Ho7  1  0.206933  0.793067  0.439690  1
  Ho  Ho8  1  0.207131  0.413808  0.439490  1
  Ho  Ho9  1  0.586192  0.792869  0.439490  1
  Ho  Ho10  1  0.793113  0.206887  0.560316  1
  Ho  Ho11  1  0.792788  0.585928  0.560060  1
  Ho  Ho12  1  0.414072  0.207212  0.560060  1
  Ho  Ho13  1  0.793113  0.206887  0.939684  1
  Ho  Ho14  1  0.792788  0.585928  0.939940  1
  Ho  Ho15  1  0.414072  0.207212  0.939940  1
  Ho  Ho16  1  0.206933  0.793067  0.060310  1
  Ho  Ho17  1  0.207131  0.413808  0.060510  1
  Ho  Ho18  1  0.586192  0.792869  0.060510  1
  Ho  Ho19  1  0.539653  0.460347  0.250000  1
  Al  Al20  1  0.888908  0.111092  0.250000  1
  Al  Al21  1  0.888533  0.777550  0.250000  1
  Al  Al22  1  0.222450  0.111467  0.250000  1
  Al  Al23  1  0.111124  0.888876  0.750000  1
  Al  Al24  1  0.111156  0.222264  0.750000  1
  Al  Al25  1  0.777736  0.888844  0.750000  1
  Ru  Ru26  1  0.333538  0.666462  0.250000  1
  Ru  Ru27  1  0.666591  0.333409  0.750000  1
