# generated using pymatgen
data_Sr5LaSn8BiSb
_symmetry_space_group_name_H-M   'P 1'
_cell_length_a   9.02504520
_cell_length_b   9.02516642
_cell_length_c   9.02751161
_cell_angle_alpha   120.26065956
_cell_angle_beta   120.26120568
_cell_angle_gamma   89.54087426
_symmetry_Int_Tables_number   1
_chemical_formula_structural   Sr5LaSn8BiSb
_chemical_formula_sum   'Sr5 La1 Sn8 Bi1 Sb1'
_cell_volume   517.91204968
_cell_formula_units_Z   1
loop_
 _symmetry_equiv_pos_site_id
 _symmetry_equiv_pos_as_xyz
  1  'x, y, z'
loop_
 _atom_site_type_symbol
 _atom_site_label
 _atom_site_symmetry_multiplicity
 _atom_site_fract_x
 _atom_site_fract_y
 _atom_site_fract_z
 _atom_site_occupancy
  Sr  Sr0  1  0.752520  0.752520  0.000002  1
  Sr  Sr1  1  0.160942  0.665149  0.826084  1
  Sr  Sr2  1  0.839026  0.334901  0.173907  1
  Sr  Sr3  1  0.665147  0.839050  0.504180  1
  Sr  Sr4  1  0.334901  0.160948  0.495835  1
  La  La5  1  0.246893  0.246924  0.999987  1
  Sn  Sn6  1  0.832018  0.330486  0.786181  1
  Sn  Sn7  1  0.169810  0.667707  0.213793  1
  Sn  Sn8  1  0.544293  0.045826  0.213811  1
  Sn  Sn9  1  0.330444  0.544325  0.498452  1
  Sn  Sn10  1  0.956002  0.169837  0.502103  1
  Sn  Sn11  1  0.453925  0.956029  0.786212  1
  Sn  Sn12  1  0.667767  0.453911  0.497908  1
  Sn  Sn13  1  0.045839  0.831978  0.501537  1
  Bi  Bi14  1  0.497199  0.497174  0.999961  1
  Sb  Sb15  1  0.003273  0.003235  0.000048  1
