# generated using pymatgen
data_SmY2U5(ReB6)4
_symmetry_space_group_name_H-M   'P 1'
_cell_length_a   3.64981000
_cell_length_b   9.32232519
_cell_length_c   11.43225218
_cell_angle_alpha   89.99862795
_cell_angle_beta   90.00000000
_cell_angle_gamma   90.00000000
_symmetry_Int_Tables_number   1
_chemical_formula_structural   SmY2U5(ReB6)4
_chemical_formula_sum   'Sm1 Y2 U5 Re4 B24'
_cell_volume   388.97913030
_cell_formula_units_Z   1
loop_
 _symmetry_equiv_pos_site_id
 _symmetry_equiv_pos_as_xyz
  1  'x, y, z'
loop_
 _atom_site_type_symbol
 _atom_site_label
 _atom_site_symmetry_multiplicity
 _atom_site_fract_x
 _atom_site_fract_y
 _atom_site_fract_z
 _atom_site_occupancy
  Sm  Sm0  1  0.000000  0.336773  0.407650  1
  Y  Y1  1  0.000000  0.663582  0.592094  1
  Y  Y2  1  0.000000  0.835545  0.092788  1
  U  U3  1  0.000000  0.163446  0.907215  1
  U  U4  1  0.000000  0.955868  0.397018  1
  U  U5  1  0.000000  0.042330  0.603821  1
  U  U6  1  0.000000  0.457817  0.103542  1
  U  U7  1  0.000000  0.543490  0.897178  1
  Re  Re8  1  0.000000  0.646827  0.318495  1
  Re  Re9  1  0.000000  0.352043  0.684653  1
  Re  Re10  1  0.000000  0.145632  0.177380  1
  Re  Re11  1  0.000000  0.857570  0.819495  1
  B  B12  1  0.500000  0.553316  0.430963  1
  B  B13  1  0.500000  0.447714  0.570730  1
  B  B14  1  0.500000  0.052574  0.067266  1
  B  B15  1  0.500000  0.950306  0.930198  1
  B  B16  1  0.500000  0.743670  0.423040  1
  B  B17  1  0.500000  0.256271  0.577918  1
  B  B18  1  0.500000  0.242660  0.075543  1
  B  B19  1  0.500000  0.756544  0.922500  1
  B  B20  1  0.500000  0.802369  0.274978  1
  B  B21  1  0.500000  0.196502  0.726838  1
  B  B22  1  0.500000  0.301716  0.224031  1
  B  B23  1  0.500000  0.698209  0.774993  1
  B  B24  1  0.500000  0.644060  0.188358  1
  B  B25  1  0.500000  0.354908  0.812358  1
  B  B26  1  0.500000  0.143111  0.310484  1
  B  B27  1  0.500000  0.855507  0.688515  1
  B  B28  1  0.500000  0.989057  0.219274  1
  B  B29  1  0.500000  0.013217  0.781227  1
  B  B30  1  0.500000  0.489967  0.280015  1
  B  B31  1  0.500000  0.511312  0.720041  1
  B  B32  1  0.500000  0.640592  0.038515  1
  B  B33  1  0.500000  0.357302  0.960464  1
  B  B34  1  0.500000  0.137883  0.461515  1
  B  B35  1  0.500000  0.860308  0.538901  1
