# generated using pymatgen
data_Er3NiSn(PdPb)2
_symmetry_space_group_name_H-M   'P 1'
_cell_length_a   7.72081364
_cell_length_b   7.72081241
_cell_length_c   3.76606200
_cell_angle_alpha   90.00000000
_cell_angle_beta   90.00000000
_cell_angle_gamma   120.16124348
_symmetry_Int_Tables_number   1
_chemical_formula_structural   Er3NiSn(PdPb)2
_chemical_formula_sum   'Er3 Ni1 Sn1 Pd2 Pb2'
_cell_volume   194.10478089
_cell_formula_units_Z   1
loop_
 _symmetry_equiv_pos_site_id
 _symmetry_equiv_pos_as_xyz
  1  'x, y, z'
loop_
 _atom_site_type_symbol
 _atom_site_label
 _atom_site_symmetry_multiplicity
 _atom_site_fract_x
 _atom_site_fract_y
 _atom_site_fract_z
 _atom_site_occupancy
  Er  Er0  1  0.403122  0.403122  0.500000  1
  Er  Er1  1  0.600998  0.996411  0.500000  1
  Er  Er2  1  0.996411  0.600998  0.500000  1
  Ni  Ni3  1  0.988849  0.988849  0.500000  1
  Sn  Sn4  1  0.744746  0.744746  0.000000  1
  Pd  Pd5  1  0.668652  0.341664  0.000000  1
  Pd  Pd6  1  0.341664  0.668652  0.000000  1
  Pb  Pb7  1  0.256062  0.999495  0.000000  1
  Pb  Pb8  1  0.999495  0.256062  0.000000  1
