# generated using pymatgen
data_La9PrIn6
_symmetry_space_group_name_H-M   'P 1'
_cell_length_a   6.29846347
_cell_length_b   9.67299489
_cell_length_c   9.67299537
_cell_angle_alpha   83.91547565
_cell_angle_beta   70.99991680
_cell_angle_gamma   70.99992081
_symmetry_Int_Tables_number   1
_chemical_formula_structural   La9PrIn6
_chemical_formula_sum   'La9 Pr1 In6'
_cell_volume   526.86125319
_cell_formula_units_Z   1
loop_
 _symmetry_equiv_pos_site_id
 _symmetry_equiv_pos_as_xyz
  1  'x, y, z'
loop_
 _atom_site_type_symbol
 _atom_site_label
 _atom_site_symmetry_multiplicity
 _atom_site_fract_x
 _atom_site_fract_y
 _atom_site_fract_z
 _atom_site_occupancy
  La  La0  1  0.720069  0.864837  0.695394  1
  La  La1  1  0.280301  0.135163  0.304606  1
  La  La2  1  0.779931  0.304606  0.135163  1
  La  La3  1  0.219699  0.695394  0.864837  1
  La  La4  1  0.584537  0.695394  0.135163  1
  La  La5  1  0.415093  0.304606  0.864837  1
  La  La6  1  0.084907  0.135163  0.695394  1
  La  La7  1  0.915463  0.864837  0.304606  1
  La  La8  1  0.750000  0.500000  0.500000  1
  Pr  Pr9  1  0.250000  0.500000  0.500000  1
  In  In10  1  0.161881  0.500000  0.177433  1
  In  In11  1  0.839312  0.500000  0.822567  1
  In  In12  1  0.338119  0.822567  0.500000  1
  In  In13  1  0.660688  0.177433  0.500000  1
  In  In14  1  0.250000  0.000000  0.000000  1
  In  In15  1  0.750000  0.000000  0.000000  1
