# generated using pymatgen
data_Pr10Bi3Pb3Cl2
_symmetry_space_group_name_H-M   'P 1'
_cell_length_a   9.69166160
_cell_length_b   9.66159215
_cell_length_c   6.75402400
_cell_angle_alpha   90.00000000
_cell_angle_beta   90.00000000
_cell_angle_gamma   120.23441818
_symmetry_Int_Tables_number   1
_chemical_formula_structural   Pr10Bi3Pb3Cl2
_chemical_formula_sum   'Pr10 Bi3 Pb3 Cl2'
_cell_volume   546.39843819
_cell_formula_units_Z   1
loop_
 _symmetry_equiv_pos_site_id
 _symmetry_equiv_pos_as_xyz
  1  'x, y, z'
loop_
 _atom_site_type_symbol
 _atom_site_label
 _atom_site_symmetry_multiplicity
 _atom_site_fract_x
 _atom_site_fract_y
 _atom_site_fract_z
 _atom_site_occupancy
  Pr  Pr0  1  0.261142  0.996736  0.750000  1
  Pr  Pr1  1  0.736731  0.000432  0.250000  1
  Pr  Pr2  1  0.996993  0.260952  0.750000  1
  Pr  Pr3  1  0.002998  0.740566  0.250000  1
  Pr  Pr4  1  0.739941  0.739875  0.750000  1
  Pr  Pr5  1  0.261931  0.259495  0.250000  1
  Pr  Pr6  1  0.332989  0.667367  0.500273  1
  Pr  Pr7  1  0.667061  0.332850  0.500207  1
  Pr  Pr8  1  0.667061  0.332850  0.999793  1
  Pr  Pr9  1  0.332989  0.667367  0.999727  1
  Bi  Bi10  1  0.000270  0.387449  0.250000  1
  Bi  Bi11  1  0.386031  0.385619  0.750000  1
  Bi  Bi12  1  0.614174  0.613795  0.250000  1
  Pb  Pb13  1  0.611779  0.999259  0.750000  1
  Pb  Pb14  1  0.388557  0.000032  0.250000  1
  Pb  Pb15  1  0.999524  0.612700  0.750000  1
  Cl  Cl16  1  0.999915  0.001329  0.499528  1
  Cl  Cl17  1  0.999915  0.001329  0.000472  1
