# generated using pymatgen
data_La4DyOsRu
_symmetry_space_group_name_H-M   'P 1'
_cell_length_a   9.03718480
_cell_length_b   9.03718562
_cell_length_c   7.31738462
_cell_angle_alpha   85.26737570
_cell_angle_beta   85.26737018
_cell_angle_gamma   43.59100736
_symmetry_Int_Tables_number   1
_chemical_formula_structural   La4DyOsRu
_chemical_formula_sum   'La8 Dy2 Os2 Ru2'
_cell_volume   410.42978931
_cell_formula_units_Z   2
loop_
 _symmetry_equiv_pos_site_id
 _symmetry_equiv_pos_as_xyz
  1  'x, y, z'
loop_
 _atom_site_type_symbol
 _atom_site_label
 _atom_site_symmetry_multiplicity
 _atom_site_fract_x
 _atom_site_fract_y
 _atom_site_fract_z
 _atom_site_occupancy
  La  La0  1  0.201270  0.978934  0.589928  1
  La  La1  1  0.021066  0.798730  0.910072  1
  La  La2  1  0.210316  0.363979  0.315885  1
  La  La3  1  0.636021  0.789684  0.184115  1
  La  La4  1  0.790053  0.635921  0.683788  1
  La  La5  1  0.364079  0.209947  0.816212  1
  La  La6  1  0.978553  0.203114  0.092049  1
  La  La7  1  0.796886  0.021447  0.407951  1
  Dy  Dy8  1  0.565958  0.434042  0.750000  1
  Dy  Dy9  1  0.430006  0.569994  0.250000  1
  Os  Os10  1  0.181031  0.601873  0.574992  1
  Os  Os11  1  0.398127  0.818969  0.925008  1
  Ru  Ru12  1  0.822609  0.395974  0.420978  1
  Ru  Ru13  1  0.604026  0.177391  0.079022  1
