# generated using pymatgen
data_V2PbO5
_symmetry_space_group_name_H-M   'P 1'
_cell_length_a   3.76007100
_cell_length_b   5.33915508
_cell_length_c   11.50462309
_cell_angle_alpha   89.99734748
_cell_angle_beta   90.00000000
_cell_angle_gamma   89.99997854
_symmetry_Int_Tables_number   1
_chemical_formula_structural   V2PbO5
_chemical_formula_sum   'V4 Pb2 O10'
_cell_volume   230.96223608
_cell_formula_units_Z   2
loop_
 _symmetry_equiv_pos_site_id
 _symmetry_equiv_pos_as_xyz
  1  'x, y, z'
loop_
 _atom_site_type_symbol
 _atom_site_label
 _atom_site_symmetry_multiplicity
 _atom_site_fract_x
 _atom_site_fract_y
 _atom_site_fract_z
 _atom_site_occupancy
  V  V0  1  0.749999  0.604502  0.594473  1
  V  V1  1  0.250000  0.395631  0.405376  1
  V  V2  1  0.250000  0.395377  0.094697  1
  V  V3  1  0.749999  0.604258  0.905451  1
  Pb  Pb4  1  0.749999  0.850605  0.249896  1
  Pb  Pb5  1  0.250000  0.149703  0.750076  1
  O  O6  1  0.749999  0.446869  0.749956  1
  O  O7  1  0.250000  0.553430  0.250000  1
  O  O8  1  0.750000  0.520505  0.074419  1
  O  O9  1  0.250000  0.479030  0.925737  1
  O  O10  1  0.749999  0.520981  0.425564  1
  O  O11  1  0.250000  0.479335  0.574264  1
  O  O12  1  0.249999  0.084913  0.385455  1
  O  O13  1  0.750000  0.915168  0.614425  1
  O  O14  1  0.750000  0.915085  0.885635  1
  O  O15  1  0.249999  0.084607  0.114576  1
