# generated using pymatgen
data_Ac3Th(Zn5Pb)2
_symmetry_space_group_name_H-M   'P 1'
_cell_length_a   8.89070900
_cell_length_b   8.89070936
_cell_length_c   9.34663000
_cell_angle_alpha   90.00000000
_cell_angle_beta   90.00000000
_cell_angle_gamma   149.39997216
_symmetry_Int_Tables_number   1
_chemical_formula_structural   Ac3Th(Zn5Pb)2
_chemical_formula_sum   'Ac3 Th1 Zn10 Pb2'
_cell_volume   376.08094970
_cell_formula_units_Z   1
loop_
 _symmetry_equiv_pos_site_id
 _symmetry_equiv_pos_as_xyz
  1  'x, y, z'
loop_
 _atom_site_type_symbol
 _atom_site_label
 _atom_site_symmetry_multiplicity
 _atom_site_fract_x
 _atom_site_fract_y
 _atom_site_fract_z
 _atom_site_occupancy
  Ac  Ac0  1  0.207033  0.792967  0.250000  1
  Ac  Ac1  1  0.999391  0.000609  0.499799  1
  Ac  Ac2  1  0.999391  0.000609  0.000201  1
  Th  Th3  1  0.791158  0.208842  0.750000  1
  Zn  Zn4  1  0.814092  0.185908  0.394163  1
  Zn  Zn5  1  0.188792  0.811208  0.612415  1
  Zn  Zn6  1  0.814092  0.185908  0.105837  1
  Zn  Zn7  1  0.188792  0.811208  0.887585  1
  Zn  Zn8  1  0.661082  0.338918  0.492823  1
  Zn  Zn9  1  0.338552  0.661448  0.515353  1
  Zn  Zn10  1  0.661082  0.338918  0.007177  1
  Zn  Zn11  1  0.338552  0.661448  0.984647  1
  Zn  Zn12  1  0.394648  0.605352  0.250000  1
  Zn  Zn13  1  0.605476  0.394524  0.750000  1
  Pb  Pb14  1  0.557635  0.442365  0.250000  1
  Pb  Pb15  1  0.440237  0.559763  0.750000  1
