# generated using pymatgen
data_Dy5Si8Mo3(PIr4)4
_symmetry_space_group_name_H-M   'P 1'
_cell_length_a   12.80865100
_cell_length_b   12.83194768
_cell_length_c   3.99219800
_cell_angle_alpha   90.00000000
_cell_angle_beta   90.00000000
_cell_angle_gamma   119.93995859
_symmetry_Int_Tables_number   1
_chemical_formula_structural   Dy5Si8Mo3(PIr4)4
_chemical_formula_sum   'Dy5 Si8 Mo3 P4 Ir16'
_cell_volume   568.59248447
_cell_formula_units_Z   1
loop_
 _symmetry_equiv_pos_site_id
 _symmetry_equiv_pos_as_xyz
  1  'x, y, z'
loop_
 _atom_site_type_symbol
 _atom_site_label
 _atom_site_symmetry_multiplicity
 _atom_site_fract_x
 _atom_site_fract_y
 _atom_site_fract_z
 _atom_site_occupancy
  Dy  Dy0  1  0.332311  0.665123  0.500000  1
  Dy  Dy1  1  0.667188  0.334877  0.500000  1
  Dy  Dy2  1  0.000451  0.812554  0.000000  1
  Dy  Dy3  1  0.187897  0.187446  0.000000  1
  Dy  Dy4  1  0.811675  0.000000  0.000000  1
  Si  Si5  1  0.000500  0.629894  0.500000  1
  Si  Si6  1  0.370606  0.370106  0.500000  1
  Si  Si7  1  0.518626  0.685076  0.000000  1
  Si  Si8  1  0.313489  0.832716  0.000000  1
  Si  Si9  1  0.164272  0.478518  0.000000  1
  Si  Si10  1  0.480772  0.167284  0.000000  1
  Si  Si11  1  0.685753  0.521482  0.000000  1
  Si  Si12  1  0.833550  0.314924  0.000000  1
  Mo  Mo13  1  0.997953  0.437760  0.500000  1
  Mo  Mo14  1  0.560193  0.562240  0.500000  1
  Mo  Mo15  1  0.445616  0.000000  0.500000  1
  P  P16  1  0.630745  0.000000  0.500000  1
  P  P17  1  0.999219  0.177691  0.500000  1
  P  P18  1  0.821528  0.822309  0.500000  1
  P  P19  1  0.180659  0.000000  0.500000  1
  Ir  Ir20  1  0.512376  0.871314  0.000000  1
  Ir  Ir21  1  0.127626  0.640983  0.000000  1
  Ir  Ir22  1  0.357253  0.485533  0.000000  1
  Ir  Ir23  1  0.486644  0.359017  0.000000  1
  Ir  Ir24  1  0.871721  0.514467  0.000000  1
  Ir  Ir25  1  0.641063  0.128686  0.000000  1
  Ir  Ir26  1  0.997747  0.274303  0.000000  1
  Ir  Ir27  1  0.723444  0.725697  0.000000  1
  Ir  Ir28  1  0.278304  0.000000  0.000000  1
  Ir  Ir29  1  0.629335  0.811545  0.500000  1
  Ir  Ir30  1  0.193436  0.820832  0.500000  1
  Ir  Ir31  1  0.177889  0.369258  0.500000  1
  Ir  Ir32  1  0.372604  0.179168  0.500000  1
  Ir  Ir33  1  0.808630  0.630742  0.500000  1
  Ir  Ir34  1  0.817790  0.188455  0.500000  1
  Ir  Ir35  1  0.001135  0.000000  0.500000  1
