# generated using pymatgen
data_Eu4Ti3NbO14
_symmetry_space_group_name_H-M   'P 1'
_cell_length_a   7.34693085
_cell_length_b   7.34693063
_cell_length_c   7.40536984
_cell_angle_alpha   60.26071116
_cell_angle_beta   60.26071298
_cell_angle_gamma   60.00000416
_symmetry_Int_Tables_number   1
_chemical_formula_structural   Eu4Ti3NbO14
_chemical_formula_sum   'Eu4 Ti3 Nb1 O14'
_cell_volume   283.75523004
_cell_formula_units_Z   1
loop_
 _symmetry_equiv_pos_site_id
 _symmetry_equiv_pos_as_xyz
  1  'x, y, z'
loop_
 _atom_site_type_symbol
 _atom_site_label
 _atom_site_symmetry_multiplicity
 _atom_site_fract_x
 _atom_site_fract_y
 _atom_site_fract_z
 _atom_site_occupancy
  Eu  Eu0  1  0.125000  0.625000  0.125000  1
  Eu  Eu1  1  0.125000  0.125000  0.625000  1
  Eu  Eu2  1  0.625000  0.125000  0.125000  1
  Eu  Eu3  1  0.125000  0.125000  0.125000  1
  Ti  Ti4  1  0.625000  0.125000  0.625000  1
  Ti  Ti5  1  0.125000  0.625000  0.625000  1
  Ti  Ti6  1  0.625000  0.625000  0.625000  1
  Nb  Nb7  1  0.625000  0.625000  0.125000  1
  O  O8  1  0.700030  0.700030  0.301690  1
  O  O9  1  0.946372  0.552166  0.555090  1
  O  O10  1  0.549970  0.951751  0.948310  1
  O  O11  1  0.946372  0.946372  0.555090  1
  O  O12  1  0.951751  0.549970  0.948310  1
  O  O13  1  0.552166  0.946372  0.555090  1
  O  O14  1  0.298249  0.700030  0.301690  1
  O  O15  1  0.303628  0.697834  0.694910  1
  O  O16  1  0.700030  0.298249  0.301690  1
  O  O17  1  0.697834  0.303628  0.694910  1
  O  O18  1  0.549970  0.549970  0.948310  1
  O  O19  1  0.303628  0.303628  0.694910  1
  O  O20  1  0.249481  0.249481  0.251557  1
  O  O21  1  0.000519  0.000519  0.998443  1
