# generated using pymatgen
data_Tb3Ce(Ni2Hg)2
_symmetry_space_group_name_H-M   'P 1'
_cell_length_a   7.37531271
_cell_length_b   7.37531222
_cell_length_c   3.63950600
_cell_angle_alpha   90.00000000
_cell_angle_beta   90.00000000
_cell_angle_gamma   91.73354216
_symmetry_Int_Tables_number   1
_chemical_formula_structural   Tb3Ce(Ni2Hg)2
_chemical_formula_sum   'Tb3 Ce1 Ni4 Hg2'
_cell_volume   197.88117294
_cell_formula_units_Z   1
loop_
 _symmetry_equiv_pos_site_id
 _symmetry_equiv_pos_as_xyz
  1  'x, y, z'
loop_
 _atom_site_type_symbol
 _atom_site_label
 _atom_site_symmetry_multiplicity
 _atom_site_fract_x
 _atom_site_fract_y
 _atom_site_fract_z
 _atom_site_occupancy
  Tb  Tb0  1  0.323642  0.823642  0.500000  1
  Tb  Tb1  1  0.176307  0.325498  0.500000  1
  Tb  Tb2  1  0.825498  0.676307  0.500000  1
  Ce  Ce3  1  0.676104  0.176104  0.500000  1
  Ni  Ni4  1  0.113394  0.613394  0.000000  1
  Ni  Ni5  1  0.869444  0.369444  0.000000  1
  Ni  Ni6  1  0.623811  0.889080  0.000000  1
  Ni  Ni7  1  0.389080  0.123811  0.000000  1
  Hg  Hg8  1  0.496679  0.506041  0.000000  1
  Hg  Hg9  1  0.006041  0.996679  0.000000  1
