# generated using pymatgen
data_TiNb7Si2(B2Mo)2
_symmetry_space_group_name_H-M   'P 1'
_cell_length_a   7.27985187
_cell_length_b   7.29614740
_cell_length_c   7.28091609
_cell_angle_alpha   129.69898225
_cell_angle_beta   129.63862055
_cell_angle_gamma   74.01077176
_symmetry_Int_Tables_number   1
_chemical_formula_structural   TiNb7Si2(B2Mo)2
_chemical_formula_sum   'Ti1 Nb7 Si2 B4 Mo2'
_cell_volume   223.37717315
_cell_formula_units_Z   1
loop_
 _symmetry_equiv_pos_site_id
 _symmetry_equiv_pos_as_xyz
  1  'x, y, z'
loop_
 _atom_site_type_symbol
 _atom_site_label
 _atom_site_symmetry_multiplicity
 _atom_site_fract_x
 _atom_site_fract_y
 _atom_site_fract_z
 _atom_site_occupancy
  Ti  Ti0  1  0.805457  0.966214  0.500000  1
  Nb  Nb1  1  0.306471  0.806821  0.838708  1
  Nb  Nb2  1  0.193444  0.032807  0.500000  1
  Nb  Nb3  1  0.532696  0.692964  0.500000  1
  Nb  Nb4  1  0.031363  0.532161  0.838768  1
  Nb  Nb5  1  0.692595  0.193394  0.161232  1
  Nb  Nb6  1  0.967763  0.468113  0.161292  1
  Nb  Nb7  1  0.470163  0.306052  0.500000  1
  Si  Si8  1  0.749821  0.751723  0.004279  1
  Si  Si9  1  0.245542  0.247444  0.995721  1
  B  B10  1  0.386927  0.884930  0.269851  1
  B  B11  1  0.882972  0.618557  0.500000  1
  B  B12  1  0.617076  0.115079  0.730149  1
  B  B13  1  0.117089  0.382771  0.500000  1
  Mo  Mo14  1  0.999636  0.999811  0.998652  1
  Mo  Mo15  1  0.500985  0.501159  0.001348  1
