# generated using pymatgen
data_Sr11CaCu4(As2H)4
_symmetry_space_group_name_H-M   'P 1'
_cell_length_a   4.39469900
_cell_length_b   11.96500086
_cell_length_c   12.61049184
_cell_angle_alpha   89.49807063
_cell_angle_beta   90.00000000
_cell_angle_gamma   90.00000000
_symmetry_Int_Tables_number   1
_chemical_formula_structural   Sr11CaCu4(As2H)4
_chemical_formula_sum   'Sr11 Ca1 Cu4 As8 H4'
_cell_volume   663.06671824
_cell_formula_units_Z   1
loop_
 _symmetry_equiv_pos_site_id
 _symmetry_equiv_pos_as_xyz
  1  'x, y, z'
loop_
 _atom_site_type_symbol
 _atom_site_label
 _atom_site_symmetry_multiplicity
 _atom_site_fract_x
 _atom_site_fract_y
 _atom_site_fract_z
 _atom_site_occupancy
  Sr  Sr0  1  0.250000  0.065842  0.621445  1
  Sr  Sr1  1  0.250000  0.564901  0.878281  1
  Sr  Sr2  1  0.750000  0.932470  0.378114  1
  Sr  Sr3  1  0.750000  0.433355  0.120614  1
  Sr  Sr4  1  0.250000  0.371527  0.558555  1
  Sr  Sr5  1  0.250000  0.876353  0.943031  1
  Sr  Sr6  1  0.750000  0.624997  0.445081  1
  Sr  Sr7  1  0.750000  0.127068  0.053320  1
  Sr  Sr8  1  0.250000  0.204616  0.297206  1
  Sr  Sr9  1  0.250000  0.704318  0.201198  1
  Sr  Sr10  1  0.750000  0.793792  0.704119  1
  Ca  Ca11  1  0.750000  0.294435  0.803070  1
  Cu  Cu12  1  0.250000  0.143982  0.850954  1
  Cu  Cu13  1  0.250000  0.630295  0.640008  1
  Cu  Cu14  1  0.750000  0.867336  0.139206  1
  Cu  Cu15  1  0.750000  0.367330  0.361618  1
  As  As16  1  0.250000  0.469293  0.321058  1
  As  As17  1  0.250000  0.970101  0.178897  1
  As  As18  1  0.750000  0.525123  0.682500  1
  As  As19  1  0.750000  0.034739  0.818761  1
  As  As20  1  0.250000  0.310547  0.979292  1
  As  As21  1  0.250000  0.806428  0.517795  1
  As  As22  1  0.750000  0.693099  0.015720  1
  As  As23  1  0.750000  0.191012  0.482999  1
  H  H24  1  0.250000  0.239524  0.733809  1
  H  H25  1  0.250000  0.740689  0.776223  1
  H  H26  1  0.750000  0.758919  0.275111  1
  H  H27  1  0.750000  0.257909  0.222014  1
