# generated using pymatgen
data_Pr16In4Ru3Rh
_symmetry_space_group_name_H-M   'P 1'
_cell_length_a   10.03075089
_cell_length_b   10.05971916
_cell_length_c   10.03455332
_cell_angle_alpha   59.91170773
_cell_angle_beta   59.84350429
_cell_angle_gamma   59.90159340
_symmetry_Int_Tables_number   1
_chemical_formula_structural   Pr16In4Ru3Rh
_chemical_formula_sum   'Pr16 In4 Ru3 Rh1'
_cell_volume   714.12344148
_cell_formula_units_Z   1
loop_
 _symmetry_equiv_pos_site_id
 _symmetry_equiv_pos_as_xyz
  1  'x, y, z'
loop_
 _atom_site_type_symbol
 _atom_site_label
 _atom_site_symmetry_multiplicity
 _atom_site_fract_x
 _atom_site_fract_y
 _atom_site_fract_z
 _atom_site_occupancy
  Pr  Pr0  1  0.808708  0.806711  0.192324  1
  Pr  Pr1  1  0.807584  0.192483  0.807473  1
  Pr  Pr2  1  0.189935  0.195175  0.808053  1
  Pr  Pr3  1  0.653294  0.041949  0.651834  1
  Pr  Pr4  1  0.059418  0.058579  0.440317  1
  Pr  Pr5  1  0.440733  0.439151  0.060152  1
  Pr  Pr6  1  0.653337  0.652941  0.651768  1
  Pr  Pr7  1  0.808663  0.192226  0.192347  1
  Pr  Pr8  1  0.189920  0.806811  0.808094  1
  Pr  Pr9  1  0.043642  0.652444  0.651349  1
  Pr  Pr10  1  0.440651  0.060045  0.060269  1
  Pr  Pr11  1  0.441502  0.060221  0.438096  1
  Pr  Pr12  1  0.058804  0.441209  0.058699  1
  Pr  Pr13  1  0.652413  0.652306  0.043052  1
  Pr  Pr14  1  0.190280  0.807118  0.195521  1
  Pr  Pr15  1  0.059455  0.441712  0.440247  1
  In  In16  1  0.419471  0.419146  0.419655  1
  In  In17  1  0.419612  0.419383  0.741638  1
  In  In18  1  0.419472  0.741715  0.419673  1
  In  In19  1  0.743409  0.418739  0.419087  1
  Ru  Ru20  1  0.860161  0.414804  0.862218  1
  Ru  Ru21  1  0.860251  0.862763  0.862164  1
  Ru  Ru22  1  0.859995  0.862037  0.415918  1
  Rh  Rh23  1  0.419285  0.860335  0.860053  1
