# generated using pymatgen
data_Yb3Tm(TcB4)4
_symmetry_space_group_name_H-M   'P 1'
_cell_length_a   3.55837600
_cell_length_b   5.96691691
_cell_length_c   11.53937423
_cell_angle_alpha   89.95694154
_cell_angle_beta   90.00000000
_cell_angle_gamma   90.00000000
_symmetry_Int_Tables_number   1
_chemical_formula_structural   Yb3Tm(TcB4)4
_chemical_formula_sum   'Yb3 Tm1 Tc4 B16'
_cell_volume   245.01008566
_cell_formula_units_Z   1
loop_
 _symmetry_equiv_pos_site_id
 _symmetry_equiv_pos_as_xyz
  1  'x, y, z'
loop_
 _atom_site_type_symbol
 _atom_site_label
 _atom_site_symmetry_multiplicity
 _atom_site_fract_x
 _atom_site_fract_y
 _atom_site_fract_z
 _atom_site_occupancy
  Yb  Yb0  1  0.500000  0.370518  0.848825  1
  Yb  Yb1  1  0.500000  0.128652  0.350636  1
  Yb  Yb2  1  0.500000  0.870824  0.650167  1
  Tm  Tm3  1  0.500000  0.629395  0.150588  1
  Tc  Tc4  1  0.500000  0.629649  0.415795  1
  Tc  Tc5  1  0.500000  0.369284  0.582857  1
  Tc  Tc6  1  0.500000  0.130297  0.084682  1
  Tc  Tc7  1  0.500000  0.868167  0.917337  1
  B  B8  1  0.000000  0.976853  0.193093  1
  B  B9  1  0.000000  0.022148  0.807585  1
  B  B10  1  0.000000  0.477536  0.306600  1
  B  B11  1  0.000000  0.522288  0.692614  1
  B  B12  1  0.000000  0.786820  0.314667  1
  B  B13  1  0.000000  0.214232  0.684853  1
  B  B14  1  0.000000  0.286598  0.185096  1
  B  B15  1  0.000000  0.714982  0.814900  1
  B  B16  1  0.000000  0.866077  0.467658  1
  B  B17  1  0.000000  0.134234  0.532092  1
  B  B18  1  0.000000  0.365501  0.031982  1
  B  B19  1  0.000000  0.634721  0.968346  1
  B  B20  1  0.000000  0.886918  0.047955  1
  B  B21  1  0.000000  0.113758  0.952693  1
  B  B22  1  0.000000  0.386418  0.452007  1
  B  B23  1  0.000000  0.614131  0.546974  1
