# generated using pymatgen
data_Tl(S8F)3
_symmetry_space_group_name_H-M   'P 1'
_cell_length_a   14.62112034
_cell_length_b   14.62112004
_cell_length_c   14.62112021
_cell_angle_alpha   118.59890425
_cell_angle_beta   118.59890335
_cell_angle_gamma   118.59889246
_symmetry_Int_Tables_number   1
_chemical_formula_structural   Tl(S8F)3
_chemical_formula_sum   'Tl1 S24 F3'
_cell_volume   954.49612520
_cell_formula_units_Z   1
loop_
 _symmetry_equiv_pos_site_id
 _symmetry_equiv_pos_as_xyz
  1  'x, y, z'
loop_
 _atom_site_type_symbol
 _atom_site_label
 _atom_site_symmetry_multiplicity
 _atom_site_fract_x
 _atom_site_fract_y
 _atom_site_fract_z
 _atom_site_occupancy
  Tl  Tl0  1  0.933449  0.933449  0.933449  1
  S  S1  1  0.802849  0.528194  0.528194  1
  S  S2  1  0.528194  0.528194  0.802849  1
  S  S3  1  0.528194  0.802849  0.528194  1
  S  S4  1  0.251862  0.385754  0.636816  1
  S  S5  1  0.342926  0.946121  0.342926  1
  S  S6  1  0.342926  0.342926  0.946121  1
  S  S7  1  0.946121  0.342926  0.342926  1
  S  S8  1  0.121056  0.735947  0.253812  1
  S  S9  1  0.253812  0.121056  0.735947  1
  S  S10  1  0.735947  0.253812  0.121056  1
  S  S11  1  0.735947  0.121056  0.253812  1
  S  S12  1  0.253812  0.735947  0.121056  1
  S  S13  1  0.121056  0.253812  0.735947  1
  S  S14  1  0.345648  0.878586  0.532965  1
  S  S15  1  0.532965  0.345648  0.878586  1
  S  S16  1  0.878586  0.532965  0.345648  1
  S  S17  1  0.878586  0.345648  0.532965  1
  S  S18  1  0.532965  0.878586  0.345648  1
  S  S19  1  0.345648  0.532965  0.878586  1
  S  S20  1  0.251862  0.636816  0.385754  1
  S  S21  1  0.385754  0.251862  0.636816  1
  S  S22  1  0.636816  0.385754  0.251862  1
  S  S23  1  0.636816  0.251862  0.385754  1
  S  S24  1  0.385754  0.636816  0.251862  1
  F  F25  1  0.844932  0.985407  0.985407  1
  F  F26  1  0.985407  0.985407  0.844932  1
  F  F27  1  0.985407  0.844932  0.985407  1
