# generated using pymatgen
data_Hf(NbS2)5
_symmetry_space_group_name_H-M   'P 1'
_cell_length_a   5.84921793
_cell_length_b   7.35334706
_cell_length_c   8.11748474
_cell_angle_alpha   109.80777942
_cell_angle_beta   97.08337959
_cell_angle_gamma   105.17046848
_symmetry_Int_Tables_number   1
_chemical_formula_structural   Hf(NbS2)5
_chemical_formula_sum   'Hf1 Nb5 S10'
_cell_volume   308.27851253
_cell_formula_units_Z   1
loop_
 _symmetry_equiv_pos_site_id
 _symmetry_equiv_pos_as_xyz
  1  'x, y, z'
loop_
 _atom_site_type_symbol
 _atom_site_label
 _atom_site_symmetry_multiplicity
 _atom_site_fract_x
 _atom_site_fract_y
 _atom_site_fract_z
 _atom_site_occupancy
  Hf  Hf0  1  0.669277  0.514700  0.988874  1
  Nb  Nb1  1  0.004033  0.997490  0.001465  1
  Nb  Nb2  1  0.598690  0.203248  0.203728  1
  Nb  Nb3  1  0.197792  0.399633  0.398292  1
  Nb  Nb4  1  0.796747  0.598321  0.602461  1
  Nb  Nb5  1  0.401122  0.794843  0.799539  1
  S  S6  1  0.234104  0.052561  0.300472  1
  S  S7  1  0.045970  0.645333  0.902586  1
  S  S8  1  0.833740  0.250937  0.498302  1
  S  S9  1  0.634232  0.857785  0.110931  1
  S  S10  1  0.421023  0.432951  0.690528  1
  S  S11  1  0.899722  0.556446  0.301911  1
  S  S12  1  0.700368  0.148126  0.898661  1
  S  S13  1  0.499022  0.748794  0.503261  1
  S  S14  1  0.297887  0.351742  0.097687  1
  S  S15  1  0.099072  0.944688  0.702900  1
