# generated using pymatgen
data_Er10In8Cu3Rh
_symmetry_space_group_name_H-M   'P 1'
_cell_length_a   3.61267600
_cell_length_b   8.03877278
_cell_length_c   17.97848307
_cell_angle_alpha   89.98218963
_cell_angle_beta   90.00000000
_cell_angle_gamma   90.00000000
_symmetry_Int_Tables_number   1
_chemical_formula_structural   Er10In8Cu3Rh
_chemical_formula_sum   'Er10 In8 Cu3 Rh1'
_cell_volume   522.12175792
_cell_formula_units_Z   1
loop_
 _symmetry_equiv_pos_site_id
 _symmetry_equiv_pos_as_xyz
  1  'x, y, z'
loop_
 _atom_site_type_symbol
 _atom_site_label
 _atom_site_symmetry_multiplicity
 _atom_site_fract_x
 _atom_site_fract_y
 _atom_site_fract_z
 _atom_site_occupancy
  Er  Er0  1  0.000000  0.116379  0.414660  1
  Er  Er1  1  0.000000  0.879223  0.584419  1
  Er  Er2  1  0.000000  0.380535  0.915635  1
  Er  Er3  1  0.000000  0.618205  0.083797  1
  Er  Er4  1  0.000000  0.231461  0.221053  1
  Er  Er5  1  0.000000  0.758109  0.779583  1
  Er  Er6  1  0.000000  0.259303  0.719939  1
  Er  Er7  1  0.000000  0.757513  0.281273  1
  Er  Er8  1  0.000000  0.001244  0.999792  1
  Er  Er9  1  0.000000  0.500659  0.500035  1
  In  In10  1  0.500000  0.423421  0.348347  1
  In  In11  1  0.500000  0.575342  0.650417  1
  In  In12  1  0.500000  0.076141  0.849611  1
  In  In13  1  0.500000  0.921831  0.148499  1
  In  In14  1  0.500000  0.293319  0.068353  1
  In  In15  1  0.500000  0.707409  0.931199  1
  In  In16  1  0.500000  0.207061  0.568661  1
  In  In17  1  0.500000  0.793145  0.432646  1
  Cu  Cu18  1  0.500000  0.973516  0.697819  1
  Cu  Cu19  1  0.500000  0.473242  0.802097  1
  Cu  Cu20  1  0.500000  0.525399  0.197661  1
  Rh  Rh21  1  0.500000  0.027543  0.304503  1
