# generated using pymatgen
data_TmSn6(RuRh)2
_symmetry_space_group_name_H-M   'P 1'
_cell_length_a   6.95395922
_cell_length_b   6.94266393
_cell_length_c   6.95395927
_cell_angle_alpha   120.25285193
_cell_angle_beta   120.18546022
_cell_angle_gamma   89.66718981
_symmetry_Int_Tables_number   1
_chemical_formula_structural   TmSn6(RuRh)2
_chemical_formula_sum   'Tm1 Sn6 Ru2 Rh2'
_cell_volume   236.50975389
_cell_formula_units_Z   1
loop_
 _symmetry_equiv_pos_site_id
 _symmetry_equiv_pos_as_xyz
  1  'x, y, z'
loop_
 _atom_site_type_symbol
 _atom_site_label
 _atom_site_symmetry_multiplicity
 _atom_site_fract_x
 _atom_site_fract_y
 _atom_site_fract_z
 _atom_site_occupancy
  Tm  Tm0  1  0.989309  0.000000  0.989309  1
  Sn  Sn1  1  0.876783  0.536887  0.003565  1
  Sn  Sn2  1  0.540185  0.879378  0.007009  1
  Sn  Sn3  1  0.127631  0.120622  0.660807  1
  Sn  Sn4  1  0.999831  0.500000  0.499831  1
  Sn  Sn5  1  0.466678  0.463113  0.339895  1
  Sn  Sn6  1  0.502213  0.000000  0.502213  1
  Ru  Ru7  1  0.604570  0.243460  0.999310  1
  Ru  Ru8  1  0.755850  0.756540  0.361111  1
  Rh  Rh9  1  0.242232  0.604183  0.998900  1
  Rh  Rh10  1  0.394718  0.395817  0.638049  1
