# generated using pymatgen
data_YbNp3Al15(SiIr2)3
_symmetry_space_group_name_H-M   'P 1'
_cell_length_a   7.56420414
_cell_length_b   7.50872842
_cell_length_c   9.43236770
_cell_angle_alpha   90.01425670
_cell_angle_beta   89.83322782
_cell_angle_gamma   119.78915725
_symmetry_Int_Tables_number   1
_chemical_formula_structural   YbNp3Al15(SiIr2)3
_chemical_formula_sum   'Yb1 Np3 Al15 Si3 Ir6'
_cell_volume   464.94065393
_cell_formula_units_Z   1
loop_
 _symmetry_equiv_pos_site_id
 _symmetry_equiv_pos_as_xyz
  1  'x, y, z'
loop_
 _atom_site_type_symbol
 _atom_site_label
 _atom_site_symmetry_multiplicity
 _atom_site_fract_x
 _atom_site_fract_y
 _atom_site_fract_z
 _atom_site_occupancy
  Yb  Yb0  1  0.318472  0.989115  0.749233  1
  Np  Np1  1  0.995013  0.663204  0.249936  1
  Np  Np2  1  0.006630  0.345702  0.757546  1
  Np  Np3  1  0.675376  0.003034  0.249930  1
  Al  Al4  1  0.130925  0.126865  0.248816  1
  Al  Al5  1  0.872848  0.875093  0.748662  1
  Al  Al6  1  0.339929  0.005481  0.424797  1
  Al  Al7  1  0.004880  0.329315  0.432877  1
  Al  Al8  1  0.667218  0.003542  0.577696  1
  Al  Al9  1  0.659316  0.995906  0.921842  1
  Al  Al10  1  0.338896  0.002472  0.074912  1
  Al  Al11  1  0.331731  0.328988  0.561079  1
  Al  Al12  1  0.661006  0.666670  0.444544  1
  Al  Al13  1  0.662134  0.668211  0.057855  1
  Al  Al14  1  0.337381  0.330742  0.941274  1
  Al  Al15  1  0.338933  0.550073  0.248772  1
  Al  Al16  1  0.662413  0.452016  0.748767  1
  Al  Al17  1  0.545863  0.343024  0.248247  1
  Al  Al18  1  0.455643  0.656170  0.748650  1
  Si  Si19  1  0.000251  0.327852  0.074264  1
  Si  Si20  1  0.996884  0.674039  0.933835  1
  Si  Si21  1  0.998336  0.664199  0.566273  1
  Ir  Ir22  1  0.686874  0.337692  0.000333  1
  Ir  Ir23  1  0.311446  0.661560  0.996268  1
  Ir  Ir24  1  0.321639  0.670821  0.500698  1
  Ir  Ir25  1  0.680146  0.336729  0.496434  1
  Ir  Ir26  1  0.999715  0.000381  0.998762  1
  Ir  Ir27  1  0.000100  0.991099  0.497701  1
