# generated using pymatgen
data_LaSmTh2(Al8Pt3)3
_symmetry_space_group_name_H-M   'P 1'
_cell_length_a   7.60470189
_cell_length_b   7.61370936
_cell_length_c   13.28935200
_cell_angle_alpha   84.49918882
_cell_angle_beta   78.97376880
_cell_angle_gamma   59.92064673
_symmetry_Int_Tables_number   1
_chemical_formula_structural   LaSmTh2(Al8Pt3)3
_chemical_formula_sum   'La1 Sm1 Th2 Al24 Pt9'
_cell_volume   653.54121554
_cell_formula_units_Z   1
loop_
 _symmetry_equiv_pos_site_id
 _symmetry_equiv_pos_as_xyz
  1  'x, y, z'
loop_
 _atom_site_type_symbol
 _atom_site_label
 _atom_site_symmetry_multiplicity
 _atom_site_fract_x
 _atom_site_fract_y
 _atom_site_fract_z
 _atom_site_occupancy
  La  La0  1  0.733447  0.498141  0.808501  1
  Sm  Sm1  1  0.266189  0.501891  0.192702  1
  Th  Th2  1  0.395258  0.167895  0.806142  1
  Th  Th3  1  0.604703  0.831790  0.194028  1
  Al  Al4  1  0.687884  0.833037  0.946573  1
  Al  Al5  1  0.311897  0.168636  0.055790  1
  Al  Al6  1  0.146269  0.833114  0.559527  1
  Al  Al7  1  0.854217  0.166557  0.438902  1
  Al  Al8  1  0.481552  0.167295  0.556393  1
  Al  Al9  1  0.518672  0.832756  0.442343  1
  Al  Al10  1  0.212589  0.168345  0.333822  1
  Al  Al11  1  0.788132  0.831947  0.663558  1
  Al  Al12  1  0.438644  0.509949  0.663865  1
  Al  Al13  1  0.562093  0.489702  0.333570  1
  Al  Al14  1  0.108954  0.158944  0.662746  1
  Al  Al15  1  0.892219  0.840654  0.334791  1
  Al  Al16  1  0.348662  0.502943  0.948204  1
  Al  Al17  1  0.648625  0.497050  0.055021  1
  Al  Al18  1  0.014165  0.165027  0.957035  1
  Al  Al19  1  0.986327  0.833545  0.046047  1
  Al  Al20  1  0.186091  0.500346  0.440886  1
  Al  Al21  1  0.814708  0.499714  0.557441  1
  Al  Al22  1  0.735040  0.166553  0.184267  1
  Al  Al23  1  0.260475  0.838954  0.816569  1
  Al  Al24  1  0.065167  0.633263  0.815077  1
  Al  Al25  1  0.940246  0.365200  0.185586  1
  Al  Al26  1  0.858994  0.035936  0.815916  1
  Al  Al27  1  0.138769  0.960425  0.184572  1
  Pt  Pt28  1  0.123427  0.492413  0.636883  1
  Pt  Pt29  1  0.878038  0.508252  0.362024  1
  Pt  Pt30  1  0.656405  0.169762  0.001063  1
  Pt  Pt31  1  0.342691  0.830149  0.001310  1
  Pt  Pt32  1  0.538983  0.165020  0.361748  1
  Pt  Pt33  1  0.459584  0.836076  0.637110  1
  Pt  Pt34  1  0.780088  0.171963  0.636264  1
  Pt  Pt35  1  0.221210  0.826127  0.362294  1
  Pt  Pt36  1  0.999587  0.500630  0.001433  1
