# generated using pymatgen
data_Tb4Ho8Co4BiRh
_symmetry_space_group_name_H-M   'P 1'
_cell_length_a   8.31889774
_cell_length_b   8.31890221
_cell_length_c   8.31889734
_cell_angle_alpha   110.73997258
_cell_angle_beta   110.64477230
_cell_angle_gamma   107.05557451
_symmetry_Int_Tables_number   1
_chemical_formula_structural   Tb4Ho8Co4BiRh
_chemical_formula_sum   'Tb4 Ho8 Co4 Bi1 Rh1'
_cell_volume   442.58757720
_cell_formula_units_Z   1
loop_
 _symmetry_equiv_pos_site_id
 _symmetry_equiv_pos_as_xyz
  1  'x, y, z'
loop_
 _atom_site_type_symbol
 _atom_site_label
 _atom_site_symmetry_multiplicity
 _atom_site_fract_x
 _atom_site_fract_y
 _atom_site_fract_z
 _atom_site_occupancy
  Tb  Tb0  1  0.815420  0.710510  0.525922  1
  Tb  Tb1  1  0.184580  0.289490  0.474078  1
  Tb  Tb2  1  0.184589  0.710510  0.895091  1
  Tb  Tb3  1  0.815411  0.289490  0.104909  1
  Ho  Ho4  1  0.688179  0.378186  0.690009  1
  Ho  Ho5  1  0.311821  0.621814  0.309991  1
  Ho  Ho6  1  0.688167  0.998160  0.309994  1
  Ho  Ho7  1  0.311833  0.001840  0.690006  1
  Ho  Ho8  1  0.594521  0.791414  0.803094  1
  Ho  Ho9  1  0.405479  0.208586  0.196906  1
  Ho  Ho10  1  0.988320  0.791414  0.196893  1
  Ho  Ho11  1  0.011680  0.208586  0.803107  1
  Co  Co12  1  0.622209  0.000000  0.622209  1
  Co  Co13  1  0.377791  0.000000  0.377791  1
  Co  Co14  1  0.111585  0.611591  0.500007  1
  Co  Co15  1  0.888415  0.388409  0.499993  1
  Bi  Bi16  1  0.500000  0.500000  0.000000  1
  Rh  Rh17  1  0.000000  0.000000  0.000000  1
