# generated using pymatgen
data_Th6Pd6RuAu
_symmetry_space_group_name_H-M   'P 1'
_cell_length_a   8.18312134
_cell_length_b   8.20844951
_cell_length_c   8.21441938
_cell_angle_alpha   114.52738508
_cell_angle_beta   114.43252245
_cell_angle_gamma   114.51795657
_symmetry_Int_Tables_number   1
_chemical_formula_structural   Th6Pd6RuAu
_chemical_formula_sum   'Th6 Pd6 Ru1 Au1'
_cell_volume   322.61745028
_cell_formula_units_Z   1
loop_
 _symmetry_equiv_pos_site_id
 _symmetry_equiv_pos_as_xyz
  1  'x, y, z'
loop_
 _atom_site_type_symbol
 _atom_site_label
 _atom_site_symmetry_multiplicity
 _atom_site_fract_x
 _atom_site_fract_y
 _atom_site_fract_z
 _atom_site_occupancy
  Th  Th0  1  0.398157  0.025259  0.270108  1
  Th  Th1  1  0.021754  0.274119  0.390159  1
  Th  Th2  1  0.272893  0.395107  0.027569  1
  Th  Th3  1  0.606426  0.973474  0.727317  1
  Th  Th4  1  0.966409  0.721437  0.609199  1
  Th  Th5  1  0.738817  0.618723  0.979996  1
  Pd  Pd6  1  0.497191  0.498940  0.499338  1
  Pd  Pd7  1  0.067900  0.573089  0.231324  1
  Pd  Pd8  1  0.575557  0.232255  0.070955  1
  Pd  Pd9  1  0.765454  0.930762  0.423888  1
  Pd  Pd10  1  0.929756  0.422700  0.766313  1
  Pd  Pd11  1  0.423738  0.763816  0.927300  1
  Ru  Ru12  1  0.002263  0.002022  0.001795  1
  Au  Au13  1  0.233684  0.068298  0.574738  1
