# generated using pymatgen
data_TlI19
_symmetry_space_group_name_H-M   'P 1'
_cell_length_a   10.48181514
_cell_length_b   11.77170192
_cell_length_c   10.23245000
_cell_angle_alpha   76.24148378
_cell_angle_beta   81.30867044
_cell_angle_gamma   90.57313494
_symmetry_Int_Tables_number   1
_chemical_formula_structural   TlI19
_chemical_formula_sum   'Tl1 I19'
_cell_volume   1210.87161885
_cell_formula_units_Z   1
loop_
 _symmetry_equiv_pos_site_id
 _symmetry_equiv_pos_as_xyz
  1  'x, y, z'
loop_
 _atom_site_type_symbol
 _atom_site_label
 _atom_site_symmetry_multiplicity
 _atom_site_fract_x
 _atom_site_fract_y
 _atom_site_fract_z
 _atom_site_occupancy
  Tl  Tl0  1  0.884977  0.596450  0.309533  1
  I  I1  1  0.372442  0.505915  0.547079  1
  I  I2  1  0.873939  0.483760  0.030508  1
  I  I3  1  0.625018  0.421463  0.547118  1
  I  I4  1  0.122376  0.588380  0.021843  1
  I  I5  1  0.071167  0.595989  0.565234  1
  I  I6  1  0.563842  0.324425  0.078422  1
  I  I7  1  0.912341  0.313296  0.527111  1
  I  I8  1  0.388354  0.706623  0.024295  1
  I  I9  1  0.142870  0.841952  0.554835  1
  I  I10  1  0.710904  0.121560  0.980891  1
  I  I11  1  0.821071  0.145069  0.402938  1
  I  I12  1  0.276305  0.929040  0.022681  1
  I  I13  1  0.213103  0.078378  0.570054  1
  I  I14  1  0.839857  0.947114  0.874906  1
  I  I15  1  0.705325  0.958393  0.280311  1
  I  I16  1  0.138956  0.149192  0.031244  1
  I  I17  1  0.695464  0.777336  0.514353  1
  I  I18  1  0.253142  0.318370  0.794191  1
  I  I19  1  0.388552  0.197296  0.322456  1
