# generated using pymatgen
data_MoAs(PO3)6
_symmetry_space_group_name_H-M   'P 1'
_cell_length_a   5.31308604
_cell_length_b   7.09236225
_cell_length_c   10.90330308
_cell_angle_alpha   98.23153610
_cell_angle_beta   92.52479133
_cell_angle_gamma   92.11056093
_symmetry_Int_Tables_number   1
_chemical_formula_structural   MoAs(PO3)6
_chemical_formula_sum   'Mo1 As1 P6 O18'
_cell_volume   405.84749970
_cell_formula_units_Z   1
loop_
 _symmetry_equiv_pos_site_id
 _symmetry_equiv_pos_as_xyz
  1  'x, y, z'
loop_
 _atom_site_type_symbol
 _atom_site_label
 _atom_site_symmetry_multiplicity
 _atom_site_fract_x
 _atom_site_fract_y
 _atom_site_fract_z
 _atom_site_occupancy
  Mo  Mo0  1  0.000000  0.500000  0.500000  1
  As  As1  1  0.000000  0.000000  0.000000  1
  P  P2  1  0.518202  0.959439  0.182401  1
  P  P3  1  0.245433  0.315385  0.229054  1
  P  P4  1  0.505481  0.329207  0.644186  1
  P  P5  1  0.481798  0.040561  0.817599  1
  P  P6  1  0.754567  0.684615  0.770946  1
  P  P7  1  0.494519  0.670793  0.355814  1
  O  O8  1  0.483751  0.180365  0.232366  1
  O  O9  1  0.106442  0.273364  0.103976  1
  O  O10  1  0.322315  0.885219  0.080303  1
  O  O11  1  0.228880  0.354489  0.621498  1
  O  O12  1  0.673621  0.332864  0.537051  1
  O  O13  1  0.208785  0.067240  0.844586  1
  O  O14  1  0.611087  0.479569  0.763496  1
  O  O15  1  0.893558  0.726636  0.896024  1
  O  O16  1  0.543243  0.130947  0.694410  1
  O  O17  1  0.771120  0.645511  0.378502  1
  O  O18  1  0.900374  0.696145  0.657036  1
  O  O19  1  0.791215  0.932760  0.155414  1
  O  O20  1  0.516249  0.819635  0.767634  1
  O  O21  1  0.677685  0.114781  0.919697  1
  O  O22  1  0.456757  0.869053  0.305590  1
  O  O23  1  0.099626  0.303855  0.342964  1
  O  O24  1  0.388913  0.520431  0.236504  1
  O  O25  1  0.326379  0.667136  0.462949  1
