# generated using pymatgen
data_DyY5Ru2
_symmetry_space_group_name_H-M   'P 1'
_cell_length_a   6.35767200
_cell_length_b   7.32074900
_cell_length_c   9.24660100
_cell_angle_alpha   90.00000000
_cell_angle_beta   90.00000000
_cell_angle_gamma   90.00000000
_symmetry_Int_Tables_number   1
_chemical_formula_structural   DyY5Ru2
_chemical_formula_sum   'Dy2 Y10 Ru4'
_cell_volume   430.36381927
_cell_formula_units_Z   2
loop_
 _symmetry_equiv_pos_site_id
 _symmetry_equiv_pos_as_xyz
  1  'x, y, z'
loop_
 _atom_site_type_symbol
 _atom_site_label
 _atom_site_symmetry_multiplicity
 _atom_site_fract_x
 _atom_site_fract_y
 _atom_site_fract_z
 _atom_site_occupancy
  Dy  Dy0  1  0.136287  0.456659  0.750000  1
  Dy  Dy1  1  0.363713  0.956659  0.750000  1
  Y  Y2  1  0.329007  0.676372  0.064743  1
  Y  Y3  1  0.170993  0.176372  0.435257  1
  Y  Y4  1  0.670914  0.323695  0.565533  1
  Y  Y5  1  0.829086  0.823695  0.934467  1
  Y  Y6  1  0.670914  0.323695  0.934467  1
  Y  Y7  1  0.829086  0.823695  0.565533  1
  Y  Y8  1  0.329007  0.676372  0.435257  1
  Y  Y9  1  0.170993  0.176372  0.064743  1
  Y  Y10  1  0.865263  0.542063  0.250000  1
  Y  Y11  1  0.634737  0.042063  0.250000  1
  Ru  Ru12  1  0.038695  0.885257  0.250000  1
  Ru  Ru13  1  0.461305  0.385257  0.250000  1
  Ru  Ru14  1  0.966474  0.115887  0.750000  1
  Ru  Ru15  1  0.533526  0.615887  0.750000  1
