# generated using pymatgen
data_CrBrF
_symmetry_space_group_name_H-M   'P 1'
_cell_length_a   6.81719000
_cell_length_b   6.68365900
_cell_length_c   12.77334700
_cell_angle_alpha   90.00000000
_cell_angle_beta   90.00000000
_cell_angle_gamma   90.00000000
_symmetry_Int_Tables_number   1
_chemical_formula_structural   CrBrF
_chemical_formula_sum   'Cr8 Br8 F8'
_cell_volume   582.00188697
_cell_formula_units_Z   8
loop_
 _symmetry_equiv_pos_site_id
 _symmetry_equiv_pos_as_xyz
  1  'x, y, z'
loop_
 _atom_site_type_symbol
 _atom_site_label
 _atom_site_symmetry_multiplicity
 _atom_site_fract_x
 _atom_site_fract_y
 _atom_site_fract_z
 _atom_site_occupancy
  Cr  Cr0  1  0.243983  0.130443  0.502781  1
  Cr  Cr1  1  0.743983  0.869557  0.997219  1
  Cr  Cr2  1  0.756017  0.369557  0.002781  1
  Cr  Cr3  1  0.256017  0.630443  0.497219  1
  Cr  Cr4  1  0.756017  0.869557  0.497219  1
  Cr  Cr5  1  0.256017  0.130443  0.002781  1
  Cr  Cr6  1  0.243983  0.630443  0.997219  1
  Cr  Cr7  1  0.743983  0.369557  0.502781  1
  Br  Br8  1  0.906668  0.105674  0.135049  1
  Br  Br9  1  0.406668  0.894326  0.364951  1
  Br  Br10  1  0.093332  0.394326  0.635049  1
  Br  Br11  1  0.593332  0.605674  0.864951  1
  Br  Br12  1  0.093332  0.894326  0.864951  1
  Br  Br13  1  0.593332  0.105674  0.635049  1
  Br  Br14  1  0.906668  0.605674  0.364951  1
  Br  Br15  1  0.406668  0.394326  0.135049  1
  F  F16  1  0.877353  0.125172  0.442281  1
  F  F17  1  0.377353  0.874828  0.057719  1
  F  F18  1  0.122647  0.374828  0.942281  1
  F  F19  1  0.622647  0.625172  0.557719  1
  F  F20  1  0.122647  0.874828  0.557719  1
  F  F21  1  0.622647  0.125172  0.942281  1
  F  F22  1  0.877353  0.625172  0.057719  1
  F  F23  1  0.377353  0.374828  0.442281  1
