# generated using pymatgen
data_Ac10GaSi4Pb
_symmetry_space_group_name_H-M   'P 1'
_cell_length_a   8.34934020
_cell_length_b   8.34934012
_cell_length_c   9.63443200
_cell_angle_alpha   115.67764101
_cell_angle_beta   115.67764074
_cell_angle_gamma   90.00000021
_symmetry_Int_Tables_number   1
_chemical_formula_structural   Ac10GaSi4Pb
_chemical_formula_sum   'Ac10 Ga1 Si4 Pb1'
_cell_volume   530.75360105
_cell_formula_units_Z   1
loop_
 _symmetry_equiv_pos_site_id
 _symmetry_equiv_pos_as_xyz
  1  'x, y, z'
loop_
 _atom_site_type_symbol
 _atom_site_label
 _atom_site_symmetry_multiplicity
 _atom_site_fract_x
 _atom_site_fract_y
 _atom_site_fract_z
 _atom_site_occupancy
  Ac  Ac0  1  0.515271  0.515271  0.030544  1
  Ac  Ac1  1  0.984729  0.984729  0.969456  1
  Ac  Ac2  1  0.975858  0.821780  0.282806  1
  Ac  Ac3  1  0.306948  0.461024  0.282806  1
  Ac  Ac4  1  0.821780  0.306948  0.282806  1
  Ac  Ac5  1  0.461024  0.975858  0.282806  1
  Ac  Ac6  1  0.038976  0.193052  0.717194  1
  Ac  Ac7  1  0.678220  0.524142  0.717194  1
  Ac  Ac8  1  0.193052  0.678220  0.717194  1
  Ac  Ac9  1  0.524142  0.038976  0.717194  1
  Ga  Ga10  1  0.250000  0.250000  0.500000  1
  Si  Si11  1  0.614795  0.885205  0.000000  1
  Si  Si12  1  0.385205  0.114795  0.000000  1
  Si  Si13  1  0.885205  0.385205  0.000000  1
  Si  Si14  1  0.114795  0.614795  0.000000  1
  Pb  Pb15  1  0.750000  0.750000  0.500000  1
