# generated using pymatgen
data_Rb8Tb6CoBr20
_symmetry_space_group_name_H-M   'P 1'
_cell_length_a   12.35608841
_cell_length_b   12.35608900
_cell_length_c   12.35608800
_cell_angle_alpha   59.99999734
_cell_angle_beta   59.99999575
_cell_angle_gamma   59.99999566
_symmetry_Int_Tables_number   1
_chemical_formula_structural   Rb8Tb6CoBr20
_chemical_formula_sum   'Rb8 Tb6 Co1 Br20'
_cell_volume   1333.91449904
_cell_formula_units_Z   1
loop_
 _symmetry_equiv_pos_site_id
 _symmetry_equiv_pos_as_xyz
  1  'x, y, z'
loop_
 _atom_site_type_symbol
 _atom_site_label
 _atom_site_symmetry_multiplicity
 _atom_site_fract_x
 _atom_site_fract_y
 _atom_site_fract_z
 _atom_site_occupancy
  Rb  Rb0  1  0.358996  0.358996  0.358996  1
  Rb  Rb1  1  0.641004  0.641004  0.641004  1
  Rb  Rb2  1  0.358996  0.358996  0.923013  1
  Rb  Rb3  1  0.358996  0.923013  0.358996  1
  Rb  Rb4  1  0.641004  0.641004  0.076987  1
  Rb  Rb5  1  0.641004  0.076987  0.641004  1
  Rb  Rb6  1  0.923013  0.358996  0.358996  1
  Rb  Rb7  1  0.076987  0.641004  0.641004  1
  Tb  Tb8  1  0.846002  0.153998  0.153998  1
  Tb  Tb9  1  0.153998  0.846002  0.846002  1
  Tb  Tb10  1  0.153998  0.846002  0.153998  1
  Tb  Tb11  1  0.846002  0.153998  0.846002  1
  Tb  Tb12  1  0.153998  0.153998  0.846002  1
  Tb  Tb13  1  0.846002  0.846002  0.153998  1
  Co  Co14  1  0.000000  0.000000  0.000000  1
  Br  Br15  1  0.331609  0.000000  0.000000  1
  Br  Br16  1  0.668391  0.000000  0.000000  1
  Br  Br17  1  0.000000  0.331609  0.668391  1
  Br  Br18  1  0.000000  0.668391  0.331609  1
  Br  Br19  1  0.000000  0.331609  0.000000  1
  Br  Br20  1  0.668391  0.000000  0.331609  1
  Br  Br21  1  0.000000  0.668391  0.000000  1
  Br  Br22  1  0.331609  0.000000  0.668391  1
  Br  Br23  1  0.000000  0.000000  0.331609  1
  Br  Br24  1  0.000000  0.000000  0.668391  1
  Br  Br25  1  0.668391  0.331609  0.000000  1
  Br  Br26  1  0.331609  0.668391  0.000000  1
  Br  Br27  1  0.679807  0.320193  0.320193  1
  Br  Br28  1  0.320193  0.679807  0.679807  1
  Br  Br29  1  0.320193  0.679807  0.320193  1
  Br  Br30  1  0.679807  0.320193  0.679807  1
  Br  Br31  1  0.320193  0.320193  0.679807  1
  Br  Br32  1  0.679807  0.679807  0.320193  1
  Br  Br33  1  0.250000  0.250000  0.250000  1
  Br  Br34  1  0.750000  0.750000  0.750000  1
