# generated using pymatgen
data_Zr6Zn18Ir5C
_symmetry_space_group_name_H-M   'P 1'
_cell_length_a   8.66175114
_cell_length_b   8.66175103
_cell_length_c   8.66175052
_cell_angle_alpha   60.28105800
_cell_angle_beta   60.28106047
_cell_angle_gamma   60.28106246
_symmetry_Int_Tables_number   1
_chemical_formula_structural   Zr6Zn18Ir5C
_chemical_formula_sum   'Zr6 Zn18 Ir5 C1'
_cell_volume   462.44048529
_cell_formula_units_Z   1
loop_
 _symmetry_equiv_pos_site_id
 _symmetry_equiv_pos_as_xyz
  1  'x, y, z'
loop_
 _atom_site_type_symbol
 _atom_site_label
 _atom_site_symmetry_multiplicity
 _atom_site_fract_x
 _atom_site_fract_y
 _atom_site_fract_z
 _atom_site_occupancy
  Zr  Zr0  1  0.692490  0.304179  0.304179  1
  Zr  Zr1  1  0.307510  0.695821  0.695821  1
  Zr  Zr2  1  0.304179  0.692490  0.304179  1
  Zr  Zr3  1  0.695821  0.307510  0.695821  1
  Zr  Zr4  1  0.304179  0.304179  0.692490  1
  Zr  Zr5  1  0.695821  0.695821  0.307510  1
  Zn  Zn6  1  0.118558  0.118558  0.641288  1
  Zn  Zn7  1  0.118558  0.641288  0.118558  1
  Zn  Zn8  1  0.881442  0.881442  0.358712  1
  Zn  Zn9  1  0.881442  0.358712  0.881442  1
  Zn  Zn10  1  0.641288  0.118558  0.118558  1
  Zn  Zn11  1  0.358712  0.881442  0.881442  1
  Zn  Zn12  1  0.500000  0.000000  0.000000  1
  Zn  Zn13  1  0.000000  0.500000  0.000000  1
  Zn  Zn14  1  0.000000  0.000000  0.500000  1
  Zn  Zn15  1  0.331935  0.331935  0.331935  1
  Zn  Zn16  1  0.668065  0.668065  0.668065  1
  Zn  Zn17  1  0.329530  0.329530  0.001691  1
  Zn  Zn18  1  0.329530  0.001691  0.329530  1
  Zn  Zn19  1  0.670470  0.670470  0.998309  1
  Zn  Zn20  1  0.670470  0.998309  0.670470  1
  Zn  Zn21  1  0.001691  0.329530  0.329530  1
  Zn  Zn22  1  0.998309  0.670470  0.670470  1
  Zn  Zn23  1  0.000000  0.000000  0.000000  1
  Ir  Ir24  1  0.119619  0.119619  0.119619  1
  Ir  Ir25  1  0.880381  0.880381  0.880381  1
  Ir  Ir26  1  0.000000  0.500000  0.500000  1
  Ir  Ir27  1  0.500000  0.000000  0.500000  1
  Ir  Ir28  1  0.500000  0.500000  0.000000  1
  C  C29  1  0.500000  0.500000  0.500000  1
