# generated using pymatgen
data_Dy3Tm9Co5Hg
_symmetry_space_group_name_H-M   'P 1'
_cell_length_a   8.16173676
_cell_length_b   8.16173613
_cell_length_c   8.16165121
_cell_angle_alpha   110.99988473
_cell_angle_beta   110.31861106
_cell_angle_gamma   107.12160889
_symmetry_Int_Tables_number   1
_chemical_formula_structural   Dy3Tm9Co5Hg
_chemical_formula_sum   'Dy3 Tm9 Co5 Hg1'
_cell_volume   417.98196379
_cell_formula_units_Z   1
loop_
 _symmetry_equiv_pos_site_id
 _symmetry_equiv_pos_as_xyz
  1  'x, y, z'
loop_
 _atom_site_type_symbol
 _atom_site_label
 _atom_site_symmetry_multiplicity
 _atom_site_fract_x
 _atom_site_fract_y
 _atom_site_fract_z
 _atom_site_occupancy
  Dy  Dy0  1  0.288025  0.185729  0.473754  1
  Dy  Dy1  1  0.713078  0.815388  0.528467  1
  Dy  Dy2  1  0.286972  0.814172  0.101143  1
  Tm  Tm3  1  0.714069  0.184893  0.898963  1
  Tm  Tm4  1  0.620877  0.315076  0.304235  1
  Tm  Tm5  1  0.379422  0.685365  0.694951  1
  Tm  Tm6  1  0.009586  0.315527  0.694951  1
  Tm  Tm7  1  0.989159  0.683359  0.304235  1
  Tm  Tm8  1  0.213695  0.405468  0.190949  1
  Tm  Tm9  1  0.784766  0.592360  0.808174  1
  Tm  Tm10  1  0.215814  0.023408  0.808174  1
  Tm  Tm11  1  0.785481  0.977254  0.190949  1
  Co  Co12  1  0.998264  0.375608  0.373872  1
  Co  Co13  1  0.000976  0.624084  0.625060  1
  Co  Co14  1  0.386523  0.887315  0.502035  1
  Co  Co15  1  0.614719  0.115512  0.502035  1
  Co  Co16  1  0.998446  0.999578  0.998024  1
  Hg  Hg17  1  0.500128  0.499903  0.000031  1
