# generated using pymatgen
data_K4Zr(PS3)4
_symmetry_space_group_name_H-M   'P 1'
_cell_length_a   7.39448933
_cell_length_b   7.39448922
_cell_length_c   23.62218400
_cell_angle_alpha   81.38863279
_cell_angle_beta   81.38863293
_cell_angle_gamma   65.79184628
_symmetry_Int_Tables_number   1
_chemical_formula_structural   K4Zr(PS3)4
_chemical_formula_sum   'K8 Zr2 P8 S24'
_cell_volume   1159.15978999
_cell_formula_units_Z   2
loop_
 _symmetry_equiv_pos_site_id
 _symmetry_equiv_pos_as_xyz
  1  'x, y, z'
loop_
 _atom_site_type_symbol
 _atom_site_label
 _atom_site_symmetry_multiplicity
 _atom_site_fract_x
 _atom_site_fract_y
 _atom_site_fract_z
 _atom_site_occupancy
  K  K0  1  0.840488  0.787423  0.546879  1
  K  K1  1  0.212577  0.159512  0.953121  1
  K  K2  1  0.159512  0.212577  0.453121  1
  K  K3  1  0.787423  0.840488  0.046879  1
  K  K4  1  0.679834  0.514152  0.829980  1
  K  K5  1  0.485848  0.320166  0.670020  1
  K  K6  1  0.320166  0.485848  0.170020  1
  K  K7  1  0.514152  0.679834  0.329980  1
  Zr  Zr8  1  0.082287  0.917713  0.750000  1
  Zr  Zr9  1  0.917713  0.082287  0.250000  1
  P  P10  1  0.121589  0.740506  0.876375  1
  P  P11  1  0.259494  0.878411  0.623625  1
  P  P12  1  0.878411  0.259494  0.123625  1
  P  P13  1  0.740506  0.121589  0.376375  1
  P  P14  1  0.053699  0.203197  0.608704  1
  P  P15  1  0.796803  0.946301  0.891296  1
  P  P16  1  0.946301  0.796803  0.391296  1
  P  P17  1  0.203197  0.053699  0.108704  1
  S  S18  1  0.240470  0.589008  0.946420  1
  S  S19  1  0.410992  0.759530  0.553580  1
  S  S20  1  0.759530  0.410992  0.053580  1
  S  S21  1  0.589008  0.240470  0.446420  1
  S  S22  1  0.124404  0.578664  0.810832  1
  S  S23  1  0.421336  0.875596  0.689168  1
  S  S24  1  0.875596  0.421336  0.189168  1
  S  S25  1  0.578664  0.124404  0.310832  1
  S  S26  1  0.066760  0.746760  0.665950  1
  S  S27  1  0.253240  0.933240  0.834050  1
  S  S28  1  0.933240  0.253240  0.334050  1
  S  S29  1  0.746760  0.066760  0.165950  1
  S  S30  1  0.223026  0.348260  0.573144  1
  S  S31  1  0.651740  0.776974  0.926856  1
  S  S32  1  0.776974  0.651740  0.426856  1
  S  S33  1  0.348260  0.223026  0.073144  1
  S  S34  1  0.837263  0.224030  0.563821  1
  S  S35  1  0.775970  0.162737  0.936179  1
  S  S36  1  0.162737  0.775970  0.436179  1
  S  S37  1  0.224030  0.837263  0.063821  1
  S  S38  1  0.934346  0.263552  0.695000  1
  S  S39  1  0.736448  0.065654  0.805000  1
  S  S40  1  0.065654  0.736448  0.305000  1
  S  S41  1  0.263552  0.934346  0.195000  1
