# generated using pymatgen
data_Lu3B2Ir4Rh
_symmetry_space_group_name_H-M   'P 1'
_cell_length_a   9.75604000
_cell_length_b   9.75604000
_cell_length_c   3.19804600
_cell_angle_alpha   90.00000000
_cell_angle_beta   90.00000000
_cell_angle_gamma   90.00000000
_symmetry_Int_Tables_number   1
_chemical_formula_structural   Lu3B2Ir4Rh
_chemical_formula_sum   'Lu6 B4 Ir8 Rh2'
_cell_volume   304.39103040
_cell_formula_units_Z   2
loop_
 _symmetry_equiv_pos_site_id
 _symmetry_equiv_pos_as_xyz
  1  'x, y, z'
loop_
 _atom_site_type_symbol
 _atom_site_label
 _atom_site_symmetry_multiplicity
 _atom_site_fract_x
 _atom_site_fract_y
 _atom_site_fract_z
 _atom_site_occupancy
  Lu  Lu0  1  0.825064  0.325064  0.000000  1
  Lu  Lu1  1  0.325064  0.174936  0.000000  1
  Lu  Lu2  1  0.674936  0.825064  0.000000  1
  Lu  Lu3  1  0.174936  0.674936  0.000000  1
  Lu  Lu4  1  0.000000  0.000000  0.000000  1
  Lu  Lu5  1  0.500000  0.500000  0.000000  1
  B  B6  1  0.620504  0.120504  0.000000  1
  B  B7  1  0.120504  0.379496  0.000000  1
  B  B8  1  0.879496  0.620504  0.000000  1
  B  B9  1  0.379496  0.879496  0.000000  1
  Ir  Ir10  1  0.070785  0.228284  0.500000  1
  Ir  Ir11  1  0.228284  0.929215  0.500000  1
  Ir  Ir12  1  0.771716  0.070785  0.500000  1
  Ir  Ir13  1  0.929215  0.771716  0.500000  1
  Ir  Ir14  1  0.429215  0.728284  0.500000  1
  Ir  Ir15  1  0.570785  0.271716  0.500000  1
  Ir  Ir16  1  0.728284  0.570785  0.500000  1
  Ir  Ir17  1  0.271716  0.429215  0.500000  1
  Rh  Rh18  1  0.500000  0.000000  0.500000  1
  Rh  Rh19  1  0.000000  0.500000  0.500000  1
