# generated using pymatgen
data_YWF7
_symmetry_space_group_name_H-M   'P 1'
_cell_length_a   5.71093400
_cell_length_b   9.04015618
_cell_length_c   12.16884380
_cell_angle_alpha   62.67796051
_cell_angle_beta   90.00000000
_cell_angle_gamma   90.00000000
_symmetry_Int_Tables_number   1
_chemical_formula_structural   YWF7
_chemical_formula_sum   'Y4 W4 F28'
_cell_volume   558.16275977
_cell_formula_units_Z   4
loop_
 _symmetry_equiv_pos_site_id
 _symmetry_equiv_pos_as_xyz
  1  'x, y, z'
loop_
 _atom_site_type_symbol
 _atom_site_label
 _atom_site_symmetry_multiplicity
 _atom_site_fract_x
 _atom_site_fract_y
 _atom_site_fract_z
 _atom_site_occupancy
  Y  Y0  1  0.752915  0.814174  0.767112  1
  Y  Y1  1  0.252915  0.185826  0.732888  1
  Y  Y2  1  0.247085  0.185826  0.232888  1
  Y  Y3  1  0.747085  0.814174  0.267112  1
  W  W4  1  0.754987  0.273183  0.955353  1
  W  W5  1  0.254987  0.726817  0.544647  1
  W  W6  1  0.245013  0.726817  0.044647  1
  W  W7  1  0.745013  0.273183  0.455353  1
  F  F8  1  0.466338  0.707636  0.918956  1
  F  F9  1  0.966338  0.292364  0.581044  1
  F  F10  1  0.533662  0.292364  0.081044  1
  F  F11  1  0.033662  0.707636  0.418956  1
  F  F12  1  0.454978  0.279597  0.547021  1
  F  F13  1  0.954978  0.720403  0.952979  1
  F  F14  1  0.545022  0.720403  0.452979  1
  F  F15  1  0.045022  0.279597  0.047021  1
  F  F16  1  0.774660  0.520650  0.858495  1
  F  F17  1  0.274660  0.479350  0.641505  1
  F  F18  1  0.225340  0.479350  0.141505  1
  F  F19  1  0.725340  0.520650  0.358495  1
  F  F20  1  0.759643  0.026199  0.053291  1
  F  F21  1  0.259643  0.973801  0.446709  1
  F  F22  1  0.240357  0.973801  0.946709  1
  F  F23  1  0.740357  0.026199  0.553291  1
  F  F24  1  0.975976  0.733276  0.641963  1
  F  F25  1  0.475976  0.266724  0.858037  1
  F  F26  1  0.024024  0.266724  0.358037  1
  F  F27  1  0.524024  0.733276  0.141963  1
  F  F28  1  0.032060  0.746462  0.173640  1
  F  F29  1  0.532060  0.253538  0.326360  1
  F  F30  1  0.967940  0.253538  0.826360  1
  F  F31  1  0.467940  0.746462  0.673640  1
  F  F32  1  0.428247  0.970807  0.234835  1
  F  F33  1  0.928247  0.029193  0.265165  1
  F  F34  1  0.571753  0.029193  0.765165  1
  F  F35  1  0.071753  0.970807  0.734835  1
