# generated using pymatgen
data_MgNbVF12
_symmetry_space_group_name_H-M   'P 1'
_cell_length_a   5.47306563
_cell_length_b   11.09593303
_cell_length_c   5.49546981
_cell_angle_alpha   58.53815314
_cell_angle_beta   57.98810946
_cell_angle_gamma   58.45996522
_symmetry_Int_Tables_number   1
_chemical_formula_structural   MgNbVF12
_chemical_formula_sum   'Mg1 Nb1 V1 F12'
_cell_volume   226.94144277
_cell_formula_units_Z   1
loop_
 _symmetry_equiv_pos_site_id
 _symmetry_equiv_pos_as_xyz
  1  'x, y, z'
loop_
 _atom_site_type_symbol
 _atom_site_label
 _atom_site_symmetry_multiplicity
 _atom_site_fract_x
 _atom_site_fract_y
 _atom_site_fract_z
 _atom_site_occupancy
  Mg  Mg0  1  0.503659  0.742452  0.506327  1
  Nb  Nb1  1  0.000844  0.009386  0.987283  1
  V  V2  1  0.994571  0.494757  0.011793  1
  F  F3  1  0.353896  0.063016  0.768996  1
  F  F4  1  0.304281  0.581985  0.764291  1
  F  F5  1  0.133578  0.393185  0.313128  1
  F  F6  1  0.168686  0.872193  0.328183  1
  F  F7  1  0.220752  0.350949  0.853704  1
  F  F8  1  0.244859  0.832447  0.837538  1
  F  F9  1  0.866895  0.114838  0.655581  1
  F  F10  1  0.838052  0.620357  0.689709  1
  F  F11  1  0.670939  0.439078  0.224420  1
  F  F12  1  0.681954  0.910133  0.251573  1
  F  F13  1  0.752533  0.166103  0.148127  1
  F  F14  1  0.764502  0.659121  0.159348  1
