# generated using pymatgen
data_Na4PuO5
_symmetry_space_group_name_H-M   'P 1'
_cell_length_a   5.86380367
_cell_length_b   8.89864871
_cell_length_c   5.80184503
_cell_angle_alpha   101.28147804
_cell_angle_beta   101.71560297
_cell_angle_gamma   108.19638695
_symmetry_Int_Tables_number   1
_chemical_formula_structural   Na4PuO5
_chemical_formula_sum   'Na8 Pu2 O10'
_cell_volume   270.46947375
_cell_formula_units_Z   2
loop_
 _symmetry_equiv_pos_site_id
 _symmetry_equiv_pos_as_xyz
  1  'x, y, z'
loop_
 _atom_site_type_symbol
 _atom_site_label
 _atom_site_symmetry_multiplicity
 _atom_site_fract_x
 _atom_site_fract_y
 _atom_site_fract_z
 _atom_site_occupancy
  Na  Na0  1  0.999716  0.500298  0.999749  1
  Na  Na1  1  0.414640  0.898706  0.205955  1
  Na  Na2  1  0.595227  0.593686  0.295843  1
  Na  Na3  1  0.803710  0.308858  0.413743  1
  Na  Na4  1  0.999769  0.999804  0.499937  1
  Na  Na5  1  0.196284  0.691210  0.586346  1
  Na  Na6  1  0.405273  0.406828  0.704470  1
  Na  Na7  1  0.585641  0.101044  0.793933  1
  Pu  Pu8  1  0.198861  0.202809  0.103750  1
  Pu  Pu9  1  0.800996  0.797056  0.896181  1
  O  O10  1  0.538310  0.323142  0.054226  1
  O  O11  1  0.834948  0.040541  0.125779  1
  O  O12  1  0.979252  0.756141  0.196849  1
  O  O13  1  0.186027  0.414867  0.319782  1
  O  O14  1  0.377258  0.156737  0.401763  1
  O  O15  1  0.623009  0.843094  0.598721  1
  O  O16  1  0.814023  0.584872  0.680007  1
  O  O17  1  0.020410  0.243819  0.802743  1
  O  O18  1  0.165406  0.959791  0.874465  1
  O  O19  1  0.461240  0.676698  0.945751  1
