# generated using pymatgen
data_Li3CdAu2
_symmetry_space_group_name_H-M   'P 1'
_cell_length_a   4.49565900
_cell_length_b   4.49565884
_cell_length_c   10.98841300
_cell_angle_alpha   90.00000000
_cell_angle_beta   90.00000000
_cell_angle_gamma   119.99999385
_symmetry_Int_Tables_number   1
_chemical_formula_structural   Li3CdAu2
_chemical_formula_sum   'Li6 Cd2 Au4'
_cell_volume   192.33235137
_cell_formula_units_Z   2
loop_
 _symmetry_equiv_pos_site_id
 _symmetry_equiv_pos_as_xyz
  1  'x, y, z'
loop_
 _atom_site_type_symbol
 _atom_site_label
 _atom_site_symmetry_multiplicity
 _atom_site_fract_x
 _atom_site_fract_y
 _atom_site_fract_z
 _atom_site_occupancy
  Li  Li0  1  0.333333  0.666667  0.417409  1
  Li  Li1  1  0.666667  0.333333  0.074195  1
  Li  Li2  1  0.000000  0.000000  0.758980  1
  Li  Li3  1  0.000000  0.000000  0.241020  1
  Li  Li4  1  0.333333  0.666667  0.925805  1
  Li  Li5  1  0.666667  0.333333  0.582591  1
  Cd  Cd6  1  0.333333  0.666667  0.668218  1
  Cd  Cd7  1  0.666667  0.333333  0.331782  1
  Au  Au8  1  0.000000  0.000000  0.500000  1
  Au  Au9  1  0.333333  0.666667  0.170701  1
  Au  Au10  1  0.666667  0.333333  0.829299  1
  Au  Au11  1  0.000000  0.000000  0.000000  1
