# generated using pymatgen
data_K6Li4VGaP6
_symmetry_space_group_name_H-M   'P 1'
_cell_length_a   9.71780837
_cell_length_b   9.71780747
_cell_length_c   14.83551700
_cell_angle_alpha   90.00000000
_cell_angle_beta   90.00000000
_cell_angle_gamma   142.96054726
_symmetry_Int_Tables_number   1
_chemical_formula_structural   K6Li4VGaP6
_chemical_formula_sum   'K12 Li8 V2 Ga2 P12'
_cell_volume   843.91536858
_cell_formula_units_Z   2
loop_
 _symmetry_equiv_pos_site_id
 _symmetry_equiv_pos_as_xyz
  1  'x, y, z'
loop_
 _atom_site_type_symbol
 _atom_site_label
 _atom_site_symmetry_multiplicity
 _atom_site_fract_x
 _atom_site_fract_y
 _atom_site_fract_z
 _atom_site_occupancy
  K  K0  1  0.101571  0.437433  0.669814  1
  K  K1  1  0.717879  0.723249  0.678326  1
  K  K2  1  0.223249  0.217879  0.821674  1
  K  K3  1  0.782121  0.776751  0.178326  1
  K  K4  1  0.937433  0.601571  0.830186  1
  K  K5  1  0.562567  0.898429  0.330186  1
  K  K6  1  0.398429  0.062567  0.169814  1
  K  K7  1  0.050470  0.393715  0.171310  1
  K  K8  1  0.893715  0.550470  0.328690  1
  K  K9  1  0.449530  0.106285  0.671310  1
  K  K10  1  0.606285  0.949531  0.828690  1
  K  K11  1  0.276751  0.282121  0.321674  1
  Li  Li12  1  0.918915  0.081085  0.000000  1
  Li  Li13  1  0.581085  0.418915  0.500000  1
  Li  Li14  1  0.084716  0.915284  0.000000  1
  Li  Li15  1  0.415284  0.584716  0.500000  1
  Li  Li16  1  0.748140  0.251860  0.000000  1
  Li  Li17  1  0.751860  0.248140  0.500000  1
  Li  Li18  1  0.247406  0.752594  0.000000  1
  Li  Li19  1  0.252594  0.747406  0.500000  1
  V  V20  1  0.082334  0.917666  0.500000  1
  V  V21  1  0.417666  0.582334  0.000000  1
  Ga  Ga22  1  0.912867  0.087133  0.500000  1
  Ga  Ga23  1  0.587133  0.412867  0.000000  1
  P  P24  1  0.891297  0.570139  0.094038  1
  P  P25  1  0.429861  0.108703  0.905962  1
  P  P26  1  0.608703  0.929861  0.594038  1
  P  P27  1  0.940221  0.628208  0.585603  1
  P  P28  1  0.128208  0.440221  0.914397  1
  P  P29  1  0.559779  0.871792  0.085603  1
  P  P30  1  0.371792  0.059779  0.414397  1
  P  P31  1  0.220417  0.210302  0.586015  1
  P  P32  1  0.710302  0.720417  0.913985  1
  P  P33  1  0.279583  0.289698  0.086015  1
  P  P34  1  0.070139  0.391297  0.405962  1
  P  P35  1  0.789698  0.779583  0.413985  1
