# generated using pymatgen
data_HoLu2U5(ReB6)4
_symmetry_space_group_name_H-M   'P 1'
_cell_length_a   3.62278700
_cell_length_b   9.27409748
_cell_length_c   11.38331538
_cell_angle_alpha   89.89432840
_cell_angle_beta   90.00000000
_cell_angle_gamma   90.00000000
_symmetry_Int_Tables_number   1
_chemical_formula_structural   HoLu2U5(ReB6)4
_chemical_formula_sum   'Ho1 Lu2 U5 Re4 B24'
_cell_volume   382.45688786
_cell_formula_units_Z   1
loop_
 _symmetry_equiv_pos_site_id
 _symmetry_equiv_pos_as_xyz
  1  'x, y, z'
loop_
 _atom_site_type_symbol
 _atom_site_label
 _atom_site_symmetry_multiplicity
 _atom_site_fract_x
 _atom_site_fract_y
 _atom_site_fract_z
 _atom_site_occupancy
  Ho  Ho0  1  0.000000  0.835428  0.093195  1
  Lu  Lu1  1  0.000000  0.337016  0.407842  1
  Lu  Lu2  1  0.000000  0.663322  0.591574  1
  U  U3  1  0.000000  0.163574  0.906972  1
  U  U4  1  0.000000  0.956035  0.396974  1
  U  U5  1  0.000000  0.043011  0.603294  1
  U  U6  1  0.000000  0.457611  0.104185  1
  U  U7  1  0.000000  0.543811  0.897026  1
  Re  Re8  1  0.000000  0.644070  0.320140  1
  Re  Re9  1  0.000000  0.354107  0.682274  1
  Re  Re10  1  0.000000  0.146361  0.178742  1
  Re  Re11  1  0.000000  0.856650  0.818985  1
  B  B12  1  0.500000  0.550120  0.432233  1
  B  B13  1  0.500000  0.449326  0.568667  1
  B  B14  1  0.500000  0.052092  0.067702  1
  B  B15  1  0.500000  0.950089  0.930451  1
  B  B16  1  0.500000  0.741656  0.424079  1
  B  B17  1  0.500000  0.258452  0.575769  1
  B  B18  1  0.500000  0.242871  0.076038  1
  B  B19  1  0.500000  0.756488  0.922633  1
  B  B20  1  0.500000  0.801790  0.275629  1
  B  B21  1  0.500000  0.197121  0.725819  1
  B  B22  1  0.500000  0.302716  0.225576  1
  B  B23  1  0.500000  0.697505  0.774236  1
  B  B24  1  0.500000  0.643452  0.189314  1
  B  B25  1  0.500000  0.355453  0.811494  1
  B  B26  1  0.500000  0.144895  0.311331  1
  B  B27  1  0.500000  0.854355  0.687973  1
  B  B28  1  0.500000  0.988803  0.219668  1
  B  B29  1  0.500000  0.013160  0.780792  1
  B  B30  1  0.500000  0.487252  0.281875  1
  B  B31  1  0.500000  0.512732  0.718510  1
  B  B32  1  0.500000  0.641069  0.039229  1
  B  B33  1  0.500000  0.357501  0.960281  1
  B  B34  1  0.500000  0.142522  0.460169  1
  B  B35  1  0.500000  0.857584  0.539333  1
