# generated using pymatgen
data_Tm3Sc2GaPt3
_symmetry_space_group_name_H-M   'P 1'
_cell_length_a   7.20264640
_cell_length_b   7.03024973
_cell_length_c   4.30679500
_cell_angle_alpha   90.00000000
_cell_angle_beta   90.00000000
_cell_angle_gamma   119.21134470
_symmetry_Int_Tables_number   1
_chemical_formula_structural   Tm3Sc2GaPt3
_chemical_formula_sum   'Tm3 Sc2 Ga1 Pt3'
_cell_volume   190.34630663
_cell_formula_units_Z   1
loop_
 _symmetry_equiv_pos_site_id
 _symmetry_equiv_pos_as_xyz
  1  'x, y, z'
loop_
 _atom_site_type_symbol
 _atom_site_label
 _atom_site_symmetry_multiplicity
 _atom_site_fract_x
 _atom_site_fract_y
 _atom_site_fract_z
 _atom_site_occupancy
  Tm  Tm0  1  0.000000  0.431885  0.000000  1
  Tm  Tm1  1  0.607087  0.588241  0.000000  1
  Tm  Tm2  1  0.392913  0.981154  0.000000  1
  Sc  Sc3  1  0.251071  0.243483  0.500000  1
  Sc  Sc4  1  0.748929  0.992412  0.500000  1
  Ga  Ga5  1  0.000000  0.755046  0.500000  1
  Pt  Pt6  1  0.329243  0.660923  0.500000  1
  Pt  Pt7  1  0.670757  0.331678  0.500000  1
  Pt  Pt8  1  0.000000  0.015176  0.000000  1
