# generated using pymatgen
data_DyEr5PtI10
_symmetry_space_group_name_H-M   'P 1'
_cell_length_a   7.72039778
_cell_length_b   9.71540108
_cell_length_c   9.77209543
_cell_angle_alpha   107.06630871
_cell_angle_beta   96.85092656
_cell_angle_gamma   104.62319778
_symmetry_Int_Tables_number   1
_chemical_formula_structural   DyEr5PtI10
_chemical_formula_sum   'Dy1 Er5 Pt1 I10'
_cell_volume   663.01806331
_cell_formula_units_Z   1
loop_
 _symmetry_equiv_pos_site_id
 _symmetry_equiv_pos_as_xyz
  1  'x, y, z'
loop_
 _atom_site_type_symbol
 _atom_site_label
 _atom_site_symmetry_multiplicity
 _atom_site_fract_x
 _atom_site_fract_y
 _atom_site_fract_z
 _atom_site_occupancy
  Dy  Dy0  1  0.885470  0.959221  0.241177  1
  Er  Er1  1  0.113712  0.040521  0.760913  1
  Er  Er2  1  0.344887  0.123768  0.163456  1
  Er  Er3  1  0.655542  0.876484  0.835558  1
  Er  Er4  1  0.971672  0.284169  0.084926  1
  Er  Er5  1  0.028855  0.715727  0.913516  1
  Pt  Pt6  1  0.000000  0.999846  0.999897  1
  I  I7  1  0.352138  0.449549  0.271063  1
  I  I8  1  0.647684  0.550338  0.729288  1
  I  I9  1  0.915622  0.624570  0.175917  1
  I  I10  1  0.084784  0.373295  0.822644  1
  I  I11  1  0.452608  0.817917  0.090232  1
  I  I12  1  0.545843  0.181263  0.908645  1
  I  I13  1  0.259292  0.087783  0.462959  1
  I  I14  1  0.742231  0.913038  0.540024  1
  I  I15  1  0.776372  0.258907  0.343358  1
  I  I16  1  0.223289  0.743605  0.656427  1
