# generated using pymatgen
data_Ti4GaTc24
_symmetry_space_group_name_H-M   'P 1'
_cell_length_a   8.29114328
_cell_length_b   8.29114329
_cell_length_c   8.29114300
_cell_angle_alpha   109.47121747
_cell_angle_beta   109.47121751
_cell_angle_gamma   109.47122718
_symmetry_Int_Tables_number   1
_chemical_formula_structural   Ti4GaTc24
_chemical_formula_sum   'Ti4 Ga1 Tc24'
_cell_volume   438.75426873
_cell_formula_units_Z   1
loop_
 _symmetry_equiv_pos_site_id
 _symmetry_equiv_pos_as_xyz
  1  'x, y, z'
loop_
 _atom_site_type_symbol
 _atom_site_label
 _atom_site_symmetry_multiplicity
 _atom_site_fract_x
 _atom_site_fract_y
 _atom_site_fract_z
 _atom_site_occupancy
  Ti  Ti0  1  0.633378  0.000000  0.000000  1
  Ti  Ti1  1  0.000000  0.633378  0.000000  1
  Ti  Ti2  1  0.000000  0.000000  0.633378  1
  Ti  Ti3  1  0.366622  0.366622  0.366622  1
  Ga  Ga4  1  0.000000  0.000000  0.000000  1
  Tc  Tc5  1  0.395580  0.678003  0.000000  1
  Tc  Tc6  1  0.717576  0.321997  0.321997  1
  Tc  Tc7  1  0.395580  0.000000  0.678003  1
  Tc  Tc8  1  0.678003  0.395580  0.000000  1
  Tc  Tc9  1  0.000000  0.395580  0.678003  1
  Tc  Tc10  1  0.321997  0.717576  0.321997  1
  Tc  Tc11  1  0.321997  0.321997  0.717576  1
  Tc  Tc12  1  0.000000  0.678003  0.395580  1
  Tc  Tc13  1  0.678003  0.000000  0.395580  1
  Tc  Tc14  1  0.604420  0.604420  0.282424  1
  Tc  Tc15  1  0.282424  0.604420  0.604420  1
  Tc  Tc16  1  0.604420  0.282424  0.604420  1
  Tc  Tc17  1  0.372963  0.193131  0.000000  1
  Tc  Tc18  1  0.179832  0.806869  0.806869  1
  Tc  Tc19  1  0.372963  0.000000  0.193131  1
  Tc  Tc20  1  0.193131  0.372963  0.000000  1
  Tc  Tc21  1  0.000000  0.372963  0.193131  1
  Tc  Tc22  1  0.806869  0.179832  0.806869  1
  Tc  Tc23  1  0.806869  0.806869  0.179832  1
  Tc  Tc24  1  0.000000  0.193131  0.372963  1
  Tc  Tc25  1  0.193131  0.000000  0.372963  1
  Tc  Tc26  1  0.627037  0.627037  0.820168  1
  Tc  Tc27  1  0.820168  0.627037  0.627037  1
  Tc  Tc28  1  0.627037  0.820168  0.627037  1
