# generated using pymatgen
data_Zr3V(Ni4As3)2
_symmetry_space_group_name_H-M   'P 1'
_cell_length_a   12.61355997
_cell_length_b   12.57783972
_cell_length_c   3.79123600
_cell_angle_alpha   90.00000000
_cell_angle_beta   90.00000000
_cell_angle_gamma   119.90635884
_symmetry_Int_Tables_number   1
_chemical_formula_structural   Zr3V(Ni4As3)2
_chemical_formula_sum   'Zr6 V2 Ni16 As12'
_cell_volume   521.39181223
_cell_formula_units_Z   2
loop_
 _symmetry_equiv_pos_site_id
 _symmetry_equiv_pos_as_xyz
  1  'x, y, z'
loop_
 _atom_site_type_symbol
 _atom_site_label
 _atom_site_symmetry_multiplicity
 _atom_site_fract_x
 _atom_site_fract_y
 _atom_site_fract_z
 _atom_site_occupancy
  Zr  Zr0  1  0.000000  0.555923  0.000000  1
  Zr  Zr1  1  0.663483  0.332173  0.000000  1
  Zr  Zr2  1  0.336517  0.668691  0.000000  1
  Zr  Zr3  1  0.819047  0.817961  0.500000  1
  Zr  Zr4  1  0.180953  0.998914  0.500000  1
  Zr  Zr5  1  0.000000  0.174017  0.500000  1
  V  V6  1  0.443855  0.444716  0.000000  1
  V  V7  1  0.556145  0.000861  0.000000  1
  Ni  Ni8  1  0.197643  0.374310  0.000000  1
  Ni  Ni9  1  0.184270  0.812457  0.000000  1
  Ni  Ni10  1  0.815730  0.628188  0.000000  1
  Ni  Ni11  1  0.802357  0.176667  0.000000  1
  Ni  Ni12  1  0.375555  0.195280  0.000000  1
  Ni  Ni13  1  0.125829  0.476491  0.500000  1
  Ni  Ni14  1  0.358947  0.880743  0.500000  1
  Ni  Ni15  1  0.520077  0.647756  0.500000  1
  Ni  Ni16  1  0.641053  0.521797  0.500000  1
  Ni  Ni17  1  0.874171  0.350661  0.500000  1
  Ni  Ni18  1  0.479923  0.127679  0.500000  1
  Ni  Ni19  1  0.000000  0.000044  0.000000  1
  Ni  Ni20  1  0.719265  0.000459  0.500000  1
  Ni  Ni21  1  0.000000  0.721128  0.500000  1
  Ni  Ni22  1  0.624445  0.819726  0.000000  1
  Ni  Ni23  1  0.280735  0.281194  0.500000  1
  As  As24  1  0.637120  0.640610  0.000000  1
  As  As25  1  0.362880  0.003490  0.000000  1
  As  As26  1  0.000000  0.345665  0.000000  1
  As  As27  1  0.483885  0.320043  0.500000  1
  As  As28  1  0.679550  0.165459  0.500000  1
  As  As29  1  0.823450  0.511364  0.500000  1
  As  As30  1  0.516115  0.836158  0.500000  1
  As  As31  1  0.176550  0.687914  0.500000  1
  As  As32  1  0.821464  0.997048  0.000000  1
  As  As33  1  0.000000  0.822908  0.000000  1
  As  As34  1  0.320450  0.485910  0.500000  1
  As  As35  1  0.178536  0.175584  0.000000  1
