# generated using pymatgen
data_AlHg3AsSeBr4
_symmetry_space_group_name_H-M   'P 1'
_cell_length_a   7.70018300
_cell_length_b   7.70018267
_cell_length_c   13.00847300
_cell_angle_alpha   90.00000000
_cell_angle_beta   90.00000000
_cell_angle_gamma   119.99999712
_symmetry_Int_Tables_number   1
_chemical_formula_structural   AlHg3AsSeBr4
_chemical_formula_sum   'Al2 Hg6 As2 Se2 Br8'
_cell_volume   667.97320070
_cell_formula_units_Z   2
loop_
 _symmetry_equiv_pos_site_id
 _symmetry_equiv_pos_as_xyz
  1  'x, y, z'
loop_
 _atom_site_type_symbol
 _atom_site_label
 _atom_site_symmetry_multiplicity
 _atom_site_fract_x
 _atom_site_fract_y
 _atom_site_fract_z
 _atom_site_occupancy
  Al  Al0  1  0.000000  0.000000  0.261691  1
  Al  Al1  1  0.000000  0.000000  0.761691  1
  Hg  Hg2  1  0.504164  0.008328  0.468474  1
  Hg  Hg3  1  0.504164  0.495836  0.468474  1
  Hg  Hg4  1  0.991672  0.495836  0.468474  1
  Hg  Hg5  1  0.495836  0.991672  0.968474  1
  Hg  Hg6  1  0.495836  0.504164  0.968474  1
  Hg  Hg7  1  0.008328  0.504164  0.968474  1
  As  As8  1  0.666667  0.333333  0.570824  1
  As  As9  1  0.333333  0.666667  0.070824  1
  Se  Se10  1  0.333333  0.666667  0.372887  1
  Se  Se11  1  0.666667  0.333333  0.872887  1
  Br  Br12  1  0.331435  0.165717  0.208319  1
  Br  Br13  1  0.834283  0.668565  0.208319  1
  Br  Br14  1  0.834283  0.165717  0.208319  1
  Br  Br15  1  0.668565  0.834283  0.708319  1
  Br  Br16  1  0.165717  0.331435  0.708319  1
  Br  Br17  1  0.165717  0.834283  0.708319  1
  Br  Br18  1  0.000000  0.000000  0.442084  1
  Br  Br19  1  0.000000  0.000000  0.942084  1
