# generated using pymatgen
data_FeAgI4
_symmetry_space_group_name_H-M   'P 1'
_cell_length_a   7.96210000
_cell_length_b   7.97000106
_cell_length_c   15.28063039
_cell_angle_alpha   89.40818864
_cell_angle_beta   90.00000000
_cell_angle_gamma   90.00000000
_symmetry_Int_Tables_number   1
_chemical_formula_structural   FeAgI4
_chemical_formula_sum   'Fe4 Ag4 I16'
_cell_volume   969.62568247
_cell_formula_units_Z   4
loop_
 _symmetry_equiv_pos_site_id
 _symmetry_equiv_pos_as_xyz
  1  'x, y, z'
loop_
 _atom_site_type_symbol
 _atom_site_label
 _atom_site_symmetry_multiplicity
 _atom_site_fract_x
 _atom_site_fract_y
 _atom_site_fract_z
 _atom_site_occupancy
  Fe  Fe0  1  0.173198  0.710912  0.598901  1
  Fe  Fe1  1  0.826802  0.289088  0.401099  1
  Fe  Fe2  1  0.673198  0.289088  0.901099  1
  Fe  Fe3  1  0.326802  0.710912  0.098901  1
  Ag  Ag4  1  0.477105  0.846352  0.873867  1
  Ag  Ag5  1  0.522895  0.153648  0.126133  1
  Ag  Ag6  1  0.977105  0.153648  0.626133  1
  Ag  Ag7  1  0.022895  0.846352  0.373867  1
  I  I8  1  0.174966  0.433436  0.685693  1
  I  I9  1  0.825034  0.566564  0.314307  1
  I  I10  1  0.674966  0.566564  0.814307  1
  I  I11  1  0.325034  0.433436  0.185693  1
  I  I12  1  0.324645  0.930174  0.691800  1
  I  I13  1  0.675355  0.069826  0.308200  1
  I  I14  1  0.824645  0.069826  0.808200  1
  I  I15  1  0.175355  0.930174  0.191800  1
  I  I16  1  0.178433  0.684214  0.951383  1
  I  I17  1  0.821567  0.315786  0.048617  1
  I  I18  1  0.678433  0.315786  0.548617  1
  I  I19  1  0.321567  0.684214  0.451383  1
  I  I20  1  0.869322  0.814206  0.572554  1
  I  I21  1  0.130678  0.185794  0.427446  1
  I  I22  1  0.369322  0.185794  0.927446  1
  I  I23  1  0.630678  0.814206  0.072554  1
