# generated using pymatgen
data_LiSc19(Cd3Ru)2
_symmetry_space_group_name_H-M   'P 1'
_cell_length_a   8.91833200
_cell_length_b   8.91833194
_cell_length_c   9.16395600
_cell_angle_alpha   90.00000000
_cell_angle_beta   90.00000000
_cell_angle_gamma   120.00000023
_symmetry_Int_Tables_number   1
_chemical_formula_structural   LiSc19(Cd3Ru)2
_chemical_formula_sum   'Li1 Sc19 Cd6 Ru2'
_cell_volume   631.22020842
_cell_formula_units_Z   1
loop_
 _symmetry_equiv_pos_site_id
 _symmetry_equiv_pos_as_xyz
  1  'x, y, z'
loop_
 _atom_site_type_symbol
 _atom_site_label
 _atom_site_symmetry_multiplicity
 _atom_site_fract_x
 _atom_site_fract_y
 _atom_site_fract_z
 _atom_site_occupancy
  Li  Li0  1  0.000000  0.000000  0.500000  1
  Sc  Sc1  1  0.000000  0.000000  0.000000  1
  Sc  Sc2  1  0.208483  0.791517  0.441851  1
  Sc  Sc3  1  0.208483  0.416966  0.441851  1
  Sc  Sc4  1  0.583034  0.791517  0.441851  1
  Sc  Sc5  1  0.791517  0.208483  0.558149  1
  Sc  Sc6  1  0.791517  0.583034  0.558149  1
  Sc  Sc7  1  0.416966  0.208483  0.558149  1
  Sc  Sc8  1  0.789729  0.210271  0.943161  1
  Sc  Sc9  1  0.789729  0.579457  0.943161  1
  Sc  Sc10  1  0.420543  0.210271  0.943161  1
  Sc  Sc11  1  0.210271  0.789729  0.056839  1
  Sc  Sc12  1  0.210271  0.420543  0.056839  1
  Sc  Sc13  1  0.579457  0.789729  0.056839  1
  Sc  Sc14  1  0.541762  0.458238  0.252025  1
  Sc  Sc15  1  0.541762  0.083523  0.252025  1
  Sc  Sc16  1  0.916477  0.458238  0.252025  1
  Sc  Sc17  1  0.458238  0.541762  0.747975  1
  Sc  Sc18  1  0.458238  0.916477  0.747975  1
  Sc  Sc19  1  0.083523  0.541762  0.747975  1
  Cd  Cd20  1  0.887279  0.112721  0.257403  1
  Cd  Cd21  1  0.887279  0.774560  0.257403  1
  Cd  Cd22  1  0.225440  0.112721  0.257403  1
  Cd  Cd23  1  0.112721  0.887279  0.742597  1
  Cd  Cd24  1  0.112721  0.225440  0.742597  1
  Cd  Cd25  1  0.774560  0.887279  0.742597  1
  Ru  Ru26  1  0.333333  0.666667  0.250638  1
  Ru  Ru27  1  0.666667  0.333333  0.749362  1
