# generated using pymatgen
data_Lu5NiBiAs
_symmetry_space_group_name_H-M   'P 1'
_cell_length_a   8.29696158
_cell_length_b   8.29696191
_cell_length_c   8.69014169
_cell_angle_alpha   125.14921896
_cell_angle_beta   125.14921918
_cell_angle_gamma   78.11315952
_symmetry_Int_Tables_number   1
_chemical_formula_structural   Lu5NiBiAs
_chemical_formula_sum   'Lu10 Ni2 Bi2 As2'
_cell_volume   392.84474917
_cell_formula_units_Z   2
loop_
 _symmetry_equiv_pos_site_id
 _symmetry_equiv_pos_as_xyz
  1  'x, y, z'
loop_
 _atom_site_type_symbol
 _atom_site_label
 _atom_site_symmetry_multiplicity
 _atom_site_fract_x
 _atom_site_fract_y
 _atom_site_fract_z
 _atom_site_occupancy
  Lu  Lu0  1  0.000000  0.000000  0.000000  1
  Lu  Lu1  1  0.500000  0.500000  0.000000  1
  Lu  Lu2  1  0.773108  0.273108  0.776310  1
  Lu  Lu3  1  0.226892  0.726892  0.223690  1
  Lu  Lu4  1  0.496798  0.996798  0.223690  1
  Lu  Lu5  1  0.300316  0.464511  0.500000  1
  Lu  Lu6  1  0.035489  0.199684  0.500000  1
  Lu  Lu7  1  0.503202  0.003202  0.776310  1
  Lu  Lu8  1  0.699684  0.535489  0.500000  1
  Lu  Lu9  1  0.964511  0.800316  0.500000  1
  Ni  Ni10  1  0.635239  0.864761  0.500000  1
  Ni  Ni11  1  0.364761  0.135239  0.500000  1
  Bi  Bi12  1  0.250000  0.250000  0.000000  1
  Bi  Bi13  1  0.750000  0.750000  0.000000  1
  As  As14  1  0.153208  0.653208  0.806418  1
  As  As15  1  0.846792  0.346792  0.193582  1
