# generated using pymatgen
data_LaTb6Nd3Si8
_symmetry_space_group_name_H-M   'P 1'
_cell_length_a   7.78875900
_cell_length_b   7.78844925
_cell_length_c   14.52189400
_cell_angle_alpha   90.00000000
_cell_angle_beta   90.00000000
_cell_angle_gamma   89.90263659
_symmetry_Int_Tables_number   1
_chemical_formula_structural   LaTb6Nd3Si8
_chemical_formula_sum   'La2 Tb12 Nd6 Si16'
_cell_volume   880.93100491
_cell_formula_units_Z   2
loop_
 _symmetry_equiv_pos_site_id
 _symmetry_equiv_pos_as_xyz
  1  'x, y, z'
loop_
 _atom_site_type_symbol
 _atom_site_label
 _atom_site_symmetry_multiplicity
 _atom_site_fract_x
 _atom_site_fract_y
 _atom_site_fract_z
 _atom_site_occupancy
  La  La0  1  0.637299  0.989064  0.455582  1
  La  La1  1  0.362701  0.010936  0.955582  1
  Tb  Tb2  1  0.489518  0.365129  0.125273  1
  Tb  Tb3  1  0.987675  0.135550  0.625189  1
  Tb  Tb4  1  0.864337  0.011839  0.874548  1
  Tb  Tb5  1  0.135663  0.988161  0.374548  1
  Tb  Tb6  1  0.510482  0.634871  0.625273  1
  Tb  Tb7  1  0.365039  0.488755  0.874667  1
  Tb  Tb8  1  0.634961  0.511245  0.374667  1
  Tb  Tb9  1  0.012325  0.864450  0.125189  1
  Tb  Tb10  1  0.314033  0.314670  0.499994  1
  Tb  Tb11  1  0.184764  0.814328  0.750156  1
  Tb  Tb12  1  0.815236  0.185672  0.250156  1
  Tb  Tb13  1  0.685967  0.685330  0.999994  1
  Nd  Nd14  1  0.990059  0.634599  0.545459  1
  Nd  Nd15  1  0.490892  0.864220  0.204962  1
  Nd  Nd16  1  0.509108  0.135780  0.704962  1
  Nd  Nd17  1  0.864964  0.489954  0.795042  1
  Nd  Nd18  1  0.135036  0.510046  0.295042  1
  Nd  Nd19  1  0.009941  0.365401  0.045459  1
  Si  Si20  1  0.285737  0.930156  0.561233  1
  Si  Si21  1  0.714263  0.069844  0.061233  1
  Si  Si22  1  0.932521  0.289997  0.438964  1
  Si  Si23  1  0.429908  0.212296  0.310540  1
  Si  Si24  1  0.570092  0.787704  0.810540  1
  Si  Si25  1  0.210927  0.432043  0.688649  1
  Si  Si26  1  0.789073  0.567957  0.188649  1
  Si  Si27  1  0.067479  0.710003  0.938964  1
  Si  Si28  1  0.799335  0.840674  0.693111  1
  Si  Si29  1  0.200665  0.159326  0.193111  1
  Si  Si30  1  0.841926  0.798422  0.305632  1
  Si  Si31  1  0.339052  0.698699  0.443487  1
  Si  Si32  1  0.660948  0.301301  0.943487  1
  Si  Si33  1  0.701188  0.343192  0.557512  1
  Si  Si34  1  0.298812  0.656808  0.057512  1
  Si  Si35  1  0.158074  0.201578  0.805632  1
