# generated using pymatgen
data_Tm6Lu4CuGePb6
_symmetry_space_group_name_H-M   'P 1'
_cell_length_a   9.09853000
_cell_length_b   9.09852990
_cell_length_c   6.65263400
_cell_angle_alpha   90.00000000
_cell_angle_beta   90.00000000
_cell_angle_gamma   120.00000037
_symmetry_Int_Tables_number   1
_chemical_formula_structural   Tm6Lu4CuGePb6
_chemical_formula_sum   'Tm6 Lu4 Cu1 Ge1 Pb6'
_cell_volume   476.94326352
_cell_formula_units_Z   1
loop_
 _symmetry_equiv_pos_site_id
 _symmetry_equiv_pos_as_xyz
  1  'x, y, z'
loop_
 _atom_site_type_symbol
 _atom_site_label
 _atom_site_symmetry_multiplicity
 _atom_site_fract_x
 _atom_site_fract_y
 _atom_site_fract_z
 _atom_site_occupancy
  Tm  Tm0  1  0.249844  0.000000  0.742816  1
  Tm  Tm1  1  0.750156  0.000000  0.257184  1
  Tm  Tm2  1  0.000000  0.249844  0.742816  1
  Tm  Tm3  1  0.000000  0.750156  0.257184  1
  Tm  Tm4  1  0.750156  0.750156  0.742816  1
  Tm  Tm5  1  0.249844  0.249844  0.257184  1
  Lu  Lu6  1  0.333333  0.666667  0.500000  1
  Lu  Lu7  1  0.666667  0.333333  0.500000  1
  Lu  Lu8  1  0.666667  0.333333  0.000000  1
  Lu  Lu9  1  0.333333  0.666667  0.000000  1
  Cu  Cu10  1  0.000000  0.000000  0.000000  1
  Ge  Ge11  1  0.000000  0.000000  0.500000  1
  Pb  Pb12  1  0.605561  0.000000  0.749300  1
  Pb  Pb13  1  0.394439  0.000000  0.250700  1
  Pb  Pb14  1  0.000000  0.605561  0.749300  1
  Pb  Pb15  1  0.000000  0.394439  0.250700  1
  Pb  Pb16  1  0.394439  0.394439  0.749300  1
  Pb  Pb17  1  0.605561  0.605561  0.250700  1
