# generated using pymatgen
data_Sm6Ho2GaPd24
_symmetry_space_group_name_H-M   'P 1'
_cell_length_a   8.42138409
_cell_length_b   8.42138409
_cell_length_c   8.42138409
_cell_angle_alpha   89.88090233
_cell_angle_beta   89.88090233
_cell_angle_gamma   89.88090233
_symmetry_Int_Tables_number   1
_chemical_formula_structural   Sm6Ho2GaPd24
_chemical_formula_sum   'Sm6 Ho2 Ga1 Pd24'
_cell_volume   597.23825135
_cell_formula_units_Z   1
loop_
 _symmetry_equiv_pos_site_id
 _symmetry_equiv_pos_as_xyz
  1  'x, y, z'
loop_
 _atom_site_type_symbol
 _atom_site_label
 _atom_site_symmetry_multiplicity
 _atom_site_fract_x
 _atom_site_fract_y
 _atom_site_fract_z
 _atom_site_occupancy
  Sm  Sm0  1  0.748136  0.748136  0.251677  1
  Sm  Sm1  1  0.748136  0.251677  0.748136  1
  Sm  Sm2  1  0.251864  0.251864  0.748323  1
  Sm  Sm3  1  0.251864  0.748323  0.251864  1
  Sm  Sm4  1  0.251677  0.748136  0.748136  1
  Sm  Sm5  1  0.748323  0.251864  0.251864  1
  Ho  Ho6  1  0.251800  0.251800  0.251800  1
  Ho  Ho7  1  0.748200  0.748200  0.748200  1
  Ga  Ga8  1  0.000000  0.000000  0.000000  1
  Pd  Pd9  1  0.261506  0.498431  0.002280  1
  Pd  Pd10  1  0.738494  0.501569  0.997720  1
  Pd  Pd11  1  0.002280  0.261506  0.498431  1
  Pd  Pd12  1  0.498431  0.261506  0.002280  1
  Pd  Pd13  1  0.997720  0.738494  0.501569  1
  Pd  Pd14  1  0.501569  0.738494  0.997720  1
  Pd  Pd15  1  0.498431  0.002280  0.261506  1
  Pd  Pd16  1  0.261506  0.002280  0.498431  1
  Pd  Pd17  1  0.501569  0.997720  0.738494  1
  Pd  Pd18  1  0.738494  0.997720  0.501569  1
  Pd  Pd19  1  0.002280  0.498431  0.261506  1
  Pd  Pd20  1  0.997720  0.501569  0.738494  1
  Pd  Pd21  1  0.254057  0.497863  0.497863  1
  Pd  Pd22  1  0.745943  0.502137  0.502137  1
  Pd  Pd23  1  0.497863  0.254057  0.497863  1
  Pd  Pd24  1  0.502137  0.745943  0.502137  1
  Pd  Pd25  1  0.497863  0.497863  0.254057  1
  Pd  Pd26  1  0.502137  0.502137  0.745943  1
  Pd  Pd27  1  0.293589  0.001998  0.001998  1
  Pd  Pd28  1  0.706411  0.998002  0.998002  1
  Pd  Pd29  1  0.001998  0.293589  0.001998  1
  Pd  Pd30  1  0.998002  0.706411  0.998002  1
  Pd  Pd31  1  0.001998  0.001998  0.293589  1
  Pd  Pd32  1  0.998002  0.998002  0.706411  1
