# generated using pymatgen
data_Tc5Ir2Os
_symmetry_space_group_name_H-M   'P 1'
_cell_length_a   5.54081700
_cell_length_b   5.54719947
_cell_length_c   4.35142500
_cell_angle_alpha   90.00000000
_cell_angle_beta   90.00000000
_cell_angle_gamma   119.96194059
_symmetry_Int_Tables_number   1
_chemical_formula_structural   Tc5Ir2Os
_chemical_formula_sum   'Tc5 Ir2 Os1'
_cell_volume   115.87137305
_cell_formula_units_Z   1
loop_
 _symmetry_equiv_pos_site_id
 _symmetry_equiv_pos_as_xyz
  1  'x, y, z'
loop_
 _atom_site_type_symbol
 _atom_site_label
 _atom_site_symmetry_multiplicity
 _atom_site_fract_x
 _atom_site_fract_y
 _atom_site_fract_z
 _atom_site_occupancy
  Tc  Tc0  1  0.677469  0.838158  0.250000  1
  Tc  Tc1  1  0.160688  0.838158  0.250000  1
  Tc  Tc2  1  0.837866  0.675731  0.750000  1
  Tc  Tc3  1  0.323422  0.163194  0.750000  1
  Tc  Tc4  1  0.839771  0.163194  0.750000  1
  Ir  Ir5  1  0.332725  0.665452  0.750000  1
  Ir  Ir6  1  0.666410  0.332819  0.250000  1
  Os  Os7  1  0.161649  0.323298  0.250000  1
