# generated using pymatgen
data_Na11Al2Sb5
_symmetry_space_group_name_H-M   'P 1'
_cell_length_a   8.94404332
_cell_length_b   10.73492023
_cell_length_c   11.67057181
_cell_angle_alpha   103.44631982
_cell_angle_beta   97.27884413
_cell_angle_gamma   107.41130654
_symmetry_Int_Tables_number   1
_chemical_formula_structural   Na11Al2Sb5
_chemical_formula_sum   'Na22 Al4 Sb10'
_cell_volume   1016.35892272
_cell_formula_units_Z   2
loop_
 _symmetry_equiv_pos_site_id
 _symmetry_equiv_pos_as_xyz
  1  'x, y, z'
loop_
 _atom_site_type_symbol
 _atom_site_label
 _atom_site_symmetry_multiplicity
 _atom_site_fract_x
 _atom_site_fract_y
 _atom_site_fract_z
 _atom_site_occupancy
  Na  Na0  1  0.855287  0.573463  0.967676  1
  Na  Na1  1  0.144713  0.426537  0.032324  1
  Na  Na2  1  0.316230  0.894850  0.775239  1
  Na  Na3  1  0.683770  0.105150  0.224761  1
  Na  Na4  1  0.632396  0.165417  0.529625  1
  Na  Na5  1  0.367604  0.834583  0.470375  1
  Na  Na6  1  0.623787  0.669423  0.552240  1
  Na  Na7  1  0.376213  0.330577  0.447760  1
  Na  Na8  1  0.189609  0.555343  0.573138  1
  Na  Na9  1  0.810391  0.444657  0.426862  1
  Na  Na10  1  0.050640  0.704674  0.263711  1
  Na  Na11  1  0.949360  0.295326  0.736289  1
  Na  Na12  1  0.190816  0.075606  0.571330  1
  Na  Na13  1  0.809184  0.924394  0.428670  1
  Na  Na14  1  0.878065  0.096682  0.988349  1
  Na  Na15  1  0.121935  0.903318  0.011651  1
  Na  Na16  1  0.587995  0.225138  0.864634  1
  Na  Na17  1  0.412005  0.774862  0.135366  1
  Na  Na18  1  0.379426  0.243430  0.142758  1
  Na  Na19  1  0.620574  0.756570  0.857242  1
  Na  Na20  1  0.350958  0.414707  0.786810  1
  Na  Na21  1  0.649042  0.585293  0.213190  1
  Al  Al22  1  0.940459  0.920064  0.743092  1
  Al  Al23  1  0.059541  0.079936  0.256908  1
  Al  Al24  1  0.939365  0.675460  0.742039  1
  Al  Al25  1  0.060635  0.324540  0.257961  1
  Sb  Sb26  1  0.006097  0.760785  0.534934  1
  Sb  Sb27  1  0.993903  0.239215  0.465066  1
  Sb  Sb28  1  0.662357  0.455870  0.692659  1
  Sb  Sb29  1  0.337643  0.544130  0.307341  1
  Sb  Sb30  1  0.661847  0.973928  0.696997  1
  Sb  Sb31  1  0.338153  0.026072  0.303003  1
  Sb  Sb32  1  0.197981  0.149754  0.864255  1
  Sb  Sb33  1  0.802019  0.850246  0.135745  1
  Sb  Sb34  1  0.192913  0.633962  0.867738  1
  Sb  Sb35  1  0.807087  0.366038  0.132262  1
