# generated using pymatgen
data_Hf16Co4Ir3Rh
_symmetry_space_group_name_H-M   'P 1'
_cell_length_a   8.60145139
_cell_length_b   8.60145146
_cell_length_c   8.60145218
_cell_angle_alpha   59.96452938
_cell_angle_beta   59.96452894
_cell_angle_gamma   59.96453578
_symmetry_Int_Tables_number   1
_chemical_formula_structural   Hf16Co4Ir3Rh
_chemical_formula_sum   'Hf16 Co4 Ir3 Rh1'
_cell_volume   449.62536278
_cell_formula_units_Z   1
loop_
 _symmetry_equiv_pos_site_id
 _symmetry_equiv_pos_as_xyz
  1  'x, y, z'
loop_
 _atom_site_type_symbol
 _atom_site_label
 _atom_site_symmetry_multiplicity
 _atom_site_fract_x
 _atom_site_fract_y
 _atom_site_fract_z
 _atom_site_occupancy
  Hf  Hf0  1  0.067358  0.644214  0.644214  1
  Hf  Hf1  1  0.644214  0.067358  0.644214  1
  Hf  Hf2  1  0.644214  0.644214  0.067358  1
  Hf  Hf3  1  0.644819  0.644819  0.644819  1
  Hf  Hf4  1  0.804685  0.804685  0.195165  1
  Hf  Hf5  1  0.194568  0.194568  0.805761  1
  Hf  Hf6  1  0.804685  0.195165  0.804685  1
  Hf  Hf7  1  0.194568  0.805761  0.194568  1
  Hf  Hf8  1  0.195165  0.804685  0.804685  1
  Hf  Hf9  1  0.805761  0.194568  0.194568  1
  Hf  Hf10  1  0.436698  0.436698  0.061952  1
  Hf  Hf11  1  0.063090  0.063090  0.436903  1
  Hf  Hf12  1  0.436698  0.061952  0.436698  1
  Hf  Hf13  1  0.063090  0.436903  0.063090  1
  Hf  Hf14  1  0.061952  0.436698  0.436698  1
  Hf  Hf15  1  0.436903  0.063090  0.063090  1
  Co  Co16  1  0.428840  0.857261  0.857261  1
  Co  Co17  1  0.857261  0.428840  0.857261  1
  Co  Co18  1  0.857261  0.857261  0.428840  1
  Co  Co19  1  0.856867  0.856867  0.856867  1
  Ir  Ir20  1  0.754430  0.415626  0.415626  1
  Ir  Ir21  1  0.415626  0.754430  0.415626  1
  Ir  Ir22  1  0.415626  0.415626  0.754430  1
  Rh  Rh23  1  0.415621  0.415621  0.415621  1
