# generated using pymatgen
data_Tb2HoTm(WO6)2
_symmetry_space_group_name_H-M   'P 1'
_cell_length_a   5.40232000
_cell_length_b   7.70768480
_cell_length_c   11.42816021
_cell_angle_alpha   75.54487404
_cell_angle_beta   90.00000000
_cell_angle_gamma   90.00000000
_symmetry_Int_Tables_number   1
_chemical_formula_structural   Tb2HoTm(WO6)2
_chemical_formula_sum   'Tb4 Ho2 Tm2 W4 O24'
_cell_volume   460.79736486
_cell_formula_units_Z   2
loop_
 _symmetry_equiv_pos_site_id
 _symmetry_equiv_pos_as_xyz
  1  'x, y, z'
loop_
 _atom_site_type_symbol
 _atom_site_label
 _atom_site_symmetry_multiplicity
 _atom_site_fract_x
 _atom_site_fract_y
 _atom_site_fract_z
 _atom_site_occupancy
  Tb  Tb0  1  0.741966  0.000561  0.750090  1
  Tb  Tb1  1  0.258034  0.000561  0.250090  1
  Tb  Tb2  1  0.683675  0.499466  0.750318  1
  Tb  Tb3  1  0.316325  0.499466  0.250318  1
  Ho  Ho4  1  0.183335  0.794025  0.578428  1
  Ho  Ho5  1  0.816665  0.794025  0.078428  1
  Tm  Tm6  1  0.183401  0.206994  0.920799  1
  Tm  Tm7  1  0.816599  0.206994  0.420799  1
  W  W8  1  0.255908  0.723387  0.885968  1
  W  W9  1  0.744092  0.723387  0.385968  1
  W  W10  1  0.255907  0.276012  0.613889  1
  W  W11  1  0.744093  0.276012  0.113889  1
  O  O12  1  0.048855  0.941183  0.896886  1
  O  O13  1  0.535593  0.844010  0.932062  1
  O  O14  1  0.951145  0.941183  0.396886  1
  O  O15  1  0.456879  0.790189  0.727258  1
  O  O16  1  0.464407  0.844010  0.432062  1
  O  O17  1  0.981313  0.712145  0.771842  1
  O  O18  1  0.543121  0.790189  0.227258  1
  O  O19  1  0.850428  0.634525  0.549101  1
  O  O20  1  0.357440  0.488852  0.886348  1
  O  O21  1  0.018687  0.712145  0.271842  1
  O  O22  1  0.358764  0.509698  0.613414  1
  O  O23  1  0.852782  0.364415  0.950873  1
  O  O24  1  0.149572  0.634525  0.049101  1
  O  O25  1  0.642560  0.488852  0.386348  1
  O  O26  1  0.982601  0.287919  0.729375  1
  O  O27  1  0.641236  0.509698  0.113414  1
  O  O28  1  0.147218  0.364415  0.450873  1
  O  O29  1  0.455263  0.208841  0.773601  1
  O  O30  1  0.017399  0.287919  0.229375  1
  O  O31  1  0.536918  0.156779  0.567143  1
  O  O32  1  0.544737  0.208841  0.273601  1
  O  O33  1  0.046248  0.060998  0.602605  1
  O  O34  1  0.463082  0.156779  0.067143  1
  O  O35  1  0.953752  0.060998  0.102605  1
