# generated using pymatgen
data_BaCeBr6
_symmetry_space_group_name_H-M   'P 1'
_cell_length_a   8.06819876
_cell_length_b   8.06819848
_cell_length_c   14.04761437
_cell_angle_alpha   83.75329517
_cell_angle_beta   83.75329384
_cell_angle_gamma   120.15086908
_symmetry_Int_Tables_number   1
_chemical_formula_structural   BaCeBr6
_chemical_formula_sum   'Ba2 Ce2 Br12'
_cell_volume   771.68402167
_cell_formula_units_Z   2
loop_
 _symmetry_equiv_pos_site_id
 _symmetry_equiv_pos_as_xyz
  1  'x, y, z'
loop_
 _atom_site_type_symbol
 _atom_site_label
 _atom_site_symmetry_multiplicity
 _atom_site_fract_x
 _atom_site_fract_y
 _atom_site_fract_z
 _atom_site_occupancy
  Ba  Ba0  1  0.173670  0.336983  0.995700  1
  Ba  Ba1  1  0.336983  0.173670  0.495700  1
  Ce  Ce2  1  0.666663  0.840285  0.499869  1
  Ce  Ce3  1  0.840285  0.666663  0.999869  1
  Br  Br4  1  0.595304  0.707971  0.884678  1
  Br  Br5  1  0.707971  0.595304  0.384678  1
  Br  Br6  1  0.892572  0.432768  0.880323  1
  Br  Br7  1  0.603523  0.068618  0.619071  1
  Br  Br8  1  0.432768  0.892572  0.380323  1
  Br  Br9  1  0.001759  0.174684  0.385447  1
  Br  Br10  1  0.174684  0.001759  0.885447  1
  Br  Br11  1  0.917529  0.808914  0.614268  1
  Br  Br12  1  0.068618  0.603523  0.119071  1
  Br  Br13  1  0.500253  0.338506  0.115244  1
  Br  Br14  1  0.338506  0.500253  0.615244  1
  Br  Br15  1  0.808914  0.917529  0.114268  1
