# generated using pymatgen
data_DyAl10OsRh
_symmetry_space_group_name_H-M   'P 1'
_cell_length_a   6.85765565
_cell_length_b   6.85765599
_cell_length_c   9.17312808
_cell_angle_alpha   90.43945665
_cell_angle_beta   90.43945181
_cell_angle_gamma   97.05572995
_symmetry_Int_Tables_number   1
_chemical_formula_structural   DyAl10OsRh
_chemical_formula_sum   'Dy2 Al20 Os2 Rh2'
_cell_volume   428.09320349
_cell_formula_units_Z   2
loop_
 _symmetry_equiv_pos_site_id
 _symmetry_equiv_pos_as_xyz
  1  'x, y, z'
loop_
 _atom_site_type_symbol
 _atom_site_label
 _atom_site_symmetry_multiplicity
 _atom_site_fract_x
 _atom_site_fract_y
 _atom_site_fract_z
 _atom_site_occupancy
  Dy  Dy0  1  0.871118  0.128882  0.750000  1
  Dy  Dy1  1  0.128882  0.871118  0.250000  1
  Al  Al2  1  0.621763  0.376632  0.550743  1
  Al  Al3  1  0.378237  0.623368  0.449257  1
  Al  Al4  1  0.376632  0.621763  0.050743  1
  Al  Al5  1  0.623368  0.378237  0.949257  1
  Al  Al6  1  0.222818  0.223098  0.500392  1
  Al  Al7  1  0.777182  0.776902  0.499608  1
  Al  Al8  1  0.776902  0.777182  0.999608  1
  Al  Al9  1  0.223098  0.222818  0.000392  1
  Al  Al10  1  0.845035  0.156081  0.101777  1
  Al  Al11  1  0.154965  0.843919  0.898223  1
  Al  Al12  1  0.156081  0.845035  0.601777  1
  Al  Al13  1  0.843919  0.154965  0.398223  1
  Al  Al14  1  0.856397  0.587579  0.749742  1
  Al  Al15  1  0.143603  0.412421  0.250258  1
  Al  Al16  1  0.412421  0.143603  0.750258  1
  Al  Al17  1  0.587579  0.856397  0.249742  1
  Al  Al18  1  0.222981  0.481229  0.752729  1
  Al  Al19  1  0.777019  0.518771  0.247271  1
  Al  Al20  1  0.518771  0.777019  0.747271  1
  Al  Al21  1  0.481229  0.222981  0.252729  1
  Os  Os22  1  0.000000  0.500000  0.000000  1
  Os  Os23  1  0.500000  0.000000  0.500000  1
  Rh  Rh24  1  0.000000  0.500000  0.500000  1
  Rh  Rh25  1  0.500000  0.000000  0.000000  1
