# generated using pymatgen
data_Tb3Mg3PdPb2
_symmetry_space_group_name_H-M   'P 1'
_cell_length_a   7.53548100
_cell_length_b   7.53548177
_cell_length_c   4.55806100
_cell_angle_alpha   90.00000000
_cell_angle_beta   90.00000000
_cell_angle_gamma   120.00000978
_symmetry_Int_Tables_number   1
_chemical_formula_structural   Tb3Mg3PdPb2
_chemical_formula_sum   'Tb3 Mg3 Pd1 Pb2'
_cell_volume   224.14689367
_cell_formula_units_Z   1
loop_
 _symmetry_equiv_pos_site_id
 _symmetry_equiv_pos_as_xyz
  1  'x, y, z'
loop_
 _atom_site_type_symbol
 _atom_site_label
 _atom_site_symmetry_multiplicity
 _atom_site_fract_x
 _atom_site_fract_y
 _atom_site_fract_z
 _atom_site_occupancy
  Tb  Tb0  1  0.600358  0.000000  0.000000  1
  Tb  Tb1  1  0.000000  0.600358  0.000000  1
  Tb  Tb2  1  0.399642  0.399642  0.000000  1
  Mg  Mg3  1  0.228932  0.000000  0.500000  1
  Mg  Mg4  1  0.000000  0.228932  0.500000  1
  Mg  Mg5  1  0.771068  0.771068  0.500000  1
  Pd  Pd6  1  0.000000  0.000000  0.000000  1
  Pb  Pb7  1  0.333333  0.666667  0.500000  1
  Pb  Pb8  1  0.666667  0.333333  0.500000  1
