# generated using pymatgen
data_Tb2Y4OsO12
_symmetry_space_group_name_H-M   'P 1'
_cell_length_a   6.50012756
_cell_length_b   6.49350540
_cell_length_c   6.50715454
_cell_angle_alpha   98.65960612
_cell_angle_beta   98.73239476
_cell_angle_gamma   98.58954542
_symmetry_Int_Tables_number   1
_chemical_formula_structural   Tb2Y4OsO12
_chemical_formula_sum   'Tb2 Y4 Os1 O12'
_cell_volume   264.17847024
_cell_formula_units_Z   1
loop_
 _symmetry_equiv_pos_site_id
 _symmetry_equiv_pos_as_xyz
  1  'x, y, z'
loop_
 _atom_site_type_symbol
 _atom_site_label
 _atom_site_symmetry_multiplicity
 _atom_site_fract_x
 _atom_site_fract_y
 _atom_site_fract_z
 _atom_site_occupancy
  Tb  Tb0  1  0.856466  0.388737  0.686066  1
  Tb  Tb1  1  0.610610  0.313551  0.143256  1
  Y  Y2  1  0.314105  0.143592  0.610311  1
  Y  Y3  1  0.685747  0.856438  0.389723  1
  Y  Y4  1  0.389722  0.686084  0.856247  1
  Y  Y5  1  0.143997  0.610844  0.314454  1
  Os  Os6  1  0.999961  0.999964  0.000059  1
  O  O7  1  0.928223  0.034470  0.703738  1
  O  O8  1  0.965677  0.295738  0.071960  1
  O  O9  1  0.592004  0.176770  0.433712  1
  O  O10  1  0.823071  0.566975  0.407917  1
  O  O11  1  0.295745  0.071855  0.965243  1
  O  O12  1  0.566007  0.408474  0.822387  1
  O  O13  1  0.432880  0.592187  0.177087  1
  O  O14  1  0.703913  0.927961  0.034655  1
  O  O15  1  0.177900  0.433345  0.591600  1
  O  O16  1  0.407817  0.822773  0.567101  1
  O  O17  1  0.034429  0.704700  0.928283  1
  O  O18  1  0.071725  0.965541  0.296202  1
