# generated using pymatgen
data_TcSn14OsRh4
_symmetry_space_group_name_H-M   'P 1'
_cell_length_a   9.48699401
_cell_length_b   8.24310808
_cell_length_c   8.23096906
_cell_angle_alpha   70.54391057
_cell_angle_beta   54.89909317
_cell_angle_gamma   54.77922610
_symmetry_Int_Tables_number   1
_chemical_formula_structural   TcSn14OsRh4
_chemical_formula_sum   'Tc1 Sn14 Os1 Rh4'
_cell_volume   430.21491915
_cell_formula_units_Z   1
loop_
 _symmetry_equiv_pos_site_id
 _symmetry_equiv_pos_as_xyz
  1  'x, y, z'
loop_
 _atom_site_type_symbol
 _atom_site_label
 _atom_site_symmetry_multiplicity
 _atom_site_fract_x
 _atom_site_fract_y
 _atom_site_fract_z
 _atom_site_occupancy
  Tc  Tc0  1  0.652051  0.000720  0.999280  1
  Sn  Sn1  1  0.674600  0.324414  0.997968  1
  Sn  Sn2  1  0.000269  0.999413  0.326894  1
  Sn  Sn3  1  0.325671  0.001811  0.672683  1
  Sn  Sn4  1  0.997279  0.675517  0.000208  1
  Sn  Sn5  1  0.326575  0.673106  0.000587  1
  Sn  Sn6  1  0.996981  0.002032  0.675586  1
  Sn  Sn7  1  0.673005  0.999792  0.324483  1
  Sn  Sn8  1  0.000165  0.327317  0.998189  1
  Sn  Sn9  1  0.249337  0.497655  0.502345  1
  Sn  Sn10  1  0.502887  0.249658  0.750342  1
  Sn  Sn11  1  0.754480  0.746814  0.752084  1
  Sn  Sn12  1  0.503608  0.750812  0.249188  1
  Sn  Sn13  1  0.751147  0.498251  0.501749  1
  Sn  Sn14  1  0.253378  0.247916  0.253186  1
  Os  Os15  1  0.999571  0.345559  0.654441  1
  Rh  Rh16  1  0.655033  0.345345  0.344159  1
  Rh  Rh17  1  0.339777  0.000515  0.999485  1
  Rh  Rh18  1  0.999647  0.657513  0.342487  1
  Rh  Rh19  1  0.344537  0.655841  0.654655  1
