# generated using pymatgen
data_PrTh(AgAs2)2
_symmetry_space_group_name_H-M   'P 1'
_cell_length_a   4.13086500
_cell_length_b   4.12827833
_cell_length_c   20.86451446
_cell_angle_alpha   90.25164361
_cell_angle_beta   90.00000000
_cell_angle_gamma   90.00000000
_symmetry_Int_Tables_number   1
_chemical_formula_structural   PrTh(AgAs2)2
_chemical_formula_sum   'Pr2 Th2 Ag4 As8'
_cell_volume   355.80665398
_cell_formula_units_Z   2
loop_
 _symmetry_equiv_pos_site_id
 _symmetry_equiv_pos_as_xyz
  1  'x, y, z'
loop_
 _atom_site_type_symbol
 _atom_site_label
 _atom_site_symmetry_multiplicity
 _atom_site_fract_x
 _atom_site_fract_y
 _atom_site_fract_z
 _atom_site_occupancy
  Pr  Pr0  1  0.750000  0.266982  0.886040  1
  Pr  Pr1  1  0.250000  0.733018  0.113960  1
  Th  Th2  1  0.250000  0.756231  0.609842  1
  Th  Th3  1  0.750000  0.243769  0.390158  1
  Ag  Ag4  1  0.250000  0.229505  0.252498  1
  Ag  Ag5  1  0.750000  0.728810  0.252700  1
  Ag  Ag6  1  0.750000  0.770495  0.747502  1
  Ag  Ag7  1  0.250000  0.271190  0.747300  1
  As  As8  1  0.250000  0.767992  0.835434  1
  As  As9  1  0.750000  0.232008  0.164566  1
  As  As10  1  0.750000  0.257262  0.653255  1
  As  As11  1  0.250000  0.742738  0.346745  1
  As  As12  1  0.250000  0.252068  0.499902  1
  As  As13  1  0.250000  0.227410  0.000306  1
  As  As14  1  0.750000  0.772590  0.999694  1
  As  As15  1  0.750000  0.747932  0.500098  1
