# generated using pymatgen
data_AcCeIN2
_symmetry_space_group_name_H-M   'P 1'
_cell_length_a   4.12090000
_cell_length_b   4.12090129
_cell_length_c   8.23429900
_cell_angle_alpha   90.00000000
_cell_angle_beta   90.00000000
_cell_angle_gamma   120.00000569
_symmetry_Int_Tables_number   1
_chemical_formula_structural   AcCeIN2
_chemical_formula_sum   'Ac1 Ce1 I1 N2'
_cell_volume   121.09927061
_cell_formula_units_Z   1
loop_
 _symmetry_equiv_pos_site_id
 _symmetry_equiv_pos_as_xyz
  1  'x, y, z'
loop_
 _atom_site_type_symbol
 _atom_site_label
 _atom_site_symmetry_multiplicity
 _atom_site_fract_x
 _atom_site_fract_y
 _atom_site_fract_z
 _atom_site_occupancy
  Ac  Ac0  1  0.666667  0.333333  0.684373  1
  Ce  Ce1  1  0.333333  0.666667  0.334967  1
  I  I2  1  0.000000  0.000000  0.013568  1
  N  N3  1  0.666667  0.333333  0.369835  1
  N  N4  1  0.333333  0.666667  0.597257  1
