# generated using pymatgen
data_TmMgZnCu3
_symmetry_space_group_name_H-M   'P 1'
_cell_length_a   5.14214234
_cell_length_b   5.09857967
_cell_length_c   5.14214300
_cell_angle_alpha   59.71696154
_cell_angle_beta   60.00000222
_cell_angle_gamma   59.71695704
_symmetry_Int_Tables_number   1
_chemical_formula_structural   TmMgZnCu3
_chemical_formula_sum   'Tm1 Mg1 Zn1 Cu3'
_cell_volume   94.91856726
_cell_formula_units_Z   1
loop_
 _symmetry_equiv_pos_site_id
 _symmetry_equiv_pos_as_xyz
  1  'x, y, z'
loop_
 _atom_site_type_symbol
 _atom_site_label
 _atom_site_symmetry_multiplicity
 _atom_site_fract_x
 _atom_site_fract_y
 _atom_site_fract_z
 _atom_site_occupancy
  Tm  Tm0  1  0.751458  0.745628  0.751458  1
  Mg  Mg1  1  0.000888  0.997336  0.000888  1
  Zn  Zn2  1  0.373348  0.879957  0.373348  1
  Cu  Cu3  1  0.373780  0.375693  0.373780  1
  Cu  Cu4  1  0.876747  0.375693  0.373780  1
  Cu  Cu5  1  0.373780  0.375693  0.876747  1
