# generated using pymatgen
data_TiMn(AlCo2)2
_symmetry_space_group_name_H-M   'P 1'
_cell_length_a   4.05176300
_cell_length_b   4.05176300
_cell_length_c   5.85030000
_cell_angle_alpha   90.00000000
_cell_angle_beta   90.00000000
_cell_angle_gamma   90.00000000
_symmetry_Int_Tables_number   1
_chemical_formula_structural   TiMn(AlCo2)2
_chemical_formula_sum   'Ti1 Mn1 Al2 Co4'
_cell_volume   96.04310797
_cell_formula_units_Z   1
loop_
 _symmetry_equiv_pos_site_id
 _symmetry_equiv_pos_as_xyz
  1  'x, y, z'
loop_
 _atom_site_type_symbol
 _atom_site_label
 _atom_site_symmetry_multiplicity
 _atom_site_fract_x
 _atom_site_fract_y
 _atom_site_fract_z
 _atom_site_occupancy
  Ti  Ti0  1  0.000000  0.000000  0.500001  1
  Mn  Mn1  1  0.500002  0.500002  0.000000  1
  Al  Al2  1  0.000000  0.000000  0.000000  1
  Al  Al3  1  0.500002  0.500002  0.500001  1
  Co  Co4  1  0.500002  0.000000  0.247423  1
  Co  Co5  1  0.000000  0.500002  0.247423  1
  Co  Co6  1  0.500002  0.000000  0.752576  1
  Co  Co7  1  0.000000  0.500002  0.752576  1
