# generated using pymatgen
data_H15Ru2
_symmetry_space_group_name_H-M   'P 1'
_cell_length_a   2.76596874
_cell_length_b   4.79106268
_cell_length_c   12.90743503
_cell_angle_alpha   97.66660800
_cell_angle_beta   91.50876298
_cell_angle_gamma   89.83166857
_symmetry_Int_Tables_number   1
_chemical_formula_structural   H15Ru2
_chemical_formula_sum   'H15 Ru2'
_cell_volume   169.46063973
_cell_formula_units_Z   1
loop_
 _symmetry_equiv_pos_site_id
 _symmetry_equiv_pos_as_xyz
  1  'x, y, z'
loop_
 _atom_site_type_symbol
 _atom_site_label
 _atom_site_symmetry_multiplicity
 _atom_site_fract_x
 _atom_site_fract_y
 _atom_site_fract_z
 _atom_site_occupancy
  H  H0  1  0.701906  0.344824  0.026961  1
  H  H1  1  0.099120  0.224847  0.233292  1
  H  H2  1  0.703150  0.888777  0.811642  1
  H  H3  1  0.210532  0.129288  0.973760  1
  H  H4  1  0.969484  0.528135  0.587965  1
  H  H5  1  0.526218  0.379616  0.382235  1
  H  H6  1  0.496644  0.979972  0.554601  1
  H  H7  1  0.484017  0.347258  0.436339  1
  H  H8  1  0.193019  0.432555  0.827846  1
  H  H9  1  0.456475  0.928418  0.605933  1
  H  H10  1  0.031213  0.818809  0.365316  1
  H  H11  1  0.952008  0.811805  0.309226  1
  H  H12  1  0.077357  0.241108  0.176486  1
  H  H13  1  0.726818  0.646473  0.967778  1
  H  H14  1  0.974939  0.398175  0.614099  1
  Ru  Ru15  1  0.703181  0.279066  0.905558  1
  Ru  Ru16  1  0.204854  0.787146  0.890184  1
