# generated using pymatgen
data_YbY3Er4(B6Ru)4
_symmetry_space_group_name_H-M   'P 1'
_cell_length_a   3.64599400
_cell_length_b   9.11562574
_cell_length_c   11.50547700
_cell_angle_alpha   89.91680520
_cell_angle_beta   90.00000000
_cell_angle_gamma   90.00000000
_symmetry_Int_Tables_number   1
_chemical_formula_structural   YbY3Er4(B6Ru)4
_chemical_formula_sum   'Yb1 Y3 Er4 B24 Ru4'
_cell_volume   382.39007065
_cell_formula_units_Z   1
loop_
 _symmetry_equiv_pos_site_id
 _symmetry_equiv_pos_as_xyz
  1  'x, y, z'
loop_
 _atom_site_type_symbol
 _atom_site_label
 _atom_site_symmetry_multiplicity
 _atom_site_fract_x
 _atom_site_fract_y
 _atom_site_fract_z
 _atom_site_occupancy
  Yb  Yb0  1  0.000000  0.323189  0.413812  1
  Y  Y1  1  0.000000  0.676321  0.584963  1
  Y  Y2  1  0.000000  0.822013  0.086232  1
  Y  Y3  1  0.000000  0.178449  0.914586  1
  Er  Er4  1  0.000000  0.943832  0.371153  1
  Er  Er5  1  0.000000  0.058266  0.627946  1
  Er  Er6  1  0.000000  0.442733  0.129652  1
  Er  Er7  1  0.000000  0.556382  0.872123  1
  B  B8  1  0.500000  0.553845  0.432477  1
  B  B9  1  0.500000  0.445706  0.567421  1
  B  B10  1  0.500000  0.053408  0.066725  1
  B  B11  1  0.500000  0.945803  0.932368  1
  B  B12  1  0.500000  0.748531  0.418974  1
  B  B13  1  0.500000  0.252095  0.581038  1
  B  B14  1  0.500000  0.247844  0.080795  1
  B  B15  1  0.500000  0.751498  0.919317  1
  B  B16  1  0.500000  0.791110  0.266028  1
  B  B17  1  0.500000  0.209945  0.734222  1
  B  B18  1  0.500000  0.289734  0.233791  1
  B  B19  1  0.500000  0.709440  0.766218  1
  B  B20  1  0.500000  0.631186  0.185820  1
  B  B21  1  0.500000  0.369239  0.815250  1
  B  B22  1  0.500000  0.130655  0.314155  1
  B  B23  1  0.500000  0.869292  0.685046  1
  B  B24  1  0.500000  0.982956  0.211979  1
  B  B25  1  0.500000  0.016962  0.787089  1
  B  B26  1  0.500000  0.483325  0.287716  1
  B  B27  1  0.500000  0.516769  0.712887  1
  B  B28  1  0.500000  0.606611  0.029712  1
  B  B29  1  0.500000  0.393544  0.970983  1
  B  B30  1  0.500000  0.103502  0.471259  1
  B  B31  1  0.500000  0.895615  0.528823  1
  Ru  Ru32  1  0.000000  0.639164  0.320338  1
  Ru  Ru33  1  0.000000  0.362057  0.680404  1
  Ru  Ru34  1  0.000000  0.136758  0.178027  1
  Ru  Ru35  1  0.000000  0.862215  0.820673  1
