# generated using pymatgen
data_SrCeIr4
_symmetry_space_group_name_H-M   'P 1'
_cell_length_a   5.43042611
_cell_length_b   5.43042662
_cell_length_c   5.43042700
_cell_angle_alpha   60.00000375
_cell_angle_beta   60.00000069
_cell_angle_gamma   60.00000352
_symmetry_Int_Tables_number   1
_chemical_formula_structural   SrCeIr4
_chemical_formula_sum   'Sr1 Ce1 Ir4'
_cell_volume   113.23661186
_cell_formula_units_Z   1
loop_
 _symmetry_equiv_pos_site_id
 _symmetry_equiv_pos_as_xyz
  1  'x, y, z'
loop_
 _atom_site_type_symbol
 _atom_site_label
 _atom_site_symmetry_multiplicity
 _atom_site_fract_x
 _atom_site_fract_y
 _atom_site_fract_z
 _atom_site_occupancy
  Sr  Sr0  1  0.250000  0.250000  0.250000  1
  Ce  Ce1  1  0.000000  0.000000  0.000000  1
  Ir  Ir2  1  0.624852  0.624852  0.125443  1
  Ir  Ir3  1  0.624852  0.125443  0.624852  1
  Ir  Ir4  1  0.125443  0.624852  0.624852  1
  Ir  Ir5  1  0.624852  0.624852  0.624852  1
