# generated using pymatgen
data_NdIn6IrBr12
_symmetry_space_group_name_H-M   'P 1'
_cell_length_a   9.26425458
_cell_length_b   9.26425446
_cell_length_c   9.26425405
_cell_angle_alpha   104.63676476
_cell_angle_beta   104.63676396
_cell_angle_gamma   104.63677079
_symmetry_Int_Tables_number   1
_chemical_formula_structural   NdIn6IrBr12
_chemical_formula_sum   'Nd1 In6 Ir1 Br12'
_cell_volume   700.50414571
_cell_formula_units_Z   1
loop_
 _symmetry_equiv_pos_site_id
 _symmetry_equiv_pos_as_xyz
  1  'x, y, z'
loop_
 _atom_site_type_symbol
 _atom_site_label
 _atom_site_symmetry_multiplicity
 _atom_site_fract_x
 _atom_site_fract_y
 _atom_site_fract_z
 _atom_site_occupancy
  Nd  Nd0  1  0.500000  0.500000  0.500000  1
  In  In1  1  0.044104  0.061050  0.307593  1
  In  In2  1  0.307593  0.044104  0.061050  1
  In  In3  1  0.061050  0.307593  0.044104  1
  In  In4  1  0.955896  0.938950  0.692407  1
  In  In5  1  0.692407  0.955896  0.938950  1
  In  In6  1  0.938950  0.692407  0.955896  1
  Ir  Ir7  1  0.000000  0.000000  0.000000  1
  Br  Br8  1  0.983599  0.557878  0.192459  1
  Br  Br9  1  0.192459  0.983599  0.557878  1
  Br  Br10  1  0.557878  0.192459  0.983599  1
  Br  Br11  1  0.016401  0.442122  0.807541  1
  Br  Br12  1  0.807541  0.016401  0.442122  1
  Br  Br13  1  0.442122  0.807541  0.016401  1
  Br  Br14  1  0.488330  0.174552  0.381059  1
  Br  Br15  1  0.381059  0.488330  0.174552  1
  Br  Br16  1  0.174552  0.381059  0.488330  1
  Br  Br17  1  0.511670  0.825448  0.618941  1
  Br  Br18  1  0.618941  0.511670  0.825448  1
  Br  Br19  1  0.825448  0.618941  0.511670  1
