# generated using pymatgen
data_Ho6Fe3Co5(P6Ru5)2
_symmetry_space_group_name_H-M   'P 1'
_cell_length_a   3.85466100
_cell_length_b   10.70594435
_cell_length_c   12.50300596
_cell_angle_alpha   89.89731941
_cell_angle_beta   90.00000000
_cell_angle_gamma   90.00000000
_symmetry_Int_Tables_number   1
_chemical_formula_structural   Ho6Fe3Co5(P6Ru5)2
_chemical_formula_sum   'Ho6 Fe3 Co5 P12 Ru10'
_cell_volume   515.97054764
_cell_formula_units_Z   1
loop_
 _symmetry_equiv_pos_site_id
 _symmetry_equiv_pos_as_xyz
  1  'x, y, z'
loop_
 _atom_site_type_symbol
 _atom_site_label
 _atom_site_symmetry_multiplicity
 _atom_site_fract_x
 _atom_site_fract_y
 _atom_site_fract_z
 _atom_site_occupancy
  Ho  Ho0  1  0.000000  0.500037  0.527758  1
  Ho  Ho1  1  0.500000  0.000439  0.472266  1
  Ho  Ho2  1  0.500000  0.821305  0.199522  1
  Ho  Ho3  1  0.500000  0.178800  0.199225  1
  Ho  Ho4  1  0.000000  0.677793  0.800851  1
  Ho  Ho5  1  0.000000  0.320850  0.802215  1
  Fe  Fe6  1  0.000000  0.502475  0.983701  1
  Fe  Fe7  1  0.500000  0.998856  0.016455  1
  Fe  Fe8  1  0.500000  0.331333  0.991197  1
  Co  Co9  1  0.500000  0.669894  0.989030  1
  Co  Co10  1  0.000000  0.165566  0.010546  1
  Co  Co11  1  0.000000  0.831234  0.011040  1
  Co  Co12  1  0.500000  0.499980  0.700075  1
  Co  Co13  1  0.000000  0.000369  0.300088  1
  P  P14  1  0.500000  0.313869  0.618741  1
  P  P15  1  0.500000  0.685829  0.618362  1
  P  P16  1  0.000000  0.186989  0.381207  1
  P  P17  1  0.000000  0.814179  0.381860  1
  P  P18  1  0.500000  0.498442  0.883705  1
  P  P19  1  0.000000  0.999266  0.118043  1
  P  P20  1  0.500000  0.847066  0.901546  1
  P  P21  1  0.500000  0.154232  0.902935  1
  P  P22  1  0.000000  0.653351  0.098257  1
  P  P23  1  0.000000  0.345688  0.094556  1
  P  P24  1  0.500000  0.500197  0.334189  1
  P  P25  1  0.000000  0.000147  0.665226  1
  Ru  Ru26  1  0.500000  0.298378  0.427125  1
  Ru  Ru27  1  0.500000  0.702325  0.427612  1
  Ru  Ru28  1  0.000000  0.202570  0.572436  1
  Ru  Ru29  1  0.000000  0.798011  0.572562  1
  Ru  Ru30  1  0.500000  0.874741  0.718315  1
  Ru  Ru31  1  0.500000  0.124405  0.718875  1
  Ru  Ru32  1  0.000000  0.625099  0.281625  1
  Ru  Ru33  1  0.000000  0.375049  0.279311  1
  Ru  Ru34  1  0.500000  0.502842  0.145343  1
  Ru  Ru35  1  0.000000  0.998396  0.854205  1
