# generated using pymatgen
data_Ho20IrPt8Rh3
_symmetry_space_group_name_H-M   'P 1'
_cell_length_a   11.02128400
_cell_length_b   11.02128400
_cell_length_c   6.31209700
_cell_angle_alpha   90.00000000
_cell_angle_beta   90.00000000
_cell_angle_gamma   90.00000000
_symmetry_Int_Tables_number   1
_chemical_formula_structural   Ho20IrPt8Rh3
_chemical_formula_sum   'Ho20 Ir1 Pt8 Rh3'
_cell_volume   766.72222323
_cell_formula_units_Z   1
loop_
 _symmetry_equiv_pos_site_id
 _symmetry_equiv_pos_as_xyz
  1  'x, y, z'
loop_
 _atom_site_type_symbol
 _atom_site_label
 _atom_site_symmetry_multiplicity
 _atom_site_fract_x
 _atom_site_fract_y
 _atom_site_fract_z
 _atom_site_occupancy
  Ho  Ho0  1  0.293617  0.088186  0.374424  1
  Ho  Ho1  1  0.293703  0.911661  0.874321  1
  Ho  Ho2  1  0.706297  0.088339  0.874321  1
  Ho  Ho3  1  0.706383  0.911814  0.374424  1
  Ho  Ho4  1  0.588339  0.793703  0.874321  1
  Ho  Ho5  1  0.588186  0.206383  0.374424  1
  Ho  Ho6  1  0.411814  0.793617  0.374424  1
  Ho  Ho7  1  0.411661  0.206297  0.874321  1
  Ho  Ho8  1  0.205773  0.411991  0.624563  1
  Ho  Ho9  1  0.205874  0.588156  0.126983  1
  Ho  Ho10  1  0.794126  0.411844  0.126983  1
  Ho  Ho11  1  0.794227  0.588009  0.624563  1
  Ho  Ho12  1  0.911844  0.705874  0.126983  1
  Ho  Ho13  1  0.911991  0.294227  0.624563  1
  Ho  Ho14  1  0.088009  0.705773  0.624563  1
  Ho  Ho15  1  0.088156  0.294126  0.126983  1
  Ho  Ho16  1  0.000000  0.000000  0.500046  1
  Ho  Ho17  1  0.000000  0.000000  0.999948  1
  Ho  Ho18  1  0.500000  0.500000  0.999948  1
  Ho  Ho19  1  0.500000  0.500000  0.500046  1
  Ir  Ir20  1  0.000000  0.500000  0.379518  1
  Pt  Pt21  1  0.845315  0.153825  0.249740  1
  Pt  Pt22  1  0.845543  0.845848  0.749800  1
  Pt  Pt23  1  0.154457  0.154152  0.749800  1
  Pt  Pt24  1  0.154685  0.846175  0.249740  1
  Pt  Pt25  1  0.654152  0.345543  0.749800  1
  Pt  Pt26  1  0.653825  0.654685  0.249740  1
  Pt  Pt27  1  0.346175  0.345315  0.249740  1
  Pt  Pt28  1  0.345848  0.654457  0.749800  1
  Rh  Rh29  1  0.500000  0.000000  0.120600  1
  Rh  Rh30  1  0.500000  0.000000  0.620591  1
  Rh  Rh31  1  0.000000  0.500000  0.879978  1
