# generated using pymatgen
data_CsTaAgTe4Au
_symmetry_space_group_name_H-M   'P 1'
_cell_length_a   11.34225185
_cell_length_b   11.34223555
_cell_length_c   8.73998000
_cell_angle_alpha   90.00134565
_cell_angle_beta   89.99845306
_cell_angle_gamma   146.97743190
_symmetry_Int_Tables_number   1
_chemical_formula_structural   CsTaAgTe4Au
_chemical_formula_sum   'Cs2 Ta2 Ag2 Te8 Au2'
_cell_volume   612.74595492
_cell_formula_units_Z   2
loop_
 _symmetry_equiv_pos_site_id
 _symmetry_equiv_pos_as_xyz
  1  'x, y, z'
loop_
 _atom_site_type_symbol
 _atom_site_label
 _atom_site_symmetry_multiplicity
 _atom_site_fract_x
 _atom_site_fract_y
 _atom_site_fract_z
 _atom_site_occupancy
  Cs  Cs0  1  0.448180  0.824464  0.750000  1
  Cs  Cs1  1  0.824471  0.448180  0.250000  1
  Ta  Ta2  1  0.506123  0.302996  0.749992  1
  Ta  Ta3  1  0.302995  0.506124  0.250007  1
  Ag  Ag4  1  0.014135  0.800698  0.750000  1
  Ag  Ag5  1  0.800697  0.014128  0.250003  1
  Te  Te6  1  0.658091  0.655610  0.749983  1
  Te  Te7  1  0.655605  0.658084  0.250017  1
  Te  Te8  1  0.282660  0.064621  0.004032  1
  Te  Te9  1  0.064596  0.282665  0.504048  1
  Te  Te10  1  0.420620  0.828932  0.249995  1
  Te  Te11  1  0.064619  0.282657  0.995968  1
  Te  Te12  1  0.282666  0.064601  0.495952  1
  Te  Te13  1  0.828920  0.420609  0.750003  1
  Au  Au14  1  0.394587  0.394588  0.999997  1
  Au  Au15  1  0.394453  0.394459  0.500003  1
