# generated using pymatgen
data_Ho10Cd3Fe
_symmetry_space_group_name_H-M   'P 1'
_cell_length_a   9.46186900
_cell_length_b   9.46186968
_cell_length_c   9.76534300
_cell_angle_alpha   90.00000000
_cell_angle_beta   90.00000000
_cell_angle_gamma   119.99999411
_symmetry_Int_Tables_number   1
_chemical_formula_structural   Ho10Cd3Fe
_chemical_formula_sum   'Ho20 Cd6 Fe2'
_cell_volume   757.13278616
_cell_formula_units_Z   2
loop_
 _symmetry_equiv_pos_site_id
 _symmetry_equiv_pos_as_xyz
  1  'x, y, z'
loop_
 _atom_site_type_symbol
 _atom_site_label
 _atom_site_symmetry_multiplicity
 _atom_site_fract_x
 _atom_site_fract_y
 _atom_site_fract_z
 _atom_site_occupancy
  Ho  Ho0  1  0.000000  0.000000  0.500000  1
  Ho  Ho1  1  0.000000  0.000000  0.000000  1
  Ho  Ho2  1  0.541203  0.458797  0.250000  1
  Ho  Ho3  1  0.541203  0.082405  0.250000  1
  Ho  Ho4  1  0.917595  0.458797  0.250000  1
  Ho  Ho5  1  0.458797  0.541203  0.750000  1
  Ho  Ho6  1  0.458797  0.917595  0.750000  1
  Ho  Ho7  1  0.082405  0.541203  0.750000  1
  Ho  Ho8  1  0.212234  0.787766  0.436741  1
  Ho  Ho9  1  0.212234  0.424470  0.436741  1
  Ho  Ho10  1  0.575530  0.787766  0.436741  1
  Ho  Ho11  1  0.787766  0.212234  0.563259  1
  Ho  Ho12  1  0.787766  0.575530  0.563259  1
  Ho  Ho13  1  0.424470  0.212234  0.563259  1
  Ho  Ho14  1  0.787766  0.212234  0.936741  1
  Ho  Ho15  1  0.787766  0.575530  0.936741  1
  Ho  Ho16  1  0.424470  0.212234  0.936741  1
  Ho  Ho17  1  0.212234  0.787766  0.063259  1
  Ho  Ho18  1  0.212234  0.424470  0.063259  1
  Ho  Ho19  1  0.575530  0.787766  0.063259  1
  Cd  Cd20  1  0.886192  0.113808  0.250000  1
  Cd  Cd21  1  0.886192  0.772384  0.250000  1
  Cd  Cd22  1  0.227616  0.113808  0.250000  1
  Cd  Cd23  1  0.113808  0.886192  0.750000  1
  Cd  Cd24  1  0.113808  0.227616  0.750000  1
  Cd  Cd25  1  0.772384  0.886192  0.750000  1
  Fe  Fe26  1  0.333333  0.666667  0.250000  1
  Fe  Fe27  1  0.666667  0.333333  0.750000  1
