# generated using pymatgen
data_Pr9NdAl(ZnRu2)3
_symmetry_space_group_name_H-M   'P 1'
_cell_length_a   8.55737297
_cell_length_b   8.61874766
_cell_length_c   8.55902193
_cell_angle_alpha   109.56957568
_cell_angle_beta   109.37557230
_cell_angle_gamma   109.61474478
_symmetry_Int_Tables_number   1
_chemical_formula_structural   Pr9NdAl(ZnRu2)3
_chemical_formula_sum   'Pr9 Nd1 Al1 Zn3 Ru6'
_cell_volume   485.06398158
_cell_formula_units_Z   1
loop_
 _symmetry_equiv_pos_site_id
 _symmetry_equiv_pos_as_xyz
  1  'x, y, z'
loop_
 _atom_site_type_symbol
 _atom_site_label
 _atom_site_symmetry_multiplicity
 _atom_site_fract_x
 _atom_site_fract_y
 _atom_site_fract_z
 _atom_site_occupancy
  Pr  Pr0  1  0.748737  0.814069  0.061464  1
  Pr  Pr1  1  0.437946  0.252608  0.686879  1
  Pr  Pr2  1  0.686559  0.433979  0.248791  1
  Pr  Pr3  1  0.062535  0.747377  0.813561  1
  Pr  Pr4  1  0.813210  0.065564  0.750961  1
  Pr  Pr5  1  0.221249  0.221902  0.221939  1
  Pr  Pr6  1  0.500282  0.000547  0.279249  1
  Pr  Pr7  1  0.278424  0.500472  0.999635  1
  Pr  Pr8  1  0.999808  0.279261  0.499738  1
  Nd  Nd9  1  0.251021  0.684348  0.436991  1
  Al  Al10  1  0.001011  0.908748  0.500522  1
  Zn  Zn11  1  0.590401  0.590508  0.587617  1
  Zn  Zn12  1  0.496770  0.998936  0.908722  1
  Zn  Zn13  1  0.911883  0.501179  0.003207  1
  Ru  Ru14  1  0.241512  0.121179  0.867145  1
  Ru  Ru15  1  0.748853  0.372750  0.622213  1
  Ru  Ru16  1  0.878032  0.250298  0.127069  1
  Ru  Ru17  1  0.124896  0.877864  0.259310  1
  Ru  Ru18  1  0.633888  0.754100  0.374768  1
  Ru  Ru19  1  0.372981  0.624308  0.750219  1
