# generated using pymatgen
data_Te(PO3)4
_symmetry_space_group_name_H-M   'P 1'
_cell_length_a   8.48243700
_cell_length_b   7.16562556
_cell_length_c   7.70439340
_cell_angle_alpha   88.80837219
_cell_angle_beta   90.00000000
_cell_angle_gamma   90.00000000
_symmetry_Int_Tables_number   1
_chemical_formula_structural   Te(PO3)4
_chemical_formula_sum   'Te2 P8 O24'
_cell_volume   468.18691333
_cell_formula_units_Z   2
loop_
 _symmetry_equiv_pos_site_id
 _symmetry_equiv_pos_as_xyz
  1  'x, y, z'
loop_
 _atom_site_type_symbol
 _atom_site_label
 _atom_site_symmetry_multiplicity
 _atom_site_fract_x
 _atom_site_fract_y
 _atom_site_fract_z
 _atom_site_occupancy
  Te  Te0  1  0.719890  0.750286  0.242191  1
  Te  Te1  1  0.219890  0.249714  0.757809  1
  P  P2  1  0.906723  0.989797  0.619295  1
  P  P3  1  0.406723  0.010203  0.380705  1
  P  P4  1  0.174457  0.917844  0.094043  1
  P  P5  1  0.992657  0.599132  0.588451  1
  P  P6  1  0.376422  0.563562  0.085323  1
  P  P7  1  0.876422  0.436438  0.914677  1
  P  P8  1  0.492657  0.400868  0.411549  1
  P  P9  1  0.674457  0.082156  0.905957  1
  O  O10  1  0.815722  0.985720  0.801812  1
  O  O11  1  0.689486  0.997550  0.089053  1
  O  O12  1  0.798090  0.972521  0.469017  1
  O  O13  1  0.022017  0.920853  0.184739  1
  O  O14  1  0.016092  0.810012  0.650563  1
  O  O15  1  0.514280  0.838629  0.381764  1
  O  O16  1  0.232779  0.702773  0.072338  1
  O  O17  1  0.534617  0.665018  0.067078  1
  O  O18  1  0.938308  0.591476  0.406284  1
  O  O19  1  0.852283  0.590837  0.040609  1
  O  O20  1  0.857765  0.518762  0.719715  1
  O  O21  1  0.148603  0.506860  0.637233  1
  O  O22  1  0.648603  0.493140  0.362767  1
  O  O23  1  0.357765  0.481238  0.280285  1
  O  O24  1  0.352283  0.409163  0.959391  1
  O  O25  1  0.438308  0.408524  0.593716  1
  O  O26  1  0.034617  0.334982  0.932922  1
  O  O27  1  0.732779  0.297227  0.927662  1
  O  O28  1  0.014280  0.161371  0.618236  1
  O  O29  1  0.516092  0.189988  0.349437  1
  O  O30  1  0.522017  0.079147  0.815261  1
  O  O31  1  0.298090  0.027479  0.530983  1
  O  O32  1  0.189486  0.002450  0.910947  1
  O  O33  1  0.315722  0.014280  0.198188  1
