# generated using pymatgen
data_Sc8Cr(FeB8)3
_symmetry_space_group_name_H-M   'P 1'
_cell_length_a   3.33418400
_cell_length_b   8.80887388
_cell_length_c   11.11106684
_cell_angle_alpha   89.89273104
_cell_angle_beta   90.00000000
_cell_angle_gamma   90.00000000
_symmetry_Int_Tables_number   1
_chemical_formula_structural   Sc8Cr(FeB8)3
_chemical_formula_sum   'Sc8 Cr1 Fe3 B24'
_cell_volume   326.33597621
_cell_formula_units_Z   1
loop_
 _symmetry_equiv_pos_site_id
 _symmetry_equiv_pos_as_xyz
  1  'x, y, z'
loop_
 _atom_site_type_symbol
 _atom_site_label
 _atom_site_symmetry_multiplicity
 _atom_site_fract_x
 _atom_site_fract_y
 _atom_site_fract_z
 _atom_site_occupancy
  Sc  Sc0  1  0.000000  0.821829  0.084643  1
  Sc  Sc1  1  0.000000  0.179602  0.913538  1
  Sc  Sc2  1  0.000000  0.320941  0.415442  1
  Sc  Sc3  1  0.000000  0.677999  0.585832  1
  Sc  Sc4  1  0.000000  0.442967  0.130668  1
  Sc  Sc5  1  0.000000  0.557714  0.871360  1
  Sc  Sc6  1  0.000000  0.941713  0.369649  1
  Sc  Sc7  1  0.000000  0.055344  0.629206  1
  Cr  Cr8  1  0.000000  0.361717  0.679942  1
  Fe  Fe9  1  0.000000  0.139184  0.180365  1
  Fe  Fe10  1  0.000000  0.860574  0.820590  1
  Fe  Fe11  1  0.000000  0.640024  0.318541  1
  B  B12  1  0.500000  0.054255  0.065843  1
  B  B13  1  0.500000  0.946373  0.933887  1
  B  B14  1  0.500000  0.554015  0.433037  1
  B  B15  1  0.500000  0.448085  0.564656  1
  B  B16  1  0.500000  0.249854  0.080686  1
  B  B17  1  0.500000  0.750585  0.919894  1
  B  B18  1  0.500000  0.749008  0.419064  1
  B  B19  1  0.500000  0.248535  0.578984  1
  B  B20  1  0.500000  0.292312  0.236306  1
  B  B21  1  0.500000  0.708083  0.765072  1
  B  B22  1  0.500000  0.792620  0.263829  1
  B  B23  1  0.500000  0.205226  0.736613  1
  B  B24  1  0.500000  0.130037  0.316109  1
  B  B25  1  0.500000  0.869239  0.684359  1
  B  B26  1  0.500000  0.630819  0.183686  1
  B  B27  1  0.500000  0.369799  0.817383  1
  B  B28  1  0.500000  0.481948  0.288179  1
  B  B29  1  0.500000  0.521747  0.712266  1
  B  B30  1  0.500000  0.982075  0.211224  1
  B  B31  1  0.500000  0.017566  0.788368  1
  B  B32  1  0.500000  0.100236  0.471506  1
  B  B33  1  0.500000  0.896920  0.527514  1
  B  B34  1  0.500000  0.602065  0.028316  1
  B  B35  1  0.500000  0.398992  0.973444  1
