# generated using pymatgen
data_Yb3TmB15C
_symmetry_space_group_name_H-M   'P 1'
_cell_length_a   6.99832243
_cell_length_b   6.99832277
_cell_length_c   4.05856500
_cell_angle_alpha   90.00000000
_cell_angle_beta   90.00000000
_cell_angle_gamma   90.79666663
_symmetry_Int_Tables_number   1
_chemical_formula_structural   Yb3TmB15C
_chemical_formula_sum   'Yb3 Tm1 B15 C1'
_cell_volume   198.75517197
_cell_formula_units_Z   1
loop_
 _symmetry_equiv_pos_site_id
 _symmetry_equiv_pos_as_xyz
  1  'x, y, z'
loop_
 _atom_site_type_symbol
 _atom_site_label
 _atom_site_symmetry_multiplicity
 _atom_site_fract_x
 _atom_site_fract_y
 _atom_site_fract_z
 _atom_site_occupancy
  Yb  Yb0  1  0.817172  0.316140  0.000000  1
  Yb  Yb1  1  0.183860  0.682828  0.000000  1
  Yb  Yb2  1  0.676390  0.823610  0.000000  1
  Tm  Tm3  1  0.320501  0.179499  0.000000  1
  B  B4  1  0.504637  0.502789  0.796911  1
  B  B5  1  0.997211  0.995363  0.796911  1
  B  B6  1  0.504637  0.502789  0.203089  1
  B  B7  1  0.997211  0.995363  0.203089  1
  B  B8  1  0.078553  0.421447  0.500000  1
  B  B9  1  0.412466  0.915210  0.500000  1
  B  B10  1  0.584790  0.087534  0.500000  1
  B  B11  1  0.685444  0.540610  0.500000  1
  B  B12  1  0.324947  0.466042  0.500000  1
  B  B13  1  0.174855  0.960443  0.500000  1
  B  B14  1  0.821689  0.032645  0.500000  1
  B  B15  1  0.467355  0.678311  0.500000  1
  B  B16  1  0.539557  0.325145  0.500000  1
  B  B17  1  0.033958  0.175053  0.500000  1
  B  B18  1  0.959390  0.814556  0.500000  1
  C  C19  1  0.915379  0.584621  0.500000  1
