# generated using pymatgen
data_K2Mn(ZnSe2)2
_symmetry_space_group_name_H-M   'P 1'
_cell_length_a   9.81158199
_cell_length_b   9.82612930
_cell_length_c   9.81158200
_cell_angle_alpha   144.09487017
_cell_angle_beta   105.21341240
_cell_angle_gamma   85.78517852
_symmetry_Int_Tables_number   1
_chemical_formula_structural   K2Mn(ZnSe2)2
_chemical_formula_sum   'K4 Mn2 Zn4 Se8'
_cell_volume   518.88386975
_cell_formula_units_Z   2
loop_
 _symmetry_equiv_pos_site_id
 _symmetry_equiv_pos_as_xyz
  1  'x, y, z'
loop_
 _atom_site_type_symbol
 _atom_site_label
 _atom_site_symmetry_multiplicity
 _atom_site_fract_x
 _atom_site_fract_y
 _atom_site_fract_z
 _atom_site_occupancy
  K  K0  1  0.125536  0.236204  0.362146  1
  K  K1  1  0.375404  0.737741  0.111499  1
  K  K2  1  0.625943  0.263796  0.889334  1
  K  K3  1  0.873759  0.762259  0.637663  1
  Mn  Mn4  1  0.250942  0.750000  0.500942  1
  Mn  Mn5  1  0.013162  0.250000  0.763162  1
  Zn  Zn6  1  0.519917  0.750000  0.769917  1
  Zn  Zn7  1  0.983424  0.750000  0.233424  1
  Zn  Zn8  1  0.482821  0.250000  0.232821  1
  Zn  Zn9  1  0.750694  0.250000  0.500694  1
  Se  Se10  1  0.220413  0.075439  0.587651  1
  Se  Se11  1  0.282913  0.875730  0.862291  1
  Se  Se12  1  0.012211  0.424561  0.144974  1
  Se  Se13  1  0.486561  0.624270  0.407182  1
  Se  Se14  1  0.777658  0.918432  0.398930  1
  Se  Se15  1  0.719484  0.124431  0.143093  1
  Se  Se16  1  0.980498  0.581568  0.859225  1
  Se  Se17  1  0.518662  0.375569  0.595052  1
