# generated using pymatgen
data_Pr3NdAl13Ga5Ir6
_symmetry_space_group_name_H-M   'P 1'
_cell_length_a   7.60418307
_cell_length_b   7.60407820
_cell_length_c   9.72880800
_cell_angle_alpha   90.00000000
_cell_angle_beta   90.00000000
_cell_angle_gamma   119.47420942
_symmetry_Int_Tables_number   1
_chemical_formula_structural   Pr3NdAl13Ga5Ir6
_chemical_formula_sum   'Pr3 Nd1 Al13 Ga5 Ir6'
_cell_volume   489.74058021
_cell_formula_units_Z   1
loop_
 _symmetry_equiv_pos_site_id
 _symmetry_equiv_pos_as_xyz
  1  'x, y, z'
loop_
 _atom_site_type_symbol
 _atom_site_label
 _atom_site_symmetry_multiplicity
 _atom_site_fract_x
 _atom_site_fract_y
 _atom_site_fract_z
 _atom_site_occupancy
  Pr  Pr0  1  0.995326  0.669539  0.250000  1
  Pr  Pr1  1  0.000945  0.327066  0.750000  1
  Pr  Pr2  1  0.669448  0.996273  0.250000  1
  Nd  Nd3  1  0.331065  0.006680  0.750000  1
  Al  Al4  1  0.004102  0.335064  0.070506  1
  Al  Al5  1  0.998036  0.665678  0.928719  1
  Al  Al6  1  0.998036  0.665678  0.571281  1
  Al  Al7  1  0.334874  0.003639  0.429990  1
  Al  Al8  1  0.004102  0.335064  0.429494  1
  Al  Al9  1  0.663976  0.995935  0.571626  1
  Al  Al10  1  0.663976  0.995935  0.928374  1
  Al  Al11  1  0.334874  0.003639  0.070010  1
  Al  Al12  1  0.334859  0.335051  0.551264  1
  Al  Al13  1  0.665110  0.665016  0.452489  1
  Al  Al14  1  0.665110  0.665016  0.047511  1
  Al  Al15  1  0.334859  0.335051  0.948736  1
  Al  Al16  1  0.453773  0.661928  0.750000  1
  Ga  Ga17  1  0.130986  0.130995  0.250000  1
  Ga  Ga18  1  0.868333  0.867129  0.750000  1
  Ga  Ga19  1  0.338325  0.544191  0.250000  1
  Ga  Ga20  1  0.661629  0.456479  0.750000  1
  Ga  Ga21  1  0.544311  0.338992  0.250000  1
  Ir  Ir22  1  0.671098  0.328979  0.000094  1
  Ir  Ir23  1  0.330407  0.670851  0.997551  1
  Ir  Ir24  1  0.330407  0.670851  0.502449  1
  Ir  Ir25  1  0.671098  0.328979  0.499906  1
  Ir  Ir26  1  0.000469  0.000151  0.999812  1
  Ir  Ir27  1  0.000469  0.000151  0.500188  1
