# generated using pymatgen
data_Ho4Sc4Tc3B24Ir
_symmetry_space_group_name_H-M   'P 1'
_cell_length_a   3.57328900
_cell_length_b   8.97873073
_cell_length_c   11.36143668
_cell_angle_alpha   90.04490127
_cell_angle_beta   90.00000000
_cell_angle_gamma   90.00000000
_symmetry_Int_Tables_number   1
_chemical_formula_structural   Ho4Sc4Tc3B24Ir
_chemical_formula_sum   'Ho4 Sc4 Tc3 B24 Ir1'
_cell_volume   364.51567508
_cell_formula_units_Z   1
loop_
 _symmetry_equiv_pos_site_id
 _symmetry_equiv_pos_as_xyz
  1  'x, y, z'
loop_
 _atom_site_type_symbol
 _atom_site_label
 _atom_site_symmetry_multiplicity
 _atom_site_fract_x
 _atom_site_fract_y
 _atom_site_fract_z
 _atom_site_occupancy
  Ho  Ho0  1  0.500000  0.317056  0.415783  1
  Ho  Ho1  1  0.500000  0.679868  0.590221  1
  Ho  Ho2  1  0.500000  0.178657  0.912480  1
  Ho  Ho3  1  0.500000  0.824243  0.081918  1
  Sc  Sc4  1  0.500000  0.440562  0.126933  1
  Sc  Sc5  1  0.500000  0.556260  0.870965  1
  Sc  Sc6  1  0.500000  0.055329  0.628881  1
  Sc  Sc7  1  0.500000  0.947207  0.371467  1
  Tc  Tc8  1  0.500000  0.140212  0.182524  1
  Tc  Tc9  1  0.500000  0.859959  0.818757  1
  Tc  Tc10  1  0.500000  0.360491  0.680108  1
  B  B11  1  0.000000  0.096676  0.473498  1
  B  B12  1  0.000000  0.901350  0.526387  1
  B  B13  1  0.000000  0.402669  0.973671  1
  B  B14  1  0.000000  0.597671  0.026999  1
  B  B15  1  0.000000  0.128850  0.317354  1
  B  B16  1  0.000000  0.870966  0.683315  1
  B  B17  1  0.000000  0.371646  0.816532  1
  B  B18  1  0.000000  0.628843  0.182031  1
  B  B19  1  0.000000  0.054290  0.066963  1
  B  B20  1  0.000000  0.946186  0.932464  1
  B  B21  1  0.000000  0.445761  0.567072  1
  B  B22  1  0.000000  0.554809  0.433705  1
  B  B23  1  0.000000  0.481343  0.286072  1
  B  B24  1  0.000000  0.519310  0.714012  1
  B  B25  1  0.000000  0.019071  0.785543  1
  B  B26  1  0.000000  0.981159  0.213806  1
  B  B27  1  0.000000  0.253200  0.081431  1
  B  B28  1  0.000000  0.746966  0.918558  1
  B  B29  1  0.000000  0.246198  0.581758  1
  B  B30  1  0.000000  0.753554  0.419522  1
  B  B31  1  0.000000  0.294304  0.235615  1
  B  B32  1  0.000000  0.705838  0.765289  1
  B  B33  1  0.000000  0.206001  0.734950  1
  B  B34  1  0.000000  0.793755  0.264609  1
  Ir  Ir35  1  0.500000  0.639738  0.318810  1
