# generated using pymatgen
data_Tb16MgTl2AgIr4
_symmetry_space_group_name_H-M   'P 1'
_cell_length_a   9.68365390
_cell_length_b   9.69243180
_cell_length_c   9.69243223
_cell_angle_alpha   60.03244663
_cell_angle_beta   60.06360954
_cell_angle_gamma   60.06361380
_symmetry_Int_Tables_number   1
_chemical_formula_structural   Tb16MgTl2AgIr4
_chemical_formula_sum   'Tb16 Mg1 Tl2 Ag1 Ir4'
_cell_volume   644.04064535
_cell_formula_units_Z   1
loop_
 _symmetry_equiv_pos_site_id
 _symmetry_equiv_pos_as_xyz
  1  'x, y, z'
loop_
 _atom_site_type_symbol
 _atom_site_label
 _atom_site_symmetry_multiplicity
 _atom_site_fract_x
 _atom_site_fract_y
 _atom_site_fract_z
 _atom_site_occupancy
  Tb  Tb0  1  0.193143  0.807991  0.807991  1
  Tb  Tb1  1  0.815105  0.187389  0.187389  1
  Tb  Tb2  1  0.058965  0.440303  0.062480  1
  Tb  Tb3  1  0.052753  0.648582  0.648582  1
  Tb  Tb4  1  0.651888  0.652232  0.652232  1
  Tb  Tb5  1  0.058965  0.062480  0.440303  1
  Tb  Tb6  1  0.191554  0.810632  0.189997  1
  Tb  Tb7  1  0.811673  0.810236  0.189515  1
  Tb  Tb8  1  0.811673  0.189515  0.810236  1
  Tb  Tb9  1  0.439223  0.064607  0.438504  1
  Tb  Tb10  1  0.439223  0.438504  0.064607  1
  Tb  Tb11  1  0.439787  0.060598  0.060598  1
  Tb  Tb12  1  0.061800  0.439271  0.439271  1
  Tb  Tb13  1  0.191554  0.189997  0.810632  1
  Tb  Tb14  1  0.650904  0.650612  0.045390  1
  Tb  Tb15  1  0.650904  0.045390  0.650612  1
  Mg  Mg16  1  0.722372  0.424473  0.424473  1
  Tl  Tl17  1  0.417643  0.412832  0.753772  1
  Tl  Tl18  1  0.417643  0.753772  0.412832  1
  Ag  Ag19  1  0.418672  0.413833  0.413833  1
  Ir  Ir20  1  0.859766  0.856932  0.424884  1
  Ir  Ir21  1  0.859766  0.424884  0.856932  1
  Ir  Ir22  1  0.860314  0.856747  0.856747  1
  Ir  Ir23  1  0.424714  0.858191  0.858191  1
