# generated using pymatgen
data_DyLuSi5(PRh6)2
_symmetry_space_group_name_H-M   'P 1'
_cell_length_a   9.69424286
_cell_length_b   9.66448104
_cell_length_c   3.83344453
_cell_angle_alpha   89.98517634
_cell_angle_beta   90.00049049
_cell_angle_gamma   119.74732776
_symmetry_Int_Tables_number   1
_chemical_formula_structural   DyLuSi5(PRh6)2
_chemical_formula_sum   'Dy1 Lu1 Si5 P2 Rh12'
_cell_volume   311.82602859
_cell_formula_units_Z   1
loop_
 _symmetry_equiv_pos_site_id
 _symmetry_equiv_pos_as_xyz
  1  'x, y, z'
loop_
 _atom_site_type_symbol
 _atom_site_label
 _atom_site_symmetry_multiplicity
 _atom_site_fract_x
 _atom_site_fract_y
 _atom_site_fract_z
 _atom_site_occupancy
  Dy  Dy0  1  0.665788  0.334797  0.240902  1
  Lu  Lu1  1  0.333975  0.665708  0.739545  1
  Si  Si2  1  0.999746  0.997368  0.696090  1
  Si  Si3  1  0.400084  0.288274  0.740293  1
  Si  Si4  1  0.712150  0.114298  0.740969  1
  Si  Si5  1  0.886220  0.600199  0.740480  1
  Si  Si6  1  0.597889  0.708717  0.240147  1
  P  P7  1  0.291060  0.887116  0.238853  1
  P  P8  1  0.111356  0.401137  0.239249  1
  Rh  Rh9  1  0.445933  0.066988  0.740604  1
  Rh  Rh10  1  0.935030  0.381532  0.740752  1
  Rh  Rh11  1  0.619161  0.555957  0.740802  1
  Rh  Rh12  1  0.550997  0.936456  0.240131  1
  Rh  Rh13  1  0.067348  0.617023  0.239178  1
  Rh  Rh14  1  0.377471  0.443439  0.239323  1
  Rh  Rh15  1  0.147280  0.272366  0.738720  1
  Rh  Rh16  1  0.726856  0.877227  0.739553  1
  Rh  Rh17  1  0.127446  0.848202  0.738504  1
  Rh  Rh18  1  0.866305  0.752419  0.242139  1
  Rh  Rh19  1  0.249846  0.108465  0.241535  1
  Rh  Rh20  1  0.888060  0.142315  0.242233  1
