# generated using pymatgen
data_Ac3Tb(Er3Sn4)2
_symmetry_space_group_name_H-M   'P 1'
_cell_length_a   8.22535500
_cell_length_b   8.37362393
_cell_length_c   15.77952672
_cell_angle_alpha   90.05369193
_cell_angle_beta   90.00000000
_cell_angle_gamma   90.00000000
_symmetry_Int_Tables_number   1
_chemical_formula_structural   Ac3Tb(Er3Sn4)2
_chemical_formula_sum   'Ac6 Tb2 Er12 Sn16'
_cell_volume   1086.83066947
_cell_formula_units_Z   2
loop_
 _symmetry_equiv_pos_site_id
 _symmetry_equiv_pos_as_xyz
  1  'x, y, z'
loop_
 _atom_site_type_symbol
 _atom_site_label
 _atom_site_symmetry_multiplicity
 _atom_site_fract_x
 _atom_site_fract_y
 _atom_site_fract_z
 _atom_site_occupancy
  Ac  Ac0  1  0.509563  0.323763  0.904608  1
  Ac  Ac1  1  0.009563  0.176237  0.595392  1
  Ac  Ac2  1  0.486760  0.672993  0.407037  1
  Ac  Ac3  1  0.986760  0.827007  0.092963  1
  Ac  Ac4  1  0.491883  0.676689  0.091943  1
  Ac  Ac5  1  0.991883  0.823311  0.408057  1
  Tb  Tb6  1  0.518203  0.322471  0.602355  1
  Tb  Tb7  1  0.018203  0.177529  0.897645  1
  Er  Er8  1  0.354032  0.840299  0.873673  1
  Er  Er9  1  0.854032  0.659701  0.626327  1
  Er  Er10  1  0.644791  0.166102  0.376168  1
  Er  Er11  1  0.144791  0.333898  0.123832  1
  Er  Er12  1  0.645055  0.160159  0.122318  1
  Er  Er13  1  0.145055  0.339841  0.377682  1
  Er  Er14  1  0.351996  0.835823  0.626939  1
  Er  Er15  1  0.851996  0.664177  0.873061  1
  Er  Er16  1  0.188385  0.501673  0.749898  1
  Er  Er17  1  0.688385  0.998327  0.750102  1
  Er  Er18  1  0.809927  0.495264  0.250612  1
  Er  Er19  1  0.309927  0.004736  0.249388  1
  Sn  Sn20  1  0.304957  0.048732  0.038745  1
  Sn  Sn21  1  0.804957  0.451268  0.461255  1
  Sn  Sn22  1  0.676960  0.960711  0.545501  1
  Sn  Sn23  1  0.176960  0.539289  0.954499  1
  Sn  Sn24  1  0.697493  0.963698  0.951479  1
  Sn  Sn25  1  0.197493  0.536302  0.548521  1
  Sn  Sn26  1  0.321337  0.051356  0.460040  1
  Sn  Sn27  1  0.821337  0.448644  0.039960  1
  Sn  Sn28  1  0.550949  0.627992  0.748674  1
  Sn  Sn29  1  0.050949  0.872008  0.751326  1
  Sn  Sn30  1  0.446872  0.366462  0.248297  1
  Sn  Sn31  1  0.946872  0.133538  0.251703  1
  Sn  Sn32  1  0.321396  0.142812  0.747531  1
  Sn  Sn33  1  0.821396  0.357188  0.752469  1
  Sn  Sn34  1  0.679439  0.863431  0.250408  1
  Sn  Sn35  1  0.179439  0.636569  0.249592  1
