# generated using pymatgen
data_ThSiNiPRu
_symmetry_space_group_name_H-M   'P 1'
_cell_length_a   4.08574600
_cell_length_b   4.08574600
_cell_length_c   9.58163400
_cell_angle_alpha   90.00000000
_cell_angle_beta   90.00000000
_cell_angle_gamma   90.00000000
_symmetry_Int_Tables_number   1
_chemical_formula_structural   ThSiNiPRu
_chemical_formula_sum   'Th2 Si2 Ni2 P2 Ru2'
_cell_volume   159.94928609
_cell_formula_units_Z   2
loop_
 _symmetry_equiv_pos_site_id
 _symmetry_equiv_pos_as_xyz
  1  'x, y, z'
loop_
 _atom_site_type_symbol
 _atom_site_label
 _atom_site_symmetry_multiplicity
 _atom_site_fract_x
 _atom_site_fract_y
 _atom_site_fract_z
 _atom_site_occupancy
  Th  Th0  1  0.000000  0.500000  0.747201  1
  Th  Th1  1  0.500000  0.000000  0.252799  1
  Si  Si2  1  0.000000  0.000000  0.500000  1
  Si  Si3  1  0.500000  0.500000  0.500000  1
  Ni  Ni4  1  0.000000  0.500000  0.378043  1
  Ni  Ni5  1  0.500000  0.000000  0.621957  1
  P  P6  1  0.500000  0.000000  0.867718  1
  P  P7  1  0.000000  0.500000  0.132282  1
  Ru  Ru8  1  0.500000  0.500000  0.000000  1
  Ru  Ru9  1  0.000000  0.000000  0.000000  1
