# generated using pymatgen
data_Lu9Cd(SiB4)4
_symmetry_space_group_name_H-M   'P 1'
_cell_length_a   7.09708500
_cell_length_b   7.09708500
_cell_length_c   7.77792600
_cell_angle_alpha   90.00000000
_cell_angle_beta   90.00000000
_cell_angle_gamma   90.00000000
_symmetry_Int_Tables_number   1
_chemical_formula_structural   Lu9Cd(SiB4)4
_chemical_formula_sum   'Lu9 Cd1 Si4 B16'
_cell_volume   391.76336406
_cell_formula_units_Z   1
loop_
 _symmetry_equiv_pos_site_id
 _symmetry_equiv_pos_as_xyz
  1  'x, y, z'
loop_
 _atom_site_type_symbol
 _atom_site_label
 _atom_site_symmetry_multiplicity
 _atom_site_fract_x
 _atom_site_fract_y
 _atom_site_fract_z
 _atom_site_occupancy
  Lu  Lu0  1  0.680987  0.180361  0.227794  1
  Lu  Lu1  1  0.319013  0.819639  0.772206  1
  Lu  Lu2  1  0.319013  0.819639  0.227794  1
  Lu  Lu3  1  0.819639  0.680987  0.227794  1
  Lu  Lu4  1  0.819639  0.680987  0.772206  1
  Lu  Lu5  1  0.680987  0.180361  0.772206  1
  Lu  Lu6  1  0.180361  0.319013  0.772206  1
  Lu  Lu7  1  0.180361  0.319013  0.227794  1
  Lu  Lu8  1  0.500000  0.500000  0.500000  1
  Cd  Cd9  1  0.000000  0.000000  0.500000  1
  Si  Si10  1  0.120236  0.612382  0.500000  1
  Si  Si11  1  0.879764  0.387618  0.500000  1
  Si  Si12  1  0.387618  0.120236  0.500000  1
  Si  Si13  1  0.612382  0.879764  0.500000  1
  B  B14  1  0.175595  0.038739  0.000000  1
  B  B15  1  0.824405  0.961261  0.000000  1
  B  B16  1  0.961261  0.175595  0.000000  1
  B  B17  1  0.326581  0.539627  0.000000  1
  B  B18  1  0.038739  0.824405  0.000000  1
  B  B19  1  0.673419  0.460373  0.000000  1
  B  B20  1  0.539627  0.673419  0.000000  1
  B  B21  1  0.460373  0.326581  0.000000  1
  B  B22  1  0.088892  0.587669  0.000000  1
  B  B23  1  0.911108  0.412331  0.000000  1
  B  B24  1  0.412331  0.088892  0.000000  1
  B  B25  1  0.587669  0.911108  0.000000  1
  B  B26  1  0.000000  0.000000  0.162289  1
  B  B27  1  0.000000  0.000000  0.837711  1
  B  B28  1  0.500000  0.500000  0.831534  1
  B  B29  1  0.500000  0.500000  0.168466  1
