# generated using pymatgen
data_Tb8Ti6Nb5Si16Tc
_symmetry_space_group_name_H-M   'P 1'
_cell_length_a   7.03243376
_cell_length_b   7.04051050
_cell_length_c   12.96915400
_cell_angle_alpha   90.09880369
_cell_angle_beta   90.15806716
_cell_angle_gamma   89.99404711
_symmetry_Int_Tables_number   1
_chemical_formula_structural   Tb8Ti6Nb5Si16Tc
_chemical_formula_sum   'Tb8 Ti6 Nb5 Si16 Tc1'
_cell_volume   642.12436258
_cell_formula_units_Z   1
loop_
 _symmetry_equiv_pos_site_id
 _symmetry_equiv_pos_as_xyz
  1  'x, y, z'
loop_
 _atom_site_type_symbol
 _atom_site_label
 _atom_site_symmetry_multiplicity
 _atom_site_fract_x
 _atom_site_fract_y
 _atom_site_fract_z
 _atom_site_occupancy
  Tb  Tb0  1  0.998920  0.656786  0.035193  1
  Tb  Tb1  1  0.003312  0.341741  0.531579  1
  Tb  Tb2  1  0.658812  0.996500  0.966669  1
  Tb  Tb3  1  0.159029  0.503398  0.783075  1
  Tb  Tb4  1  0.840037  0.495619  0.282478  1
  Tb  Tb5  1  0.503921  0.158942  0.218742  1
  Tb  Tb6  1  0.495981  0.841070  0.715798  1
  Tb  Tb7  1  0.341453  0.001989  0.466698  1
  Ti  Ti8  1  0.671270  0.671261  0.499081  1
  Ti  Ti9  1  0.826571  0.171434  0.750403  1
  Ti  Ti10  1  0.173231  0.827806  0.250543  1
  Ti  Ti11  1  0.327412  0.325885  0.001187  1
  Ti  Ti12  1  0.495267  0.654286  0.123559  1
  Ti  Ti13  1  0.654474  0.492826  0.875566  1
  Nb  Nb14  1  0.845718  0.992859  0.374806  1
  Nb  Nb15  1  0.010065  0.155576  0.128250  1
  Nb  Nb16  1  0.994758  0.843891  0.622779  1
  Nb  Nb17  1  0.507498  0.345466  0.624887  1
  Nb  Nb18  1  0.153539  0.006071  0.873424  1
  Si  Si19  1  0.048224  0.707136  0.434766  1
  Si  Si20  1  0.953435  0.292839  0.936674  1
  Si  Si21  1  0.709014  0.047107  0.563480  1
  Si  Si22  1  0.212374  0.457626  0.188579  1
  Si  Si23  1  0.791617  0.546247  0.687026  1
  Si  Si24  1  0.454205  0.209270  0.815011  1
  Si  Si25  1  0.541631  0.785527  0.312534  1
  Si  Si26  1  0.293933  0.953315  0.063939  1
  Si  Si27  1  0.795280  0.867110  0.183344  1
  Si  Si28  1  0.300386  0.632403  0.563231  1
  Si  Si29  1  0.700822  0.367106  0.065763  1
  Si  Si30  1  0.627105  0.302558  0.433382  1
  Si  Si31  1  0.368022  0.700740  0.934824  1
  Si  Si32  1  0.134322  0.208020  0.318071  1
  Si  Si33  1  0.200937  0.134272  0.683152  1
  Si  Si34  1  0.865151  0.795747  0.815849  1
  Tc  Tc35  1  0.342277  0.509566  0.375663  1
