# generated using pymatgen
data_TmLu(Zr4Sn3)2
_symmetry_space_group_name_H-M   'P 1'
_cell_length_a   8.65624791
_cell_length_b   8.60418226
_cell_length_c   5.89312700
_cell_angle_alpha   90.00000000
_cell_angle_beta   90.00000000
_cell_angle_gamma   120.18981968
_symmetry_Int_Tables_number   1
_chemical_formula_structural   TmLu(Zr4Sn3)2
_chemical_formula_sum   'Tm1 Lu1 Zr8 Sn6'
_cell_volume   379.38647224
_cell_formula_units_Z   1
loop_
 _symmetry_equiv_pos_site_id
 _symmetry_equiv_pos_as_xyz
  1  'x, y, z'
loop_
 _atom_site_type_symbol
 _atom_site_label
 _atom_site_symmetry_multiplicity
 _atom_site_fract_x
 _atom_site_fract_y
 _atom_site_fract_z
 _atom_site_occupancy
  Tm  Tm0  1  0.760840  0.760946  0.750000  1
  Lu  Lu1  1  0.001162  0.762523  0.250000  1
  Zr  Zr2  1  0.665467  0.330401  0.999896  1
  Zr  Zr3  1  0.331740  0.663794  0.999898  1
  Zr  Zr4  1  0.331740  0.663794  0.500102  1
  Zr  Zr5  1  0.665467  0.330401  0.500104  1
  Zr  Zr6  1  0.251186  0.001122  0.750000  1
  Zr  Zr7  1  0.000454  0.245680  0.750000  1
  Zr  Zr8  1  0.245030  0.246087  0.250000  1
  Zr  Zr9  1  0.750596  0.002911  0.250000  1
  Sn  Sn10  1  0.389863  0.389538  0.750000  1
  Sn  Sn11  1  0.606442  0.000497  0.750000  1
  Sn  Sn12  1  0.002052  0.604685  0.750000  1
  Sn  Sn13  1  0.604321  0.606087  0.250000  1
  Sn  Sn14  1  0.393544  0.000547  0.250000  1
  Sn  Sn15  1  0.000095  0.390987  0.250000  1
