# generated using pymatgen
data_TbLu11Tc3Pt
_symmetry_space_group_name_H-M   'P 1'
_cell_length_a   6.15941019
_cell_length_b   7.34034570
_cell_length_c   8.94073100
_cell_angle_alpha   90.00000000
_cell_angle_beta   90.00000000
_cell_angle_gamma   89.84939520
_symmetry_Int_Tables_number   1
_chemical_formula_structural   TbLu11Tc3Pt
_chemical_formula_sum   'Tb1 Lu11 Tc3 Pt1'
_cell_volume   404.22872257
_cell_formula_units_Z   1
loop_
 _symmetry_equiv_pos_site_id
 _symmetry_equiv_pos_as_xyz
  1  'x, y, z'
loop_
 _atom_site_type_symbol
 _atom_site_label
 _atom_site_symmetry_multiplicity
 _atom_site_fract_x
 _atom_site_fract_y
 _atom_site_fract_z
 _atom_site_occupancy
  Tb  Tb0  1  0.872164  0.534335  0.250000  1
  Lu  Lu1  1  0.627757  0.043251  0.250000  1
  Lu  Lu2  1  0.374142  0.957658  0.750000  1
  Lu  Lu3  1  0.121517  0.463697  0.750000  1
  Lu  Lu4  1  0.165665  0.179430  0.057210  1
  Lu  Lu5  1  0.831235  0.826492  0.932701  1
  Lu  Lu6  1  0.660984  0.321283  0.935510  1
  Lu  Lu7  1  0.831235  0.826492  0.567299  1
  Lu  Lu8  1  0.341303  0.671976  0.058187  1
  Lu  Lu9  1  0.165665  0.179430  0.442790  1
  Lu  Lu10  1  0.341303  0.671976  0.441813  1
  Lu  Lu11  1  0.660984  0.321283  0.564490  1
  Tc  Tc12  1  0.453785  0.381842  0.250000  1
  Tc  Tc13  1  0.538777  0.617065  0.750000  1
  Tc  Tc14  1  0.964889  0.116346  0.750000  1
  Pt  Pt15  1  0.048596  0.887445  0.250000  1
