# generated using pymatgen
data_ErLu3(WO6)2
_symmetry_space_group_name_H-M   'P 1'
_cell_length_a   5.31639000
_cell_length_b   7.59987415
_cell_length_c   11.31529122
_cell_angle_alpha   75.16058360
_cell_angle_beta   90.00000000
_cell_angle_gamma   90.00000000
_symmetry_Int_Tables_number   1
_chemical_formula_structural   ErLu3(WO6)2
_chemical_formula_sum   'Er2 Lu6 W4 O24'
_cell_volume   441.93364739
_cell_formula_units_Z   2
loop_
 _symmetry_equiv_pos_site_id
 _symmetry_equiv_pos_as_xyz
  1  'x, y, z'
loop_
 _atom_site_type_symbol
 _atom_site_label
 _atom_site_symmetry_multiplicity
 _atom_site_fract_x
 _atom_site_fract_y
 _atom_site_fract_z
 _atom_site_occupancy
  Er  Er0  1  0.684830  0.500000  0.250000  1
  Er  Er1  1  0.315170  0.500000  0.750000  1
  Lu  Lu2  1  0.183174  0.205010  0.421359  1
  Lu  Lu3  1  0.183174  0.794990  0.078641  1
  Lu  Lu4  1  0.816826  0.794990  0.578641  1
  Lu  Lu5  1  0.816826  0.205010  0.921359  1
  Lu  Lu6  1  0.740816  0.000000  0.250000  1
  Lu  Lu7  1  0.259184  0.000000  0.750000  1
  W  W8  1  0.256383  0.275694  0.114539  1
  W  W9  1  0.256383  0.724306  0.385461  1
  W  W10  1  0.743617  0.724306  0.885461  1
  W  W11  1  0.743617  0.275694  0.614539  1
  O  O12  1  0.459736  0.205703  0.275288  1
  O  O13  1  0.459736  0.794297  0.224712  1
  O  O14  1  0.540264  0.794297  0.724712  1
  O  O15  1  0.540264  0.205703  0.775288  1
  O  O16  1  0.041846  0.057381  0.104615  1
  O  O17  1  0.041846  0.942619  0.395385  1
  O  O18  1  0.958154  0.942619  0.895385  1
  O  O19  1  0.958154  0.057381  0.604615  1
  O  O20  1  0.979239  0.287355  0.230219  1
  O  O21  1  0.979239  0.712645  0.269781  1
  O  O22  1  0.020761  0.712645  0.769781  1
  O  O23  1  0.020761  0.287355  0.730219  1
  O  O24  1  0.852190  0.365553  0.449751  1
  O  O25  1  0.852190  0.634447  0.050249  1
  O  O26  1  0.147810  0.634447  0.550249  1
  O  O27  1  0.147810  0.365553  0.949751  1
  O  O28  1  0.640338  0.513204  0.614098  1
  O  O29  1  0.640338  0.486796  0.885902  1
  O  O30  1  0.359662  0.486796  0.385902  1
  O  O31  1  0.359662  0.513204  0.114098  1
  O  O32  1  0.459472  0.152674  0.569223  1
  O  O33  1  0.459472  0.847326  0.930777  1
  O  O34  1  0.540528  0.847326  0.430777  1
  O  O35  1  0.540528  0.152674  0.069223  1
