# generated using pymatgen
data_Nd8Si13Pd3
_symmetry_space_group_name_H-M   'P 1'
_cell_length_a   8.24484600
_cell_length_b   8.24484679
_cell_length_c   8.47906700
_cell_angle_alpha   90.00000000
_cell_angle_beta   90.00000000
_cell_angle_gamma   119.99999683
_symmetry_Int_Tables_number   1
_chemical_formula_structural   Nd8Si13Pd3
_chemical_formula_sum   'Nd8 Si13 Pd3'
_cell_volume   499.16468312
_cell_formula_units_Z   1
loop_
 _symmetry_equiv_pos_site_id
 _symmetry_equiv_pos_as_xyz
  1  'x, y, z'
loop_
 _atom_site_type_symbol
 _atom_site_label
 _atom_site_symmetry_multiplicity
 _atom_site_fract_x
 _atom_site_fract_y
 _atom_site_fract_z
 _atom_site_occupancy
  Nd  Nd0  1  0.502623  0.497377  0.752462  1
  Nd  Nd1  1  0.502622  0.497378  0.247505  1
  Nd  Nd2  1  0.994754  0.497377  0.752462  1
  Nd  Nd3  1  0.994756  0.497378  0.247505  1
  Nd  Nd4  1  0.502623  0.005246  0.752462  1
  Nd  Nd5  1  0.502622  0.005244  0.247505  1
  Nd  Nd6  1  0.000000  0.000000  0.750332  1
  Nd  Nd7  1  0.000000  0.000000  0.249708  1
  Si  Si8  1  0.835355  0.164645  0.000114  1
  Si  Si9  1  0.167429  0.832571  0.999909  1
  Si  Si10  1  0.329292  0.164645  0.000114  1
  Si  Si11  1  0.166215  0.833785  0.500154  1
  Si  Si12  1  0.665143  0.832571  0.999909  1
  Si  Si13  1  0.834423  0.165577  0.499823  1
  Si  Si14  1  0.835355  0.670708  0.000114  1
  Si  Si15  1  0.667570  0.833785  0.500154  1
  Si  Si16  1  0.167429  0.334857  0.999909  1
  Si  Si17  1  0.331153  0.165577  0.499823  1
  Si  Si18  1  0.166215  0.332430  0.500154  1
  Si  Si19  1  0.834423  0.668847  0.499823  1
  Si  Si20  1  0.666667  0.333333  0.999624  1
  Pd  Pd21  1  0.333333  0.666667  0.000334  1
  Pd  Pd22  1  0.333333  0.666667  0.500288  1
  Pd  Pd23  1  0.666667  0.333333  0.499815  1
