# generated using pymatgen
data_CaLu4(In2Pt)2
_symmetry_space_group_name_H-M   'P 1'
_cell_length_a   3.56054000
_cell_length_b   8.12379400
_cell_length_c   18.16544200
_cell_angle_alpha   90.00000000
_cell_angle_beta   90.00000000
_cell_angle_gamma   90.00000000
_symmetry_Int_Tables_number   1
_chemical_formula_structural   CaLu4(In2Pt)2
_chemical_formula_sum   'Ca2 Lu8 In8 Pt4'
_cell_volume   525.43710811
_cell_formula_units_Z   2
loop_
 _symmetry_equiv_pos_site_id
 _symmetry_equiv_pos_as_xyz
  1  'x, y, z'
loop_
 _atom_site_type_symbol
 _atom_site_label
 _atom_site_symmetry_multiplicity
 _atom_site_fract_x
 _atom_site_fract_y
 _atom_site_fract_z
 _atom_site_occupancy
  Ca  Ca0  1  0.000000  0.000000  0.000000  1
  Ca  Ca1  1  0.000000  0.500000  0.500000  1
  Lu  Lu2  1  0.000000  0.118332  0.413138  1
  Lu  Lu3  1  0.000000  0.881668  0.586862  1
  Lu  Lu4  1  0.000000  0.381668  0.913138  1
  Lu  Lu5  1  0.000000  0.618332  0.086862  1
  Lu  Lu6  1  0.000000  0.244584  0.221018  1
  Lu  Lu7  1  0.000000  0.755416  0.778982  1
  Lu  Lu8  1  0.000000  0.255416  0.721018  1
  Lu  Lu9  1  0.000000  0.744584  0.278982  1
  In  In10  1  0.500000  0.424606  0.350539  1
  In  In11  1  0.500000  0.575394  0.649461  1
  In  In12  1  0.500000  0.075394  0.850539  1
  In  In13  1  0.500000  0.924606  0.149461  1
  In  In14  1  0.500000  0.296093  0.066682  1
  In  In15  1  0.500000  0.703907  0.933318  1
  In  In16  1  0.500000  0.203907  0.566682  1
  In  In17  1  0.500000  0.796093  0.433318  1
  Pt  Pt18  1  0.500000  0.025634  0.303010  1
  Pt  Pt19  1  0.500000  0.974366  0.696990  1
  Pt  Pt20  1  0.500000  0.474366  0.803010  1
  Pt  Pt21  1  0.500000  0.525634  0.196990  1
