# generated using pymatgen
data_Nd16Ni3Hg4Ru
_symmetry_space_group_name_H-M   'P 1'
_cell_length_a   9.81981566
_cell_length_b   9.81981573
_cell_length_c   9.81981468
_cell_angle_alpha   59.68492657
_cell_angle_beta   59.68492720
_cell_angle_gamma   59.68492913
_symmetry_Int_Tables_number   1
_chemical_formula_structural   Nd16Ni3Hg4Ru
_chemical_formula_sum   'Nd16 Ni3 Hg4 Ru1'
_cell_volume   664.77599245
_cell_formula_units_Z   1
loop_
 _symmetry_equiv_pos_site_id
 _symmetry_equiv_pos_as_xyz
  1  'x, y, z'
loop_
 _atom_site_type_symbol
 _atom_site_label
 _atom_site_symmetry_multiplicity
 _atom_site_fract_x
 _atom_site_fract_y
 _atom_site_fract_z
 _atom_site_occupancy
  Nd  Nd0  1  0.599007  0.599007  0.599007  1
  Nd  Nd1  1  0.600367  0.600367  0.202559  1
  Nd  Nd2  1  0.600367  0.202559  0.600367  1
  Nd  Nd3  1  0.202559  0.600367  0.600367  1
  Nd  Nd4  1  0.060922  0.438896  0.438896  1
  Nd  Nd5  1  0.438286  0.058541  0.058541  1
  Nd  Nd6  1  0.438896  0.060922  0.438896  1
  Nd  Nd7  1  0.058541  0.438286  0.058541  1
  Nd  Nd8  1  0.438896  0.438896  0.060922  1
  Nd  Nd9  1  0.058541  0.058541  0.438286  1
  Nd  Nd10  1  0.188082  0.814232  0.814232  1
  Nd  Nd11  1  0.805942  0.189206  0.189206  1
  Nd  Nd12  1  0.814232  0.188082  0.814232  1
  Nd  Nd13  1  0.189206  0.805942  0.189206  1
  Nd  Nd14  1  0.814232  0.814232  0.188082  1
  Nd  Nd15  1  0.189206  0.189206  0.805942  1
  Ni  Ni16  1  0.393548  0.393548  0.824333  1
  Ni  Ni17  1  0.393548  0.824333  0.393548  1
  Ni  Ni18  1  0.824333  0.393548  0.393548  1
  Hg  Hg19  1  0.833490  0.833490  0.833490  1
  Hg  Hg20  1  0.833198  0.833198  0.499120  1
  Hg  Hg21  1  0.833198  0.499120  0.833198  1
  Hg  Hg22  1  0.499120  0.833198  0.833198  1
  Ru  Ru23  1  0.392282  0.392282  0.392282  1
