# generated using pymatgen
data_Pr7(HoIn4)5
_symmetry_space_group_name_H-M   'P 1'
_cell_length_a   6.67255024
_cell_length_b   10.54201950
_cell_length_c   12.44406623
_cell_angle_alpha   90.18230613
_cell_angle_beta   89.89094005
_cell_angle_gamma   89.91041692
_symmetry_Int_Tables_number   1
_chemical_formula_structural   Pr7(HoIn4)5
_chemical_formula_sum   'Pr7 Ho5 In20'
_cell_volume   875.33533725
_cell_formula_units_Z   1
loop_
 _symmetry_equiv_pos_site_id
 _symmetry_equiv_pos_as_xyz
  1  'x, y, z'
loop_
 _atom_site_type_symbol
 _atom_site_label
 _atom_site_symmetry_multiplicity
 _atom_site_fract_x
 _atom_site_fract_y
 _atom_site_fract_z
 _atom_site_occupancy
  Pr  Pr0  1  0.612186  0.009313  0.643843  1
  Pr  Pr1  1  0.110987  0.989471  0.857004  1
  Pr  Pr2  1  0.389164  0.510279  0.356202  1
  Pr  Pr3  1  0.111063  0.510393  0.858044  1
  Pr  Pr4  1  0.388795  0.989695  0.354859  1
  Pr  Pr5  1  0.887706  0.011043  0.144576  1
  Pr  Pr6  1  0.612323  0.489761  0.643554  1
  Ho  Ho7  1  0.348204  0.751776  0.058140  1
  Ho  Ho8  1  0.148604  0.749570  0.557583  1
  Ho  Ho9  1  0.649180  0.250876  0.942928  1
  Ho  Ho10  1  0.850409  0.248931  0.441694  1
  Ho  Ho11  1  0.889817  0.489097  0.142502  1
  In  In12  1  0.617543  0.748974  0.501472  1
  In  In13  1  0.881812  0.746752  0.007551  1
  In  In14  1  0.382817  0.249746  0.497390  1
  In  In15  1  0.113872  0.251492  0.998023  1
  In  In16  1  0.655374  0.746116  0.240821  1
  In  In17  1  0.847286  0.749435  0.744208  1
  In  In18  1  0.347640  0.250128  0.757063  1
  In  In19  1  0.152864  0.252995  0.255739  1
  In  In20  1  0.110142  0.749038  0.281529  1
  In  In21  1  0.389397  0.749436  0.781987  1
  In  In22  1  0.889395  0.250088  0.718050  1
  In  In23  1  0.615282  0.255011  0.216169  1
  In  In24  1  0.876571  0.542883  0.400164  1
  In  In25  1  0.625684  0.954361  0.904668  1
  In  In26  1  0.124812  0.045068  0.596021  1
  In  In27  1  0.371888  0.457199  0.096915  1
  In  In28  1  0.124236  0.454985  0.596039  1
  In  In29  1  0.374653  0.047189  0.096126  1
  In  In30  1  0.875183  0.954259  0.403899  1
  In  In31  1  0.625117  0.544638  0.905245  1
