# generated using pymatgen
data_Tb8YbDyRu4
_symmetry_space_group_name_H-M   'P 1'
_cell_length_a   8.53604132
_cell_length_b   8.54502651
_cell_length_c   7.26318527
_cell_angle_alpha   83.41952932
_cell_angle_beta   83.36691863
_cell_angle_gamma   43.85133775
_symmetry_Int_Tables_number   1
_chemical_formula_structural   Tb8YbDyRu4
_chemical_formula_sum   'Tb8 Yb1 Dy1 Ru4'
_cell_volume   364.19324920
_cell_formula_units_Z   1
loop_
 _symmetry_equiv_pos_site_id
 _symmetry_equiv_pos_as_xyz
  1  'x, y, z'
loop_
 _atom_site_type_symbol
 _atom_site_label
 _atom_site_symmetry_multiplicity
 _atom_site_fract_x
 _atom_site_fract_y
 _atom_site_fract_z
 _atom_site_occupancy
  Tb  Tb0  1  0.021037  0.794125  0.916369  1
  Tb  Tb1  1  0.204816  0.361987  0.313221  1
  Tb  Tb2  1  0.641262  0.792585  0.184517  1
  Tb  Tb3  1  0.794735  0.640022  0.685554  1
  Tb  Tb4  1  0.361073  0.204847  0.814363  1
  Tb  Tb5  1  0.979606  0.207640  0.084834  1
  Tb  Tb6  1  0.794219  0.019868  0.414770  1
  Tb  Tb7  1  0.575337  0.425339  0.749749  1
  Yb  Yb8  1  0.206178  0.979868  0.582431  1
  Dy  Dy9  1  0.423790  0.577105  0.249876  1
  Ru  Ru10  1  0.173956  0.598415  0.575638  1
  Ru  Ru11  1  0.399506  0.821498  0.930835  1
  Ru  Ru12  1  0.820009  0.400238  0.423075  1
  Ru  Ru13  1  0.604475  0.176462  0.074767  1
