# generated using pymatgen
data_Tm8Re2TcB24Rh
_symmetry_space_group_name_H-M   'P 1'
_cell_length_a   3.63955000
_cell_length_b   9.09446268
_cell_length_c   11.46405635
_cell_angle_alpha   90.11855426
_cell_angle_beta   90.00000000
_cell_angle_gamma   90.00000000
_symmetry_Int_Tables_number   1
_chemical_formula_structural   Tm8Re2TcB24Rh
_chemical_formula_sum   'Tm8 Re2 Tc1 B24 Rh1'
_cell_volume   379.45660586
_cell_formula_units_Z   1
loop_
 _symmetry_equiv_pos_site_id
 _symmetry_equiv_pos_as_xyz
  1  'x, y, z'
loop_
 _atom_site_type_symbol
 _atom_site_label
 _atom_site_symmetry_multiplicity
 _atom_site_fract_x
 _atom_site_fract_y
 _atom_site_fract_z
 _atom_site_occupancy
  Tm  Tm0  1  0.500000  0.318016  0.415478  1
  Tm  Tm1  1  0.500000  0.678627  0.591409  1
  Tm  Tm2  1  0.500000  0.177510  0.912685  1
  Tm  Tm3  1  0.500000  0.827404  0.081310  1
  Tm  Tm4  1  0.500000  0.440719  0.128715  1
  Tm  Tm5  1  0.500000  0.556326  0.871997  1
  Tm  Tm6  1  0.500000  0.055470  0.628467  1
  Tm  Tm7  1  0.500000  0.944176  0.369951  1
  Re  Re8  1  0.500000  0.861612  0.820930  1
  Re  Re9  1  0.500000  0.362383  0.677672  1
  Tc  Tc10  1  0.500000  0.138637  0.180236  1
  B  B11  1  0.000000  0.101908  0.471023  1
  B  B12  1  0.000000  0.894984  0.528083  1
  B  B13  1  0.000000  0.397075  0.972096  1
  B  B14  1  0.000000  0.603861  0.029434  1
  B  B15  1  0.000000  0.131169  0.315396  1
  B  B16  1  0.000000  0.868369  0.684908  1
  B  B17  1  0.000000  0.369110  0.814819  1
  B  B18  1  0.000000  0.632085  0.183540  1
  B  B19  1  0.000000  0.053381  0.066476  1
  B  B20  1  0.000000  0.947490  0.933250  1
  B  B21  1  0.000000  0.446757  0.566060  1
  B  B22  1  0.000000  0.553669  0.433926  1
  B  B23  1  0.000000  0.482621  0.287716  1
  B  B24  1  0.000000  0.518792  0.712540  1
  B  B25  1  0.000000  0.018195  0.786919  1
  B  B26  1  0.000000  0.982427  0.212192  1
  B  B27  1  0.000000  0.249524  0.080752  1
  B  B28  1  0.000000  0.751064  0.919574  1
  B  B29  1  0.000000  0.249666  0.580274  1
  B  B30  1  0.000000  0.749541  0.420794  1
  B  B31  1  0.000000  0.292616  0.235429  1
  B  B32  1  0.000000  0.707233  0.765775  1
  B  B33  1  0.000000  0.207383  0.734264  1
  B  B34  1  0.000000  0.792036  0.264837  1
  Rh  Rh35  1  0.500000  0.638165  0.321072  1
