# generated using pymatgen
data_Hf8Fe7CoSi13Ge
_symmetry_space_group_name_H-M   'P 1'
_cell_length_a   5.03528320
_cell_length_b   9.50072853
_cell_length_c   9.49955728
_cell_angle_alpha   85.98073323
_cell_angle_beta   74.66017456
_cell_angle_gamma   74.58735893
_symmetry_Int_Tables_number   1
_chemical_formula_structural   Hf8Fe7CoSi13Ge
_chemical_formula_sum   'Hf8 Fe7 Co1 Si13 Ge1'
_cell_volume   422.49654612
_cell_formula_units_Z   1
loop_
 _symmetry_equiv_pos_site_id
 _symmetry_equiv_pos_as_xyz
  1  'x, y, z'
loop_
 _atom_site_type_symbol
 _atom_site_label
 _atom_site_symmetry_multiplicity
 _atom_site_fract_x
 _atom_site_fract_y
 _atom_site_fract_z
 _atom_site_occupancy
  Hf  Hf0  1  0.136597  0.000121  0.722664  1
  Hf  Hf1  1  0.859516  0.999896  0.278150  1
  Hf  Hf2  1  0.859417  0.278145  0.000065  1
  Hf  Hf3  1  0.136734  0.722492  0.000226  1
  Hf  Hf4  1  0.500960  0.198069  0.802900  1
  Hf  Hf5  1  0.501309  0.802124  0.197589  1
  Hf  Hf6  1  0.305439  0.198059  0.197613  1
  Hf  Hf7  1  0.699606  0.802226  0.802976  1
  Fe  Fe8  1  0.101713  0.500206  0.796119  1
  Fe  Fe9  1  0.103086  0.795669  0.499123  1
  Fe  Fe10  1  0.397757  0.204290  0.498699  1
  Fe  Fe11  1  0.601926  0.797181  0.499877  1
  Fe  Fe12  1  0.898162  0.202219  0.500109  1
  Fe  Fe13  1  0.899059  0.499842  0.202622  1
  Fe  Fe14  1  0.600654  0.499790  0.798069  1
  Co  Co15  1  0.398186  0.499745  0.204147  1
  Si  Si16  1  0.290265  0.000126  0.418681  1
  Si  Si17  1  0.707958  0.000182  0.581343  1
  Si  Si18  1  0.708724  0.580678  0.002117  1
  Si  Si19  1  0.287695  0.419631  0.002050  1
  Si  Si20  1  0.000364  0.298849  0.700356  1
  Si  Si21  1  0.000533  0.698002  0.298841  1
  Si  Si22  1  0.702591  0.301717  0.299142  1
  Si  Si23  1  0.300130  0.701372  0.700926  1
  Si  Si24  1  0.499790  0.408593  0.590296  1
  Si  Si25  1  0.508882  0.590013  0.406793  1
  Si  Si26  1  0.084398  0.409354  0.407315  1
  Si  Si27  1  0.908517  0.590851  0.590826  1
  Si  Si28  1  0.750187  0.999976  0.000147  1
  Ge  Ge29  1  0.249844  0.000582  0.000220  1
