# generated using pymatgen
data_HoTm4(Tl2Au)2
_symmetry_space_group_name_H-M   'P 1'
_cell_length_a   3.61184700
_cell_length_b   8.17754900
_cell_length_c   18.33275900
_cell_angle_alpha   90.00000000
_cell_angle_beta   90.00000000
_cell_angle_gamma   90.00000000
_symmetry_Int_Tables_number   1
_chemical_formula_structural   HoTm4(Tl2Au)2
_chemical_formula_sum   'Ho2 Tm8 Tl8 Au4'
_cell_volume   541.47739321
_cell_formula_units_Z   2
loop_
 _symmetry_equiv_pos_site_id
 _symmetry_equiv_pos_as_xyz
  1  'x, y, z'
loop_
 _atom_site_type_symbol
 _atom_site_label
 _atom_site_symmetry_multiplicity
 _atom_site_fract_x
 _atom_site_fract_y
 _atom_site_fract_z
 _atom_site_occupancy
  Ho  Ho0  1  0.000000  0.000000  0.000000  1
  Ho  Ho1  1  0.000000  0.500000  0.500000  1
  Tm  Tm2  1  0.000000  0.121112  0.419269  1
  Tm  Tm3  1  0.000000  0.878888  0.580731  1
  Tm  Tm4  1  0.000000  0.378888  0.919269  1
  Tm  Tm5  1  0.000000  0.621112  0.080731  1
  Tm  Tm6  1  0.000000  0.239722  0.217699  1
  Tm  Tm7  1  0.000000  0.760278  0.782301  1
  Tm  Tm8  1  0.000000  0.260278  0.717699  1
  Tm  Tm9  1  0.000000  0.739722  0.282301  1
  Tl  Tl10  1  0.500000  0.420836  0.354146  1
  Tl  Tl11  1  0.500000  0.579164  0.645854  1
  Tl  Tl12  1  0.500000  0.079164  0.854146  1
  Tl  Tl13  1  0.500000  0.920836  0.145854  1
  Tl  Tl14  1  0.500000  0.291873  0.064965  1
  Tl  Tl15  1  0.500000  0.708127  0.935035  1
  Tl  Tl16  1  0.500000  0.208127  0.564965  1
  Tl  Tl17  1  0.500000  0.791873  0.435035  1
  Au  Au18  1  0.500000  0.029545  0.303358  1
  Au  Au19  1  0.500000  0.970455  0.696642  1
  Au  Au20  1  0.500000  0.470455  0.803358  1
  Au  Au21  1  0.500000  0.529545  0.196642  1
