# generated using pymatgen
data_CaSc4Ni3As7Rh6
_symmetry_space_group_name_H-M   'P 1'
_cell_length_a   3.88262000
_cell_length_b   10.01840801
_cell_length_c   10.01840700
_cell_angle_alpha   119.99999248
_cell_angle_beta   90.00000000
_cell_angle_gamma   90.00000000
_symmetry_Int_Tables_number   1
_chemical_formula_structural   CaSc4Ni3As7Rh6
_chemical_formula_sum   'Ca1 Sc4 Ni3 As7 Rh6'
_cell_volume   337.48380564
_cell_formula_units_Z   1
loop_
 _symmetry_equiv_pos_site_id
 _symmetry_equiv_pos_as_xyz
  1  'x, y, z'
loop_
 _atom_site_type_symbol
 _atom_site_label
 _atom_site_symmetry_multiplicity
 _atom_site_fract_x
 _atom_site_fract_y
 _atom_site_fract_z
 _atom_site_occupancy
  Ca  Ca0  1  0.500000  0.333333  0.666667  1
  Sc  Sc1  1  0.500000  0.770518  0.894497  1
  Sc  Sc2  1  0.500000  0.123978  0.229482  1
  Sc  Sc3  1  0.500000  0.105503  0.876022  1
  Sc  Sc4  1  0.000000  0.666667  0.333333  1
  Ni  Ni5  1  0.000000  0.882842  0.164615  1
  Ni  Ni6  1  0.000000  0.281774  0.117158  1
  Ni  Ni7  1  0.000000  0.835385  0.718226  1
  As  As8  1  0.500000  0.711978  0.133182  1
  As  As9  1  0.500000  0.421205  0.288022  1
  As  As10  1  0.500000  0.866818  0.578795  1
  As  As11  1  0.000000  0.000000  0.000000  1
  As  As12  1  0.000000  0.577567  0.691776  1
  As  As13  1  0.000000  0.114208  0.422433  1
  As  As14  1  0.000000  0.308224  0.885792  1
  Rh  Rh15  1  0.000000  0.578203  0.941699  1
  Rh  Rh16  1  0.000000  0.363495  0.421797  1
  Rh  Rh17  1  0.000000  0.058301  0.636505  1
  Rh  Rh18  1  0.500000  0.942680  0.383052  1
  Rh  Rh19  1  0.500000  0.440373  0.057320  1
  Rh  Rh20  1  0.500000  0.616948  0.559627  1
