# generated using pymatgen
data_Pr7SmSe12
_symmetry_space_group_name_H-M   'P 1'
_cell_length_a   4.21847100
_cell_length_b   11.24733904
_cell_length_c   11.59684804
_cell_angle_alpha   90.00905062
_cell_angle_beta   90.00000000
_cell_angle_gamma   90.00000000
_symmetry_Int_Tables_number   1
_chemical_formula_structural   Pr7SmSe12
_chemical_formula_sum   'Pr7 Sm1 Se12'
_cell_volume   550.23069639
_cell_formula_units_Z   1
loop_
 _symmetry_equiv_pos_site_id
 _symmetry_equiv_pos_as_xyz
  1  'x, y, z'
loop_
 _atom_site_type_symbol
 _atom_site_label
 _atom_site_symmetry_multiplicity
 _atom_site_fract_x
 _atom_site_fract_y
 _atom_site_fract_z
 _atom_site_occupancy
  Pr  Pr0  1  0.250000  0.998254  0.694588  1
  Pr  Pr1  1  0.750000  0.002849  0.305643  1
  Pr  Pr2  1  0.750000  0.496914  0.806819  1
  Pr  Pr3  1  0.250000  0.501223  0.192870  1
  Pr  Pr4  1  0.250000  0.313061  0.511195  1
  Pr  Pr5  1  0.750000  0.686778  0.488697  1
  Pr  Pr6  1  0.750000  0.813744  0.988893  1
  Sm  Sm7  1  0.250000  0.186915  0.010830  1
  Se  Se8  1  0.750000  0.058428  0.882085  1
  Se  Se9  1  0.250000  0.946401  0.119092  1
  Se  Se10  1  0.250000  0.555750  0.620821  1
  Se  Se11  1  0.750000  0.443697  0.379310  1
  Se  Se12  1  0.250000  0.874812  0.454830  1
  Se  Se13  1  0.750000  0.125392  0.545186  1
  Se  Se14  1  0.750000  0.370677  0.044368  1
  Se  Se15  1  0.250000  0.624969  0.955046  1
  Se  Se16  1  0.250000  0.300113  0.773615  1
  Se  Se17  1  0.750000  0.699100  0.228166  1
  Se  Se18  1  0.750000  0.801426  0.728647  1
  Se  Se19  1  0.250000  0.199497  0.269299  1
