# generated using pymatgen
data_Th6Al24Os4Ru3Pt
_symmetry_space_group_name_H-M   'P 1'
_cell_length_a   8.98717707
_cell_length_b   9.02644478
_cell_length_c   9.61448703
_cell_angle_alpha   90.00000178
_cell_angle_beta   89.97113605
_cell_angle_gamma   120.14464480
_symmetry_Int_Tables_number   1
_chemical_formula_structural   Th6Al24Os4Ru3Pt
_chemical_formula_sum   'Th6 Al24 Os4 Ru3 Pt1'
_cell_volume   674.46878755
_cell_formula_units_Z   1
loop_
 _symmetry_equiv_pos_site_id
 _symmetry_equiv_pos_as_xyz
  1  'x, y, z'
loop_
 _atom_site_type_symbol
 _atom_site_label
 _atom_site_symmetry_multiplicity
 _atom_site_fract_x
 _atom_site_fract_y
 _atom_site_fract_z
 _atom_site_occupancy
  Th  Th0  1  0.198481  0.388147  0.251159  1
  Th  Th1  1  0.801519  0.611853  0.748841  1
  Th  Th2  1  0.609723  0.804862  0.251867  1
  Th  Th3  1  0.390277  0.195138  0.748133  1
  Th  Th4  1  0.198481  0.810333  0.251159  1
  Th  Th5  1  0.801519  0.189667  0.748841  1
  Al  Al6  1  0.336970  0.668486  0.014962  1
  Al  Al7  1  0.663030  0.331514  0.985038  1
  Al  Al8  1  0.667920  0.333959  0.513035  1
  Al  Al9  1  0.332080  0.666041  0.486965  1
  Al  Al10  1  0.162052  0.325317  0.577133  1
  Al  Al11  1  0.837948  0.674683  0.422867  1
  Al  Al12  1  0.673482  0.836741  0.576839  1
  Al  Al13  1  0.834372  0.676701  0.077842  1
  Al  Al14  1  0.326518  0.163259  0.423161  1
  Al  Al15  1  0.165628  0.323299  0.922158  1
  Al  Al16  1  0.162052  0.836736  0.577133  1
  Al  Al17  1  0.326160  0.163081  0.077008  1
  Al  Al18  1  0.837948  0.163264  0.422867  1
  Al  Al19  1  0.673840  0.836919  0.922992  1
  Al  Al20  1  0.834372  0.157672  0.077842  1
  Al  Al21  1  0.165628  0.842328  0.922158  1
  Al  Al22  1  0.564985  0.128296  0.249611  1
  Al  Al23  1  0.435015  0.871704  0.750389  1
  Al  Al24  1  0.874054  0.437027  0.253293  1
  Al  Al25  1  0.125946  0.562973  0.746707  1
  Al  Al26  1  0.564985  0.436689  0.249611  1
  Al  Al27  1  0.435015  0.563311  0.750389  1
  Al  Al28  1  0.000507  0.000253  0.250131  1
  Al  Al29  1  0.999493  0.999747  0.749869  1
  Os  Os30  1  0.500000  0.000000  0.000000  1
  Os  Os31  1  0.500000  0.000000  0.500000  1
  Os  Os32  1  0.500000  0.500000  0.000000  1
  Os  Os33  1  0.500000  0.500000  0.500000  1
  Ru  Ru34  1  0.000000  0.500000  0.500000  1
  Ru  Ru35  1  0.000000  0.000000  0.000000  1
  Ru  Ru36  1  0.000000  0.000000  0.500000  1
  Pt  Pt37  1  0.000000  0.500000  0.000000  1
