# generated using pymatgen
data_Y10Sn3Bi2Sb
_symmetry_space_group_name_H-M   'P 1'
_cell_length_a   9.01715033
_cell_length_b   9.05719534
_cell_length_c   6.48074700
_cell_angle_alpha   90.00000000
_cell_angle_beta   90.00000000
_cell_angle_gamma   119.75952964
_symmetry_Int_Tables_number   1
_chemical_formula_structural   Y10Sn3Bi2Sb
_chemical_formula_sum   'Y10 Sn3 Bi2 Sb1'
_cell_volume   459.47936018
_cell_formula_units_Z   1
loop_
 _symmetry_equiv_pos_site_id
 _symmetry_equiv_pos_as_xyz
  1  'x, y, z'
loop_
 _atom_site_type_symbol
 _atom_site_label
 _atom_site_symmetry_multiplicity
 _atom_site_fract_x
 _atom_site_fract_y
 _atom_site_fract_z
 _atom_site_occupancy
  Y  Y0  1  0.756669  0.751189  0.250000  1
  Y  Y1  1  0.004183  0.245637  0.250000  1
  Y  Y2  1  0.763893  0.002910  0.750000  1
  Y  Y3  1  0.328639  0.658547  0.500257  1
  Y  Y4  1  0.235607  0.998706  0.250000  1
  Y  Y5  1  0.670479  0.340325  0.500693  1
  Y  Y6  1  0.997131  0.754763  0.750000  1
  Y  Y7  1  0.328639  0.658547  0.999743  1
  Y  Y8  1  0.243076  0.248144  0.750000  1
  Y  Y9  1  0.670479  0.340325  0.999307  1
  Sn  Sn10  1  0.997264  0.391729  0.750000  1
  Sn  Sn11  1  0.391769  0.388838  0.250000  1
  Sn  Sn12  1  0.001887  0.608566  0.250000  1
  Bi  Bi13  1  0.390909  0.999569  0.750000  1
  Bi  Bi14  1  0.608943  0.999338  0.250000  1
  Sb  Sb15  1  0.610433  0.612870  0.750000  1
