# generated using pymatgen
data_Tm3V(Ni4As3)2
_symmetry_space_group_name_H-M   'P 1'
_cell_length_a   3.84810600
_cell_length_b   11.01545200
_cell_length_c   12.63673300
_cell_angle_alpha   90.00000000
_cell_angle_beta   90.00000000
_cell_angle_gamma   90.00000000
_symmetry_Int_Tables_number   1
_chemical_formula_structural   Tm3V(Ni4As3)2
_chemical_formula_sum   'Tm6 V2 Ni16 As12'
_cell_volume   535.65376080
_cell_formula_units_Z   2
loop_
 _symmetry_equiv_pos_site_id
 _symmetry_equiv_pos_as_xyz
  1  'x, y, z'
loop_
 _atom_site_type_symbol
 _atom_site_label
 _atom_site_symmetry_multiplicity
 _atom_site_fract_x
 _atom_site_fract_y
 _atom_site_fract_z
 _atom_site_occupancy
  Tm  Tm0  1  0.000000  0.500000  0.523015  1
  Tm  Tm1  1  0.500000  0.000000  0.476985  1
  Tm  Tm2  1  0.500000  0.818891  0.206995  1
  Tm  Tm3  1  0.500000  0.181109  0.206995  1
  Tm  Tm4  1  0.000000  0.681109  0.793005  1
  Tm  Tm5  1  0.000000  0.318891  0.793005  1
  V  V6  1  0.500000  0.500000  0.148537  1
  V  V7  1  0.000000  0.000000  0.851463  1
  Ni  Ni8  1  0.500000  0.500000  0.697284  1
  Ni  Ni9  1  0.000000  0.000000  0.302716  1
  Ni  Ni10  1  0.000000  0.500000  0.983678  1
  Ni  Ni11  1  0.500000  0.000000  0.016322  1
  Ni  Ni12  1  0.500000  0.335218  0.990360  1
  Ni  Ni13  1  0.500000  0.664782  0.990360  1
  Ni  Ni14  1  0.000000  0.164782  0.009640  1
  Ni  Ni15  1  0.000000  0.835218  0.009640  1
  Ni  Ni16  1  0.500000  0.304461  0.426388  1
  Ni  Ni17  1  0.500000  0.695539  0.426388  1
  Ni  Ni18  1  0.000000  0.195539  0.573612  1
  Ni  Ni19  1  0.000000  0.804461  0.573612  1
  Ni  Ni20  1  0.500000  0.878978  0.708530  1
  Ni  Ni21  1  0.500000  0.121022  0.708530  1
  Ni  Ni22  1  0.000000  0.621022  0.291470  1
  Ni  Ni23  1  0.000000  0.378978  0.291470  1
  As  As24  1  0.500000  0.500000  0.875026  1
  As  As25  1  0.000000  0.000000  0.124974  1
  As  As26  1  0.500000  0.500000  0.345846  1
  As  As27  1  0.000000  0.000000  0.654154  1
  As  As28  1  0.500000  0.315127  0.613755  1
  As  As29  1  0.500000  0.684873  0.613755  1
  As  As30  1  0.000000  0.184873  0.386245  1
  As  As31  1  0.000000  0.815127  0.386245  1
  As  As32  1  0.500000  0.844027  0.890163  1
  As  As33  1  0.500000  0.155973  0.890163  1
  As  As34  1  0.000000  0.655973  0.109837  1
  As  As35  1  0.000000  0.344027  0.109837  1
