# generated using pymatgen
data_Nd9Y3In20
_symmetry_space_group_name_H-M   'P 1'
_cell_length_a   6.68577546
_cell_length_b   10.58880900
_cell_length_c   12.46765493
_cell_angle_alpha   90.00000000
_cell_angle_beta   89.95650143
_cell_angle_gamma   90.00000000
_symmetry_Int_Tables_number   1
_chemical_formula_structural   Nd9Y3In20
_chemical_formula_sum   'Nd9 Y3 In20'
_cell_volume   882.63988853
_cell_formula_units_Z   1
loop_
 _symmetry_equiv_pos_site_id
 _symmetry_equiv_pos_as_xyz
  1  'x, y, z'
loop_
 _atom_site_type_symbol
 _atom_site_label
 _atom_site_symmetry_multiplicity
 _atom_site_fract_x
 _atom_site_fract_y
 _atom_site_fract_z
 _atom_site_occupancy
  Nd  Nd0  1  0.349515  0.750000  0.059943  1
  Nd  Nd1  1  0.888193  0.490595  0.143773  1
  Nd  Nd2  1  0.612138  0.011140  0.643198  1
  Nd  Nd3  1  0.110038  0.991369  0.855572  1
  Nd  Nd4  1  0.389704  0.509142  0.356304  1
  Nd  Nd5  1  0.110038  0.508631  0.855572  1
  Nd  Nd6  1  0.389704  0.990858  0.356304  1
  Nd  Nd7  1  0.888193  0.009405  0.143773  1
  Nd  Nd8  1  0.612138  0.488860  0.643198  1
  Y  Y9  1  0.150752  0.750000  0.558838  1
  Y  Y10  1  0.649874  0.250000  0.940004  1
  Y  Y11  1  0.849577  0.250000  0.440805  1
  In  In12  1  0.617426  0.750000  0.505206  1
  In  In13  1  0.876893  0.750000  0.002155  1
  In  In14  1  0.384381  0.250000  0.496788  1
  In  In15  1  0.113604  0.250000  0.996668  1
  In  In16  1  0.659523  0.750000  0.246324  1
  In  In17  1  0.846427  0.750000  0.743491  1
  In  In18  1  0.346449  0.250000  0.755182  1
  In  In19  1  0.153670  0.250000  0.255734  1
  In  In20  1  0.112293  0.750000  0.287741  1
  In  In21  1  0.389010  0.750000  0.782611  1
  In  In22  1  0.889986  0.250000  0.715560  1
  In  In23  1  0.612690  0.250000  0.216498  1
  In  In24  1  0.874481  0.544828  0.404385  1
  In  In25  1  0.624486  0.956014  0.902264  1
  In  In26  1  0.126337  0.045144  0.596210  1
  In  In27  1  0.373587  0.451509  0.096519  1
  In  In28  1  0.126337  0.454856  0.596210  1
  In  In29  1  0.373587  0.048491  0.096519  1
  In  In30  1  0.874481  0.955172  0.404385  1
  In  In31  1  0.624486  0.543986  0.902264  1
