# generated using pymatgen
data_TbTaNb4(B2Ru5)2
_symmetry_space_group_name_H-M   'P 1'
_cell_length_a   9.53224026
_cell_length_b   9.53314202
_cell_length_c   3.05246000
_cell_angle_alpha   90.00000000
_cell_angle_beta   90.00000000
_cell_angle_gamma   90.35493771
_symmetry_Int_Tables_number   1
_chemical_formula_structural   TbTaNb4(B2Ru5)2
_chemical_formula_sum   'Tb1 Ta1 Nb4 B4 Ru10'
_cell_volume   277.37843366
_cell_formula_units_Z   1
loop_
 _symmetry_equiv_pos_site_id
 _symmetry_equiv_pos_as_xyz
  1  'x, y, z'
loop_
 _atom_site_type_symbol
 _atom_site_label
 _atom_site_symmetry_multiplicity
 _atom_site_fract_x
 _atom_site_fract_y
 _atom_site_fract_z
 _atom_site_occupancy
  Tb  Tb0  1  0.824745  0.675398  0.000000  1
  Ta  Ta1  1  0.999448  0.999030  0.000000  1
  Nb  Nb2  1  0.178333  0.321462  0.000000  1
  Nb  Nb3  1  0.324329  0.823740  0.000000  1
  Nb  Nb4  1  0.676555  0.175604  0.000000  1
  Nb  Nb5  1  0.500989  0.500499  0.000000  1
  B  B6  1  0.617913  0.882050  0.000000  1
  B  B7  1  0.376893  0.123118  0.000000  1
  B  B8  1  0.123853  0.619535  0.000000  1
  B  B9  1  0.880489  0.376115  0.000000  1
  Ru  Ru10  1  0.558294  0.725334  0.500000  1
  Ru  Ru11  1  0.426830  0.282955  0.500000  1
  Ru  Ru12  1  0.082099  0.782654  0.500000  1
  Ru  Ru13  1  0.930570  0.215753  0.500000  1
  Ru  Ru14  1  0.283971  0.569487  0.500000  1
  Ru  Ru15  1  0.717777  0.417684  0.500000  1
  Ru  Ru16  1  0.216675  0.072923  0.500000  1
  Ru  Ru17  1  0.775142  0.941624  0.500000  1
  Ru  Ru18  1  0.495793  0.004329  0.500000  1
  Ru  Ru19  1  0.009305  0.490705  0.500000  1
