# generated using pymatgen
data_YEr(CoOs)2
_symmetry_space_group_name_H-M   'P 1'
_cell_length_a   5.25241242
_cell_length_b   5.22805656
_cell_length_c   5.22805602
_cell_angle_alpha   58.30340692
_cell_angle_beta   59.84574711
_cell_angle_gamma   59.84575840
_symmetry_Int_Tables_number   1
_chemical_formula_structural   YEr(CoOs)2
_chemical_formula_sum   'Y1 Er1 Co2 Os2'
_cell_volume   99.92023693
_cell_formula_units_Z   1
loop_
 _symmetry_equiv_pos_site_id
 _symmetry_equiv_pos_as_xyz
  1  'x, y, z'
loop_
 _atom_site_type_symbol
 _atom_site_label
 _atom_site_symmetry_multiplicity
 _atom_site_fract_x
 _atom_site_fract_y
 _atom_site_fract_z
 _atom_site_occupancy
  Y  Y0  1  0.997798  0.002202  0.002202  1
  Er  Er1  1  0.252896  0.247104  0.247104  1
  Co  Co2  1  0.125163  0.625147  0.625147  1
  Co  Co3  1  0.624544  0.625147  0.625147  1
  Os  Os4  1  0.624800  0.625005  0.125397  1
  Os  Os5  1  0.624800  0.125397  0.625005  1
