# generated using pymatgen
data_Tb3Al12IrOs3
_symmetry_space_group_name_H-M   'P 1'
_cell_length_a   8.83868300
_cell_length_b   8.82770295
_cell_length_c   9.59780900
_cell_angle_alpha   90.00000000
_cell_angle_beta   90.00000000
_cell_angle_gamma   120.04114995
_symmetry_Int_Tables_number   1
_chemical_formula_structural   Tb3Al12IrOs3
_chemical_formula_sum   'Tb6 Al24 Ir2 Os6'
_cell_volume   648.27275848
_cell_formula_units_Z   2
loop_
 _symmetry_equiv_pos_site_id
 _symmetry_equiv_pos_as_xyz
  1  'x, y, z'
loop_
 _atom_site_type_symbol
 _atom_site_label
 _atom_site_symmetry_multiplicity
 _atom_site_fract_x
 _atom_site_fract_y
 _atom_site_fract_z
 _atom_site_occupancy
  Tb  Tb0  1  0.193849  0.387700  0.250000  1
  Tb  Tb1  1  0.806151  0.612300  0.750000  1
  Tb  Tb2  1  0.615149  0.804690  0.250000  1
  Tb  Tb3  1  0.384851  0.195310  0.750000  1
  Tb  Tb4  1  0.189542  0.804690  0.250000  1
  Tb  Tb5  1  0.810458  0.195310  0.750000  1
  Al  Al6  1  0.333114  0.666227  0.020116  1
  Al  Al7  1  0.666886  0.333773  0.979884  1
  Al  Al8  1  0.666886  0.333773  0.520116  1
  Al  Al9  1  0.333114  0.666227  0.479884  1
  Al  Al10  1  0.164090  0.328180  0.575553  1
  Al  Al11  1  0.835910  0.671820  0.424447  1
  Al  Al12  1  0.672890  0.835452  0.576107  1
  Al  Al13  1  0.835910  0.671820  0.075553  1
  Al  Al14  1  0.327110  0.164548  0.423893  1
  Al  Al15  1  0.164090  0.328180  0.924447  1
  Al  Al16  1  0.162563  0.835452  0.576107  1
  Al  Al17  1  0.327110  0.164548  0.076107  1
  Al  Al18  1  0.837437  0.164548  0.423893  1
  Al  Al19  1  0.672890  0.835452  0.923893  1
  Al  Al20  1  0.837437  0.164548  0.076107  1
  Al  Al21  1  0.162563  0.835452  0.923893  1
  Al  Al22  1  0.560735  0.121470  0.250000  1
  Al  Al23  1  0.439265  0.878530  0.750000  1
  Al  Al24  1  0.875199  0.436872  0.250000  1
  Al  Al25  1  0.124801  0.563128  0.750000  1
  Al  Al26  1  0.561672  0.436872  0.250000  1
  Al  Al27  1  0.438328  0.563128  0.750000  1
  Al  Al28  1  0.999812  0.999622  0.250000  1
  Al  Al29  1  0.000188  0.000378  0.750000  1
  Ir  Ir30  1  0.500000  0.000000  0.000000  1
  Ir  Ir31  1  0.500000  0.000000  0.500000  1
  Os  Os32  1  0.000000  0.500000  0.000000  1
  Os  Os33  1  0.500000  0.500000  0.000000  1
  Os  Os34  1  0.000000  0.500000  0.500000  1
  Os  Os35  1  0.500000  0.500000  0.500000  1
  Os  Os36  1  0.000000  0.000000  0.000000  1
  Os  Os37  1  0.000000  0.000000  0.500000  1
