# generated using pymatgen
data_Y3Tm(HfIr)4
_symmetry_space_group_name_H-M   'P 1'
_cell_length_a   4.53339700
_cell_length_b   7.06663847
_cell_length_c   8.30398146
_cell_angle_alpha   90.41599453
_cell_angle_beta   90.00000000
_cell_angle_gamma   90.00000000
_symmetry_Int_Tables_number   1
_chemical_formula_structural   Y3Tm(HfIr)4
_chemical_formula_sum   'Y3 Tm1 Hf4 Ir4'
_cell_volume   266.01832240
_cell_formula_units_Z   1
loop_
 _symmetry_equiv_pos_site_id
 _symmetry_equiv_pos_as_xyz
  1  'x, y, z'
loop_
 _atom_site_type_symbol
 _atom_site_label
 _atom_site_symmetry_multiplicity
 _atom_site_fract_x
 _atom_site_fract_y
 _atom_site_fract_z
 _atom_site_occupancy
  Y  Y0  1  0.250000  0.486666  0.177766  1
  Y  Y1  1  0.750000  0.014266  0.677093  1
  Y  Y2  1  0.750000  0.516342  0.822959  1
  Tm  Tm3  1  0.250000  0.981907  0.323391  1
  Hf  Hf4  1  0.250000  0.356981  0.571205  1
  Hf  Hf5  1  0.250000  0.860823  0.928575  1
  Hf  Hf6  1  0.750000  0.639250  0.427239  1
  Hf  Hf7  1  0.750000  0.143695  0.074208  1
  Ir  Ir8  1  0.250000  0.231558  0.906742  1
  Ir  Ir9  1  0.250000  0.730056  0.590061  1
  Ir  Ir10  1  0.750000  0.772849  0.094222  1
  Ir  Ir11  1  0.750000  0.265609  0.406540  1
