# generated using pymatgen
data_Nd2SmTh(AlRh)4
_symmetry_space_group_name_H-M   'P 1'
_cell_length_a   4.30156000
_cell_length_b   7.04246996
_cell_length_c   8.12701511
_cell_angle_alpha   90.52084517
_cell_angle_beta   90.00000000
_cell_angle_gamma   90.00000000
_symmetry_Int_Tables_number   1
_chemical_formula_structural   Nd2SmTh(AlRh)4
_chemical_formula_sum   'Nd2 Sm1 Th1 Al4 Rh4'
_cell_volume   246.18643020
_cell_formula_units_Z   1
loop_
 _symmetry_equiv_pos_site_id
 _symmetry_equiv_pos_as_xyz
  1  'x, y, z'
loop_
 _atom_site_type_symbol
 _atom_site_label
 _atom_site_symmetry_multiplicity
 _atom_site_fract_x
 _atom_site_fract_y
 _atom_site_fract_z
 _atom_site_occupancy
  Nd  Nd0  1  0.750000  0.960208  0.680538  1
  Nd  Nd1  1  0.250000  0.038658  0.320664  1
  Sm  Sm2  1  0.750000  0.460392  0.814921  1
  Th  Th3  1  0.250000  0.538540  0.176306  1
  Al  Al4  1  0.250000  0.629907  0.563096  1
  Al  Al5  1  0.750000  0.364113  0.441724  1
  Al  Al6  1  0.750000  0.874288  0.060573  1
  Al  Al7  1  0.250000  0.134436  0.936994  1
  Rh  Rh8  1  0.250000  0.762141  0.891920  1
  Rh  Rh9  1  0.750000  0.245438  0.119325  1
  Rh  Rh10  1  0.750000  0.724392  0.373828  1
  Rh  Rh11  1  0.250000  0.267487  0.620109  1
