# generated using pymatgen
data_Ti7AlOs8
_symmetry_space_group_name_H-M   'P 1'
_cell_length_a   4.36929400
_cell_length_b   12.31731900
_cell_length_c   4.36832100
_cell_angle_alpha   90.00000000
_cell_angle_beta   90.00000000
_cell_angle_gamma   89.99916173
_symmetry_Int_Tables_number   1
_chemical_formula_structural   Ti7AlOs8
_chemical_formula_sum   'Ti7 Al1 Os8'
_cell_volume   235.09424716
_cell_formula_units_Z   1
loop_
 _symmetry_equiv_pos_site_id
 _symmetry_equiv_pos_as_xyz
  1  'x, y, z'
loop_
 _atom_site_type_symbol
 _atom_site_label
 _atom_site_symmetry_multiplicity
 _atom_site_fract_x
 _atom_site_fract_y
 _atom_site_fract_z
 _atom_site_occupancy
  Ti  Ti0  1  0.916224  0.245983  0.000000  1
  Ti  Ti1  1  0.916189  0.499998  0.000000  1
  Ti  Ti2  1  0.917159  0.754013  0.000000  1
  Ti  Ti3  1  0.417087  0.000003  0.500000  1
  Ti  Ti4  1  0.416183  0.248901  0.500000  1
  Ti  Ti5  1  0.416189  0.500001  0.500000  1
  Ti  Ti6  1  0.417148  0.751102  0.500000  1
  Al  Al7  1  0.917144  0.999999  0.000000  1
  Os  Os8  1  0.416637  0.125585  0.000000  1
  Os  Os9  1  0.416080  0.375001  0.000000  1
  Os  Os10  1  0.416650  0.625001  0.000000  1
  Os  Os11  1  0.417265  0.874413  0.000000  1
  Os  Os12  1  0.916651  0.125589  0.500000  1
  Os  Os13  1  0.916070  0.375002  0.500000  1
  Os  Os14  1  0.916655  0.625000  0.500000  1
  Os  Os15  1  0.917258  0.874411  0.500000  1
