# generated using pymatgen
data_Ca2Ce(MgRh)3
_symmetry_space_group_name_H-M   'P 1'
_cell_length_a   7.32737238
_cell_length_b   7.32737233
_cell_length_c   4.08808600
_cell_angle_alpha   90.00000000
_cell_angle_beta   90.00000000
_cell_angle_gamma   118.07451522
_symmetry_Int_Tables_number   1
_chemical_formula_structural   Ca2Ce(MgRh)3
_chemical_formula_sum   'Ca2 Ce1 Mg3 Rh3'
_cell_volume   193.66479696
_cell_formula_units_Z   1
loop_
 _symmetry_equiv_pos_site_id
 _symmetry_equiv_pos_as_xyz
  1  'x, y, z'
loop_
 _atom_site_type_symbol
 _atom_site_label
 _atom_site_symmetry_multiplicity
 _atom_site_fract_x
 _atom_site_fract_y
 _atom_site_fract_z
 _atom_site_occupancy
  Ca  Ca0  1  0.587096  0.002267  0.000000  1
  Ca  Ca1  1  0.002267  0.587096  0.000000  1
  Ce  Ce2  1  0.411936  0.411936  0.000000  1
  Mg  Mg3  1  0.244600  0.991551  0.500000  1
  Mg  Mg4  1  0.991551  0.244600  0.500000  1
  Mg  Mg5  1  0.769403  0.769403  0.500000  1
  Rh  Rh6  1  0.344006  0.634174  0.500000  1
  Rh  Rh7  1  0.634174  0.344006  0.500000  1
  Rh  Rh8  1  0.014966  0.014966  0.000000  1
