# generated using pymatgen
data_Tb2Tc2B4Ru3
_symmetry_space_group_name_H-M   'P 1'
_cell_length_a   3.09232400
_cell_length_b   8.83205804
_cell_length_c   10.20867001
_cell_angle_alpha   89.99187000
_cell_angle_beta   90.00000000
_cell_angle_gamma   90.00000000
_symmetry_Int_Tables_number   1
_chemical_formula_structural   Tb2Tc2B4Ru3
_chemical_formula_sum   'Tb4 Tc4 B8 Ru6'
_cell_volume   278.81495637
_cell_formula_units_Z   2
loop_
 _symmetry_equiv_pos_site_id
 _symmetry_equiv_pos_as_xyz
  1  'x, y, z'
loop_
 _atom_site_type_symbol
 _atom_site_label
 _atom_site_symmetry_multiplicity
 _atom_site_fract_x
 _atom_site_fract_y
 _atom_site_fract_z
 _atom_site_occupancy
  Tb  Tb0  1  0.500000  0.839303  0.182162  1
  Tb  Tb1  1  0.500000  0.160697  0.817838  1
  Tb  Tb2  1  0.500000  0.660719  0.682195  1
  Tb  Tb3  1  0.500000  0.339281  0.317805  1
  Tc  Tc4  1  0.000000  0.658329  0.954159  1
  Tc  Tc5  1  0.000000  0.341671  0.045841  1
  Tc  Tc6  1  0.000000  0.841747  0.454137  1
  Tc  Tc7  1  0.000000  0.158253  0.545863  1
  B  B8  1  0.500000  0.967205  0.586307  1
  B  B9  1  0.500000  0.032795  0.413693  1
  B  B10  1  0.500000  0.849098  0.902026  1
  B  B11  1  0.500000  0.150902  0.097974  1
  B  B12  1  0.500000  0.650841  0.402028  1
  B  B13  1  0.500000  0.349159  0.597972  1
  B  B14  1  0.500000  0.467271  0.913719  1
  B  B15  1  0.500000  0.532729  0.086281  1
  Ru  Ru16  1  0.000000  0.000000  0.000000  1
  Ru  Ru17  1  0.000000  0.407914  0.760245  1
  Ru  Ru18  1  0.000000  0.592086  0.239755  1
  Ru  Ru19  1  0.000000  0.500000  0.500000  1
  Ru  Ru20  1  0.000000  0.907854  0.739832  1
  Ru  Ru21  1  0.000000  0.092146  0.260168  1
