# generated using pymatgen
data_TbLu7Ti8(NbSi4)4
_symmetry_space_group_name_H-M   'P 1'
_cell_length_a   7.00001702
_cell_length_b   7.00337216
_cell_length_c   12.87720014
_cell_angle_alpha   89.96007927
_cell_angle_beta   89.99322118
_cell_angle_gamma   89.96400156
_symmetry_Int_Tables_number   1
_chemical_formula_structural   TbLu7Ti8(NbSi4)4
_chemical_formula_sum   'Tb1 Lu7 Ti8 Nb4 Si16'
_cell_volume   631.28802699
_cell_formula_units_Z   1
loop_
 _symmetry_equiv_pos_site_id
 _symmetry_equiv_pos_as_xyz
  1  'x, y, z'
loop_
 _atom_site_type_symbol
 _atom_site_label
 _atom_site_symmetry_multiplicity
 _atom_site_fract_x
 _atom_site_fract_y
 _atom_site_fract_z
 _atom_site_occupancy
  Tb  Tb0  1  0.996727  0.659488  0.033107  1
  Lu  Lu1  1  0.341066  0.001248  0.467195  1
  Lu  Lu2  1  0.498908  0.841171  0.716660  1
  Lu  Lu3  1  0.500800  0.159003  0.217672  1
  Lu  Lu4  1  0.840984  0.498809  0.283394  1
  Lu  Lu5  1  0.159178  0.500833  0.782556  1
  Lu  Lu6  1  0.658438  0.999114  0.966481  1
  Lu  Lu7  1  0.001238  0.341201  0.532962  1
  Ti  Ti8  1  0.152225  0.007157  0.874390  1
  Ti  Ti9  1  0.492358  0.651306  0.125613  1
  Ti  Ti10  1  0.507703  0.348986  0.624939  1
  Ti  Ti11  1  0.651102  0.491023  0.874017  1
  Ti  Ti12  1  0.349212  0.507683  0.375390  1
  Ti  Ti13  1  0.848913  0.992750  0.375686  1
  Ti  Ti14  1  0.007789  0.152251  0.125291  1
  Ti  Ti15  1  0.992436  0.849173  0.624506  1
  Nb  Nb16  1  0.327102  0.326210  0.999798  1
  Nb  Nb17  1  0.173345  0.827331  0.250598  1
  Nb  Nb18  1  0.826761  0.173037  0.749423  1
  Nb  Nb19  1  0.673263  0.673295  0.500015  1
  Si  Si20  1  0.204362  0.131947  0.682354  1
  Si  Si21  1  0.370440  0.704479  0.932259  1
  Si  Si22  1  0.632015  0.295775  0.432844  1
  Si  Si23  1  0.702157  0.366204  0.066956  1
  Si  Si24  1  0.295711  0.632034  0.567374  1
  Si  Si25  1  0.794434  0.870290  0.184623  1
  Si  Si26  1  0.132066  0.204244  0.317709  1
  Si  Si27  1  0.868190  0.796260  0.815917  1
  Si  Si28  1  0.295107  0.954339  0.064155  1
  Si  Si29  1  0.546332  0.794163  0.314501  1
  Si  Si30  1  0.452838  0.205795  0.813558  1
  Si  Si31  1  0.794013  0.546982  0.685629  1
  Si  Si32  1  0.207237  0.452024  0.187081  1
  Si  Si33  1  0.705832  0.047096  0.564006  1
  Si  Si34  1  0.952718  0.291323  0.935325  1
  Si  Si35  1  0.047001  0.705974  0.436013  1
