# generated using pymatgen
data_PrNdZn5Ge
_symmetry_space_group_name_H-M   'P 1'
_cell_length_a   8.42348053
_cell_length_b   8.42348062
_cell_length_c   8.90191500
_cell_angle_alpha   90.00000000
_cell_angle_beta   90.00000000
_cell_angle_gamma   149.45176406
_symmetry_Int_Tables_number   1
_chemical_formula_structural   PrNdZn5Ge
_chemical_formula_sum   'Pr2 Nd2 Zn10 Ge2'
_cell_volume   321.03736409
_cell_formula_units_Z   2
loop_
 _symmetry_equiv_pos_site_id
 _symmetry_equiv_pos_as_xyz
  1  'x, y, z'
loop_
 _atom_site_type_symbol
 _atom_site_label
 _atom_site_symmetry_multiplicity
 _atom_site_fract_x
 _atom_site_fract_y
 _atom_site_fract_z
 _atom_site_occupancy
  Pr  Pr0  1  0.000000  0.000000  0.500000  1
  Pr  Pr1  1  0.000000  0.000000  0.000000  1
  Nd  Nd2  1  0.203262  0.796738  0.250000  1
  Nd  Nd3  1  0.796738  0.203262  0.750000  1
  Zn  Zn4  1  0.813907  0.186093  0.392427  1
  Zn  Zn5  1  0.186093  0.813907  0.607573  1
  Zn  Zn6  1  0.813907  0.186093  0.107573  1
  Zn  Zn7  1  0.186093  0.813907  0.892427  1
  Zn  Zn8  1  0.651900  0.348100  0.478776  1
  Zn  Zn9  1  0.348100  0.651900  0.521224  1
  Zn  Zn10  1  0.651900  0.348100  0.021224  1
  Zn  Zn11  1  0.348100  0.651900  0.978776  1
  Zn  Zn12  1  0.402583  0.597417  0.250000  1
  Zn  Zn13  1  0.597417  0.402583  0.750000  1
  Ge  Ge14  1  0.557028  0.442972  0.250000  1
  Ge  Ge15  1  0.442972  0.557028  0.750000  1
