# generated using pymatgen
data_La5Pr3MgCdIr2
_symmetry_space_group_name_H-M   'P 1'
_cell_length_a   10.12543529
_cell_length_b   10.12543547
_cell_length_c   10.12533300
_cell_angle_alpha   60.00033805
_cell_angle_beta   60.00033744
_cell_angle_gamma   59.99388409
_symmetry_Int_Tables_number   1
_chemical_formula_structural   La5Pr3MgCdIr2
_chemical_formula_sum   'La10 Pr6 Mg2 Cd2 Ir4'
_cell_volume   734.01319896
_cell_formula_units_Z   2
loop_
 _symmetry_equiv_pos_site_id
 _symmetry_equiv_pos_as_xyz
  1  'x, y, z'
loop_
 _atom_site_type_symbol
 _atom_site_label
 _atom_site_symmetry_multiplicity
 _atom_site_fract_x
 _atom_site_fract_y
 _atom_site_fract_z
 _atom_site_occupancy
  La  La0  1  0.346697  0.346697  0.347038  1
  La  La1  1  0.346697  0.346697  0.959568  1
  La  La2  1  0.346468  0.960227  0.346651  1
  La  La3  1  0.960227  0.346468  0.346651  1
  La  La4  1  0.810205  0.189450  0.190045  1
  La  La5  1  0.189450  0.810205  0.810301  1
  La  La6  1  0.189450  0.810205  0.190045  1
  La  La7  1  0.810205  0.189450  0.810301  1
  La  La8  1  0.191186  0.191186  0.808814  1
  La  La9  1  0.811464  0.811464  0.188536  1
  Pr  Pr10  1  0.939479  0.561854  0.561995  1
  Pr  Pr11  1  0.561854  0.939479  0.936670  1
  Pr  Pr12  1  0.561854  0.939479  0.561995  1
  Pr  Pr13  1  0.939479  0.561854  0.936670  1
  Pr  Pr14  1  0.563162  0.563162  0.936838  1
  Pr  Pr15  1  0.938796  0.938796  0.561204  1
  Mg  Mg16  1  0.575885  0.575885  0.579180  1
  Mg  Mg17  1  0.575885  0.575885  0.269049  1
  Cd  Cd18  1  0.581244  0.258643  0.580056  1
  Cd  Cd19  1  0.258643  0.581244  0.580056  1
  Ir  Ir20  1  0.141722  0.141722  0.140357  1
  Ir  Ir21  1  0.141722  0.141722  0.576197  1
  Ir  Ir22  1  0.141689  0.576531  0.140889  1
  Ir  Ir23  1  0.576531  0.141689  0.140889  1
