# generated using pymatgen
data_Sm8Ho12Sn11Pb5
_symmetry_space_group_name_H-M   'P 1'
_cell_length_a   8.09978310
_cell_length_b   8.25173337
_cell_length_c   15.57994952
_cell_angle_alpha   90.02935903
_cell_angle_beta   89.99738106
_cell_angle_gamma   89.98207374
_symmetry_Int_Tables_number   1
_chemical_formula_structural   Sm8Ho12Sn11Pb5
_chemical_formula_sum   'Sm8 Ho12 Sn11 Pb5'
_cell_volume   1041.32080009
_cell_formula_units_Z   1
loop_
 _symmetry_equiv_pos_site_id
 _symmetry_equiv_pos_as_xyz
  1  'x, y, z'
loop_
 _atom_site_type_symbol
 _atom_site_label
 _atom_site_symmetry_multiplicity
 _atom_site_fract_x
 _atom_site_fract_y
 _atom_site_fract_z
 _atom_site_occupancy
  Sm  Sm0  1  0.521677  0.322821  0.900918  1
  Sm  Sm1  1  0.022475  0.179594  0.598614  1
  Sm  Sm2  1  0.478018  0.679662  0.401471  1
  Sm  Sm3  1  0.979441  0.819196  0.099758  1
  Sm  Sm4  1  0.482398  0.676698  0.099435  1
  Sm  Sm5  1  0.983757  0.821927  0.401166  1
  Sm  Sm6  1  0.516176  0.322105  0.598724  1
  Sm  Sm7  1  0.018834  0.180135  0.900588  1
  Ho  Ho8  1  0.364571  0.836839  0.875476  1
  Ho  Ho9  1  0.866556  0.662798  0.623964  1
  Ho  Ho10  1  0.633344  0.162820  0.376068  1
  Ho  Ho11  1  0.133024  0.337005  0.123933  1
  Ho  Ho12  1  0.635910  0.165290  0.123927  1
  Ho  Ho13  1  0.136488  0.335811  0.377329  1
  Ho  Ho14  1  0.363201  0.836100  0.622921  1
  Ho  Ho15  1  0.864607  0.661421  0.876467  1
  Ho  Ho16  1  0.197249  0.502939  0.748468  1
  Ho  Ho17  1  0.696671  0.997056  0.749681  1
  Ho  Ho18  1  0.802843  0.496984  0.248834  1
  Ho  Ho19  1  0.302844  0.003014  0.251527  1
  Sn  Sn20  1  0.202847  0.538603  0.541654  1
  Sn  Sn21  1  0.296969  0.038215  0.458118  1
  Sn  Sn22  1  0.796470  0.461646  0.042001  1
  Sn  Sn23  1  0.562874  0.622382  0.749865  1
  Sn  Sn24  1  0.062183  0.878062  0.750273  1
  Sn  Sn25  1  0.436715  0.378186  0.250147  1
  Sn  Sn26  1  0.937054  0.122097  0.250071  1
  Sn  Sn27  1  0.327720  0.145185  0.750251  1
  Sn  Sn28  1  0.827281  0.354737  0.749629  1
  Sn  Sn29  1  0.672755  0.854942  0.250154  1
  Sn  Sn30  1  0.173042  0.644289  0.249954  1
  Pb  Pb31  1  0.295975  0.038333  0.041641  1
  Pb  Pb32  1  0.795757  0.461432  0.458334  1
  Pb  Pb33  1  0.704140  0.961618  0.541605  1
  Pb  Pb34  1  0.204153  0.538701  0.958368  1
  Pb  Pb35  1  0.703980  0.961359  0.958668  1
