# generated using pymatgen
data_Mg4GeAs5Ir6Ru
_symmetry_space_group_name_H-M   'P 1'
_cell_length_a   7.07477661
_cell_length_b   7.07477757
_cell_length_c   7.07477750
_cell_angle_alpha   109.73479334
_cell_angle_beta   109.73479179
_cell_angle_gamma   108.94535460
_symmetry_Int_Tables_number   1
_chemical_formula_structural   Mg4GeAs5Ir6Ru
_chemical_formula_sum   'Mg4 Ge1 As5 Ir6 Ru1'
_cell_volume   272.57686993
_cell_formula_units_Z   1
loop_
 _symmetry_equiv_pos_site_id
 _symmetry_equiv_pos_as_xyz
  1  'x, y, z'
loop_
 _atom_site_type_symbol
 _atom_site_label
 _atom_site_symmetry_multiplicity
 _atom_site_fract_x
 _atom_site_fract_y
 _atom_site_fract_z
 _atom_site_occupancy
  Mg  Mg0  1  0.998860  0.998860  0.498366  1
  Mg  Mg1  1  0.500494  0.998860  0.000000  1
  Mg  Mg2  1  0.998860  0.500494  0.000000  1
  Mg  Mg3  1  0.500494  0.500494  0.501634  1
  Ge  Ge4  1  0.692891  0.692891  0.000000  1
  As  As5  1  0.313491  0.313491  0.000000  1
  As  As6  1  0.999644  0.689107  0.689462  1
  As  As7  1  0.999644  0.310182  0.310538  1
  As  As8  1  0.689107  0.999644  0.689462  1
  As  As9  1  0.310182  0.999644  0.310538  1
  Ir  Ir10  1  0.248579  0.499085  0.749494  1
  Ir  Ir11  1  0.749153  0.249153  0.500000  1
  Ir  Ir12  1  0.499085  0.248579  0.749494  1
  Ir  Ir13  1  0.499085  0.749591  0.250506  1
  Ir  Ir14  1  0.749591  0.499085  0.250506  1
  Ir  Ir15  1  0.249153  0.749153  0.500000  1
  Ru  Ru16  1  0.001686  0.001686  0.000000  1
