# generated using pymatgen
data_YBeRe2C
_symmetry_space_group_name_H-M   'P 1'
_cell_length_a   5.64016916
_cell_length_b   5.64016857
_cell_length_c   7.30346900
_cell_angle_alpha   90.00000000
_cell_angle_beta   90.00000000
_cell_angle_gamma   140.74944333
_symmetry_Int_Tables_number   1
_chemical_formula_structural   YBeRe2C
_chemical_formula_sum   'Y2 Be2 Re4 C2'
_cell_volume   147.00092275
_cell_formula_units_Z   2
loop_
 _symmetry_equiv_pos_site_id
 _symmetry_equiv_pos_as_xyz
  1  'x, y, z'
loop_
 _atom_site_type_symbol
 _atom_site_label
 _atom_site_symmetry_multiplicity
 _atom_site_fract_x
 _atom_site_fract_y
 _atom_site_fract_z
 _atom_site_occupancy
  Y  Y0  1  0.535615  0.464385  0.250000  1
  Y  Y1  1  0.464385  0.535615  0.750000  1
  Be  Be2  1  0.258309  0.741691  0.250000  1
  Be  Be3  1  0.741691  0.258309  0.750000  1
  Re  Re4  1  0.820082  0.179918  0.062628  1
  Re  Re5  1  0.179918  0.820082  0.937372  1
  Re  Re6  1  0.179918  0.820082  0.562628  1
  Re  Re7  1  0.820082  0.179918  0.437372  1
  C  C8  1  0.000000  0.000000  0.000000  1
  C  C9  1  0.000000  0.000000  0.500000  1
