# generated using pymatgen
data_Rb2Dy3Y3F20
_symmetry_space_group_name_H-M   'P 1'
_cell_length_a   8.29951184
_cell_length_b   8.29888605
_cell_length_c   8.29817249
_cell_angle_alpha   60.00782048
_cell_angle_beta   60.00034933
_cell_angle_gamma   59.99181288
_symmetry_Int_Tables_number   1
_chemical_formula_structural   Rb2Dy3Y3F20
_chemical_formula_sum   'Rb2 Dy3 Y3 F20'
_cell_volume   404.14735080
_cell_formula_units_Z   1
loop_
 _symmetry_equiv_pos_site_id
 _symmetry_equiv_pos_as_xyz
  1  'x, y, z'
loop_
 _atom_site_type_symbol
 _atom_site_label
 _atom_site_symmetry_multiplicity
 _atom_site_fract_x
 _atom_site_fract_y
 _atom_site_fract_z
 _atom_site_occupancy
  Rb  Rb0  1  0.250041  0.249959  0.250041  1
  Rb  Rb1  1  0.750041  0.749959  0.750041  1
  Dy  Dy2  1  0.759626  0.240374  0.240330  1
  Dy  Dy3  1  0.240330  0.759670  0.759626  1
  Dy  Dy4  1  0.240325  0.759675  0.240325  1
  Y  Y5  1  0.759510  0.240490  0.759510  1
  Y  Y6  1  0.240428  0.240490  0.759510  1
  Y  Y7  1  0.759510  0.759572  0.240428  1
  F  F8  1  0.829843  0.500031  0.499969  1
  F  F9  1  0.170489  0.500713  0.499287  1
  F  F10  1  0.499287  0.829511  0.170489  1
  F  F11  1  0.499969  0.170157  0.829843  1
  F  F12  1  0.499296  0.829609  0.500673  1
  F  F13  1  0.170391  0.500704  0.829578  1
  F  F14  1  0.500673  0.170422  0.499296  1
  F  F15  1  0.829578  0.499327  0.170391  1
  F  F16  1  0.499287  0.500713  0.829660  1
  F  F17  1  0.499973  0.500027  0.170654  1
  F  F18  1  0.170654  0.829346  0.499973  1
  F  F19  1  0.829660  0.170340  0.499287  1
  F  F20  1  0.110384  0.110264  0.111129  1
  F  F21  1  0.889885  0.889030  0.889148  1
  F  F22  1  0.110970  0.110115  0.668064  1
  F  F23  1  0.111129  0.668223  0.110384  1
  F  F24  1  0.889736  0.889616  0.331777  1
  F  F25  1  0.889148  0.331936  0.889885  1
  F  F26  1  0.668064  0.110852  0.110970  1
  F  F27  1  0.331777  0.888871  0.889736  1
