# generated using pymatgen
data_KBaCu17Si8Pt
_symmetry_space_group_name_H-M   'P 1'
_cell_length_a   8.27501148
_cell_length_b   8.27803257
_cell_length_c   8.27013601
_cell_angle_alpha   120.19706312
_cell_angle_beta   120.39480259
_cell_angle_gamma   89.59929706
_symmetry_Int_Tables_number   1
_chemical_formula_structural   KBaCu17Si8Pt
_chemical_formula_sum   'K1 Ba1 Cu17 Si8 Pt1'
_cell_volume   398.38863191
_cell_formula_units_Z   1
loop_
 _symmetry_equiv_pos_site_id
 _symmetry_equiv_pos_as_xyz
  1  'x, y, z'
loop_
 _atom_site_type_symbol
 _atom_site_label
 _atom_site_symmetry_multiplicity
 _atom_site_fract_x
 _atom_site_fract_y
 _atom_site_fract_z
 _atom_site_occupancy
  K  K0  1  0.247368  0.249091  0.998375  1
  Ba  Ba1  1  0.749315  0.751155  0.998431  1
  Cu  Cu2  1  0.213761  0.057679  0.270189  1
  Cu  Cu3  1  0.792402  0.923218  0.714510  1
  Cu  Cu4  1  0.434182  0.293389  0.728587  1
  Cu  Cu5  1  0.066576  0.795295  0.860306  1
  Cu  Cu6  1  0.807549  0.061373  0.500985  1
  Cu  Cu7  1  0.560188  0.306718  0.501880  1
  Cu  Cu8  1  0.196793  0.943855  0.505444  1
  Cu  Cu9  1  0.437672  0.691758  0.497199  1
  Cu  Cu10  1  0.941725  0.439144  0.748483  1
  Cu  Cu11  1  0.685249  0.197593  0.255641  1
  Cu  Cu12  1  0.059960  0.568846  0.256213  1
  Cu  Cu13  1  0.702435  0.439196  0.142755  1
  Cu  Cu14  1  0.562862  0.704620  0.268630  1
  Cu  Cu15  1  0.503133  0.000536  0.503561  1
  Cu  Cu16  1  0.999062  0.507906  0.507147  1
  Cu  Cu17  1  0.307604  0.808544  0.748378  1
  Cu  Cu18  1  0.293776  0.562582  0.857903  1
  Si  Si19  1  0.793029  0.288732  0.851996  1
  Si  Si20  1  0.560454  0.062505  0.852065  1
  Si  Si21  1  0.061098  0.210061  0.500893  1
  Si  Si22  1  0.288236  0.436765  0.494980  1
  Si  Si23  1  0.941558  0.793242  0.500853  1
  Si  Si24  1  0.439588  0.938749  0.149144  1
  Si  Si25  1  0.212712  0.707282  0.149216  1
  Si  Si26  1  0.704711  0.556945  0.495856  1
  Pt  Pt27  1  0.937004  0.203224  0.140383  1
