# generated using pymatgen
data_Nd2Ga9Co2Pd
_symmetry_space_group_name_H-M   'P 1'
_cell_length_a   7.54369923
_cell_length_b   7.54369940
_cell_length_c   9.58596700
_cell_angle_alpha   90.00000000
_cell_angle_beta   90.00000000
_cell_angle_gamma   119.52967988
_symmetry_Int_Tables_number   1
_chemical_formula_structural   Nd2Ga9Co2Pd
_chemical_formula_sum   'Nd4 Ga18 Co4 Pd2'
_cell_volume   474.65065690
_cell_formula_units_Z   2
loop_
 _symmetry_equiv_pos_site_id
 _symmetry_equiv_pos_as_xyz
  1  'x, y, z'
loop_
 _atom_site_type_symbol
 _atom_site_label
 _atom_site_symmetry_multiplicity
 _atom_site_fract_x
 _atom_site_fract_y
 _atom_site_fract_z
 _atom_site_occupancy
  Nd  Nd0  1  0.324378  0.002629  0.250000  1
  Nd  Nd1  1  0.997371  0.675622  0.750000  1
  Nd  Nd2  1  0.675622  0.997371  0.750000  1
  Nd  Nd3  1  0.002629  0.324378  0.250000  1
  Ga  Ga4  1  0.345411  0.001515  0.927291  1
  Ga  Ga5  1  0.998485  0.654589  0.072709  1
  Ga  Ga6  1  0.345411  0.001515  0.572709  1
  Ga  Ga7  1  0.998485  0.654589  0.427291  1
  Ga  Ga8  1  0.654589  0.998485  0.072709  1
  Ga  Ga9  1  0.001515  0.345411  0.927291  1
  Ga  Ga10  1  0.654589  0.998485  0.427291  1
  Ga  Ga11  1  0.001515  0.345411  0.572709  1
  Ga  Ga12  1  0.655388  0.655388  0.940132  1
  Ga  Ga13  1  0.344612  0.344612  0.059868  1
  Ga  Ga14  1  0.655388  0.655388  0.559868  1
  Ga  Ga15  1  0.344612  0.344612  0.440132  1
  Ga  Ga16  1  0.140821  0.140821  0.750000  1
  Ga  Ga17  1  0.859179  0.859179  0.250000  1
  Ga  Ga18  1  0.448379  0.665086  0.250000  1
  Ga  Ga19  1  0.334914  0.551621  0.750000  1
  Ga  Ga20  1  0.551621  0.334914  0.750000  1
  Ga  Ga21  1  0.665086  0.448379  0.250000  1
  Co  Co22  1  0.330163  0.669837  0.000000  1
  Co  Co23  1  0.330163  0.669837  0.500000  1
  Co  Co24  1  0.669837  0.330163  0.000000  1
  Co  Co25  1  0.669837  0.330163  0.500000  1
  Pd  Pd26  1  0.000000  0.000000  0.000000  1
  Pd  Pd27  1  0.000000  0.000000  0.500000  1
