# generated using pymatgen
data_Zr3Nb5(Co4P3)4
_symmetry_space_group_name_H-M   'P 1'
_cell_length_a   11.93312700
_cell_length_b   11.93459681
_cell_length_c   3.65667100
_cell_angle_alpha   90.00000000
_cell_angle_beta   90.00000000
_cell_angle_gamma   119.99592890
_symmetry_Int_Tables_number   1
_chemical_formula_structural   Zr3Nb5(Co4P3)4
_chemical_formula_sum   'Zr3 Nb5 Co16 P12'
_cell_volume   451.02056886
_cell_formula_units_Z   1
loop_
 _symmetry_equiv_pos_site_id
 _symmetry_equiv_pos_as_xyz
  1  'x, y, z'
loop_
 _atom_site_type_symbol
 _atom_site_label
 _atom_site_symmetry_multiplicity
 _atom_site_fract_x
 _atom_site_fract_y
 _atom_site_fract_z
 _atom_site_occupancy
  Zr  Zr0  1  0.822577  0.000000  0.500000  1
  Zr  Zr1  1  0.333462  0.666813  0.000000  1
  Zr  Zr2  1  0.666650  0.333187  0.000000  1
  Nb  Nb3  1  0.999800  0.821309  0.500000  1
  Nb  Nb4  1  0.178491  0.178691  0.500000  1
  Nb  Nb5  1  0.446090  0.000000  0.000000  1
  Nb  Nb6  1  0.000355  0.447484  0.000000  1
  Nb  Nb7  1  0.552871  0.552516  0.000000  1
  Co  Co8  1  0.273362  0.000000  0.500000  1
  Co  Co9  1  0.001712  0.276429  0.500000  1
  Co  Co10  1  0.725283  0.723571  0.500000  1
  Co  Co11  1  0.627847  0.806433  0.000000  1
  Co  Co12  1  0.191297  0.821402  0.000000  1
  Co  Co13  1  0.179368  0.370483  0.000000  1
  Co  Co14  1  0.369895  0.178598  0.000000  1
  Co  Co15  1  0.808885  0.629517  0.000000  1
  Co  Co16  1  0.821413  0.193567  0.000000  1
  Co  Co17  1  0.515876  0.871237  0.500000  1
  Co  Co18  1  0.128061  0.645741  0.500000  1
  Co  Co19  1  0.354607  0.482956  0.500000  1
  Co  Co20  1  0.482320  0.354259  0.500000  1
  Co  Co21  1  0.871651  0.517044  0.500000  1
  Co  Co22  1  0.644639  0.128763  0.500000  1
  Co  Co23  1  0.001796  0.000000  0.000000  1
  P  P24  1  0.175448  0.000000  0.000000  1
  P  P25  1  0.001736  0.175606  0.000000  1
  P  P26  1  0.826130  0.824394  0.000000  1
  P  P27  1  0.520421  0.689484  0.500000  1
  P  P28  1  0.310212  0.830632  0.500000  1
  P  P29  1  0.169785  0.480780  0.500000  1
  P  P30  1  0.479580  0.169368  0.500000  1
  P  P31  1  0.689005  0.519220  0.500000  1
  P  P32  1  0.830937  0.310516  0.500000  1
  P  P33  1  0.647314  0.000000  0.000000  1
  P  P34  1  0.000148  0.649171  0.000000  1
  P  P35  1  0.350977  0.350829  0.000000  1
