# generated using pymatgen
data_KPu6F25
_symmetry_space_group_name_H-M   'P 1'
_cell_length_a   9.47421952
_cell_length_b   9.47885027
_cell_length_c   9.48620867
_cell_angle_alpha   50.65840365
_cell_angle_beta   50.64803795
_cell_angle_gamma   50.61769590
_symmetry_Int_Tables_number   1
_chemical_formula_structural   KPu6F25
_chemical_formula_sum   'K1 Pu6 F25'
_cell_volume   469.37801385
_cell_formula_units_Z   1
loop_
 _symmetry_equiv_pos_site_id
 _symmetry_equiv_pos_as_xyz
  1  'x, y, z'
loop_
 _atom_site_type_symbol
 _atom_site_label
 _atom_site_symmetry_multiplicity
 _atom_site_fract_x
 _atom_site_fract_y
 _atom_site_fract_z
 _atom_site_occupancy
  K  K0  1  0.000000  0.000000  0.000000  1
  Pu  Pu1  1  0.907365  0.408564  0.408570  1
  Pu  Pu2  1  0.408750  0.907359  0.408446  1
  Pu  Pu3  1  0.591250  0.092641  0.591554  1
  Pu  Pu4  1  0.591447  0.591328  0.092625  1
  Pu  Pu5  1  0.092635  0.591436  0.591430  1
  Pu  Pu6  1  0.408553  0.408672  0.907375  1
  F  F7  1  0.251895  0.251884  0.694202  1
  F  F8  1  0.694472  0.252076  0.252035  1
  F  F9  1  0.252098  0.694347  0.251961  1
  F  F10  1  0.747902  0.305653  0.748039  1
  F  F11  1  0.748105  0.748116  0.305798  1
  F  F12  1  0.305528  0.747924  0.747965  1
  F  F13  1  0.550019  0.549997  0.549540  1
  F  F14  1  0.500000  0.500000  0.000000  1
  F  F15  1  0.500000  0.000000  0.500000  1
  F  F16  1  0.000000  0.500000  0.500000  1
  F  F17  1  0.553649  0.122420  0.122194  1
  F  F18  1  0.122471  0.122309  0.553685  1
  F  F19  1  0.122415  0.553546  0.122293  1
  F  F20  1  0.877585  0.446454  0.877707  1
  F  F21  1  0.446351  0.877580  0.877806  1
  F  F22  1  0.877529  0.877691  0.446315  1
  F  F23  1  0.178251  0.821645  0.500095  1
  F  F24  1  0.822003  0.499905  0.178201  1
  F  F25  1  0.500137  0.178060  0.821798  1
  F  F26  1  0.821749  0.178355  0.499905  1
  F  F27  1  0.177997  0.500095  0.821799  1
  F  F28  1  0.499863  0.821940  0.178202  1
  F  F29  1  0.207321  0.207615  0.208477  1
  F  F30  1  0.792679  0.792385  0.791523  1
  F  F31  1  0.449981  0.450003  0.450460  1
