# generated using pymatgen
data_DyThPd2Pb
_symmetry_space_group_name_H-M   'P 1'
_cell_length_a   8.03095000
_cell_length_b   8.02135400
_cell_length_c   3.70179800
_cell_angle_alpha   90.00000000
_cell_angle_beta   90.00000000
_cell_angle_gamma   90.00000000
_symmetry_Int_Tables_number   1
_chemical_formula_structural   DyThPd2Pb
_chemical_formula_sum   'Dy2 Th2 Pd4 Pb2'
_cell_volume   238.46646928
_cell_formula_units_Z   2
loop_
 _symmetry_equiv_pos_site_id
 _symmetry_equiv_pos_as_xyz
  1  'x, y, z'
loop_
 _atom_site_type_symbol
 _atom_site_label
 _atom_site_symmetry_multiplicity
 _atom_site_fract_x
 _atom_site_fract_y
 _atom_site_fract_z
 _atom_site_occupancy
  Dy  Dy0  1  0.828400  0.673366  0.500000  1
  Dy  Dy1  1  0.328400  0.826634  0.500000  1
  Th  Th2  1  0.670801  0.167750  0.500000  1
  Th  Th3  1  0.170801  0.332250  0.500000  1
  Pd  Pd4  1  0.372543  0.126833  0.000000  1
  Pd  Pd5  1  0.125327  0.622919  0.000000  1
  Pd  Pd6  1  0.625327  0.877081  0.000000  1
  Pd  Pd7  1  0.872543  0.373167  0.000000  1
  Pb  Pb8  1  0.002930  0.989110  0.000000  1
  Pb  Pb9  1  0.502930  0.510890  0.000000  1
