# generated using pymatgen
data_Er9Mg(Ni2Sb)2
_symmetry_space_group_name_H-M   'P 1'
_cell_length_a   8.54825621
_cell_length_b   8.54825678
_cell_length_c   8.54825561
_cell_angle_alpha   128.32285382
_cell_angle_beta   128.32286057
_cell_angle_gamma   76.10259572
_symmetry_Int_Tables_number   1
_chemical_formula_structural   Er9Mg(Ni2Sb)2
_chemical_formula_sum   'Er9 Mg1 Ni4 Sb2'
_cell_volume   373.73953100
_cell_formula_units_Z   1
loop_
 _symmetry_equiv_pos_site_id
 _symmetry_equiv_pos_as_xyz
  1  'x, y, z'
loop_
 _atom_site_type_symbol
 _atom_site_label
 _atom_site_symmetry_multiplicity
 _atom_site_fract_x
 _atom_site_fract_y
 _atom_site_fract_z
 _atom_site_occupancy
  Er  Er0  1  0.500000  0.500000  0.000000  1
  Er  Er1  1  0.801909  0.286186  0.823253  1
  Er  Er2  1  0.198091  0.713814  0.176747  1
  Er  Er3  1  0.462933  0.978655  0.176747  1
  Er  Er4  1  0.286186  0.462933  0.484277  1
  Er  Er5  1  0.021345  0.198091  0.484277  1
  Er  Er6  1  0.537067  0.021345  0.823253  1
  Er  Er7  1  0.713814  0.537067  0.515723  1
  Er  Er8  1  0.978655  0.801909  0.515723  1
  Mg  Mg9  1  0.000000  0.000000  0.000000  1
  Ni  Ni10  1  0.133089  0.624311  0.757401  1
  Ni  Ni11  1  0.866911  0.375689  0.242599  1
  Ni  Ni12  1  0.624311  0.866911  0.491223  1
  Ni  Ni13  1  0.375689  0.133089  0.508777  1
  Sb  Sb14  1  0.257366  0.257366  0.000000  1
  Sb  Sb15  1  0.742634  0.742634  0.000000  1
