# generated using pymatgen
data_DyHo9(In3Br)2
_symmetry_space_group_name_H-M   'P 1'
_cell_length_a   9.15672802
_cell_length_b   9.15672773
_cell_length_c   6.74026600
_cell_angle_alpha   90.00000000
_cell_angle_beta   90.00000000
_cell_angle_gamma   120.00668044
_symmetry_Int_Tables_number   1
_chemical_formula_structural   DyHo9(In3Br)2
_chemical_formula_sum   'Dy1 Ho9 In6 Br2'
_cell_volume   489.39445455
_cell_formula_units_Z   1
loop_
 _symmetry_equiv_pos_site_id
 _symmetry_equiv_pos_as_xyz
  1  'x, y, z'
loop_
 _atom_site_type_symbol
 _atom_site_label
 _atom_site_symmetry_multiplicity
 _atom_site_fract_x
 _atom_site_fract_y
 _atom_site_fract_z
 _atom_site_occupancy
  Dy  Dy0  1  0.733767  0.733767  0.250000  1
  Ho  Ho1  1  0.999992  0.733711  0.750000  1
  Ho  Ho2  1  0.733711  0.999992  0.750000  1
  Ho  Ho3  1  0.333264  0.666631  0.500036  1
  Ho  Ho4  1  0.266325  0.266325  0.750000  1
  Ho  Ho5  1  0.000020  0.266299  0.250000  1
  Ho  Ho6  1  0.666631  0.333264  0.500036  1
  Ho  Ho7  1  0.266299  0.000020  0.250000  1
  Ho  Ho8  1  0.333264  0.666631  0.999964  1
  Ho  Ho9  1  0.666631  0.333264  0.999964  1
  In  In10  1  0.392715  0.999988  0.750000  1
  In  In11  1  0.000144  0.607224  0.250000  1
  In  In12  1  0.607224  0.000144  0.250000  1
  In  In13  1  0.999988  0.392715  0.750000  1
  In  In14  1  0.392577  0.392577  0.250000  1
  In  In15  1  0.607253  0.607253  0.750000  1
  Br  Br16  1  0.000098  0.000098  0.500162  1
  Br  Br17  1  0.000098  0.000098  0.999838  1
