# generated using pymatgen
data_Na4TmP12Rh19
_symmetry_space_group_name_H-M   'P 1'
_cell_length_a   12.61527700
_cell_length_b   12.61527731
_cell_length_c   3.91714300
_cell_angle_alpha   90.00000000
_cell_angle_beta   90.00000000
_cell_angle_gamma   119.99999657
_symmetry_Int_Tables_number   1
_chemical_formula_structural   Na4TmP12Rh19
_chemical_formula_sum   'Na4 Tm1 P12 Rh19'
_cell_volume   539.87555742
_cell_formula_units_Z   1
loop_
 _symmetry_equiv_pos_site_id
 _symmetry_equiv_pos_as_xyz
  1  'x, y, z'
loop_
 _atom_site_type_symbol
 _atom_site_label
 _atom_site_symmetry_multiplicity
 _atom_site_fract_x
 _atom_site_fract_y
 _atom_site_fract_z
 _atom_site_occupancy
  Na  Na0  1  0.999777  0.181872  0.500000  1
  Na  Na1  1  0.818128  0.817906  0.500000  1
  Na  Na2  1  0.182094  0.000223  0.500000  1
  Na  Na3  1  0.333333  0.666667  0.000000  1
  Tm  Tm4  1  0.666667  0.333333  0.000000  1
  P  P5  1  0.479045  0.311622  0.500000  1
  P  P6  1  0.820427  0.999198  0.000000  1
  P  P7  1  0.178771  0.179573  0.000000  1
  P  P8  1  0.000802  0.821229  0.000000  1
  P  P9  1  0.363687  0.997582  0.000000  1
  P  P10  1  0.688378  0.167423  0.500000  1
  P  P11  1  0.832577  0.520955  0.500000  1
  P  P12  1  0.518774  0.833041  0.500000  1
  P  P13  1  0.166959  0.685732  0.500000  1
  P  P14  1  0.314268  0.481226  0.500000  1
  P  P15  1  0.002418  0.366105  0.000000  1
  P  P16  1  0.633895  0.636313  0.000000  1
  Rh  Rh17  1  0.806367  0.182990  0.000000  1
  Rh  Rh18  1  0.376624  0.193633  0.000000  1
  Rh  Rh19  1  0.639328  0.507644  0.500000  1
  Rh  Rh20  1  0.868315  0.360672  0.500000  1
  Rh  Rh21  1  0.358586  0.871965  0.500000  1
  Rh  Rh22  1  0.513379  0.641414  0.500000  1
  Rh  Rh23  1  0.128035  0.486621  0.500000  1
  Rh  Rh24  1  0.817010  0.623376  0.000000  1
  Rh  Rh25  1  0.623176  0.819134  0.000000  1
  Rh  Rh26  1  0.180866  0.804043  0.000000  1
  Rh  Rh27  1  0.195957  0.376824  0.000000  1
  Rh  Rh28  1  0.999936  0.718560  0.500000  1
  Rh  Rh29  1  0.281440  0.281376  0.500000  1
  Rh  Rh30  1  0.718624  0.000064  0.500000  1
  Rh  Rh31  1  0.999793  0.545481  0.000000  1
  Rh  Rh32  1  0.454519  0.454312  0.000000  1
  Rh  Rh33  1  0.545688  0.000207  0.000000  1
  Rh  Rh34  1  0.000000  0.000000  0.000000  1
  Rh  Rh35  1  0.492356  0.131685  0.500000  1
