# generated using pymatgen
data_ZrSc(Ni2As)4
_symmetry_space_group_name_H-M   'P 1'
_cell_length_a   7.08322512
_cell_length_b   7.08322512
_cell_length_c   3.75425700
_cell_angle_alpha   90.00000000
_cell_angle_beta   90.00000000
_cell_angle_gamma   90.02086946
_symmetry_Int_Tables_number   1
_chemical_formula_structural   ZrSc(Ni2As)4
_chemical_formula_sum   'Zr1 Sc1 Ni8 As4'
_cell_volume   188.35886278
_cell_formula_units_Z   1
loop_
 _symmetry_equiv_pos_site_id
 _symmetry_equiv_pos_as_xyz
  1  'x, y, z'
loop_
 _atom_site_type_symbol
 _atom_site_label
 _atom_site_symmetry_multiplicity
 _atom_site_fract_x
 _atom_site_fract_y
 _atom_site_fract_z
 _atom_site_occupancy
  Zr  Zr0  1  0.500000  0.500000  0.000000  1
  Sc  Sc1  1  0.000000  0.000000  0.500000  1
  Ni  Ni2  1  0.590416  0.154825  0.500000  1
  Ni  Ni3  1  0.409584  0.845175  0.500000  1
  Ni  Ni4  1  0.090117  0.344893  0.000000  1
  Ni  Ni5  1  0.909883  0.655107  0.000000  1
  Ni  Ni6  1  0.154825  0.590416  0.500000  1
  Ni  Ni7  1  0.845175  0.409584  0.500000  1
  Ni  Ni8  1  0.344893  0.090117  0.000000  1
  Ni  Ni9  1  0.655107  0.909883  0.000000  1
  As  As10  1  0.716400  0.716400  0.500000  1
  As  As11  1  0.283600  0.283600  0.500000  1
  As  As12  1  0.216491  0.783509  0.000000  1
  As  As13  1  0.783509  0.216491  0.000000  1
