# generated using pymatgen
data_Ca2Al20TcIr3
_symmetry_space_group_name_H-M   'P 1'
_cell_length_a   6.90054683
_cell_length_b   6.88840254
_cell_length_c   9.17992643
_cell_angle_alpha   89.62003543
_cell_angle_beta   89.96826493
_cell_angle_gamma   96.56277838
_symmetry_Int_Tables_number   1
_chemical_formula_structural   Ca2Al20TcIr3
_chemical_formula_sum   'Ca2 Al20 Tc1 Ir3'
_cell_volume   433.48702060
_cell_formula_units_Z   1
loop_
 _symmetry_equiv_pos_site_id
 _symmetry_equiv_pos_as_xyz
  1  'x, y, z'
loop_
 _atom_site_type_symbol
 _atom_site_label
 _atom_site_symmetry_multiplicity
 _atom_site_fract_x
 _atom_site_fract_y
 _atom_site_fract_z
 _atom_site_occupancy
  Ca  Ca0  1  0.875588  0.126900  0.749673  1
  Ca  Ca1  1  0.124412  0.873100  0.250327  1
  Al  Al2  1  0.624758  0.379441  0.550402  1
  Al  Al3  1  0.375242  0.620559  0.449598  1
  Al  Al4  1  0.378678  0.621010  0.051166  1
  Al  Al5  1  0.621322  0.378990  0.948834  1
  Al  Al6  1  0.222205  0.224782  0.501501  1
  Al  Al7  1  0.777795  0.775218  0.498499  1
  Al  Al8  1  0.777245  0.776397  0.999599  1
  Al  Al9  1  0.222755  0.223603  0.000401  1
  Al  Al10  1  0.841214  0.157068  0.102253  1
  Al  Al11  1  0.158786  0.842932  0.897747  1
  Al  Al12  1  0.157543  0.839687  0.600099  1
  Al  Al13  1  0.842457  0.160313  0.399901  1
  Al  Al14  1  0.857552  0.585155  0.748689  1
  Al  Al15  1  0.142448  0.414845  0.251311  1
  Al  Al16  1  0.412960  0.142969  0.749371  1
  Al  Al17  1  0.587040  0.857031  0.250629  1
  Al  Al18  1  0.221891  0.479695  0.747535  1
  Al  Al19  1  0.778109  0.520305  0.252465  1
  Al  Al20  1  0.519821  0.776723  0.751189  1
  Al  Al21  1  0.480179  0.223277  0.248811  1
  Tc  Tc22  1  0.000000  0.500000  0.500000  1
  Ir  Ir23  1  0.000000  0.500000  0.000000  1
  Ir  Ir24  1  0.500000  0.000000  0.000000  1
  Ir  Ir25  1  0.500000  0.000000  0.500000  1
