# generated using pymatgen
data_Dy7Y13(Bi2Pt)4
_symmetry_space_group_name_H-M   'P 1'
_cell_length_a   8.10959006
_cell_length_b   9.04615810
_cell_length_c   12.46641403
_cell_angle_alpha   89.99615710
_cell_angle_beta   89.99074631
_cell_angle_gamma   90.00981475
_symmetry_Int_Tables_number   1
_chemical_formula_structural   Dy7Y13(Bi2Pt)4
_chemical_formula_sum   'Dy7 Y13 Bi8 Pt4'
_cell_volume   914.54400774
_cell_formula_units_Z   1
loop_
 _symmetry_equiv_pos_site_id
 _symmetry_equiv_pos_as_xyz
  1  'x, y, z'
loop_
 _atom_site_type_symbol
 _atom_site_label
 _atom_site_symmetry_multiplicity
 _atom_site_fract_x
 _atom_site_fract_y
 _atom_site_fract_z
 _atom_site_occupancy
  Dy  Dy0  1  0.322629  0.954825  0.433174  1
  Dy  Dy1  1  0.177938  0.954886  0.933082  1
  Dy  Dy2  1  0.321887  0.545271  0.432710  1
  Dy  Dy3  1  0.822071  0.045123  0.067061  1
  Dy  Dy4  1  0.677664  0.454858  0.566986  1
  Dy  Dy5  1  0.822027  0.454897  0.066992  1
  Dy  Dy6  1  0.177877  0.545215  0.933065  1
  Y  Y7  1  0.837643  0.749937  0.789192  1
  Y  Y8  1  0.162411  0.249912  0.210888  1
  Y  Y9  1  0.337654  0.250107  0.710766  1
  Y  Y10  1  0.662230  0.750049  0.289308  1
  Y  Y11  1  0.370769  0.749911  0.697817  1
  Y  Y12  1  0.628976  0.249929  0.302026  1
  Y  Y13  1  0.870648  0.250233  0.802185  1
  Y  Y14  1  0.129234  0.750130  0.198017  1
  Y  Y15  1  0.951165  0.749398  0.499912  1
  Y  Y16  1  0.049477  0.250435  0.499881  1
  Y  Y17  1  0.451013  0.250048  0.999945  1
  Y  Y18  1  0.548977  0.749998  0.000031  1
  Y  Y19  1  0.679484  0.045285  0.567624  1
  Bi  Bi20  1  0.567794  0.491195  0.827491  1
  Bi  Bi21  1  0.432055  0.508897  0.172434  1
  Bi  Bi22  1  0.067801  0.508848  0.672669  1
  Bi  Bi23  1  0.432109  0.991121  0.172422  1
  Bi  Bi24  1  0.932001  0.491021  0.327192  1
  Bi  Bi25  1  0.567664  0.008893  0.827417  1
  Bi  Bi26  1  0.932073  0.008907  0.327676  1
  Bi  Bi27  1  0.067729  0.991167  0.672415  1
  Pt  Pt28  1  0.574616  0.749021  0.511636  1
  Pt  Pt29  1  0.424443  0.250415  0.487922  1
  Pt  Pt30  1  0.074639  0.250008  0.988256  1
  Pt  Pt31  1  0.925308  0.750060  0.011807  1
