# generated using pymatgen
data_Hf8Ga3Ge3Mo2
_symmetry_space_group_name_H-M   'P 1'
_cell_length_a   7.91998500
_cell_length_b   7.91998457
_cell_length_c   5.44513300
_cell_angle_alpha   90.00000000
_cell_angle_beta   90.00000000
_cell_angle_gamma   119.99999762
_symmetry_Int_Tables_number   1
_chemical_formula_structural   Hf8Ga3Ge3Mo2
_chemical_formula_sum   'Hf8 Ga3 Ge3 Mo2'
_cell_volume   295.79295684
_cell_formula_units_Z   1
loop_
 _symmetry_equiv_pos_site_id
 _symmetry_equiv_pos_as_xyz
  1  'x, y, z'
loop_
 _atom_site_type_symbol
 _atom_site_label
 _atom_site_symmetry_multiplicity
 _atom_site_fract_x
 _atom_site_fract_y
 _atom_site_fract_z
 _atom_site_occupancy
  Hf  Hf0  1  0.333333  0.666667  0.497853  1
  Hf  Hf1  1  0.666667  0.333333  0.497853  1
  Hf  Hf2  1  0.751967  0.751967  0.755689  1
  Hf  Hf3  1  0.248033  0.000000  0.755689  1
  Hf  Hf4  1  0.000000  0.248033  0.755689  1
  Hf  Hf5  1  0.247847  0.247847  0.246342  1
  Hf  Hf6  1  0.752153  0.000000  0.246342  1
  Hf  Hf7  1  0.000000  0.752153  0.246342  1
  Ga  Ga8  1  0.603769  0.603769  0.236637  1
  Ga  Ga9  1  0.396231  0.000000  0.236637  1
  Ga  Ga10  1  0.000000  0.396231  0.236637  1
  Ge  Ge11  1  0.396343  0.396343  0.763650  1
  Ge  Ge12  1  0.603657  0.000000  0.763650  1
  Ge  Ge13  1  0.000000  0.603657  0.763650  1
  Mo  Mo14  1  0.666667  0.333333  0.998671  1
  Mo  Mo15  1  0.333333  0.666667  0.998671  1
