# generated using pymatgen
data_TbEr4In2(NiHg)2
_symmetry_space_group_name_H-M   'P 1'
_cell_length_a   3.56977400
_cell_length_b   7.82337900
_cell_length_c   17.96385200
_cell_angle_alpha   90.00000000
_cell_angle_beta   90.00000000
_cell_angle_gamma   90.00000000
_symmetry_Int_Tables_number   1
_chemical_formula_structural   TbEr4In2(NiHg)2
_chemical_formula_sum   'Tb2 Er8 In4 Ni4 Hg4'
_cell_volume   501.68897872
_cell_formula_units_Z   2
loop_
 _symmetry_equiv_pos_site_id
 _symmetry_equiv_pos_as_xyz
  1  'x, y, z'
loop_
 _atom_site_type_symbol
 _atom_site_label
 _atom_site_symmetry_multiplicity
 _atom_site_fract_x
 _atom_site_fract_y
 _atom_site_fract_z
 _atom_site_occupancy
  Tb  Tb0  1  0.000000  0.500000  0.500000  1
  Tb  Tb1  1  0.000000  0.000000  0.000000  1
  Er  Er2  1  0.000000  0.750662  0.283060  1
  Er  Er3  1  0.000000  0.249338  0.716940  1
  Er  Er4  1  0.000000  0.749338  0.783060  1
  Er  Er5  1  0.000000  0.250662  0.216940  1
  Er  Er6  1  0.000000  0.610436  0.088407  1
  Er  Er7  1  0.000000  0.389564  0.911593  1
  Er  Er8  1  0.000000  0.889564  0.588407  1
  Er  Er9  1  0.000000  0.110436  0.411593  1
  In  In10  1  0.500000  0.577260  0.653670  1
  In  In11  1  0.500000  0.422740  0.346330  1
  In  In12  1  0.500000  0.922740  0.153670  1
  In  In13  1  0.500000  0.077260  0.846330  1
  Ni  Ni14  1  0.500000  0.537701  0.198133  1
  Ni  Ni15  1  0.500000  0.462299  0.801867  1
  Ni  Ni16  1  0.500000  0.962299  0.698133  1
  Ni  Ni17  1  0.500000  0.037701  0.301867  1
  Hg  Hg18  1  0.500000  0.707856  0.931479  1
  Hg  Hg19  1  0.500000  0.292144  0.068521  1
  Hg  Hg20  1  0.500000  0.792144  0.431479  1
  Hg  Hg21  1  0.500000  0.207856  0.568521  1
