# generated using pymatgen
data_Y3Sc2InSb2
_symmetry_space_group_name_H-M   'P 1'
_cell_length_a   6.22278700
_cell_length_b   8.79483333
_cell_length_c   8.83442803
_cell_angle_alpha   120.07347782
_cell_angle_beta   89.99683068
_cell_angle_gamma   90.00041170
_symmetry_Int_Tables_number   1
_chemical_formula_structural   Y3Sc2InSb2
_chemical_formula_sum   'Y6 Sc4 In2 Sb4'
_cell_volume   418.40761968
_cell_formula_units_Z   2
loop_
 _symmetry_equiv_pos_site_id
 _symmetry_equiv_pos_as_xyz
  1  'x, y, z'
loop_
 _atom_site_type_symbol
 _atom_site_label
 _atom_site_symmetry_multiplicity
 _atom_site_fract_x
 _atom_site_fract_y
 _atom_site_fract_z
 _atom_site_occupancy
  Y  Y0  1  0.750002  0.243598  0.004257  1
  Y  Y1  1  0.750002  0.756250  0.760221  1
  Y  Y2  1  0.749995  0.000569  0.242431  1
  Y  Y3  1  0.250000  0.758518  0.996753  1
  Y  Y4  1  0.249995  0.242956  0.240590  1
  Y  Y5  1  0.249996  0.998915  0.754415  1
  Sc  Sc6  1  0.500087  0.335145  0.668278  1
  Sc  Sc7  1  0.500361  0.664392  0.332260  1
  Sc  Sc8  1  0.999628  0.664395  0.332259  1
  Sc  Sc9  1  0.999914  0.335146  0.668267  1
  In  In10  1  0.750037  0.600580  0.000756  1
  In  In11  1  0.750019  0.399168  0.399745  1
  Sb  Sb12  1  0.750003  0.000050  0.605094  1
  Sb  Sb13  1  0.249987  0.398966  0.998560  1
  Sb  Sb14  1  0.249989  0.601494  0.600788  1
  Sb  Sb15  1  0.249987  0.999858  0.395326  1
