# generated using pymatgen
data_Hf2Sc2Si6Ir4Rh3
_symmetry_space_group_name_H-M   'P 1'
_cell_length_a   6.99360297
_cell_length_b   6.97467109
_cell_length_c   6.97575801
_cell_angle_alpha   109.33773673
_cell_angle_beta   109.48769473
_cell_angle_gamma   109.48141306
_symmetry_Int_Tables_number   1
_chemical_formula_structural   Hf2Sc2Si6Ir4Rh3
_chemical_formula_sum   'Hf2 Sc2 Si6 Ir4 Rh3'
_cell_volume   262.27971742
_cell_formula_units_Z   1
loop_
 _symmetry_equiv_pos_site_id
 _symmetry_equiv_pos_as_xyz
  1  'x, y, z'
loop_
 _atom_site_type_symbol
 _atom_site_label
 _atom_site_symmetry_multiplicity
 _atom_site_fract_x
 _atom_site_fract_y
 _atom_site_fract_z
 _atom_site_occupancy
  Hf  Hf0  1  0.000075  0.000037  0.500037  1
  Hf  Hf1  1  0.000770  0.500385  0.000385  1
  Sc  Sc2  1  0.499932  0.999699  0.999782  1
  Sc  Sc3  1  0.499932  0.500233  0.500150  1
  Si  Si4  1  0.678810  0.681512  0.996725  1
  Si  Si5  1  0.321493  0.003525  0.318396  1
  Si  Si6  1  0.999531  0.318073  0.318021  1
  Si  Si7  1  0.321493  0.317968  0.003097  1
  Si  Si8  1  0.678810  0.997298  0.682085  1
  Si  Si9  1  0.999531  0.681458  0.681510  1
  Ir  Ir10  1  0.248032  0.497771  0.749679  1
  Ir  Ir11  1  0.248032  0.750261  0.498353  1
  Ir  Ir12  1  0.500807  0.750404  0.250404  1
  Ir  Ir13  1  0.000013  0.000006  0.000006  1
  Rh  Rh14  1  0.751017  0.250064  0.501396  1
  Rh  Rh15  1  0.751017  0.500953  0.249620  1
  Rh  Rh16  1  0.500705  0.250353  0.750353  1
