# generated using pymatgen
data_NaCaZr2F11
_symmetry_space_group_name_H-M   'P 1'
_cell_length_a   5.93626747
_cell_length_b   5.93626770
_cell_length_c   8.02054384
_cell_angle_alpha   69.71829898
_cell_angle_beta   69.71829931
_cell_angle_gamma   73.29905657
_symmetry_Int_Tables_number   1
_chemical_formula_structural   NaCaZr2F11
_chemical_formula_sum   'Na1 Ca1 Zr2 F11'
_cell_volume   244.14471215
_cell_formula_units_Z   1
loop_
 _symmetry_equiv_pos_site_id
 _symmetry_equiv_pos_as_xyz
  1  'x, y, z'
loop_
 _atom_site_type_symbol
 _atom_site_label
 _atom_site_symmetry_multiplicity
 _atom_site_fract_x
 _atom_site_fract_y
 _atom_site_fract_z
 _atom_site_occupancy
  Na  Na0  1  0.000000  0.000000  0.000000  1
  Ca  Ca1  1  0.000000  0.000000  0.500000  1
  Zr  Zr2  1  0.498261  0.498261  0.770669  1
  Zr  Zr3  1  0.501739  0.501739  0.229331  1
  F  F4  1  0.225391  0.793306  0.702048  1
  F  F5  1  0.206694  0.774609  0.297952  1
  F  F6  1  0.774609  0.206694  0.297952  1
  F  F7  1  0.793306  0.225391  0.702048  1
  F  F8  1  0.500000  0.500000  0.500000  1
  F  F9  1  0.664925  0.335075  0.000000  1
  F  F10  1  0.335075  0.664925  0.000000  1
  F  F11  1  0.263892  0.263892  0.346961  1
  F  F12  1  0.736108  0.736108  0.653039  1
  F  F13  1  0.266037  0.266037  0.889373  1
  F  F14  1  0.733963  0.733963  0.110627  1
