# generated using pymatgen
data_Ta7Nb2CrN12
_symmetry_space_group_name_H-M   'P 1'
_cell_length_a   5.21877469
_cell_length_b   5.22601019
_cell_length_c   10.35331210
_cell_angle_alpha   90.01601052
_cell_angle_beta   89.99197510
_cell_angle_gamma   120.04588139
_symmetry_Int_Tables_number   1
_chemical_formula_structural   Ta7Nb2CrN12
_chemical_formula_sum   'Ta7 Nb2 Cr1 N12'
_cell_volume   244.42619445
_cell_formula_units_Z   1
loop_
 _symmetry_equiv_pos_site_id
 _symmetry_equiv_pos_as_xyz
  1  'x, y, z'
loop_
 _atom_site_type_symbol
 _atom_site_label
 _atom_site_symmetry_multiplicity
 _atom_site_fract_x
 _atom_site_fract_y
 _atom_site_fract_z
 _atom_site_occupancy
  Ta  Ta0  1  0.664513  0.332256  0.000000  1
  Ta  Ta1  1  0.663435  0.331717  0.500000  1
  Ta  Ta2  1  0.333650  0.666825  0.000000  1
  Ta  Ta3  1  0.676706  0.998110  0.749168  1
  Ta  Ta4  1  0.676706  0.678595  0.250832  1
  Ta  Ta5  1  0.002290  0.324163  0.250926  1
  Ta  Ta6  1  0.002290  0.678128  0.749074  1
  Nb  Nb7  1  0.323242  0.325135  0.750074  1
  Nb  Nb8  1  0.323242  0.998107  0.249926  1
  Cr  Cr9  1  0.333628  0.666814  0.500000  1
  N  N10  1  0.347038  0.353324  0.378956  1
  N  N11  1  0.654859  0.998002  0.379402  1
  N  N12  1  0.997668  0.647752  0.378790  1
  N  N13  1  0.995967  0.340557  0.879271  1
  N  N14  1  0.665004  0.000575  0.119972  1
  N  N15  1  0.665004  0.664429  0.880028  1
  N  N16  1  0.339614  0.996678  0.879324  1
  N  N17  1  0.654859  0.656857  0.620598  1
  N  N18  1  0.997668  0.349916  0.621210  1
  N  N19  1  0.995967  0.655410  0.120729  1
  N  N20  1  0.347038  0.993715  0.621044  1
  N  N21  1  0.339614  0.342935  0.120676  1
