# generated using pymatgen
data_Nb3Cr6Si2Mo
_symmetry_space_group_name_H-M   'P 1'
_cell_length_a   4.83745500
_cell_length_b   4.83745532
_cell_length_c   8.13183300
_cell_angle_alpha   90.00000000
_cell_angle_beta   90.00000000
_cell_angle_gamma   120.00000465
_symmetry_Int_Tables_number   1
_chemical_formula_structural   Nb3Cr6Si2Mo
_chemical_formula_sum   'Nb3 Cr6 Si2 Mo1'
_cell_volume   164.79839104
_cell_formula_units_Z   1
loop_
 _symmetry_equiv_pos_site_id
 _symmetry_equiv_pos_as_xyz
  1  'x, y, z'
loop_
 _atom_site_type_symbol
 _atom_site_label
 _atom_site_symmetry_multiplicity
 _atom_site_fract_x
 _atom_site_fract_y
 _atom_site_fract_z
 _atom_site_occupancy
  Nb  Nb0  1  0.666667  0.333333  0.562860  1
  Nb  Nb1  1  0.666667  0.333333  0.934615  1
  Nb  Nb2  1  0.333333  0.666667  0.066459  1
  Cr  Cr3  1  0.827903  0.172097  0.251639  1
  Cr  Cr4  1  0.827903  0.655806  0.251639  1
  Cr  Cr5  1  0.344194  0.172097  0.251639  1
  Cr  Cr6  1  0.172233  0.827767  0.748598  1
  Cr  Cr7  1  0.172233  0.344467  0.748598  1
  Cr  Cr8  1  0.655533  0.827767  0.748598  1
  Si  Si9  1  0.000000  0.000000  0.500341  1
  Si  Si10  1  0.000000  0.000000  0.000734  1
  Mo  Mo11  1  0.333333  0.666667  0.434278  1
