# generated using pymatgen
data_PrSm(CrN3)2
_symmetry_space_group_name_H-M   'P 1'
_cell_length_a   7.12136981
_cell_length_b   7.12137033
_cell_length_c   5.95337020
_cell_angle_alpha   77.79465241
_cell_angle_beta   77.79466543
_cell_angle_gamma   87.38540997
_symmetry_Int_Tables_number   1
_chemical_formula_structural   PrSm(CrN3)2
_chemical_formula_sum   'Pr2 Sm2 Cr4 N12'
_cell_volume   288.42379166
_cell_formula_units_Z   2
loop_
 _symmetry_equiv_pos_site_id
 _symmetry_equiv_pos_as_xyz
  1  'x, y, z'
loop_
 _atom_site_type_symbol
 _atom_site_label
 _atom_site_symmetry_multiplicity
 _atom_site_fract_x
 _atom_site_fract_y
 _atom_site_fract_z
 _atom_site_occupancy
  Pr  Pr0  1  0.333573  0.666427  0.750000  1
  Pr  Pr1  1  0.666427  0.333573  0.250000  1
  Sm  Sm2  1  0.093466  0.906534  0.250000  1
  Sm  Sm3  1  0.906534  0.093466  0.750000  1
  Cr  Cr4  1  0.374684  0.198806  0.757605  1
  Cr  Cr5  1  0.625316  0.801194  0.242395  1
  Cr  Cr6  1  0.801194  0.625316  0.742395  1
  Cr  Cr7  1  0.198806  0.374684  0.257605  1
  N  N8  1  0.995988  0.774232  0.656741  1
  N  N9  1  0.868857  0.403351  0.838730  1
  N  N10  1  0.774232  0.995988  0.156741  1
  N  N11  1  0.131143  0.596649  0.161270  1
  N  N12  1  0.004012  0.225768  0.343259  1
  N  N13  1  0.225768  0.004012  0.843259  1
  N  N14  1  0.596649  0.131143  0.661270  1
  N  N15  1  0.631961  0.678353  0.994380  1
  N  N16  1  0.368039  0.321647  0.005620  1
  N  N17  1  0.403351  0.868857  0.338730  1
  N  N18  1  0.678353  0.631961  0.494380  1
  N  N19  1  0.321647  0.368039  0.505620  1
