# generated using pymatgen
data_PuMnB4
_symmetry_space_group_name_H-M   'P 1'
_cell_length_a   5.92234700
_cell_length_b   11.46206400
_cell_length_c   3.37435600
_cell_angle_alpha   90.00000000
_cell_angle_beta   90.00000000
_cell_angle_gamma   90.00000000
_symmetry_Int_Tables_number   1
_chemical_formula_structural   PuMnB4
_chemical_formula_sum   'Pu4 Mn4 B16'
_cell_volume   229.05911495
_cell_formula_units_Z   4
loop_
 _symmetry_equiv_pos_site_id
 _symmetry_equiv_pos_as_xyz
  1  'x, y, z'
loop_
 _atom_site_type_symbol
 _atom_site_label
 _atom_site_symmetry_multiplicity
 _atom_site_fract_x
 _atom_site_fract_y
 _atom_site_fract_z
 _atom_site_occupancy
  Pu  Pu0  1  0.625884  0.349331  0.000000  1
  Pu  Pu1  1  0.374116  0.650669  0.000000  1
  Pu  Pu2  1  0.125884  0.150669  0.000000  1
  Pu  Pu3  1  0.874116  0.849331  0.000000  1
  Mn  Mn4  1  0.630406  0.086774  0.000000  1
  Mn  Mn5  1  0.369594  0.913226  0.000000  1
  Mn  Mn6  1  0.130406  0.413226  0.000000  1
  Mn  Mn7  1  0.869594  0.586774  0.000000  1
  B  B8  1  0.781720  0.184450  0.500000  1
  B  B9  1  0.218280  0.815550  0.500000  1
  B  B10  1  0.281720  0.315550  0.500000  1
  B  B11  1  0.718280  0.684450  0.500000  1
  B  B12  1  0.861804  0.032666  0.500000  1
  B  B13  1  0.138196  0.967334  0.500000  1
  B  B14  1  0.361804  0.467334  0.500000  1
  B  B15  1  0.638196  0.532666  0.500000  1
  B  B16  1  0.887860  0.454017  0.500000  1
  B  B17  1  0.112140  0.545983  0.500000  1
  B  B18  1  0.387860  0.045983  0.500000  1
  B  B19  1  0.612140  0.954017  0.500000  1
  B  B20  1  0.975453  0.309587  0.500000  1
  B  B21  1  0.024547  0.690413  0.500000  1
  B  B22  1  0.475453  0.190413  0.500000  1
  B  B23  1  0.524547  0.809587  0.500000  1
