# generated using pymatgen
data_Li6Dy5P12Ir10Rh3
_symmetry_space_group_name_H-M   'P 1'
_cell_length_a   12.74758252
_cell_length_b   12.76613294
_cell_length_c   3.93754300
_cell_angle_alpha   90.00000000
_cell_angle_beta   90.00000000
_cell_angle_gamma   119.88243315
_symmetry_Int_Tables_number   1
_chemical_formula_structural   Li6Dy5P12Ir10Rh3
_chemical_formula_sum   'Li6 Dy5 P12 Ir10 Rh3'
_cell_volume   555.59255623
_cell_formula_units_Z   1
loop_
 _symmetry_equiv_pos_site_id
 _symmetry_equiv_pos_as_xyz
  1  'x, y, z'
loop_
 _atom_site_type_symbol
 _atom_site_label
 _atom_site_symmetry_multiplicity
 _atom_site_fract_x
 _atom_site_fract_y
 _atom_site_fract_z
 _atom_site_occupancy
  Li  Li0  1  0.522206  0.892682  0.000000  1
  Li  Li1  1  0.106669  0.628799  0.000000  1
  Li  Li2  1  0.372429  0.477292  0.000000  1
  Li  Li3  1  0.999309  0.446645  0.500000  1
  Li  Li4  1  0.553695  0.554584  0.500000  1
  Li  Li5  1  0.446956  0.001228  0.500000  1
  Dy  Dy6  1  0.333792  0.666090  0.500000  1
  Dy  Dy7  1  0.666451  0.333883  0.500000  1
  Dy  Dy8  1  0.991544  0.808160  0.000000  1
  Dy  Dy9  1  0.191438  0.183250  0.000000  1
  Dy  Dy10  1  0.815593  0.007549  0.000000  1
  P  P11  1  0.981955  0.635546  0.500000  1
  P  P12  1  0.365675  0.346759  0.500000  1
  P  P13  1  0.652664  0.020168  0.500000  1
  P  P14  1  0.516818  0.702974  0.000000  1
  P  P15  1  0.296154  0.813047  0.000000  1
  P  P16  1  0.188569  0.482864  0.000000  1
  P  P17  1  0.486124  0.161172  0.000000  1
  P  P18  1  0.676061  0.514140  0.000000  1
  P  P19  1  0.837265  0.324511  0.000000  1
  P  P20  1  0.008429  0.184068  0.500000  1
  P  P21  1  0.815245  0.823669  0.500000  1
  P  P22  1  0.175440  0.991368  0.500000  1
  Ir  Ir23  1  0.650836  0.129105  0.000000  1
  Ir  Ir24  1  0.014017  0.285535  0.000000  1
  Ir  Ir25  1  0.713964  0.728346  0.000000  1
  Ir  Ir26  1  0.270771  0.985304  0.000000  1
  Ir  Ir27  1  0.188159  0.800482  0.500000  1
  Ir  Ir28  1  0.197575  0.385861  0.500000  1
  Ir  Ir29  1  0.378974  0.165321  0.500000  1
  Ir  Ir30  1  0.786052  0.620257  0.500000  1
  Ir  Ir31  1  0.834749  0.214390  0.500000  1
  Ir  Ir32  1  0.999663  0.000175  0.500000  1
  Rh  Rh33  1  0.478267  0.348765  0.000000  1
  Rh  Rh34  1  0.871833  0.522038  0.000000  1
  Rh  Rh35  1  0.614657  0.813972  0.500000  1
