# generated using pymatgen
data_Dy6Tm10Cd4CoIr2Rh
_symmetry_space_group_name_H-M   'P 1'
_cell_length_a   9.50328212
_cell_length_b   9.50328288
_cell_length_c   9.48763400
_cell_angle_alpha   60.05445684
_cell_angle_beta   60.05445421
_cell_angle_gamma   60.22091580
_symmetry_Int_Tables_number   1
_chemical_formula_structural   Dy6Tm10Cd4CoIr2Rh
_chemical_formula_sum   'Dy6 Tm10 Cd4 Co1 Ir2 Rh1'
_cell_volume   607.39081290
_cell_formula_units_Z   1
loop_
 _symmetry_equiv_pos_site_id
 _symmetry_equiv_pos_as_xyz
  1  'x, y, z'
loop_
 _atom_site_type_symbol
 _atom_site_label
 _atom_site_symmetry_multiplicity
 _atom_site_fract_x
 _atom_site_fract_y
 _atom_site_fract_z
 _atom_site_occupancy
  Dy  Dy0  1  0.188826  0.811967  0.810769  1
  Dy  Dy1  1  0.812882  0.187965  0.188692  1
  Dy  Dy2  1  0.811971  0.188816  0.810792  1
  Dy  Dy3  1  0.187989  0.812863  0.188682  1
  Dy  Dy4  1  0.809759  0.809749  0.190654  1
  Dy  Dy5  1  0.186909  0.186927  0.813397  1
  Tm  Tm6  1  0.595061  0.595036  0.602825  1
  Tm  Tm7  1  0.599211  0.599214  0.202528  1
  Tm  Tm8  1  0.595046  0.207767  0.602709  1
  Tm  Tm9  1  0.207763  0.595074  0.602694  1
  Tm  Tm10  1  0.060841  0.437958  0.438586  1
  Tm  Tm11  1  0.437199  0.067023  0.057975  1
  Tm  Tm12  1  0.437930  0.060840  0.438611  1
  Tm  Tm13  1  0.067035  0.437194  0.057980  1
  Tm  Tm14  1  0.437695  0.437705  0.056938  1
  Tm  Tm15  1  0.061968  0.061975  0.438031  1
  Cd  Cd16  1  0.830431  0.830436  0.829446  1
  Cd  Cd17  1  0.830359  0.830336  0.509494  1
  Cd  Cd18  1  0.831043  0.508034  0.830289  1
  Cd  Cd19  1  0.508043  0.831043  0.830296  1
  Co  Co20  1  0.391903  0.391898  0.825998  1
  Ir  Ir21  1  0.393382  0.824494  0.390922  1
  Ir  Ir22  1  0.824473  0.393393  0.390934  1
  Rh  Rh23  1  0.392285  0.392299  0.390761  1
