# generated using pymatgen
data_Er4BiC2Se
_symmetry_space_group_name_H-M   'P 1'
_cell_length_a   3.68207400
_cell_length_b   3.68207433
_cell_length_c   14.28604600
_cell_angle_alpha   90.00000000
_cell_angle_beta   90.00000000
_cell_angle_gamma   119.99999706
_symmetry_Int_Tables_number   1
_chemical_formula_structural   Er4BiC2Se
_chemical_formula_sum   'Er4 Bi1 C2 Se1'
_cell_volume   167.73656774
_cell_formula_units_Z   1
loop_
 _symmetry_equiv_pos_site_id
 _symmetry_equiv_pos_as_xyz
  1  'x, y, z'
loop_
 _atom_site_type_symbol
 _atom_site_label
 _atom_site_symmetry_multiplicity
 _atom_site_fract_x
 _atom_site_fract_y
 _atom_site_fract_z
 _atom_site_occupancy
  Er  Er0  1  0.666667  0.333334  0.070438  1
  Er  Er1  1  0.666667  0.333334  0.429562  1
  Er  Er2  1  0.333334  0.666668  0.611770  1
  Er  Er3  1  0.333334  0.666668  0.888230  1
  Bi  Bi4  1  0.333334  0.666668  0.250000  1
  C  C5  1  0.000000  0.000000  0.982703  1
  C  C6  1  0.000000  0.000000  0.517297  1
  Se  Se7  1  0.666667  0.333334  0.750000  1
