# generated using pymatgen
data_Y2(ErPd5)3
_symmetry_space_group_name_H-M   'P 1'
_cell_length_a   4.12630300
_cell_length_b   4.12526700
_cell_length_c   20.85570900
_cell_angle_alpha   90.00000000
_cell_angle_beta   90.00000000
_cell_angle_gamma   90.00000000
_symmetry_Int_Tables_number   1
_chemical_formula_structural   Y2(ErPd5)3
_chemical_formula_sum   'Y2 Er3 Pd15'
_cell_volume   355.00799749
_cell_formula_units_Z   1
loop_
 _symmetry_equiv_pos_site_id
 _symmetry_equiv_pos_as_xyz
  1  'x, y, z'
loop_
 _atom_site_type_symbol
 _atom_site_label
 _atom_site_symmetry_multiplicity
 _atom_site_fract_x
 _atom_site_fract_y
 _atom_site_fract_z
 _atom_site_occupancy
  Y  Y0  1  0.000000  0.000000  0.599503  1
  Y  Y1  1  0.000000  0.000000  0.800887  1
  Er  Er2  1  0.000000  0.000000  0.199736  1
  Er  Er3  1  0.000000  0.000000  0.399321  1
  Er  Er4  1  0.000000  0.000000  0.000538  1
  Pd  Pd5  1  0.500000  0.500000  0.000067  1
  Pd  Pd6  1  0.500000  0.500000  0.199630  1
  Pd  Pd7  1  0.500000  0.500000  0.399792  1
  Pd  Pd8  1  0.500000  0.500000  0.600196  1
  Pd  Pd9  1  0.500000  0.500000  0.800351  1
  Pd  Pd10  1  0.500000  0.000000  0.099787  1
  Pd  Pd11  1  0.500000  0.000000  0.299686  1
  Pd  Pd12  1  0.500000  0.000000  0.499082  1
  Pd  Pd13  1  0.500000  0.000000  0.700281  1
  Pd  Pd14  1  0.500000  0.000000  0.901153  1
  Pd  Pd15  1  0.000000  0.500000  0.099793  1
  Pd  Pd16  1  0.000000  0.500000  0.299689  1
  Pd  Pd17  1  0.000000  0.500000  0.499082  1
  Pd  Pd18  1  0.000000  0.500000  0.700275  1
  Pd  Pd19  1  0.000000  0.500000  0.901151  1
