# generated using pymatgen
data_V2PtRh5
_symmetry_space_group_name_H-M   'P 1'
_cell_length_a   5.46596100
_cell_length_b   5.45886614
_cell_length_c   4.34893100
_cell_angle_alpha   90.00000000
_cell_angle_beta   90.00000000
_cell_angle_gamma   120.04302107
_symmetry_Int_Tables_number   1
_chemical_formula_structural   V2PtRh5
_chemical_formula_sum   'V2 Pt1 Rh5'
_cell_volume   112.32946452
_cell_formula_units_Z   1
loop_
 _symmetry_equiv_pos_site_id
 _symmetry_equiv_pos_as_xyz
  1  'x, y, z'
loop_
 _atom_site_type_symbol
 _atom_site_label
 _atom_site_symmetry_multiplicity
 _atom_site_fract_x
 _atom_site_fract_y
 _atom_site_fract_z
 _atom_site_occupancy
  V  V0  1  0.335536  0.671073  0.750000  1
  V  V1  1  0.666419  0.332838  0.250000  1
  Pt  Pt2  1  0.167336  0.334672  0.250000  1
  Rh  Rh3  1  0.665332  0.832247  0.250000  1
  Rh  Rh4  1  0.166915  0.832247  0.250000  1
  Rh  Rh5  1  0.833049  0.666098  0.750000  1
  Rh  Rh6  1  0.336463  0.165413  0.750000  1
  Rh  Rh7  1  0.828950  0.165413  0.750000  1
