# generated using pymatgen
data_Ho3Hf3Ga6(PdPt2)2
_symmetry_space_group_name_H-M   'P 1'
_cell_length_a   7.29999500
_cell_length_b   7.29999478
_cell_length_c   7.24746400
_cell_angle_alpha   90.00000000
_cell_angle_beta   90.00000000
_cell_angle_gamma   120.00001458
_symmetry_Int_Tables_number   1
_chemical_formula_structural   Ho3Hf3Ga6(PdPt2)2
_chemical_formula_sum   'Ho3 Hf3 Ga6 Pd2 Pt4'
_cell_volume   334.47352486
_cell_formula_units_Z   1
loop_
 _symmetry_equiv_pos_site_id
 _symmetry_equiv_pos_as_xyz
  1  'x, y, z'
loop_
 _atom_site_type_symbol
 _atom_site_label
 _atom_site_symmetry_multiplicity
 _atom_site_fract_x
 _atom_site_fract_y
 _atom_site_fract_z
 _atom_site_occupancy
  Ho  Ho0  1  0.590624  0.999604  0.750000  1
  Ho  Ho1  1  0.408980  0.409376  0.750000  1
  Ho  Ho2  1  0.000396  0.591020  0.750000  1
  Hf  Hf3  1  0.393337  0.393028  0.250000  1
  Hf  Hf4  1  0.999690  0.606663  0.250000  1
  Hf  Hf5  1  0.606972  0.000310  0.250000  1
  Ga  Ga6  1  0.263639  0.999824  0.007732  1
  Ga  Ga7  1  0.263639  0.999824  0.492268  1
  Ga  Ga8  1  0.000176  0.263814  0.492268  1
  Ga  Ga9  1  0.000176  0.263814  0.007732  1
  Ga  Ga10  1  0.736186  0.736361  0.007732  1
  Ga  Ga11  1  0.736186  0.736361  0.492268  1
  Pd  Pd12  1  0.000000  0.000000  0.750000  1
  Pd  Pd13  1  0.000000  0.000000  0.250000  1
  Pt  Pt14  1  0.666667  0.333333  0.471508  1
  Pt  Pt15  1  0.666667  0.333333  0.028492  1
  Pt  Pt16  1  0.333333  0.666667  0.029570  1
  Pt  Pt17  1  0.333333  0.666667  0.470430  1
