# generated using pymatgen
data_LiLu8InNi2
_symmetry_space_group_name_H-M   'P 1'
_cell_length_a   9.45408587
_cell_length_b   9.45408606
_cell_length_c   9.52605300
_cell_angle_alpha   59.74787093
_cell_angle_beta   59.74787026
_cell_angle_gamma   59.38332378
_symmetry_Int_Tables_number   1
_chemical_formula_structural   LiLu8InNi2
_chemical_formula_sum   'Li2 Lu16 In2 Ni4'
_cell_volume   596.92787538
_cell_formula_units_Z   2
loop_
 _symmetry_equiv_pos_site_id
 _symmetry_equiv_pos_as_xyz
  1  'x, y, z'
loop_
 _atom_site_type_symbol
 _atom_site_label
 _atom_site_symmetry_multiplicity
 _atom_site_fract_x
 _atom_site_fract_y
 _atom_site_fract_z
 _atom_site_occupancy
  Li  Li0  1  0.823515  0.823515  0.824760  1
  Li  Li1  1  0.823515  0.823515  0.528210  1
  Lu  Lu2  1  0.598586  0.598586  0.599312  1
  Lu  Lu3  1  0.598586  0.598586  0.203515  1
  Lu  Lu4  1  0.593921  0.211815  0.597133  1
  Lu  Lu5  1  0.211815  0.593921  0.597133  1
  Lu  Lu6  1  0.063280  0.437473  0.437930  1
  Lu  Lu7  1  0.437473  0.063280  0.061317  1
  Lu  Lu8  1  0.437473  0.063280  0.437930  1
  Lu  Lu9  1  0.063280  0.437473  0.061317  1
  Lu  Lu10  1  0.439586  0.439586  0.060414  1
  Lu  Lu11  1  0.067094  0.067094  0.432906  1
  Lu  Lu12  1  0.186050  0.812367  0.813737  1
  Lu  Lu13  1  0.812367  0.186050  0.187846  1
  Lu  Lu14  1  0.812367  0.186050  0.813737  1
  Lu  Lu15  1  0.186050  0.812367  0.187846  1
  Lu  Lu16  1  0.813765  0.813765  0.186235  1
  Lu  Lu17  1  0.184759  0.184759  0.815241  1
  In  In18  1  0.834157  0.506751  0.829546  1
  In  In19  1  0.506751  0.834157  0.829546  1
  Ni  Ni20  1  0.393831  0.393831  0.389032  1
  Ni  Ni21  1  0.393831  0.393831  0.823305  1
  Ni  Ni22  1  0.395536  0.822409  0.391027  1
  Ni  Ni23  1  0.822409  0.395536  0.391027  1
