# generated using pymatgen
data_Sm3ThSc4(CrB6)4
_symmetry_space_group_name_H-M   'P 1'
_cell_length_a   3.53277400
_cell_length_b   9.07218231
_cell_length_c   11.48996039
_cell_angle_alpha   90.02989073
_cell_angle_beta   90.00000000
_cell_angle_gamma   90.00000000
_symmetry_Int_Tables_number   1
_chemical_formula_structural   Sm3ThSc4(CrB6)4
_chemical_formula_sum   'Sm3 Th1 Sc4 Cr4 B24'
_cell_volume   368.25283323
_cell_formula_units_Z   1
loop_
 _symmetry_equiv_pos_site_id
 _symmetry_equiv_pos_as_xyz
  1  'x, y, z'
loop_
 _atom_site_type_symbol
 _atom_site_label
 _atom_site_symmetry_multiplicity
 _atom_site_fract_x
 _atom_site_fract_y
 _atom_site_fract_z
 _atom_site_occupancy
  Sm  Sm0  1  0.000000  0.823152  0.084840  1
  Sm  Sm1  1  0.000000  0.177246  0.915544  1
  Sm  Sm2  1  0.000000  0.321586  0.414283  1
  Th  Th3  1  0.000000  0.677542  0.584613  1
  Sc  Sc4  1  0.000000  0.443312  0.130809  1
  Sc  Sc5  1  0.000000  0.556037  0.870410  1
  Sc  Sc6  1  0.000000  0.944079  0.368382  1
  Sc  Sc7  1  0.000000  0.057202  0.631139  1
  Cr  Cr8  1  0.000000  0.141947  0.182718  1
  Cr  Cr9  1  0.000000  0.858036  0.817680  1
  Cr  Cr10  1  0.000000  0.641655  0.316260  1
  Cr  Cr11  1  0.000000  0.358014  0.683148  1
  B  B12  1  0.500000  0.056350  0.069811  1
  B  B13  1  0.500000  0.944234  0.930885  1
  B  B14  1  0.500000  0.555739  0.427852  1
  B  B15  1  0.500000  0.441678  0.570325  1
  B  B16  1  0.500000  0.253606  0.084555  1
  B  B17  1  0.500000  0.746663  0.916583  1
  B  B18  1  0.500000  0.753790  0.413080  1
  B  B19  1  0.500000  0.245514  0.584614  1
  B  B20  1  0.500000  0.294258  0.234755  1
  B  B21  1  0.500000  0.706327  0.766729  1
  B  B22  1  0.500000  0.794528  0.263682  1
  B  B23  1  0.500000  0.205397  0.735444  1
  B  B24  1  0.500000  0.129195  0.316246  1
  B  B25  1  0.500000  0.872392  0.685113  1
  B  B26  1  0.500000  0.628793  0.182803  1
  B  B27  1  0.500000  0.370317  0.817240  1
  B  B28  1  0.500000  0.483229  0.284053  1
  B  B29  1  0.500000  0.514791  0.716124  1
  B  B30  1  0.500000  0.984012  0.214366  1
  B  B31  1  0.500000  0.016980  0.786182  1
  B  B32  1  0.500000  0.095866  0.474352  1
  B  B33  1  0.500000  0.906810  0.524924  1
  B  B34  1  0.500000  0.594823  0.025500  1
  B  B35  1  0.500000  0.404903  0.974956  1
