# generated using pymatgen
data_Nd4DyUSe10
_symmetry_space_group_name_H-M   'P 1'
_cell_length_a   7.89205200
_cell_length_b   8.36958700
_cell_length_c   12.52690300
_cell_angle_alpha   90.00000000
_cell_angle_beta   90.00000000
_cell_angle_gamma   90.00000000
_symmetry_Int_Tables_number   1
_chemical_formula_structural   Nd4DyUSe10
_chemical_formula_sum   'Nd8 Dy2 U2 Se20'
_cell_volume   827.44222745
_cell_formula_units_Z   2
loop_
 _symmetry_equiv_pos_site_id
 _symmetry_equiv_pos_as_xyz
  1  'x, y, z'
loop_
 _atom_site_type_symbol
 _atom_site_label
 _atom_site_symmetry_multiplicity
 _atom_site_fract_x
 _atom_site_fract_y
 _atom_site_fract_z
 _atom_site_occupancy
  Nd  Nd0  1  0.527436  0.500896  0.321948  1
  Nd  Nd1  1  0.972564  0.999104  0.821948  1
  Nd  Nd2  1  0.477598  0.996219  0.678268  1
  Nd  Nd3  1  0.022402  0.503781  0.178268  1
  Nd  Nd4  1  0.477598  0.503781  0.678268  1
  Nd  Nd5  1  0.022402  0.996219  0.178268  1
  Nd  Nd6  1  0.527436  0.999104  0.321948  1
  Nd  Nd7  1  0.972564  0.500896  0.821948  1
  Dy  Dy8  1  0.074086  0.750000  0.494457  1
  Dy  Dy9  1  0.425914  0.750000  0.994457  1
  U  U10  1  0.940968  0.250000  0.506213  1
  U  U11  1  0.559032  0.250000  0.006213  1
  Se  Se12  1  0.834509  0.965441  0.596203  1
  Se  Se13  1  0.665491  0.534559  0.096203  1
  Se  Se14  1  0.164095  0.454491  0.404168  1
  Se  Se15  1  0.335905  0.045509  0.904168  1
  Se  Se16  1  0.164095  0.045509  0.404168  1
  Se  Se17  1  0.335905  0.454491  0.904168  1
  Se  Se18  1  0.834509  0.534559  0.596203  1
  Se  Se19  1  0.665491  0.965441  0.096203  1
  Se  Se20  1  0.829842  0.750000  0.314490  1
  Se  Se21  1  0.670158  0.750000  0.814490  1
  Se  Se22  1  0.168479  0.250000  0.683339  1
  Se  Se23  1  0.331521  0.250000  0.183339  1
  Se  Se24  1  0.454920  0.750000  0.497729  1
  Se  Se25  1  0.045080  0.750000  0.997729  1
  Se  Se26  1  0.549684  0.250000  0.499162  1
  Se  Se27  1  0.950316  0.250000  0.999162  1
  Se  Se28  1  0.192723  0.750000  0.713478  1
  Se  Se29  1  0.307277  0.750000  0.213478  1
  Se  Se30  1  0.809295  0.250000  0.289959  1
  Se  Se31  1  0.690705  0.250000  0.789959  1
