# generated using pymatgen
data_Th2HRh6
_symmetry_space_group_name_H-M   'P 1'
_cell_length_a   5.88268332
_cell_length_b   5.88268189
_cell_length_c   5.88268100
_cell_angle_alpha   59.99998814
_cell_angle_beta   59.99999617
_cell_angle_gamma   59.99999266
_symmetry_Int_Tables_number   1
_chemical_formula_structural   Th2HRh6
_chemical_formula_sum   'Th2 H1 Rh6'
_cell_volume   143.94979781
_cell_formula_units_Z   1
loop_
 _symmetry_equiv_pos_site_id
 _symmetry_equiv_pos_as_xyz
  1  'x, y, z'
loop_
 _atom_site_type_symbol
 _atom_site_label
 _atom_site_symmetry_multiplicity
 _atom_site_fract_x
 _atom_site_fract_y
 _atom_site_fract_z
 _atom_site_occupancy
  Th  Th0  1  0.750000  0.750000  0.750000  1
  Th  Th1  1  0.250000  0.250000  0.250000  1
  H  H2  1  0.500000  0.500000  0.500000  1
  Rh  Rh3  1  0.751041  0.751041  0.248959  1
  Rh  Rh4  1  0.751041  0.248959  0.248959  1
  Rh  Rh5  1  0.248959  0.751041  0.248959  1
  Rh  Rh6  1  0.248959  0.248959  0.751041  1
  Rh  Rh7  1  0.751041  0.248959  0.751041  1
  Rh  Rh8  1  0.248959  0.751041  0.751041  1
