# generated using pymatgen
data_Zr6Zn21Rh2C
_symmetry_space_group_name_H-M   'P 1'
_cell_length_a   8.72530168
_cell_length_b   8.70787915
_cell_length_c   8.72530081
_cell_angle_alpha   60.06602905
_cell_angle_beta   59.47424418
_cell_angle_gamma   60.06602494
_symmetry_Int_Tables_number   1
_chemical_formula_structural   Zr6Zn21Rh2C
_chemical_formula_sum   'Zr6 Zn21 Rh2 C1'
_cell_volume   467.33916142
_cell_formula_units_Z   1
loop_
 _symmetry_equiv_pos_site_id
 _symmetry_equiv_pos_as_xyz
  1  'x, y, z'
loop_
 _atom_site_type_symbol
 _atom_site_label
 _atom_site_symmetry_multiplicity
 _atom_site_fract_x
 _atom_site_fract_y
 _atom_site_fract_z
 _atom_site_occupancy
  Zr  Zr0  1  0.686377  0.308354  0.313623  1
  Zr  Zr1  1  0.313623  0.691646  0.686377  1
  Zr  Zr2  1  0.309059  0.690941  0.309059  1
  Zr  Zr3  1  0.690941  0.309059  0.690941  1
  Zr  Zr4  1  0.313623  0.308354  0.686377  1
  Zr  Zr5  1  0.686377  0.691646  0.313623  1
  Zn  Zn6  1  0.119419  0.118727  0.119419  1
  Zn  Zn7  1  0.880581  0.881273  0.880581  1
  Zn  Zn8  1  0.124296  0.117577  0.640552  1
  Zn  Zn9  1  0.119419  0.642437  0.119419  1
  Zn  Zn10  1  0.875704  0.882423  0.359448  1
  Zn  Zn11  1  0.880581  0.357563  0.880581  1
  Zn  Zn12  1  0.640552  0.117577  0.124296  1
  Zn  Zn13  1  0.359448  0.882423  0.875704  1
  Zn  Zn14  1  0.500000  0.000000  0.000000  1
  Zn  Zn15  1  0.000000  0.500000  0.500000  1
  Zn  Zn16  1  0.000000  0.500000  0.000000  1
  Zn  Zn17  1  0.000000  0.000000  0.500000  1
  Zn  Zn18  1  0.500000  0.500000  0.000000  1
  Zn  Zn19  1  0.331656  0.331287  0.331656  1
  Zn  Zn20  1  0.668344  0.668713  0.668344  1
  Zn  Zn21  1  0.330702  0.332293  0.004714  1
  Zn  Zn22  1  0.331656  0.005401  0.331656  1
  Zn  Zn23  1  0.669298  0.667707  0.995286  1
  Zn  Zn24  1  0.668344  0.994599  0.668344  1
  Zn  Zn25  1  0.004714  0.332293  0.330702  1
  Zn  Zn26  1  0.995286  0.667707  0.669298  1
  Rh  Rh27  1  0.500000  0.000000  0.500000  1
  Rh  Rh28  1  0.000000  0.000000  0.000000  1
  C  C29  1  0.500000  0.500000  0.500000  1
