# generated using pymatgen
data_FeH6
_symmetry_space_group_name_H-M   'P 1'
_cell_length_a   2.55798953
_cell_length_b   2.56219461
_cell_length_c   10.62887284
_cell_angle_alpha   85.64899978
_cell_angle_beta   87.13948377
_cell_angle_gamma   59.97227554
_symmetry_Int_Tables_number   1
_chemical_formula_structural   FeH6
_chemical_formula_sum   'Fe1 H6'
_cell_volume   60.13292594
_cell_formula_units_Z   1
loop_
 _symmetry_equiv_pos_site_id
 _symmetry_equiv_pos_as_xyz
  1  'x, y, z'
loop_
 _atom_site_type_symbol
 _atom_site_label
 _atom_site_symmetry_multiplicity
 _atom_site_fract_x
 _atom_site_fract_y
 _atom_site_fract_z
 _atom_site_occupancy
  Fe  Fe0  1  0.925144  0.993432  0.418444  1
  H  H1  1  0.935680  0.553321  0.094176  1
  H  H2  1  0.356655  0.917012  0.746002  1
  H  H3  1  0.586989  0.634707  0.505574  1
  H  H4  1  0.754082  0.738434  0.038405  1
  H  H5  1  0.177231  0.110934  0.798479  1
  H  H6  1  0.262878  0.351754  0.331606  1
