# generated using pymatgen
data_BaTm2CoH12Ir
_symmetry_space_group_name_H-M   'P 1'
_cell_length_a   4.86521100
_cell_length_b   4.86521097
_cell_length_c   8.58966400
_cell_angle_alpha   90.00000000
_cell_angle_beta   90.00000000
_cell_angle_gamma   120.00000699
_symmetry_Int_Tables_number   1
_chemical_formula_structural   BaTm2CoH12Ir
_chemical_formula_sum   'Ba1 Tm2 Co1 H12 Ir1'
_cell_volume   176.08004258
_cell_formula_units_Z   1
loop_
 _symmetry_equiv_pos_site_id
 _symmetry_equiv_pos_as_xyz
  1  'x, y, z'
loop_
 _atom_site_type_symbol
 _atom_site_label
 _atom_site_symmetry_multiplicity
 _atom_site_fract_x
 _atom_site_fract_y
 _atom_site_fract_z
 _atom_site_occupancy
  Ba  Ba0  1  0.000000  0.000000  0.975313  1
  Tm  Tm1  1  0.666667  0.333333  0.383507  1
  Tm  Tm2  1  0.333333  0.666667  0.643166  1
  Co  Co3  1  0.666667  0.333333  0.714236  1
  H  H4  1  0.165617  0.834383  0.393735  1
  H  H5  1  0.668768  0.834383  0.393735  1
  H  H6  1  0.165617  0.331232  0.393735  1
  H  H7  1  0.824070  0.175930  0.610919  1
  H  H8  1  0.351861  0.175930  0.610919  1
  H  H9  1  0.824070  0.648139  0.610919  1
  H  H10  1  0.511186  0.022372  0.828407  1
  H  H11  1  0.511186  0.488814  0.828407  1
  H  H12  1  0.977628  0.488814  0.828407  1
  H  H13  1  0.494439  0.988877  0.166829  1
  H  H14  1  0.494439  0.505561  0.166829  1
  H  H15  1  0.011123  0.505561  0.166829  1
  Ir  Ir16  1  0.333333  0.666667  0.284109  1
