# generated using pymatgen
data_NdBi3(Pt2O7)2
_symmetry_space_group_name_H-M   'P 1'
_cell_length_a   7.43283394
_cell_length_b   7.43283456
_cell_length_c   7.44527619
_cell_angle_alpha   60.05526430
_cell_angle_beta   60.05526176
_cell_angle_gamma   59.99999742
_symmetry_Int_Tables_number   1
_chemical_formula_structural   NdBi3(Pt2O7)2
_chemical_formula_sum   'Nd1 Bi3 Pt4 O14'
_cell_volume   291.09648749
_cell_formula_units_Z   1
loop_
 _symmetry_equiv_pos_site_id
 _symmetry_equiv_pos_as_xyz
  1  'x, y, z'
loop_
 _atom_site_type_symbol
 _atom_site_label
 _atom_site_symmetry_multiplicity
 _atom_site_fract_x
 _atom_site_fract_y
 _atom_site_fract_z
 _atom_site_occupancy
  Nd  Nd0  1  0.125000  0.125000  0.625000  1
  Bi  Bi1  1  0.125000  0.625000  0.125000  1
  Bi  Bi2  1  0.625000  0.125000  0.125000  1
  Bi  Bi3  1  0.125000  0.125000  0.125000  1
  Pt  Pt4  1  0.625000  0.625000  0.125000  1
  Pt  Pt5  1  0.625000  0.125000  0.625000  1
  Pt  Pt6  1  0.125000  0.625000  0.625000  1
  Pt  Pt7  1  0.625000  0.625000  0.625000  1
  O  O8  1  0.249826  0.249826  0.250522  1
  O  O9  1  0.000174  0.000174  0.999478  1
  O  O10  1  0.538892  0.959459  0.542190  1
  O  O11  1  0.292430  0.707633  0.292303  1
  O  O12  1  0.542367  0.542367  0.957697  1
  O  O13  1  0.959459  0.538892  0.542190  1
  O  O14  1  0.542367  0.957570  0.957697  1
  O  O15  1  0.959459  0.959459  0.542190  1
  O  O16  1  0.957570  0.542367  0.957697  1
  O  O17  1  0.707633  0.292430  0.292303  1
  O  O18  1  0.290541  0.711108  0.707810  1
  O  O19  1  0.711108  0.290541  0.707810  1
  O  O20  1  0.290541  0.290541  0.707810  1
  O  O21  1  0.707633  0.707633  0.292303  1
