# generated using pymatgen
data_Yb5BiPt2
_symmetry_space_group_name_H-M   'P 1'
_cell_length_a   9.14770396
_cell_length_b   9.14770429
_cell_length_c   9.14770403
_cell_angle_alpha   129.63842318
_cell_angle_beta   129.63842502
_cell_angle_gamma   73.98547104
_symmetry_Int_Tables_number   1
_chemical_formula_structural   Yb5BiPt2
_chemical_formula_sum   'Yb10 Bi2 Pt4'
_cell_volume   442.72727966
_cell_formula_units_Z   2
loop_
 _symmetry_equiv_pos_site_id
 _symmetry_equiv_pos_as_xyz
  1  'x, y, z'
loop_
 _atom_site_type_symbol
 _atom_site_label
 _atom_site_symmetry_multiplicity
 _atom_site_fract_x
 _atom_site_fract_y
 _atom_site_fract_z
 _atom_site_occupancy
  Yb  Yb0  1  0.000000  0.000000  0.000000  1
  Yb  Yb1  1  0.500000  0.500000  0.000000  1
  Yb  Yb2  1  0.792724  0.292724  0.829722  1
  Yb  Yb3  1  0.207276  0.707276  0.170278  1
  Yb  Yb4  1  0.463002  0.963002  0.170278  1
  Yb  Yb5  1  0.292724  0.463002  0.500000  1
  Yb  Yb6  1  0.036998  0.207276  0.500000  1
  Yb  Yb7  1  0.536998  0.036998  0.829722  1
  Yb  Yb8  1  0.707276  0.536998  0.500000  1
  Yb  Yb9  1  0.963002  0.792724  0.500000  1
  Bi  Bi10  1  0.250000  0.250000  0.000000  1
  Bi  Bi11  1  0.750000  0.750000  0.000000  1
  Pt  Pt12  1  0.133266  0.633266  0.766533  1
  Pt  Pt13  1  0.866734  0.366734  0.233467  1
  Pt  Pt14  1  0.633266  0.866734  0.500000  1
  Pt  Pt15  1  0.366734  0.133266  0.500000  1
