# generated using pymatgen
data_Tb6Ga5Ni12Ir
_symmetry_space_group_name_H-M   'P 1'
_cell_length_a   5.18761400
_cell_length_b   5.18761306
_cell_length_c   16.03765700
_cell_angle_alpha   90.00000000
_cell_angle_beta   90.00000000
_cell_angle_gamma   119.99999325
_symmetry_Int_Tables_number   1
_chemical_formula_structural   Tb6Ga5Ni12Ir
_chemical_formula_sum   'Tb6 Ga5 Ni12 Ir1'
_cell_volume   373.77203981
_cell_formula_units_Z   1
loop_
 _symmetry_equiv_pos_site_id
 _symmetry_equiv_pos_as_xyz
  1  'x, y, z'
loop_
 _atom_site_type_symbol
 _atom_site_label
 _atom_site_symmetry_multiplicity
 _atom_site_fract_x
 _atom_site_fract_y
 _atom_site_fract_z
 _atom_site_occupancy
  Tb  Tb0  1  0.333333  0.666667  0.547877  1
  Tb  Tb1  1  0.666667  0.333333  0.452123  1
  Tb  Tb2  1  0.666667  0.333333  0.033052  1
  Tb  Tb3  1  0.333333  0.666667  0.966948  1
  Tb  Tb4  1  0.333333  0.666667  0.761593  1
  Tb  Tb5  1  0.666667  0.333333  0.238407  1
  Ga  Ga6  1  0.000000  0.000000  0.256028  1
  Ga  Ga7  1  0.000000  0.000000  0.743972  1
  Ga  Ga8  1  0.333333  0.666667  0.254660  1
  Ga  Ga9  1  0.666667  0.333333  0.745340  1
  Ga  Ga10  1  0.000000  0.000000  0.500000  1
  Ni  Ni11  1  0.165634  0.331267  0.131366  1
  Ni  Ni12  1  0.834366  0.668733  0.868634  1
  Ni  Ni13  1  0.668733  0.834366  0.131366  1
  Ni  Ni14  1  0.830851  0.661704  0.623817  1
  Ni  Ni15  1  0.331267  0.165634  0.868634  1
  Ni  Ni16  1  0.169149  0.338296  0.376183  1
  Ni  Ni17  1  0.165634  0.834366  0.131366  1
  Ni  Ni18  1  0.338296  0.169149  0.623817  1
  Ni  Ni19  1  0.834366  0.165634  0.868634  1
  Ni  Ni20  1  0.661704  0.830851  0.376183  1
  Ni  Ni21  1  0.830851  0.169149  0.623817  1
  Ni  Ni22  1  0.169149  0.830851  0.376183  1
  Ir  Ir23  1  0.000000  0.000000  0.000000  1
