# generated using pymatgen
data_LuCo(BrO3)6
_symmetry_space_group_name_H-M   'P 1'
_cell_length_a   9.22554900
_cell_length_b   9.22554798
_cell_length_c   5.78639500
_cell_angle_alpha   90.00000000
_cell_angle_beta   90.00000000
_cell_angle_gamma   119.99999270
_symmetry_Int_Tables_number   1
_chemical_formula_structural   LuCo(BrO3)6
_chemical_formula_sum   'Lu1 Co1 Br6 O18'
_cell_volume   426.50402308
_cell_formula_units_Z   1
loop_
 _symmetry_equiv_pos_site_id
 _symmetry_equiv_pos_as_xyz
  1  'x, y, z'
loop_
 _atom_site_type_symbol
 _atom_site_label
 _atom_site_symmetry_multiplicity
 _atom_site_fract_x
 _atom_site_fract_y
 _atom_site_fract_z
 _atom_site_occupancy
  Lu  Lu0  1  0.333333  0.666667  0.182025  1
  Co  Co1  1  0.666667  0.333333  0.697020  1
  Br  Br2  1  0.687936  0.042225  0.376678  1
  Br  Br3  1  0.336864  0.998685  0.850201  1
  Br  Br4  1  0.001315  0.338177  0.850201  1
  Br  Br5  1  0.354288  0.312064  0.376678  1
  Br  Br6  1  0.957775  0.645712  0.376678  1
  Br  Br7  1  0.661823  0.663136  0.850201  1
  O  O8  1  0.779984  0.809276  0.034726  1
  O  O9  1  0.929332  0.771054  0.546524  1
  O  O10  1  0.841721  0.070668  0.546524  1
  O  O11  1  0.190724  0.970708  0.034726  1
  O  O12  1  0.029292  0.220016  0.034726  1
  O  O13  1  0.228946  0.158279  0.546524  1
  O  O14  1  0.722691  0.515263  0.908302  1
  O  O15  1  0.163035  0.701886  0.417123  1
  O  O16  1  0.553314  0.418939  0.505571  1
  O  O17  1  0.107445  0.536887  0.966995  1
  O  O18  1  0.429441  0.892555  0.966995  1
  O  O19  1  0.581061  0.134375  0.505571  1
  O  O20  1  0.865625  0.446686  0.505571  1
  O  O21  1  0.463113  0.570559  0.966995  1
  O  O22  1  0.298114  0.461149  0.417123  1
  O  O23  1  0.792572  0.277309  0.908302  1
  O  O24  1  0.484737  0.207428  0.908302  1
  O  O25  1  0.538851  0.836965  0.417123  1
