# generated using pymatgen
data_Yb10AgHg2Pt3
_symmetry_space_group_name_H-M   'P 1'
_cell_length_a   9.01604791
_cell_length_b   9.01604805
_cell_length_c   8.99370477
_cell_angle_alpha   128.28458028
_cell_angle_beta   128.28457991
_cell_angle_gamma   76.34559325
_symmetry_Int_Tables_number   1
_chemical_formula_structural   Yb10AgHg2Pt3
_chemical_formula_sum   'Yb10 Ag1 Hg2 Pt3'
_cell_volume   437.29875661
_cell_formula_units_Z   1
loop_
 _symmetry_equiv_pos_site_id
 _symmetry_equiv_pos_as_xyz
  1  'x, y, z'
loop_
 _atom_site_type_symbol
 _atom_site_label
 _atom_site_symmetry_multiplicity
 _atom_site_fract_x
 _atom_site_fract_y
 _atom_site_fract_z
 _atom_site_occupancy
  Yb  Yb0  1  0.503741  0.507638  0.011379  1
  Yb  Yb1  1  0.992362  0.996259  0.988621  1
  Yb  Yb2  1  0.541539  0.031964  0.842613  1
  Yb  Yb3  1  0.198928  0.689353  0.157387  1
  Yb  Yb4  1  0.021669  0.208510  0.500000  1
  Yb  Yb5  1  0.702184  0.534597  0.500000  1
  Yb  Yb6  1  0.468036  0.958461  0.157387  1
  Yb  Yb7  1  0.810647  0.301072  0.842613  1
  Yb  Yb8  1  0.965403  0.797816  0.500000  1
  Yb  Yb9  1  0.291490  0.478331  0.500000  1
  Ag  Ag10  1  0.370810  0.129190  0.500000  1
  Hg  Hg11  1  0.250941  0.249059  0.000000  1
  Hg  Hg12  1  0.750941  0.749059  0.000000  1
  Pt  Pt13  1  0.133918  0.633216  0.767135  1
  Pt  Pt14  1  0.866784  0.366082  0.232865  1
  Pt  Pt15  1  0.630607  0.869393  0.500000  1
