# generated using pymatgen
data_Nd8Zn8IrPt3Rh4
_symmetry_space_group_name_H-M   'P 1'
_cell_length_a   4.03370200
_cell_length_b   7.38577659
_cell_length_c   16.65889548
_cell_angle_alpha   90.15658300
_cell_angle_beta   90.00000000
_cell_angle_gamma   90.00000000
_symmetry_Int_Tables_number   1
_chemical_formula_structural   Nd8Zn8IrPt3Rh4
_chemical_formula_sum   'Nd8 Zn8 Ir1 Pt3 Rh4'
_cell_volume   496.30032376
_cell_formula_units_Z   1
loop_
 _symmetry_equiv_pos_site_id
 _symmetry_equiv_pos_as_xyz
  1  'x, y, z'
loop_
 _atom_site_type_symbol
 _atom_site_label
 _atom_site_symmetry_multiplicity
 _atom_site_fract_x
 _atom_site_fract_y
 _atom_site_fract_z
 _atom_site_occupancy
  Nd  Nd0  1  0.250000  0.168852  0.942270  1
  Nd  Nd1  1  0.250000  0.670423  0.563760  1
  Nd  Nd2  1  0.750000  0.329899  0.443005  1
  Nd  Nd3  1  0.750000  0.947172  0.280596  1
  Nd  Nd4  1  0.750000  0.828532  0.059990  1
  Nd  Nd5  1  0.750000  0.450152  0.213343  1
  Nd  Nd6  1  0.250000  0.047669  0.713845  1
  Nd  Nd7  1  0.250000  0.555403  0.785678  1
  Zn  Zn8  1  0.750000  0.003256  0.562976  1
  Zn  Zn9  1  0.250000  0.620785  0.345979  1
  Zn  Zn10  1  0.750000  0.383397  0.650880  1
  Zn  Zn11  1  0.250000  0.498252  0.059585  1
  Zn  Zn12  1  0.750000  0.503533  0.940695  1
  Zn  Zn13  1  0.250000  0.998760  0.440472  1
  Zn  Zn14  1  0.250000  0.119616  0.148611  1
  Zn  Zn15  1  0.750000  0.876370  0.848914  1
  Ir  Ir16  1  0.750000  0.753543  0.685651  1
  Pt  Pt17  1  0.750000  0.753963  0.433233  1
  Pt  Pt18  1  0.250000  0.245166  0.313945  1
  Pt  Pt19  1  0.750000  0.253992  0.814656  1
  Rh  Rh20  1  0.250000  0.243448  0.564751  1
  Rh  Rh21  1  0.250000  0.745812  0.185846  1
  Rh  Rh22  1  0.750000  0.255162  0.065473  1
  Rh  Rh23  1  0.250000  0.746844  0.935847  1
