# generated using pymatgen
data_HfZr4Ta(NbP2)2
_symmetry_space_group_name_H-M   'P 1'
_cell_length_a   3.58081400
_cell_length_b   6.95513725
_cell_length_c   8.44923612
_cell_angle_alpha   89.88205256
_cell_angle_beta   90.00000000
_cell_angle_gamma   90.00000000
_symmetry_Int_Tables_number   1
_chemical_formula_structural   HfZr4Ta(NbP2)2
_chemical_formula_sum   'Hf1 Zr4 Ta1 Nb2 P4'
_cell_volume   210.42822603
_cell_formula_units_Z   1
loop_
 _symmetry_equiv_pos_site_id
 _symmetry_equiv_pos_as_xyz
  1  'x, y, z'
loop_
 _atom_site_type_symbol
 _atom_site_label
 _atom_site_symmetry_multiplicity
 _atom_site_fract_x
 _atom_site_fract_y
 _atom_site_fract_z
 _atom_site_occupancy
  Hf  Hf0  1  0.250000  0.139368  0.060957  1
  Zr  Zr1  1  0.250000  0.534492  0.830394  1
  Zr  Zr2  1  0.750000  0.966212  0.332719  1
  Zr  Zr3  1  0.250000  0.031868  0.666770  1
  Zr  Zr4  1  0.750000  0.473004  0.173888  1
  Ta  Ta5  1  0.250000  0.640166  0.440102  1
  Nb  Nb6  1  0.750000  0.854415  0.938146  1
  Nb  Nb7  1  0.750000  0.362661  0.559913  1
  P  P8  1  0.750000  0.736813  0.641237  1
  P  P9  1  0.250000  0.761723  0.142295  1
  P  P10  1  0.750000  0.236035  0.852527  1
  P  P11  1  0.250000  0.263243  0.361054  1
