# generated using pymatgen
data_Tb3Lu2ScFeBi2
_symmetry_space_group_name_H-M   'P 1'
_cell_length_a   8.15091600
_cell_length_b   8.17164600
_cell_length_c   4.18081100
_cell_angle_alpha   90.00000000
_cell_angle_beta   90.00000000
_cell_angle_gamma   119.91613425
_symmetry_Int_Tables_number   1
_chemical_formula_structural   Tb3Lu2ScFeBi2
_chemical_formula_sum   'Tb3 Lu2 Sc1 Fe1 Bi2'
_cell_volume   241.36457290
_cell_formula_units_Z   1
loop_
 _symmetry_equiv_pos_site_id
 _symmetry_equiv_pos_as_xyz
  1  'x, y, z'
loop_
 _atom_site_type_symbol
 _atom_site_label
 _atom_site_symmetry_multiplicity
 _atom_site_fract_x
 _atom_site_fract_y
 _atom_site_fract_z
 _atom_site_occupancy
  Tb  Tb0  1  0.001463  0.612570  0.500000  1
  Tb  Tb1  1  0.388893  0.387430  0.500000  1
  Tb  Tb2  1  0.608623  0.000000  0.500000  1
  Lu  Lu3  1  0.774451  0.773201  0.000000  1
  Lu  Lu4  1  0.001250  0.226799  0.000000  1
  Sc  Sc5  1  0.224153  0.000000  0.000000  1
  Fe  Fe6  1  0.004057  0.000000  0.500000  1
  Bi  Bi7  1  0.332799  0.668490  0.000000  1
  Bi  Bi8  1  0.664310  0.331510  0.000000  1
