# generated using pymatgen
data_La2Ga3GeIr3Pt
_symmetry_space_group_name_H-M   'P 1'
_cell_length_a   4.29610700
_cell_length_b   4.29610700
_cell_length_c   10.48010400
_cell_angle_alpha   90.00000000
_cell_angle_beta   90.00000000
_cell_angle_gamma   90.00000000
_symmetry_Int_Tables_number   1
_chemical_formula_structural   La2Ga3GeIr3Pt
_chemical_formula_sum   'La2 Ga3 Ge1 Ir3 Pt1'
_cell_volume   193.42641000
_cell_formula_units_Z   1
loop_
 _symmetry_equiv_pos_site_id
 _symmetry_equiv_pos_as_xyz
  1  'x, y, z'
loop_
 _atom_site_type_symbol
 _atom_site_label
 _atom_site_symmetry_multiplicity
 _atom_site_fract_x
 _atom_site_fract_y
 _atom_site_fract_z
 _atom_site_occupancy
  La  La0  1  0.000000  0.500000  0.245313  1
  La  La1  1  0.500000  0.000000  0.756100  1
  Ga  Ga2  1  0.000000  0.000000  0.495725  1
  Ga  Ga3  1  0.500000  0.500000  0.495725  1
  Ga  Ga4  1  0.000000  0.500000  0.876062  1
  Ge  Ge5  1  0.500000  0.000000  0.126004  1
  Ir  Ir6  1  0.000000  0.000000  0.003525  1
  Ir  Ir7  1  0.500000  0.500000  0.003525  1
  Ir  Ir8  1  0.500000  0.000000  0.364256  1
  Pt  Pt9  1  0.000000  0.500000  0.633764  1
