# generated using pymatgen
data_Y9Lu(Ir2Ru)2
_symmetry_space_group_name_H-M   'P 1'
_cell_length_a   10.85321200
_cell_length_b   10.85321200
_cell_length_c   6.45136300
_cell_angle_alpha   90.00000000
_cell_angle_beta   90.00000000
_cell_angle_gamma   90.00000000
_symmetry_Int_Tables_number   1
_chemical_formula_structural   Y9Lu(Ir2Ru)2
_chemical_formula_sum   'Y18 Lu2 Ir8 Ru4'
_cell_volume   759.92030991
_cell_formula_units_Z   2
loop_
 _symmetry_equiv_pos_site_id
 _symmetry_equiv_pos_as_xyz
  1  'x, y, z'
loop_
 _atom_site_type_symbol
 _atom_site_label
 _atom_site_symmetry_multiplicity
 _atom_site_fract_x
 _atom_site_fract_y
 _atom_site_fract_z
 _atom_site_occupancy
  Y  Y0  1  0.291289  0.086160  0.378063  1
  Y  Y1  1  0.291289  0.913840  0.878063  1
  Y  Y2  1  0.708711  0.086160  0.878063  1
  Y  Y3  1  0.708711  0.913840  0.378063  1
  Y  Y4  1  0.586921  0.794349  0.877744  1
  Y  Y5  1  0.586921  0.205651  0.377744  1
  Y  Y6  1  0.413079  0.794349  0.377744  1
  Y  Y7  1  0.413079  0.205651  0.877744  1
  Y  Y8  1  0.205651  0.413079  0.622256  1
  Y  Y9  1  0.205651  0.586921  0.122256  1
  Y  Y10  1  0.794349  0.413079  0.122256  1
  Y  Y11  1  0.794349  0.586921  0.622256  1
  Y  Y12  1  0.913840  0.708711  0.121937  1
  Y  Y13  1  0.913840  0.291289  0.621937  1
  Y  Y14  1  0.086160  0.708711  0.621937  1
  Y  Y15  1  0.086160  0.291289  0.121937  1
  Y  Y16  1  0.500000  0.500000  0.000000  1
  Y  Y17  1  0.500000  0.500000  0.500000  1
  Lu  Lu18  1  0.000000  0.000000  0.500000  1
  Lu  Lu19  1  0.000000  0.000000  0.000000  1
  Ir  Ir20  1  0.851741  0.148259  0.250000  1
  Ir  Ir21  1  0.851741  0.851741  0.750000  1
  Ir  Ir22  1  0.148259  0.148259  0.750000  1
  Ir  Ir23  1  0.148259  0.851741  0.250000  1
  Ir  Ir24  1  0.653193  0.346807  0.750000  1
  Ir  Ir25  1  0.653193  0.653193  0.250000  1
  Ir  Ir26  1  0.346807  0.346807  0.250000  1
  Ir  Ir27  1  0.346807  0.653193  0.750000  1
  Ru  Ru28  1  0.500000  0.000000  0.125270  1
  Ru  Ru29  1  0.500000  0.000000  0.625270  1
  Ru  Ru30  1  0.000000  0.500000  0.874730  1
  Ru  Ru31  1  0.000000  0.500000  0.374730  1
