# generated using pymatgen
data_Pr3Nb2(ReN4)3
_symmetry_space_group_name_H-M   'P 1'
_cell_length_a   11.23671431
_cell_length_b   11.23671435
_cell_length_c   11.23671400
_cell_angle_alpha   109.47121820
_cell_angle_beta   109.47121828
_cell_angle_gamma   109.47122291
_symmetry_Int_Tables_number   1
_chemical_formula_structural   Pr3Nb2(ReN4)3
_chemical_formula_sum   'Pr12 Nb8 Re12 N48'
_cell_volume   1092.18480421
_cell_formula_units_Z   4
loop_
 _symmetry_equiv_pos_site_id
 _symmetry_equiv_pos_as_xyz
  1  'x, y, z'
loop_
 _atom_site_type_symbol
 _atom_site_label
 _atom_site_symmetry_multiplicity
 _atom_site_fract_x
 _atom_site_fract_y
 _atom_site_fract_z
 _atom_site_occupancy
  Pr  Pr0  1  0.250000  0.375000  0.125000  1
  Pr  Pr1  1  0.375000  0.750000  0.125000  1
  Pr  Pr2  1  0.375000  0.125000  0.250000  1
  Pr  Pr3  1  0.875000  0.625000  0.250000  1
  Pr  Pr4  1  0.750000  0.125000  0.375000  1
  Pr  Pr5  1  0.125000  0.250000  0.375000  1
  Pr  Pr6  1  0.875000  0.750000  0.625000  1
  Pr  Pr7  1  0.250000  0.875000  0.625000  1
  Pr  Pr8  1  0.125000  0.375000  0.750000  1
  Pr  Pr9  1  0.625000  0.875000  0.750000  1
  Pr  Pr10  1  0.625000  0.250000  0.875000  1
  Pr  Pr11  1  0.750000  0.625000  0.875000  1
  Nb  Nb12  1  0.000000  0.000000  0.000000  1
  Nb  Nb13  1  0.500000  0.000000  0.000000  1
  Nb  Nb14  1  0.000000  0.500000  0.000000  1
  Nb  Nb15  1  0.500000  0.500000  0.000000  1
  Nb  Nb16  1  0.000000  0.000000  0.500000  1
  Nb  Nb17  1  0.500000  0.000000  0.500000  1
  Nb  Nb18  1  0.000000  0.500000  0.500000  1
  Nb  Nb19  1  0.500000  0.500000  0.500000  1
  Re  Re20  1  0.875000  0.250000  0.125000  1
  Re  Re21  1  0.750000  0.875000  0.125000  1
  Re  Re22  1  0.625000  0.375000  0.250000  1
  Re  Re23  1  0.125000  0.875000  0.250000  1
  Re  Re24  1  0.250000  0.625000  0.375000  1
  Re  Re25  1  0.625000  0.750000  0.375000  1
  Re  Re26  1  0.375000  0.250000  0.625000  1
  Re  Re27  1  0.750000  0.375000  0.625000  1
  Re  Re28  1  0.875000  0.125000  0.750000  1
  Re  Re29  1  0.375000  0.625000  0.750000  1
  Re  Re30  1  0.250000  0.125000  0.875000  1
  Re  Re31  1  0.125000  0.750000  0.875000  1
  N  N32  1  0.201035  0.114836  0.013921  1
  N  N33  1  0.312885  0.899085  0.013921  1
  N  N34  1  0.701035  0.687115  0.086199  1
  N  N35  1  0.885164  0.399085  0.086199  1
  N  N36  1  0.986079  0.687115  0.100915  1
  N  N37  1  0.614836  0.413801  0.100915  1
  N  N38  1  0.600915  0.913801  0.114836  1
  N  N39  1  0.013921  0.201035  0.114836  1
  N  N40  1  0.201035  0.586199  0.187115  1
  N  N41  1  0.486079  0.600915  0.187115  1
  N  N42  1  0.114836  0.013921  0.201035  1
  N  N43  1  0.586199  0.187115  0.201035  1
  N  N44  1  0.486079  0.385164  0.298965  1
  N  N45  1  0.312885  0.913801  0.298965  1
  N  N46  1  0.913801  0.298965  0.312885  1
  N  N47  1  0.899085  0.013921  0.312885  1
  N  N48  1  0.298965  0.486079  0.385164  1
  N  N49  1  0.586199  0.899085  0.385164  1
  N  N50  1  0.812885  0.513921  0.399085  1
  N  N51  1  0.086199  0.885164  0.399085  1
  N  N52  1  0.812885  0.798965  0.413801  1
  N  N53  1  0.100915  0.614836  0.413801  1
  N  N54  1  0.600915  0.187115  0.486079  1
  N  N55  1  0.385164  0.298965  0.486079  1
  N  N56  1  0.399085  0.812885  0.513921  1
  N  N57  1  0.614836  0.701035  0.513921  1
  N  N58  1  0.187115  0.201035  0.586199  1
  N  N59  1  0.899085  0.385164  0.586199  1
  N  N60  1  0.187115  0.486079  0.600915  1
  N  N61  1  0.913801  0.114836  0.600915  1
  N  N62  1  0.413801  0.100915  0.614836  1
  N  N63  1  0.701035  0.513921  0.614836  1
  N  N64  1  0.086199  0.701035  0.687115  1
  N  N65  1  0.100915  0.986079  0.687115  1
  N  N66  1  0.687115  0.086199  0.701035  1
  N  N67  1  0.513921  0.614836  0.701035  1
  N  N68  1  0.413801  0.812885  0.798965  1
  N  N69  1  0.885164  0.986079  0.798965  1
  N  N70  1  0.513921  0.399085  0.812885  1
  N  N71  1  0.798965  0.413801  0.812885  1
  N  N72  1  0.399085  0.086199  0.885164  1
  N  N73  1  0.986079  0.798965  0.885164  1
  N  N74  1  0.385164  0.586199  0.899085  1
  N  N75  1  0.013921  0.312885  0.899085  1
  N  N76  1  0.298965  0.312885  0.913801  1
  N  N77  1  0.114836  0.600915  0.913801  1
  N  N78  1  0.687115  0.100915  0.986079  1
  N  N79  1  0.798965  0.885164  0.986079  1
