# generated using pymatgen
data_Ho5TmTh2(MgRu)2
_symmetry_space_group_name_H-M   'P 1'
_cell_length_a   9.71880696
_cell_length_b   9.72219561
_cell_length_c   9.72219559
_cell_angle_alpha   59.97693658
_cell_angle_beta   60.01153779
_cell_angle_gamma   60.01153351
_symmetry_Int_Tables_number   1
_chemical_formula_structural   Ho5TmTh2(MgRu)2
_chemical_formula_sum   'Ho10 Tm2 Th4 Mg4 Ru4'
_cell_volume   649.57093979
_cell_formula_units_Z   2
loop_
 _symmetry_equiv_pos_site_id
 _symmetry_equiv_pos_as_xyz
  1  'x, y, z'
loop_
 _atom_site_type_symbol
 _atom_site_label
 _atom_site_symmetry_multiplicity
 _atom_site_fract_x
 _atom_site_fract_y
 _atom_site_fract_z
 _atom_site_occupancy
  Ho  Ho0  1  0.185846  0.814154  0.185846  1
  Ho  Ho1  1  0.814154  0.185846  0.814154  1
  Ho  Ho2  1  0.185846  0.185846  0.814154  1
  Ho  Ho3  1  0.814154  0.814154  0.185846  1
  Ho  Ho4  1  0.934928  0.565072  0.565072  1
  Ho  Ho5  1  0.565072  0.934928  0.934928  1
  Ho  Ho6  1  0.564943  0.935057  0.564943  1
  Ho  Ho7  1  0.935057  0.564943  0.935057  1
  Ho  Ho8  1  0.564943  0.564943  0.935057  1
  Ho  Ho9  1  0.935057  0.935057  0.564943  1
  Tm  Tm10  1  0.814037  0.185963  0.185963  1
  Tm  Tm11  1  0.185963  0.814037  0.814037  1
  Th  Th12  1  0.347317  0.346427  0.346427  1
  Th  Th13  1  0.346427  0.347317  0.959828  1
  Th  Th14  1  0.346427  0.959828  0.347317  1
  Th  Th15  1  0.959828  0.346427  0.346427  1
  Mg  Mg16  1  0.579878  0.580063  0.580063  1
  Mg  Mg17  1  0.580063  0.579878  0.259997  1
  Mg  Mg18  1  0.580063  0.259997  0.579878  1
  Mg  Mg19  1  0.259997  0.580063  0.580063  1
  Ru  Ru20  1  0.142806  0.143489  0.143489  1
  Ru  Ru21  1  0.143489  0.142806  0.570216  1
  Ru  Ru22  1  0.143489  0.570216  0.142806  1
  Ru  Ru23  1  0.570216  0.143489  0.143489  1
