# generated using pymatgen
data_Np4B12MoW
_symmetry_space_group_name_H-M   'P 1'
_cell_length_a   3.66697100
_cell_length_b   9.28830948
_cell_length_c   11.32991759
_cell_angle_alpha   90.03692299
_cell_angle_beta   90.00000000
_cell_angle_gamma   90.00000000
_symmetry_Int_Tables_number   1
_chemical_formula_structural   Np4B12MoW
_chemical_formula_sum   'Np8 B24 Mo2 W2'
_cell_volume   385.89647684
_cell_formula_units_Z   2
loop_
 _symmetry_equiv_pos_site_id
 _symmetry_equiv_pos_as_xyz
  1  'x, y, z'
loop_
 _atom_site_type_symbol
 _atom_site_label
 _atom_site_symmetry_multiplicity
 _atom_site_fract_x
 _atom_site_fract_y
 _atom_site_fract_z
 _atom_site_occupancy
  Np  Np0  1  0.000000  0.338484  0.407206  1
  Np  Np1  1  0.000000  0.661516  0.592794  1
  Np  Np2  1  0.000000  0.838299  0.092671  1
  Np  Np3  1  0.000000  0.161701  0.907329  1
  Np  Np4  1  0.000000  0.958615  0.399850  1
  Np  Np5  1  0.000000  0.041385  0.600150  1
  Np  Np6  1  0.000000  0.458895  0.100193  1
  Np  Np7  1  0.000000  0.541105  0.899807  1
  B  B8  1  0.500000  0.551528  0.432444  1
  B  B9  1  0.500000  0.448472  0.567556  1
  B  B10  1  0.500000  0.051403  0.067457  1
  B  B11  1  0.500000  0.948597  0.932543  1
  B  B12  1  0.500000  0.744734  0.424200  1
  B  B13  1  0.500000  0.255266  0.575800  1
  B  B14  1  0.500000  0.244952  0.075644  1
  B  B15  1  0.500000  0.755048  0.924356  1
  B  B16  1  0.500000  0.805933  0.273864  1
  B  B17  1  0.500000  0.194067  0.726136  1
  B  B18  1  0.500000  0.306071  0.226177  1
  B  B19  1  0.500000  0.693929  0.773823  1
  B  B20  1  0.500000  0.645954  0.187102  1
  B  B21  1  0.500000  0.354046  0.812898  1
  B  B22  1  0.500000  0.145972  0.313088  1
  B  B23  1  0.500000  0.854028  0.686912  1
  B  B24  1  0.500000  0.987488  0.220682  1
  B  B25  1  0.500000  0.012512  0.779318  1
  B  B26  1  0.500000  0.487742  0.279338  1
  B  B27  1  0.500000  0.512258  0.720662  1
  B  B28  1  0.500000  0.641370  0.039215  1
  B  B29  1  0.500000  0.358630  0.960785  1
  B  B30  1  0.500000  0.141409  0.460977  1
  B  B31  1  0.500000  0.858591  0.539023  1
  Mo  Mo32  1  0.000000  0.646648  0.319301  1
  Mo  Mo33  1  0.000000  0.353352  0.680699  1
  W  W34  1  0.000000  0.146727  0.180676  1
  W  W35  1  0.000000  0.853273  0.819324  1
