# generated using pymatgen
data_AcGa4Co9
_symmetry_space_group_name_H-M   'P 1'
_cell_length_a   8.24033787
_cell_length_b   8.24033724
_cell_length_c   8.24033779
_cell_angle_alpha   121.34688223
_cell_angle_beta   121.34687244
_cell_angle_gamma   87.68255304
_symmetry_Int_Tables_number   1
_chemical_formula_structural   AcGa4Co9
_chemical_formula_sum   'Ac2 Ga8 Co18'
_cell_volume   387.25910852
_cell_formula_units_Z   2
loop_
 _symmetry_equiv_pos_site_id
 _symmetry_equiv_pos_as_xyz
  1  'x, y, z'
loop_
 _atom_site_type_symbol
 _atom_site_label
 _atom_site_symmetry_multiplicity
 _atom_site_fract_x
 _atom_site_fract_y
 _atom_site_fract_z
 _atom_site_occupancy
  Ac  Ac0  1  0.750000  0.750000  0.000000  1
  Ac  Ac1  1  0.250000  0.250000  0.000000  1
  Ga  Ga2  1  0.803259  0.303258  0.858413  1
  Ga  Ga3  1  0.444845  0.944846  0.141588  1
  Ga  Ga4  1  0.696743  0.555155  0.500000  1
  Ga  Ga5  1  0.055154  0.196742  0.500000  1
  Ga  Ga6  1  0.196743  0.696743  0.141588  1
  Ga  Ga7  1  0.555154  0.055154  0.858413  1
  Ga  Ga8  1  0.944846  0.803258  0.500000  1
  Ga  Ga9  1  0.303258  0.444846  0.500000  1
  Co  Co10  1  0.199376  0.061748  0.261123  1
  Co  Co11  1  0.800622  0.938253  0.738878  1
  Co  Co12  1  0.300623  0.561747  0.862369  1
  Co  Co13  1  0.699375  0.438252  0.137630  1
  Co  Co14  1  0.438254  0.300623  0.738878  1
  Co  Co15  1  0.561747  0.699375  0.261123  1
  Co  Co16  1  0.938253  0.199376  0.137632  1
  Co  Co17  1  0.061748  0.800623  0.862370  1
  Co  Co18  1  0.499999  0.000000  0.499999  1
  Co  Co19  1  0.000000  0.499999  0.499999  1
  Co  Co20  1  0.286186  0.786185  0.723780  1
  Co  Co21  1  0.062405  0.562406  0.276221  1
  Co  Co22  1  0.213815  0.937595  0.499999  1
  Co  Co23  1  0.437596  0.713816  0.500002  1
  Co  Co24  1  0.713816  0.213815  0.276221  1
  Co  Co25  1  0.937595  0.437596  0.723780  1
  Co  Co26  1  0.562406  0.286186  0.500002  1
  Co  Co27  1  0.786185  0.062405  0.499999  1
