# generated using pymatgen
data_Cs2Tb9NdOs2Br17
_symmetry_space_group_name_H-M   'P 1'
_cell_length_a   9.40099417
_cell_length_b   10.96568944
_cell_length_c   10.96573271
_cell_angle_alpha   107.98856828
_cell_angle_beta   93.68327540
_cell_angle_gamma   93.68318827
_symmetry_Int_Tables_number   1
_chemical_formula_structural   Cs2Tb9NdOs2Br17
_chemical_formula_sum   'Cs2 Tb9 Nd1 Os2 Br17'
_cell_volume   1068.74276304
_cell_formula_units_Z   1
loop_
 _symmetry_equiv_pos_site_id
 _symmetry_equiv_pos_as_xyz
  1  'x, y, z'
loop_
 _atom_site_type_symbol
 _atom_site_label
 _atom_site_symmetry_multiplicity
 _atom_site_fract_x
 _atom_site_fract_y
 _atom_site_fract_z
 _atom_site_occupancy
  Cs  Cs0  1  0.000111  0.823752  0.176041  1
  Cs  Cs1  1  0.000113  0.176042  0.823752  1
  Tb  Tb2  1  0.440093  0.167344  0.167344  1
  Tb  Tb3  1  0.573879  0.507956  0.205938  1
  Tb  Tb4  1  0.826375  0.290886  0.290885  1
  Tb  Tb5  1  0.304858  0.437428  0.437433  1
  Tb  Tb6  1  0.424879  0.797965  0.486715  1
  Tb  Tb7  1  0.573878  0.205938  0.507955  1
  Tb  Tb8  1  0.693541  0.566645  0.566643  1
  Tb  Tb9  1  0.176917  0.708088  0.708089  1
  Tb  Tb10  1  0.424879  0.486715  0.797964  1
  Nd  Nd11  1  0.560553  0.834021  0.834022  1
  Os  Os12  1  0.568637  0.361853  0.361853  1
  Os  Os13  1  0.431687  0.638161  0.638160  1
  Br  Br14  1  0.576925  0.678887  0.023664  1
  Br  Br15  1  0.713178  0.069381  0.069381  1
  Br  Br16  1  0.853290  0.447881  0.122269  1
  Br  Br17  1  0.133832  0.208294  0.208294  1
  Br  Br18  1  0.285593  0.604976  0.254214  1
  Br  Br19  1  0.422691  0.980855  0.313810  1
  Br  Br20  1  0.713699  0.744678  0.394577  1
  Br  Br21  1  0.853290  0.122270  0.447881  1
  Br  Br22  1  0.000323  0.500216  0.500217  1
  Br  Br23  1  0.146353  0.878374  0.550885  1
  Br  Br24  1  0.285592  0.254215  0.604976  1
  Br  Br25  1  0.576926  0.023665  0.678887  1
  Br  Br26  1  0.713698  0.394575  0.744678  1
  Br  Br27  1  0.873400  0.789441  0.789442  1
  Br  Br28  1  0.146353  0.550885  0.878374  1
  Br  Br29  1  0.281760  0.934801  0.934801  1
  Br  Br30  1  0.422696  0.313814  0.980856  1
