# generated using pymatgen
data_TbEr3Ga2SiGe
_symmetry_space_group_name_H-M   'P 1'
_cell_length_a   3.96146300
_cell_length_b   4.29126600
_cell_length_c   10.69591900
_cell_angle_alpha   90.00000000
_cell_angle_beta   90.00000000
_cell_angle_gamma   90.00000000
_symmetry_Int_Tables_number   1
_chemical_formula_structural   TbEr3Ga2SiGe
_chemical_formula_sum   'Tb1 Er3 Ga2 Si1 Ge1'
_cell_volume   181.82732312
_cell_formula_units_Z   1
loop_
 _symmetry_equiv_pos_site_id
 _symmetry_equiv_pos_as_xyz
  1  'x, y, z'
loop_
 _atom_site_type_symbol
 _atom_site_label
 _atom_site_symmetry_multiplicity
 _atom_site_fract_x
 _atom_site_fract_y
 _atom_site_fract_z
 _atom_site_occupancy
  Tb  Tb0  1  0.500000  0.500000  0.359852  1
  Er  Er1  1  0.000000  0.000000  0.137019  1
  Er  Er2  1  0.000000  0.500000  0.642253  1
  Er  Er3  1  0.500000  0.000000  0.860256  1
  Ga  Ga4  1  0.500000  0.500000  0.076234  1
  Ga  Ga5  1  0.500000  0.000000  0.580597  1
  Si  Si6  1  0.000000  0.500000  0.923292  1
  Ge  Ge7  1  0.000000  0.000000  0.420498  1
