# generated using pymatgen
data_Li2Er3Si2AgHg
_symmetry_space_group_name_H-M   'P 1'
_cell_length_a   7.13786526
_cell_length_b   7.13786451
_cell_length_c   4.15079100
_cell_angle_alpha   90.00000000
_cell_angle_beta   90.00000000
_cell_angle_gamma   118.97551318
_symmetry_Int_Tables_number   1
_chemical_formula_structural   Li2Er3Si2AgHg
_chemical_formula_sum   'Li2 Er3 Si2 Ag1 Hg1'
_cell_volume   185.00761423
_cell_formula_units_Z   1
loop_
 _symmetry_equiv_pos_site_id
 _symmetry_equiv_pos_as_xyz
  1  'x, y, z'
loop_
 _atom_site_type_symbol
 _atom_site_label
 _atom_site_symmetry_multiplicity
 _atom_site_fract_x
 _atom_site_fract_y
 _atom_site_fract_z
 _atom_site_occupancy
  Li  Li0  1  0.746708  0.001636  0.000000  1
  Li  Li1  1  0.001636  0.746708  0.000000  1
  Er  Er2  1  0.423679  0.000162  0.500000  1
  Er  Er3  1  0.000162  0.423679  0.500000  1
  Er  Er4  1  0.571592  0.571592  0.500000  1
  Si  Si5  1  0.333288  0.672932  0.000000  1
  Si  Si6  1  0.672932  0.333288  0.000000  1
  Ag  Ag7  1  0.264981  0.264981  0.000000  1
  Hg  Hg8  1  0.985020  0.985020  0.500000  1
