# generated using pymatgen
data_Ba8Ca3Y9Sn16
_symmetry_space_group_name_H-M   'P 1'
_cell_length_a   8.26114700
_cell_length_b   8.73398428
_cell_length_c   16.61072500
_cell_angle_alpha   90.00000000
_cell_angle_beta   90.00000000
_cell_angle_gamma   89.85163669
_symmetry_Int_Tables_number   1
_chemical_formula_structural   Ba8Ca3Y9Sn16
_chemical_formula_sum   'Ba8 Ca3 Y9 Sn16'
_cell_volume   1198.50510544
_cell_formula_units_Z   1
loop_
 _symmetry_equiv_pos_site_id
 _symmetry_equiv_pos_as_xyz
  1  'x, y, z'
loop_
 _atom_site_type_symbol
 _atom_site_label
 _atom_site_symmetry_multiplicity
 _atom_site_fract_x
 _atom_site_fract_y
 _atom_site_fract_z
 _atom_site_occupancy
  Ba  Ba0  1  0.504369  0.676583  0.595620  1
  Ba  Ba1  1  0.006496  0.826915  0.905886  1
  Ba  Ba2  1  0.493368  0.323293  0.094928  1
  Ba  Ba3  1  0.993250  0.177429  0.405462  1
  Ba  Ba4  1  0.493368  0.323293  0.405072  1
  Ba  Ba5  1  0.993250  0.177429  0.094538  1
  Ba  Ba6  1  0.504369  0.676583  0.904380  1
  Ba  Ba7  1  0.006496  0.826915  0.594114  1
  Ca  Ca8  1  0.336698  0.996028  0.750000  1
  Ca  Ca9  1  0.162775  0.495602  0.250000  1
  Ca  Ca10  1  0.662749  0.003073  0.250000  1
  Y  Y11  1  0.672003  0.166575  0.623615  1
  Y  Y12  1  0.173776  0.330152  0.876317  1
  Y  Y13  1  0.328441  0.829277  0.123038  1
  Y  Y14  1  0.828645  0.669441  0.377232  1
  Y  Y15  1  0.328441  0.829277  0.376962  1
  Y  Y16  1  0.828645  0.669441  0.122768  1
  Y  Y17  1  0.672003  0.166575  0.876385  1
  Y  Y18  1  0.173776  0.330152  0.623683  1
  Y  Y19  1  0.838385  0.501117  0.750000  1
  Sn  Sn20  1  0.656803  0.956577  0.459076  1
  Sn  Sn21  1  0.156406  0.542948  0.040119  1
  Sn  Sn22  1  0.344078  0.044100  0.959046  1
  Sn  Sn23  1  0.843168  0.458629  0.544869  1
  Sn  Sn24  1  0.344078  0.044100  0.540954  1
  Sn  Sn25  1  0.843168  0.458629  0.955131  1
  Sn  Sn26  1  0.656803  0.956577  0.040924  1
  Sn  Sn27  1  0.156406  0.542948  0.459881  1
  Sn  Sn28  1  0.474493  0.371286  0.750000  1
  Sn  Sn29  1  0.967575  0.139728  0.750000  1
  Sn  Sn30  1  0.531408  0.633347  0.250000  1
  Sn  Sn31  1  0.031076  0.865328  0.250000  1
  Sn  Sn32  1  0.717928  0.882412  0.750000  1
  Sn  Sn33  1  0.206097  0.609251  0.750000  1
  Sn  Sn34  1  0.284127  0.106756  0.250000  1
  Sn  Sn35  1  0.785077  0.392237  0.250000  1
