# generated using pymatgen
data_U2PaNi3Bi4
_symmetry_space_group_name_H-M   'P 1'
_cell_length_a   8.35306006
_cell_length_b   8.35305996
_cell_length_c   8.35306000
_cell_angle_alpha   109.42923775
_cell_angle_beta   109.42923025
_cell_angle_gamma   109.55522665
_symmetry_Int_Tables_number   1
_chemical_formula_structural   U2PaNi3Bi4
_chemical_formula_sum   'U4 Pa2 Ni6 Bi8'
_cell_volume   448.65675637
_cell_formula_units_Z   2
loop_
 _symmetry_equiv_pos_site_id
 _symmetry_equiv_pos_as_xyz
  1  'x, y, z'
loop_
 _atom_site_type_symbol
 _atom_site_label
 _atom_site_symmetry_multiplicity
 _atom_site_fract_x
 _atom_site_fract_y
 _atom_site_fract_z
 _atom_site_occupancy
  U  U0  1  0.872461  0.250000  0.122461  1
  U  U1  1  0.627539  0.750000  0.377539  1
  U  U2  1  0.250000  0.127539  0.877539  1
  U  U3  1  0.750000  0.372461  0.622461  1
  Pa  Pa4  1  0.125000  0.875000  0.250000  1
  Pa  Pa5  1  0.375000  0.625000  0.750000  1
  Ni  Ni6  1  0.625000  0.375000  0.250000  1
  Ni  Ni7  1  0.875000  0.125000  0.750000  1
  Ni  Ni8  1  0.372771  0.250000  0.622771  1
  Ni  Ni9  1  0.127229  0.750000  0.877229  1
  Ni  Ni10  1  0.250000  0.627229  0.377229  1
  Ni  Ni11  1  0.750000  0.872771  0.122771  1
  Bi  Bi12  1  0.331172  0.332032  0.331383  1
  Bi  Bi13  1  0.168828  0.500212  0.000860  1
  Bi  Bi14  1  0.999351  0.167968  0.499140  1
  Bi  Bi15  1  0.832032  0.831172  0.831383  1
  Bi  Bi16  1  0.500649  0.999788  0.168617  1
  Bi  Bi17  1  0.667968  0.499351  0.999140  1
  Bi  Bi18  1  0.499788  0.000649  0.668617  1
  Bi  Bi19  1  0.000212  0.668828  0.500860  1
