# generated using pymatgen
data_Th2CdCo(SeO4)6
_symmetry_space_group_name_H-M   'P 1'
_cell_length_a   9.40297831
_cell_length_b   9.39837735
_cell_length_c   6.26380359
_cell_angle_alpha   90.08536137
_cell_angle_beta   89.84823845
_cell_angle_gamma   119.99423770
_symmetry_Int_Tables_number   1
_chemical_formula_structural   Th2CdCo(SeO4)6
_chemical_formula_sum   'Th2 Cd1 Co1 Se6 O24'
_cell_volume   479.41405063
_cell_formula_units_Z   1
loop_
 _symmetry_equiv_pos_site_id
 _symmetry_equiv_pos_as_xyz
  1  'x, y, z'
loop_
 _atom_site_type_symbol
 _atom_site_label
 _atom_site_symmetry_multiplicity
 _atom_site_fract_x
 _atom_site_fract_y
 _atom_site_fract_z
 _atom_site_occupancy
  Th  Th0  1  0.333105  0.666305  0.253545  1
  Th  Th1  1  0.666895  0.333696  0.746457  1
  Cd  Cd2  1  0.000000  0.000000  0.499999  1
  Co  Co3  1  0.000000  0.000000  0.000000  1
  Se  Se4  1  0.713556  0.098594  0.243023  1
  Se  Se5  1  0.385110  0.286267  0.244220  1
  Se  Se6  1  0.901570  0.615224  0.243513  1
  Se  Se7  1  0.098430  0.384776  0.756486  1
  Se  Se8  1  0.614889  0.713733  0.755779  1
  Se  Se9  1  0.286444  0.901407  0.756976  1
  O  O10  1  0.784034  0.542933  0.028740  1
  O  O11  1  0.758685  0.216408  0.028383  1
  O  O12  1  0.457476  0.241048  0.028733  1
  O  O13  1  0.837009  0.013403  0.230128  1
  O  O14  1  0.176929  0.163917  0.232736  1
  O  O15  1  0.444887  0.485463  0.249600  1
  O  O16  1  0.040604  0.555133  0.249613  1
  O  O17  1  0.988360  0.823722  0.231967  1
  O  O18  1  0.514579  0.959239  0.249756  1
  O  O19  1  0.447960  0.236650  0.465312  1
  O  O20  1  0.763516  0.210788  0.464714  1
  O  O21  1  0.788958  0.552458  0.465118  1
  O  O22  1  0.211042  0.447542  0.534882  1
  O  O23  1  0.236483  0.789212  0.535285  1
  O  O24  1  0.552040  0.763349  0.534688  1
  O  O25  1  0.485421  0.040761  0.750243  1
  O  O26  1  0.011640  0.176277  0.768032  1
  O  O27  1  0.959397  0.444866  0.750385  1
  O  O28  1  0.555113  0.514537  0.750399  1
  O  O29  1  0.823070  0.836082  0.767264  1
  O  O30  1  0.162991  0.986597  0.769871  1
  O  O31  1  0.542523  0.758951  0.971267  1
  O  O32  1  0.241315  0.783592  0.971616  1
  O  O33  1  0.215965  0.457066  0.971260  1
