# generated using pymatgen
data_Sm8CoHg3
_symmetry_space_group_name_H-M   'P 1'
_cell_length_a   10.43137600
_cell_length_b   10.43137684
_cell_length_c   7.16259700
_cell_angle_alpha   90.00000000
_cell_angle_beta   90.00000000
_cell_angle_gamma   120.00000369
_symmetry_Int_Tables_number   1
_chemical_formula_structural   Sm8CoHg3
_chemical_formula_sum   'Sm16 Co2 Hg6'
_cell_volume   674.96983857
_cell_formula_units_Z   2
loop_
 _symmetry_equiv_pos_site_id
 _symmetry_equiv_pos_as_xyz
  1  'x, y, z'
loop_
 _atom_site_type_symbol
 _atom_site_label
 _atom_site_symmetry_multiplicity
 _atom_site_fract_x
 _atom_site_fract_y
 _atom_site_fract_z
 _atom_site_occupancy
  Sm  Sm0  1  0.827368  0.654736  0.485238  1
  Sm  Sm1  1  0.345264  0.172632  0.485238  1
  Sm  Sm2  1  0.827368  0.172632  0.485238  1
  Sm  Sm3  1  0.172632  0.345264  0.985238  1
  Sm  Sm4  1  0.654736  0.827368  0.985238  1
  Sm  Sm5  1  0.172632  0.827368  0.985238  1
  Sm  Sm6  1  0.666667  0.333333  0.184156  1
  Sm  Sm7  1  0.333333  0.666667  0.684156  1
  Sm  Sm8  1  0.538727  0.077455  0.790424  1
  Sm  Sm9  1  0.922545  0.461273  0.790424  1
  Sm  Sm10  1  0.538727  0.461273  0.790424  1
  Sm  Sm11  1  0.461273  0.922545  0.290424  1
  Sm  Sm12  1  0.077455  0.538727  0.290424  1
  Sm  Sm13  1  0.461273  0.538727  0.290424  1
  Sm  Sm14  1  0.000000  0.000000  0.783638  1
  Sm  Sm15  1  0.000000  0.000000  0.283638  1
  Co  Co16  1  0.666667  0.333333  0.554366  1
  Co  Co17  1  0.333333  0.666667  0.054366  1
  Hg  Hg18  1  0.833033  0.666066  0.037973  1
  Hg  Hg19  1  0.333934  0.166967  0.037973  1
  Hg  Hg20  1  0.833033  0.166967  0.037973  1
  Hg  Hg21  1  0.166967  0.333934  0.537973  1
  Hg  Hg22  1  0.666066  0.833033  0.537973  1
  Hg  Hg23  1  0.166967  0.833033  0.537973  1
