# generated using pymatgen
data_LiLaEr5Rh17
_symmetry_space_group_name_H-M   'P 1'
_cell_length_a   5.26405400
_cell_length_b   5.26405307
_cell_length_c   17.42075000
_cell_angle_alpha   90.00000000
_cell_angle_beta   90.00000000
_cell_angle_gamma   119.99999325
_symmetry_Int_Tables_number   1
_chemical_formula_structural   LiLaEr5Rh17
_chemical_formula_sum   'Li1 La1 Er5 Rh17'
_cell_volume   418.05950766
_cell_formula_units_Z   1
loop_
 _symmetry_equiv_pos_site_id
 _symmetry_equiv_pos_as_xyz
  1  'x, y, z'
loop_
 _atom_site_type_symbol
 _atom_site_label
 _atom_site_symmetry_multiplicity
 _atom_site_fract_x
 _atom_site_fract_y
 _atom_site_fract_z
 _atom_site_occupancy
  Li  Li0  1  0.000000  0.000000  0.250000  1
  La  La1  1  0.666667  0.333333  0.250000  1
  Er  Er2  1  0.333333  0.666667  0.539536  1
  Er  Er3  1  0.666667  0.333333  0.040477  1
  Er  Er4  1  0.666667  0.333333  0.459523  1
  Er  Er5  1  0.333333  0.666667  0.960464  1
  Er  Er6  1  0.333333  0.666667  0.750000  1
  Rh  Rh7  1  0.167561  0.335120  0.124067  1
  Rh  Rh8  1  0.832538  0.665074  0.624897  1
  Rh  Rh9  1  0.664880  0.832439  0.124067  1
  Rh  Rh10  1  0.167561  0.832439  0.124067  1
  Rh  Rh11  1  0.832538  0.167462  0.624897  1
  Rh  Rh12  1  0.334926  0.167462  0.624897  1
  Rh  Rh13  1  0.832538  0.665074  0.875103  1
  Rh  Rh14  1  0.832538  0.167462  0.875103  1
  Rh  Rh15  1  0.334926  0.167462  0.875103  1
  Rh  Rh16  1  0.664880  0.832439  0.375933  1
  Rh  Rh17  1  0.167561  0.832439  0.375933  1
  Rh  Rh18  1  0.167561  0.335120  0.375933  1
  Rh  Rh19  1  0.000000  0.000000  0.750000  1
  Rh  Rh20  1  0.333333  0.666667  0.250000  1
  Rh  Rh21  1  0.666667  0.333333  0.750000  1
  Rh  Rh22  1  0.000000  0.000000  0.001095  1
  Rh  Rh23  1  0.000000  0.000000  0.498905  1
