# generated using pymatgen
data_LaY2Ga6(Ni2Pd)3
_symmetry_space_group_name_H-M   'P 1'
_cell_length_a   9.04758400
_cell_length_b   9.04758386
_cell_length_c   4.19311900
_cell_angle_alpha   90.00000000
_cell_angle_beta   90.00000000
_cell_angle_gamma   119.99999321
_symmetry_Int_Tables_number   1
_chemical_formula_structural   LaY2Ga6(Ni2Pd)3
_chemical_formula_sum   'La1 Y2 Ga6 Ni6 Pd3'
_cell_volume   297.25768426
_cell_formula_units_Z   1
loop_
 _symmetry_equiv_pos_site_id
 _symmetry_equiv_pos_as_xyz
  1  'x, y, z'
loop_
 _atom_site_type_symbol
 _atom_site_label
 _atom_site_symmetry_multiplicity
 _atom_site_fract_x
 _atom_site_fract_y
 _atom_site_fract_z
 _atom_site_occupancy
  La  La0  1  0.666667  0.333333  0.500000  1
  Y  Y1  1  0.333333  0.666667  0.500000  1
  Y  Y2  1  0.000000  0.000000  0.000000  1
  Ga  Ga3  1  0.461086  0.997237  0.000000  1
  Ga  Ga4  1  0.002763  0.463848  0.000000  1
  Ga  Ga5  1  0.536152  0.538914  0.000000  1
  Ga  Ga6  1  0.716635  0.998223  0.500000  1
  Ga  Ga7  1  0.001777  0.718412  0.500000  1
  Ga  Ga8  1  0.281588  0.283365  0.500000  1
  Ni  Ni9  1  0.223887  0.387703  0.000000  1
  Ni  Ni10  1  0.612297  0.836184  0.000000  1
  Ni  Ni11  1  0.163816  0.776113  0.000000  1
  Ni  Ni12  1  0.839317  0.620314  0.000000  1
  Ni  Ni13  1  0.780997  0.160683  0.000000  1
  Ni  Ni14  1  0.379686  0.219003  0.000000  1
  Pd  Pd15  1  0.280211  0.998921  0.500000  1
  Pd  Pd16  1  0.001079  0.281291  0.500000  1
  Pd  Pd17  1  0.718709  0.719789  0.500000  1
