# generated using pymatgen
data_Dy6Ho4Tl5InCl2
_symmetry_space_group_name_H-M   'P 1'
_cell_length_a   9.09036802
_cell_length_b   9.09036946
_cell_length_c   6.72702600
_cell_angle_alpha   90.00000000
_cell_angle_beta   90.00000000
_cell_angle_gamma   119.96703919
_symmetry_Int_Tables_number   1
_chemical_formula_structural   Dy6Ho4Tl5InCl2
_chemical_formula_sum   'Dy6 Ho4 Tl5 In1 Cl2'
_cell_volume   481.57162207
_cell_formula_units_Z   1
loop_
 _symmetry_equiv_pos_site_id
 _symmetry_equiv_pos_as_xyz
  1  'x, y, z'
loop_
 _atom_site_type_symbol
 _atom_site_label
 _atom_site_symmetry_multiplicity
 _atom_site_fract_x
 _atom_site_fract_y
 _atom_site_fract_z
 _atom_site_occupancy
  Dy  Dy0  1  0.740954  0.740954  0.250000  1
  Dy  Dy1  1  0.999303  0.741024  0.750000  1
  Dy  Dy2  1  0.741024  0.999303  0.750000  1
  Dy  Dy3  1  0.258522  0.258522  0.750000  1
  Dy  Dy4  1  0.999922  0.258803  0.250000  1
  Dy  Dy5  1  0.258803  0.999922  0.250000  1
  Ho  Ho6  1  0.334042  0.666719  0.500388  1
  Ho  Ho7  1  0.666719  0.334042  0.500388  1
  Ho  Ho8  1  0.334042  0.666719  0.999612  1
  Ho  Ho9  1  0.666719  0.334042  0.999612  1
  Tl  Tl10  1  0.394820  0.999897  0.750000  1
  Tl  Tl11  1  0.000058  0.604688  0.250000  1
  Tl  Tl12  1  0.604688  0.000058  0.250000  1
  Tl  Tl13  1  0.999897  0.394820  0.750000  1
  Tl  Tl14  1  0.395066  0.395066  0.250000  1
  In  In15  1  0.604732  0.604732  0.750000  1
  Cl  Cl16  1  0.000344  0.000344  0.499559  1
  Cl  Cl17  1  0.000344  0.000344  0.000441  1
