# generated using pymatgen
data_Li2DyHo(SiO4)2
_symmetry_space_group_name_H-M   'P 1'
_cell_length_a   6.22415411
_cell_length_b   5.43769541
_cell_length_c   10.91689650
_cell_angle_alpha   66.35492109
_cell_angle_beta   90.06752611
_cell_angle_gamma   90.03787690
_symmetry_Int_Tables_number   1
_chemical_formula_structural   Li2DyHo(SiO4)2
_chemical_formula_sum   'Li4 Dy2 Ho2 Si4 O16'
_cell_volume   338.46368011
_cell_formula_units_Z   2
loop_
 _symmetry_equiv_pos_site_id
 _symmetry_equiv_pos_as_xyz
  1  'x, y, z'
loop_
 _atom_site_type_symbol
 _atom_site_label
 _atom_site_symmetry_multiplicity
 _atom_site_fract_x
 _atom_site_fract_y
 _atom_site_fract_z
 _atom_site_occupancy
  Li  Li0  1  0.134035  0.918971  0.430199  1
  Li  Li1  1  0.633922  0.080927  0.069830  1
  Li  Li2  1  0.865965  0.081029  0.569801  1
  Li  Li3  1  0.366078  0.919073  0.930170  1
  Dy  Dy4  1  0.116470  0.445921  0.847462  1
  Dy  Dy5  1  0.883530  0.554079  0.152538  1
  Ho  Ho6  1  0.616271  0.554126  0.652178  1
  Ho  Ho7  1  0.383729  0.445874  0.347822  1
  Si  Si8  1  0.651376  0.903829  0.359533  1
  Si  Si9  1  0.348624  0.096171  0.640467  1
  Si  Si10  1  0.152280  0.095640  0.141015  1
  Si  Si11  1  0.847720  0.904360  0.858985  1
  O  O12  1  0.857965  0.231855  0.775650  1
  O  O13  1  0.640310  0.231349  0.276446  1
  O  O14  1  0.163599  0.186607  0.523422  1
  O  O15  1  0.836817  0.758236  0.752194  1
  O  O16  1  0.142035  0.768145  0.224350  1
  O  O17  1  0.571542  0.228134  0.554538  1
  O  O18  1  0.661662  0.758017  0.252611  1
  O  O19  1  0.428458  0.771866  0.445462  1
  O  O20  1  0.071345  0.773645  0.944770  1
  O  O21  1  0.663080  0.814123  0.976011  1
  O  O22  1  0.163183  0.241764  0.247806  1
  O  O23  1  0.928655  0.226355  0.055230  1
  O  O24  1  0.336920  0.185877  0.023989  1
  O  O25  1  0.338338  0.241983  0.747389  1
  O  O26  1  0.359690  0.768651  0.723554  1
  O  O27  1  0.836401  0.813393  0.476578  1
