# generated using pymatgen
data_Pr3BiRh3Pb2
_symmetry_space_group_name_H-M   'P 1'
_cell_length_a   7.76962197
_cell_length_b   7.76720096
_cell_length_c   4.14433700
_cell_angle_alpha   90.00000000
_cell_angle_beta   90.00000000
_cell_angle_gamma   119.98968717
_symmetry_Int_Tables_number   1
_chemical_formula_structural   Pr3BiRh3Pb2
_chemical_formula_sum   'Pr3 Bi1 Rh3 Pb2'
_cell_volume   216.61835209
_cell_formula_units_Z   1
loop_
 _symmetry_equiv_pos_site_id
 _symmetry_equiv_pos_as_xyz
  1  'x, y, z'
loop_
 _atom_site_type_symbol
 _atom_site_label
 _atom_site_symmetry_multiplicity
 _atom_site_fract_x
 _atom_site_fract_y
 _atom_site_fract_z
 _atom_site_occupancy
  Pr  Pr0  1  0.588521  0.998158  0.500000  1
  Pr  Pr1  1  0.411479  0.409636  0.500000  1
  Pr  Pr2  1  0.000000  0.594224  0.500000  1
  Bi  Bi3  1  0.000000  0.256666  0.000000  1
  Rh  Rh4  1  0.000000  0.002022  0.500000  1
  Rh  Rh5  1  0.332316  0.665550  0.000000  1
  Rh  Rh6  1  0.667684  0.333232  0.000000  1
  Pb  Pb7  1  0.257070  0.998791  0.000000  1
  Pb  Pb8  1  0.742930  0.741721  0.000000  1
