# generated using pymatgen
data_LuU2Sn3Ir2Ru
_symmetry_space_group_name_H-M   'P 1'
_cell_length_a   7.42310343
_cell_length_b   7.32221495
_cell_length_c   3.99183300
_cell_angle_alpha   90.00000000
_cell_angle_beta   90.00000000
_cell_angle_gamma   119.55141915
_symmetry_Int_Tables_number   1
_chemical_formula_structural   LuU2Sn3Ir2Ru
_chemical_formula_sum   'Lu1 U2 Sn3 Ir2 Ru1'
_cell_volume   188.74540372
_cell_formula_units_Z   1
loop_
 _symmetry_equiv_pos_site_id
 _symmetry_equiv_pos_as_xyz
  1  'x, y, z'
loop_
 _atom_site_type_symbol
 _atom_site_label
 _atom_site_symmetry_multiplicity
 _atom_site_fract_x
 _atom_site_fract_y
 _atom_site_fract_z
 _atom_site_occupancy
  Lu  Lu0  1  0.000000  0.409261  0.500000  1
  U  U1  1  0.586029  0.587559  0.500000  1
  U  U2  1  0.413971  0.001530  0.500000  1
  Sn  Sn3  1  0.000000  0.735520  0.000000  1
  Sn  Sn4  1  0.243764  0.253819  0.000000  1
  Sn  Sn5  1  0.756236  0.010056  0.000000  1
  Ir  Ir6  1  0.351327  0.682773  0.000000  1
  Ir  Ir7  1  0.648673  0.331446  0.000000  1
  Ru  Ru8  1  0.000000  0.988037  0.500000  1
