# generated using pymatgen
data_Gd4Al21Pt10
_symmetry_space_group_name_H-M   'P 1'
_cell_length_a   10.95474641
_cell_length_b   10.95474756
_cell_length_c   15.98492500
_cell_angle_alpha   55.94483756
_cell_angle_beta   55.94483349
_cell_angle_gamma   22.03586270
_symmetry_Int_Tables_number   1
_chemical_formula_structural   Gd4Al21Pt10
_chemical_formula_sum   'Gd4 Al21 Pt10'
_cell_volume   591.10006183
_cell_formula_units_Z   1
loop_
 _symmetry_equiv_pos_site_id
 _symmetry_equiv_pos_as_xyz
  1  'x, y, z'
loop_
 _atom_site_type_symbol
 _atom_site_label
 _atom_site_symmetry_multiplicity
 _atom_site_fract_x
 _atom_site_fract_y
 _atom_site_fract_z
 _atom_site_occupancy
  Gd  Gd0  1  0.877607  0.877607  0.335665  1
  Gd  Gd1  1  0.122393  0.122393  0.664335  1
  Gd  Gd2  1  0.228682  0.228682  0.177642  1
  Gd  Gd3  1  0.771318  0.771318  0.822358  1
  Al  Al4  1  0.459303  0.459303  0.369123  1
  Al  Al5  1  0.540697  0.540697  0.630877  1
  Al  Al6  1  0.800707  0.800707  0.001005  1
  Al  Al7  1  0.199293  0.199293  0.998995  1
  Al  Al8  1  0.700808  0.700808  0.496858  1
  Al  Al9  1  0.299192  0.299192  0.503142  1
  Al  Al10  1  0.884421  0.884421  0.550173  1
  Al  Al11  1  0.115579  0.115579  0.449827  1
  Al  Al12  1  0.614415  0.614415  0.297789  1
  Al  Al13  1  0.385585  0.385585  0.702211  1
  Al  Al14  1  0.750621  0.750621  0.293869  1
  Al  Al15  1  0.249379  0.249379  0.706131  1
  Al  Al16  1  0.602012  0.602012  0.003148  1
  Al  Al17  1  0.397988  0.397988  0.996852  1
  Al  Al18  1  0.993035  0.993035  0.091740  1
  Al  Al19  1  0.006965  0.006965  0.908260  1
  Al  Al20  1  0.936041  0.936041  0.796045  1
  Al  Al21  1  0.063959  0.063959  0.203955  1
  Al  Al22  1  0.500000  0.500000  0.500000  1
  Al  Al23  1  0.371588  0.371588  0.194785  1
  Al  Al24  1  0.628412  0.628412  0.805215  1
  Pt  Pt25  1  0.494432  0.494432  0.185952  1
  Pt  Pt26  1  0.505568  0.505568  0.814048  1
  Pt  Pt27  1  0.867936  0.867936  0.102491  1
  Pt  Pt28  1  0.132064  0.132064  0.897509  1
  Pt  Pt29  1  0.749975  0.749975  0.614417  1
  Pt  Pt30  1  0.250025  0.250025  0.385583  1
  Pt  Pt31  1  0.655783  0.655783  0.111485  1
  Pt  Pt32  1  0.344217  0.344217  0.888515  1
  Pt  Pt33  1  0.974291  0.974291  0.611370  1
  Pt  Pt34  1  0.025709  0.025709  0.388630  1
