# generated using pymatgen
data_Y2Er8Cd3Pt
_symmetry_space_group_name_H-M   'P 1'
_cell_length_a   9.61866102
_cell_length_b   9.61515610
_cell_length_c   9.75733300
_cell_angle_alpha   90.00000000
_cell_angle_beta   90.00000000
_cell_angle_gamma   119.98771237
_symmetry_Int_Tables_number   1
_chemical_formula_structural   Y2Er8Cd3Pt
_chemical_formula_sum   'Y4 Er16 Cd6 Pt2'
_cell_volume   781.60346864
_cell_formula_units_Z   2
loop_
 _symmetry_equiv_pos_site_id
 _symmetry_equiv_pos_as_xyz
  1  'x, y, z'
loop_
 _atom_site_type_symbol
 _atom_site_label
 _atom_site_symmetry_multiplicity
 _atom_site_fract_x
 _atom_site_fract_y
 _atom_site_fract_z
 _atom_site_occupancy
  Y  Y0  1  0.914360  0.457180  0.250000  1
  Y  Y1  1  0.457782  0.541898  0.750000  1
  Y  Y2  1  0.457788  0.915872  0.750000  1
  Y  Y3  1  0.083731  0.541864  0.750000  1
  Er  Er4  1  0.000182  0.000092  0.499865  1
  Er  Er5  1  0.000182  0.000092  0.000135  1
  Er  Er6  1  0.542197  0.457234  0.250000  1
  Er  Er7  1  0.542198  0.084972  0.250000  1
  Er  Er8  1  0.208967  0.792429  0.441270  1
  Er  Er9  1  0.208967  0.416539  0.441271  1
  Er  Er10  1  0.583743  0.791872  0.441054  1
  Er  Er11  1  0.790997  0.207880  0.557733  1
  Er  Er12  1  0.791000  0.583120  0.557734  1
  Er  Er13  1  0.417275  0.208638  0.557265  1
  Er  Er14  1  0.790997  0.207880  0.942267  1
  Er  Er15  1  0.791000  0.583120  0.942266  1
  Er  Er16  1  0.417275  0.208638  0.942735  1
  Er  Er17  1  0.208967  0.792429  0.058730  1
  Er  Er18  1  0.208967  0.416539  0.058729  1
  Er  Er19  1  0.583743  0.791872  0.058946  1
  Cd  Cd20  1  0.884109  0.114248  0.250000  1
  Cd  Cd21  1  0.884106  0.769857  0.250000  1
  Cd  Cd22  1  0.230998  0.115500  0.250000  1
  Cd  Cd23  1  0.114598  0.885711  0.750000  1
  Cd  Cd24  1  0.114596  0.228894  0.750000  1
  Cd  Cd25  1  0.770904  0.885454  0.750000  1
  Pt  Pt26  1  0.333634  0.666822  0.250000  1
  Pt  Pt27  1  0.666735  0.333355  0.750000  1
