# generated using pymatgen
data_Y2B2MoRu5
_symmetry_space_group_name_H-M   'P 1'
_cell_length_a   9.63792500
_cell_length_b   9.63792500
_cell_length_c   3.11479200
_cell_angle_alpha   90.00000000
_cell_angle_beta   90.00000000
_cell_angle_gamma   90.00000000
_symmetry_Int_Tables_number   1
_chemical_formula_structural   Y2B2MoRu5
_chemical_formula_sum   'Y4 B4 Mo2 Ru10'
_cell_volume   289.33177769
_cell_formula_units_Z   2
loop_
 _symmetry_equiv_pos_site_id
 _symmetry_equiv_pos_as_xyz
  1  'x, y, z'
loop_
 _atom_site_type_symbol
 _atom_site_label
 _atom_site_symmetry_multiplicity
 _atom_site_fract_x
 _atom_site_fract_y
 _atom_site_fract_z
 _atom_site_occupancy
  Y  Y0  1  0.675482  0.175482  0.000000  1
  Y  Y1  1  0.324518  0.824518  0.000000  1
  Y  Y2  1  0.175482  0.324518  0.000000  1
  Y  Y3  1  0.824518  0.675482  0.000000  1
  B  B4  1  0.120240  0.620240  0.000000  1
  B  B5  1  0.879760  0.379760  0.000000  1
  B  B6  1  0.620240  0.879760  0.000000  1
  B  B7  1  0.379760  0.120240  0.000000  1
  Mo  Mo8  1  0.000000  0.000000  0.000000  1
  Mo  Mo9  1  0.500000  0.500000  0.000000  1
  Ru  Ru10  1  0.216039  0.069504  0.500000  1
  Ru  Ru11  1  0.783961  0.930496  0.500000  1
  Ru  Ru12  1  0.069504  0.783961  0.500000  1
  Ru  Ru13  1  0.716039  0.430496  0.500000  1
  Ru  Ru14  1  0.930496  0.216039  0.500000  1
  Ru  Ru15  1  0.283961  0.569504  0.500000  1
  Ru  Ru16  1  0.569504  0.716039  0.500000  1
  Ru  Ru17  1  0.430496  0.283961  0.500000  1
  Ru  Ru18  1  0.500000  0.000000  0.500000  1
  Ru  Ru19  1  0.000000  0.500000  0.500000  1
