# generated using pymatgen
data_SrLi2TiO4
_symmetry_space_group_name_H-M   'P 1'
_cell_length_a   5.12250104
_cell_length_b   5.12250021
_cell_length_c   5.12250043
_cell_angle_alpha   95.10604188
_cell_angle_beta   117.09712654
_cell_angle_gamma   117.09713480
_symmetry_Int_Tables_number   1
_chemical_formula_structural   SrLi2TiO4
_chemical_formula_sum   'Sr1 Li2 Ti1 O4'
_cell_volume   98.79114383
_cell_formula_units_Z   1
loop_
 _symmetry_equiv_pos_site_id
 _symmetry_equiv_pos_as_xyz
  1  'x, y, z'
loop_
 _atom_site_type_symbol
 _atom_site_label
 _atom_site_symmetry_multiplicity
 _atom_site_fract_x
 _atom_site_fract_y
 _atom_site_fract_z
 _atom_site_occupancy
  Sr  Sr0  1  0.000000  0.000000  0.000000  1
  Li  Li1  1  0.499999  0.750000  0.250000  1
  Li  Li2  1  0.500001  0.250000  0.750001  1
  Ti  Ti3  1  0.000000  0.500000  0.500000  1
  O  O4  1  0.000000  0.544684  0.147500  1
  O  O5  1  0.602812  0.455314  0.455316  1
  O  O6  1  0.000000  0.147501  0.544685  1
  O  O7  1  0.397188  0.852500  0.852501  1
