# generated using pymatgen
data_NdErTa2Bi2O11
_symmetry_space_group_name_H-M   'P 1'
_cell_length_a   6.60523866
_cell_length_b   7.72137187
_cell_length_c   9.79931238
_cell_angle_alpha   101.41383460
_cell_angle_beta   90.03126432
_cell_angle_gamma   90.22116629
_symmetry_Int_Tables_number   1
_chemical_formula_structural   NdErTa2Bi2O11
_chemical_formula_sum   'Nd2 Er2 Ta4 Bi4 O22'
_cell_volume   489.89164981
_cell_formula_units_Z   2
loop_
 _symmetry_equiv_pos_site_id
 _symmetry_equiv_pos_as_xyz
  1  'x, y, z'
loop_
 _atom_site_type_symbol
 _atom_site_label
 _atom_site_symmetry_multiplicity
 _atom_site_fract_x
 _atom_site_fract_y
 _atom_site_fract_z
 _atom_site_occupancy
  Nd  Nd0  1  0.749418  0.367755  0.486853  1
  Nd  Nd1  1  0.250582  0.632245  0.513147  1
  Er  Er2  1  0.758727  0.872128  0.484561  1
  Er  Er3  1  0.241273  0.127872  0.515439  1
  Ta  Ta4  1  0.912111  0.702768  0.805812  1
  Ta  Ta5  1  0.087889  0.297232  0.194188  1
  Ta  Ta6  1  0.914209  0.199108  0.805200  1
  Ta  Ta7  1  0.085791  0.800892  0.194800  1
  Bi  Bi8  1  0.437565  0.957894  0.814739  1
  Bi  Bi9  1  0.562435  0.042106  0.185261  1
  Bi  Bi10  1  0.386055  0.455800  0.827952  1
  Bi  Bi11  1  0.613945  0.544200  0.172048  1
  O  O12  1  0.216290  0.727346  0.760525  1
  O  O13  1  0.783710  0.272654  0.239475  1
  O  O14  1  0.629436  0.661616  0.841930  1
  O  O15  1  0.370564  0.338384  0.158070  1
  O  O16  1  0.629761  0.254704  0.840285  1
  O  O17  1  0.370239  0.745296  0.159715  1
  O  O18  1  0.893453  0.140595  0.589331  1
  O  O19  1  0.106547  0.859405  0.410669  1
  O  O20  1  0.215729  0.148889  0.751735  1
  O  O21  1  0.784271  0.851111  0.248265  1
  O  O22  1  0.891120  0.654297  0.591820  1
  O  O23  1  0.108880  0.345703  0.408180  1
  O  O24  1  0.029745  0.553101  0.210602  1
  O  O25  1  0.970255  0.446899  0.789398  1
  O  O26  1  0.994873  0.772795  0.002199  1
  O  O27  1  0.005127  0.227205  0.997801  1
  O  O28  1  0.578478  0.603183  0.391330  1
  O  O29  1  0.421522  0.396817  0.608670  1
  O  O30  1  0.166138  0.052724  0.209044  1
  O  O31  1  0.833862  0.947276  0.790956  1
  O  O32  1  0.535827  0.098736  0.402534  1
  O  O33  1  0.464173  0.901264  0.597466  1
