# generated using pymatgen
data_Ca3TmHgPb11
_symmetry_space_group_name_H-M   'P 1'
_cell_length_a   9.83633600
_cell_length_b   6.84038689
_cell_length_c   6.85053100
_cell_angle_alpha   89.73368087
_cell_angle_beta   90.00000000
_cell_angle_gamma   90.00000000
_symmetry_Int_Tables_number   1
_chemical_formula_structural   Ca3TmHgPb11
_chemical_formula_sum   'Ca3 Tm1 Hg1 Pb11'
_cell_volume   460.92850414
_cell_formula_units_Z   1
loop_
 _symmetry_equiv_pos_site_id
 _symmetry_equiv_pos_as_xyz
  1  'x, y, z'
loop_
 _atom_site_type_symbol
 _atom_site_label
 _atom_site_symmetry_multiplicity
 _atom_site_fract_x
 _atom_site_fract_y
 _atom_site_fract_z
 _atom_site_occupancy
  Ca  Ca0  1  0.250000  0.495307  0.502768  1
  Ca  Ca1  1  0.750000  0.997403  0.001491  1
  Ca  Ca2  1  0.750000  0.505880  0.499592  1
  Tm  Tm3  1  0.250000  0.007490  0.000305  1
  Hg  Hg4  1  0.750000  0.494173  0.996155  1
  Pb  Pb5  1  0.001526  0.243024  0.750710  1
  Pb  Pb6  1  0.498245  0.250673  0.246067  1
  Pb  Pb7  1  0.494533  0.753944  0.245379  1
  Pb  Pb8  1  0.003181  0.749254  0.756636  1
  Pb  Pb9  1  0.005467  0.753944  0.245379  1
  Pb  Pb10  1  0.496819  0.749254  0.756636  1
  Pb  Pb11  1  0.498474  0.243024  0.750710  1
  Pb  Pb12  1  0.001755  0.250673  0.246067  1
  Pb  Pb13  1  0.250000  0.997949  0.501809  1
  Pb  Pb14  1  0.250000  0.505403  0.001298  1
  Pb  Pb15  1  0.750000  0.002603  0.498995  1
