# generated using pymatgen
data_Nd6Hg7Ge
_symmetry_space_group_name_H-M   'P 1'
_cell_length_a   8.39947440
_cell_length_b   8.39947399
_cell_length_c   8.39947500
_cell_angle_alpha   113.17532712
_cell_angle_beta   113.17532593
_cell_angle_gamma   113.17533295
_symmetry_Int_Tables_number   1
_chemical_formula_structural   Nd6Hg7Ge
_chemical_formula_sum   'Nd6 Hg7 Ge1'
_cell_volume   381.04254934
_cell_formula_units_Z   1
loop_
 _symmetry_equiv_pos_site_id
 _symmetry_equiv_pos_as_xyz
  1  'x, y, z'
loop_
 _atom_site_type_symbol
 _atom_site_label
 _atom_site_symmetry_multiplicity
 _atom_site_fract_x
 _atom_site_fract_y
 _atom_site_fract_z
 _atom_site_occupancy
  Nd  Nd0  1  0.745318  0.620439  0.991769  1
  Nd  Nd1  1  0.991769  0.745318  0.620439  1
  Nd  Nd2  1  0.620439  0.991769  0.745318  1
  Nd  Nd3  1  0.254682  0.379561  0.008231  1
  Nd  Nd4  1  0.008231  0.254682  0.379561  1
  Nd  Nd5  1  0.379561  0.008231  0.254682  1
  Hg  Hg6  1  0.592515  0.267516  0.106403  1
  Hg  Hg7  1  0.106403  0.592515  0.267516  1
  Hg  Hg8  1  0.267516  0.106403  0.592515  1
  Hg  Hg9  1  0.407485  0.732484  0.893597  1
  Hg  Hg10  1  0.893597  0.407485  0.732484  1
  Hg  Hg11  1  0.732484  0.893597  0.407485  1
  Hg  Hg12  1  0.500000  0.500000  0.500000  1
  Ge  Ge13  1  0.000000  0.000000  0.000000  1
