# generated using pymatgen
data_Ba3Sc2V(Ga2O5)4
_symmetry_space_group_name_H-M   'P 1'
_cell_length_a   10.18093766
_cell_length_b   10.18093693
_cell_length_c   5.23636718
_cell_angle_alpha   75.62150189
_cell_angle_beta   75.62150093
_cell_angle_gamma   72.14070587
_symmetry_Int_Tables_number   1
_chemical_formula_structural   Ba3Sc2V(Ga2O5)4
_chemical_formula_sum   'Ba3 Sc2 V1 Ga8 O20'
_cell_volume   491.61900296
_cell_formula_units_Z   1
loop_
 _symmetry_equiv_pos_site_id
 _symmetry_equiv_pos_as_xyz
  1  'x, y, z'
loop_
 _atom_site_type_symbol
 _atom_site_label
 _atom_site_symmetry_multiplicity
 _atom_site_fract_x
 _atom_site_fract_y
 _atom_site_fract_z
 _atom_site_occupancy
  Ba  Ba0  1  0.219356  0.219356  0.269316  1
  Ba  Ba1  1  0.780644  0.780644  0.730684  1
  Ba  Ba2  1  0.500000  0.500000  0.000000  1
  Sc  Sc3  1  0.140430  0.859570  0.500000  1
  Sc  Sc4  1  0.859570  0.140430  0.500000  1
  V  V5  1  0.000000  0.000000  0.000000  1
  Ga  Ga6  1  0.355140  0.925517  0.837304  1
  Ga  Ga7  1  0.644860  0.074483  0.162696  1
  Ga  Ga8  1  0.074483  0.644860  0.162696  1
  Ga  Ga9  1  0.925517  0.355140  0.837304  1
  Ga  Ga10  1  0.485926  0.214714  0.660158  1
  Ga  Ga11  1  0.514074  0.785286  0.339842  1
  Ga  Ga12  1  0.785286  0.514074  0.339842  1
  Ga  Ga13  1  0.214714  0.485926  0.660158  1
  O  O14  1  0.497656  0.788486  0.991080  1
  O  O15  1  0.502344  0.211514  0.008920  1
  O  O16  1  0.211514  0.502344  0.008920  1
  O  O17  1  0.788486  0.497656  0.991080  1
  O  O18  1  0.372238  0.102800  0.669623  1
  O  O19  1  0.627762  0.897200  0.330377  1
  O  O20  1  0.897200  0.627762  0.330377  1
  O  O21  1  0.102800  0.372238  0.669623  1
  O  O22  1  0.061309  0.061309  0.633156  1
  O  O23  1  0.938691  0.938691  0.366844  1
  O  O24  1  0.660178  0.160506  0.433254  1
  O  O25  1  0.339822  0.839494  0.566746  1
  O  O26  1  0.839494  0.339822  0.566746  1
  O  O27  1  0.160506  0.660178  0.433254  1
  O  O28  1  0.192142  0.955039  0.098073  1
  O  O29  1  0.807858  0.044961  0.901927  1
  O  O30  1  0.044961  0.807858  0.901927  1
  O  O31  1  0.955039  0.192142  0.098073  1
  O  O32  1  0.398835  0.398835  0.521109  1
  O  O33  1  0.601165  0.601165  0.478891  1
