# generated using pymatgen
data_Nd15Th(AgRu)4
_symmetry_space_group_name_H-M   'P 1'
_cell_length_a   9.89309264
_cell_length_b   9.89909052
_cell_length_c   9.71122653
_cell_angle_alpha   60.61348693
_cell_angle_beta   60.59612071
_cell_angle_gamma   60.08830151
_symmetry_Int_Tables_number   1
_chemical_formula_structural   Nd15Th(AgRu)4
_chemical_formula_sum   'Nd15 Th1 Ag4 Ru4'
_cell_volume   679.03294234
_cell_formula_units_Z   1
loop_
 _symmetry_equiv_pos_site_id
 _symmetry_equiv_pos_as_xyz
  1  'x, y, z'
loop_
 _atom_site_type_symbol
 _atom_site_label
 _atom_site_symmetry_multiplicity
 _atom_site_fract_x
 _atom_site_fract_y
 _atom_site_fract_z
 _atom_site_occupancy
  Nd  Nd0  1  0.192825  0.811088  0.187460  1
  Nd  Nd1  1  0.813281  0.813343  0.185548  1
  Nd  Nd2  1  0.188890  0.188819  0.811301  1
  Nd  Nd3  1  0.400805  0.793378  0.403656  1
  Nd  Nd4  1  0.809650  0.192708  0.811454  1
  Nd  Nd5  1  0.940498  0.940409  0.559442  1
  Nd  Nd6  1  0.811125  0.192805  0.187456  1
  Nd  Nd7  1  0.943396  0.561035  0.938202  1
  Nd  Nd8  1  0.793399  0.400868  0.403586  1
  Nd  Nd9  1  0.561012  0.943366  0.938229  1
  Nd  Nd10  1  0.192737  0.809609  0.811527  1
  Nd  Nd11  1  0.561656  0.944296  0.555925  1
  Nd  Nd12  1  0.397808  0.397818  0.401081  1
  Nd  Nd13  1  0.944301  0.561682  0.555891  1
  Nd  Nd14  1  0.399440  0.399488  0.800457  1
  Th  Th15  1  0.564774  0.564824  0.936708  1
  Ag  Ag16  1  0.166549  0.492415  0.169787  1
  Ag  Ag17  1  0.168302  0.168307  0.491155  1
  Ag  Ag18  1  0.492419  0.166540  0.169781  1
  Ag  Ag19  1  0.167691  0.167733  0.171673  1
  Ru  Ru20  1  0.171770  0.612402  0.606610  1
  Ru  Ru21  1  0.601825  0.601869  0.159005  1
  Ru  Ru22  1  0.603438  0.603444  0.637427  1
  Ru  Ru23  1  0.612411  0.171752  0.606638  1
