# generated using pymatgen
data_YZr(NiP)3
_symmetry_space_group_name_H-M   'P 1'
_cell_length_a   3.74201200
_cell_length_b   10.17689800
_cell_length_c   12.36450100
_cell_angle_alpha   90.00000000
_cell_angle_beta   90.00000000
_cell_angle_gamma   90.00000000
_symmetry_Int_Tables_number   1
_chemical_formula_structural   YZr(NiP)3
_chemical_formula_sum   'Y4 Zr4 Ni12 P12'
_cell_volume   470.86584748
_cell_formula_units_Z   4
loop_
 _symmetry_equiv_pos_site_id
 _symmetry_equiv_pos_as_xyz
  1  'x, y, z'
loop_
 _atom_site_type_symbol
 _atom_site_label
 _atom_site_symmetry_multiplicity
 _atom_site_fract_x
 _atom_site_fract_y
 _atom_site_fract_z
 _atom_site_occupancy
  Y  Y0  1  0.250000  0.071665  0.207721  1
  Y  Y1  1  0.750000  0.928335  0.792279  1
  Y  Y2  1  0.750000  0.571665  0.292279  1
  Y  Y3  1  0.250000  0.428335  0.707721  1
  Zr  Zr4  1  0.250000  0.159862  0.497157  1
  Zr  Zr5  1  0.750000  0.840138  0.502843  1
  Zr  Zr6  1  0.750000  0.659862  0.002843  1
  Zr  Zr7  1  0.250000  0.340138  0.997157  1
  Ni  Ni8  1  0.250000  0.727761  0.664635  1
  Ni  Ni9  1  0.750000  0.272239  0.335365  1
  Ni  Ni10  1  0.750000  0.227761  0.835365  1
  Ni  Ni11  1  0.250000  0.772239  0.164635  1
  Ni  Ni12  1  0.250000  0.365566  0.218675  1
  Ni  Ni13  1  0.750000  0.634434  0.781325  1
  Ni  Ni14  1  0.750000  0.865566  0.281325  1
  Ni  Ni15  1  0.250000  0.134434  0.718675  1
  Ni  Ni16  1  0.250000  0.596891  0.483866  1
  Ni  Ni17  1  0.750000  0.403109  0.516134  1
  Ni  Ni18  1  0.750000  0.096891  0.016134  1
  Ni  Ni19  1  0.250000  0.903109  0.983866  1
  P  P20  1  0.250000  0.945056  0.623540  1
  P  P21  1  0.750000  0.054944  0.376460  1
  P  P22  1  0.750000  0.445056  0.876460  1
  P  P23  1  0.250000  0.554944  0.123540  1
  P  P24  1  0.250000  0.393971  0.401315  1
  P  P25  1  0.750000  0.606029  0.598685  1
  P  P26  1  0.750000  0.893971  0.098685  1
  P  P27  1  0.250000  0.106029  0.901315  1
  P  P28  1  0.250000  0.770362  0.354619  1
  P  P29  1  0.750000  0.229638  0.645381  1
  P  P30  1  0.750000  0.270362  0.145381  1
  P  P31  1  0.250000  0.729638  0.854619  1
