# generated using pymatgen
data_TbYGa5Ir3
_symmetry_space_group_name_H-M   'P 1'
_cell_length_a   8.60615376
_cell_length_b   8.60796753
_cell_length_c   8.60796869
_cell_angle_alpha   141.25530999
_cell_angle_beta   109.80100659
_cell_angle_gamma   83.18577911
_symmetry_Int_Tables_number   1
_chemical_formula_structural   TbYGa5Ir3
_chemical_formula_sum   'Tb2 Y2 Ga10 Ir6'
_cell_volume   363.84974200
_cell_formula_units_Z   2
loop_
 _symmetry_equiv_pos_site_id
 _symmetry_equiv_pos_as_xyz
  1  'x, y, z'
loop_
 _atom_site_type_symbol
 _atom_site_label
 _atom_site_symmetry_multiplicity
 _atom_site_fract_x
 _atom_site_fract_y
 _atom_site_fract_z
 _atom_site_occupancy
  Tb  Tb0  1  0.628754  0.356153  0.272600  1
  Tb  Tb1  1  0.371246  0.643847  0.727400  1
  Y  Y2  1  0.916433  0.143854  0.772580  1
  Y  Y3  1  0.083567  0.856146  0.227420  1
  Ga  Ga4  1  0.403369  0.084252  0.319116  1
  Ga  Ga5  1  0.596631  0.915748  0.680884  1
  Ga  Ga6  1  0.234857  0.415759  0.819098  1
  Ga  Ga7  1  0.765143  0.584241  0.180902  1
  Ga  Ga8  1  0.299343  0.549400  0.250016  1
  Ga  Ga9  1  0.700657  0.950672  0.250057  1
  Ga  Ga10  1  0.700657  0.450600  0.749984  1
  Ga  Ga11  1  0.299343  0.049328  0.749943  1
  Ga  Ga12  1  0.000000  0.250027  0.250027  1
  Ga  Ga13  1  0.000000  0.749973  0.749973  1
  Ir  Ir14  1  0.239751  0.152321  0.087431  1
  Ir  Ir15  1  0.760249  0.847679  0.912569  1
  Ir  Ir16  1  0.935108  0.347714  0.587395  1
  Ir  Ir17  1  0.064892  0.652286  0.412605  1
  Ir  Ir18  1  0.500000  0.249896  0.749896  1
  Ir  Ir19  1  0.500000  0.750104  0.250104  1
