# generated using pymatgen
data_Tb6Ho7Er3(In3Co)2
_symmetry_space_group_name_H-M   'P 1'
_cell_length_a   10.34039400
_cell_length_b   10.34039410
_cell_length_c   6.99544500
_cell_angle_alpha   90.00000000
_cell_angle_beta   90.00000000
_cell_angle_gamma   119.99999969
_symmetry_Int_Tables_number   1
_chemical_formula_structural   Tb6Ho7Er3(In3Co)2
_chemical_formula_sum   'Tb6 Ho7 Er3 In6 Co2'
_cell_volume   647.76899573
_cell_formula_units_Z   1
loop_
 _symmetry_equiv_pos_site_id
 _symmetry_equiv_pos_as_xyz
  1  'x, y, z'
loop_
 _atom_site_type_symbol
 _atom_site_label
 _atom_site_symmetry_multiplicity
 _atom_site_fract_x
 _atom_site_fract_y
 _atom_site_fract_z
 _atom_site_occupancy
  Tb  Tb0  1  0.534735  0.069469  0.504588  1
  Tb  Tb1  1  0.930531  0.465265  0.504588  1
  Tb  Tb2  1  0.534735  0.465265  0.504588  1
  Tb  Tb3  1  0.465107  0.930215  0.003874  1
  Tb  Tb4  1  0.069785  0.534893  0.003874  1
  Tb  Tb5  1  0.465107  0.534893  0.003874  1
  Ho  Ho6  1  0.821986  0.643972  0.212343  1
  Ho  Ho7  1  0.356028  0.178014  0.212343  1
  Ho  Ho8  1  0.821986  0.178014  0.212343  1
  Ho  Ho9  1  0.666667  0.333333  0.896259  1
  Ho  Ho10  1  0.333333  0.666667  0.396937  1
  Ho  Ho11  1  0.000000  0.000000  0.494436  1
  Ho  Ho12  1  0.000000  0.000000  0.993341  1
  Er  Er13  1  0.178081  0.356161  0.712576  1
  Er  Er14  1  0.643839  0.821919  0.712576  1
  Er  Er15  1  0.178081  0.821919  0.712576  1
  In  In16  1  0.837559  0.675119  0.752363  1
  In  In17  1  0.324881  0.162441  0.752363  1
  In  In18  1  0.837559  0.162441  0.752363  1
  In  In19  1  0.162675  0.325350  0.252880  1
  In  In20  1  0.674650  0.837325  0.252880  1
  In  In21  1  0.162675  0.837325  0.252880  1
  Co  Co22  1  0.666667  0.333333  0.280727  1
  Co  Co23  1  0.333333  0.666667  0.780474  1
