# generated using pymatgen
data_Ti4Al2B4Ru3Rh7
_symmetry_space_group_name_H-M   'P 1'
_cell_length_a   2.97180000
_cell_length_b   9.28020295
_cell_length_c   9.22947500
_cell_angle_alpha   90.15955315
_cell_angle_beta   90.00000000
_cell_angle_gamma   90.00000000
_symmetry_Int_Tables_number   1
_chemical_formula_structural   Ti4Al2B4Ru3Rh7
_chemical_formula_sum   'Ti4 Al2 B4 Ru3 Rh7'
_cell_volume   254.53784670
_cell_formula_units_Z   1
loop_
 _symmetry_equiv_pos_site_id
 _symmetry_equiv_pos_as_xyz
  1  'x, y, z'
loop_
 _atom_site_type_symbol
 _atom_site_label
 _atom_site_symmetry_multiplicity
 _atom_site_fract_x
 _atom_site_fract_y
 _atom_site_fract_z
 _atom_site_occupancy
  Ti  Ti0  1  0.000000  0.829179  0.172015  1
  Ti  Ti1  1  0.000000  0.328234  0.321414  1
  Ti  Ti2  1  0.000000  0.671523  0.670981  1
  Ti  Ti3  1  0.000000  0.176074  0.835357  1
  Al  Al4  1  0.000000  0.498067  0.000242  1
  Al  Al5  1  0.000000  0.000193  0.500345  1
  B  B6  1  0.000000  0.127706  0.123180  1
  B  B7  1  0.000000  0.624412  0.375263  1
  B  B8  1  0.000000  0.375236  0.624208  1
  B  B9  1  0.000000  0.874996  0.875858  1
  Ru  Ru10  1  0.499999  0.997541  0.001294  1
  Ru  Ru11  1  0.499999  0.285652  0.074208  1
  Ru  Ru12  1  0.499999  0.498737  0.498216  1
  Rh  Rh13  1  0.499999  0.576071  0.212181  1
  Rh  Rh14  1  0.499999  0.071635  0.287869  1
  Rh  Rh15  1  0.499999  0.786314  0.427252  1
  Rh  Rh16  1  0.499999  0.212935  0.575036  1
  Rh  Rh17  1  0.499999  0.925995  0.713508  1
  Rh  Rh18  1  0.499999  0.427619  0.786036  1
  Rh  Rh19  1  0.499999  0.711885  0.925540  1
