# generated using pymatgen
data_Er8Re12Si15Ge
_symmetry_space_group_name_H-M   'P 1'
_cell_length_a   6.78464556
_cell_length_b   6.77795726
_cell_length_c   12.71619707
_cell_angle_alpha   90.16171319
_cell_angle_beta   89.77334237
_cell_angle_gamma   90.15114214
_symmetry_Int_Tables_number   1
_chemical_formula_structural   Er8Re12Si15Ge
_chemical_formula_sum   'Er8 Re12 Si15 Ge1'
_cell_volume   584.75859445
_cell_formula_units_Z   1
loop_
 _symmetry_equiv_pos_site_id
 _symmetry_equiv_pos_as_xyz
  1  'x, y, z'
loop_
 _atom_site_type_symbol
 _atom_site_label
 _atom_site_symmetry_multiplicity
 _atom_site_fract_x
 _atom_site_fract_y
 _atom_site_fract_z
 _atom_site_occupancy
  Er  Er0  1  0.006822  0.662749  0.030782  1
  Er  Er1  1  0.993036  0.338898  0.531246  1
  Er  Er2  1  0.339424  0.993693  0.469866  1
  Er  Er3  1  0.163286  0.492681  0.780809  1
  Er  Er4  1  0.836542  0.506346  0.279825  1
  Er  Er5  1  0.492572  0.163929  0.218918  1
  Er  Er6  1  0.508358  0.839394  0.719203  1
  Er  Er7  1  0.661758  0.007031  0.968784  1
  Re  Re8  1  0.660494  0.667029  0.501118  1
  Re  Re9  1  0.166615  0.836942  0.246380  1
  Re  Re10  1  0.334686  0.335110  0.000097  1
  Re  Re11  1  0.022993  0.809067  0.634414  1
  Re  Re12  1  0.979896  0.182977  0.128928  1
  Re  Re13  1  0.806693  0.027969  0.366828  1
  Re  Re14  1  0.318097  0.479590  0.377817  1
  Re  Re15  1  0.686607  0.522061  0.882345  1
  Re  Re16  1  0.480923  0.310150  0.620391  1
  Re  Re17  1  0.521083  0.683048  0.119185  1
  Re  Re18  1  0.182870  0.981024  0.871582  1
  Re  Re19  1  0.835797  0.165364  0.750673  1
  Si  Si20  1  0.613311  0.305649  0.434625  1
  Si  Si21  1  0.383909  0.695542  0.934731  1
  Si  Si22  1  0.195295  0.112967  0.684719  1
  Si  Si23  1  0.307777  0.611402  0.566897  1
  Si  Si24  1  0.695862  0.382948  0.065236  1
  Si  Si25  1  0.803393  0.883983  0.184027  1
  Si  Si26  1  0.114344  0.195205  0.315479  1
  Si  Si27  1  0.977664  0.277878  0.937197  1
  Si  Si28  1  0.731585  0.018467  0.561507  1
  Si  Si29  1  0.223088  0.477684  0.186444  1
  Si  Si30  1  0.773093  0.518989  0.689356  1
  Si  Si31  1  0.479992  0.226681  0.812986  1
  Si  Si32  1  0.520427  0.777399  0.311553  1
  Si  Si33  1  0.278285  0.977352  0.063254  1
  Si  Si34  1  0.884596  0.803574  0.816479  1
  Ge  Ge35  1  0.018827  0.729224  0.436319  1
