# generated using pymatgen
data_Er2GaSi2(PRh3)4
_symmetry_space_group_name_H-M   'P 1'
_cell_length_a   9.71986321
_cell_length_b   9.70729031
_cell_length_c   3.85502022
_cell_angle_alpha   90.05729176
_cell_angle_beta   90.08883547
_cell_angle_gamma   120.01269356
_symmetry_Int_Tables_number   1
_chemical_formula_structural   Er2GaSi2(PRh3)4
_chemical_formula_sum   'Er2 Ga1 Si2 P4 Rh12'
_cell_volume   314.96222081
_cell_formula_units_Z   1
loop_
 _symmetry_equiv_pos_site_id
 _symmetry_equiv_pos_as_xyz
  1  'x, y, z'
loop_
 _atom_site_type_symbol
 _atom_site_label
 _atom_site_symmetry_multiplicity
 _atom_site_fract_x
 _atom_site_fract_y
 _atom_site_fract_z
 _atom_site_occupancy
  Er  Er0  1  0.335709  0.667918  0.747445  1
  Er  Er1  1  0.666017  0.332947  0.248212  1
  Ga  Ga2  1  0.000769  0.001119  0.542376  1
  Si  Si3  1  0.401529  0.287619  0.746284  1
  Si  Si4  1  0.711284  0.114735  0.747472  1
  P  P5  1  0.882234  0.595453  0.749802  1
  P  P6  1  0.597673  0.712624  0.247897  1
  P  P7  1  0.288920  0.886611  0.247470  1
  P  P8  1  0.116917  0.404139  0.247065  1
  Rh  Rh9  1  0.444538  0.062009  0.747529  1
  Rh  Rh10  1  0.934225  0.387667  0.748741  1
  Rh  Rh11  1  0.619830  0.551423  0.749597  1
  Rh  Rh12  1  0.550811  0.934567  0.247757  1
  Rh  Rh13  1  0.069043  0.615894  0.247142  1
  Rh  Rh14  1  0.386339  0.450808  0.246684  1
  Rh  Rh15  1  0.152357  0.283376  0.746842  1
  Rh  Rh16  1  0.721596  0.873195  0.749504  1
  Rh  Rh17  1  0.121326  0.839390  0.747481  1
  Rh  Rh18  1  0.848366  0.724445  0.250412  1
  Rh  Rh19  1  0.270165  0.119972  0.246044  1
  Rh  Rh20  1  0.880351  0.154089  0.248243  1
