# generated using pymatgen
data_Rb4TbDy11Te20
_symmetry_space_group_name_H-M   'P 1'
_cell_length_a   4.41341200
_cell_length_b   13.26115154
_cell_length_c   23.62334797
_cell_angle_alpha   90.03287444
_cell_angle_beta   90.00000000
_cell_angle_gamma   90.00000000
_symmetry_Int_Tables_number   1
_chemical_formula_structural   Rb4TbDy11Te20
_chemical_formula_sum   'Rb4 Tb1 Dy11 Te20'
_cell_volume   1382.60169607
_cell_formula_units_Z   1
loop_
 _symmetry_equiv_pos_site_id
 _symmetry_equiv_pos_as_xyz
  1  'x, y, z'
loop_
 _atom_site_type_symbol
 _atom_site_label
 _atom_site_symmetry_multiplicity
 _atom_site_fract_x
 _atom_site_fract_y
 _atom_site_fract_z
 _atom_site_occupancy
  Rb  Rb0  1  0.250000  0.349272  0.092127  1
  Rb  Rb1  1  0.750000  0.650758  0.907916  1
  Rb  Rb2  1  0.750000  0.849274  0.407871  1
  Rb  Rb3  1  0.250000  0.150657  0.592091  1
  Tb  Tb4  1  0.250000  0.455471  0.698835  1
  Dy  Dy5  1  0.750000  0.544728  0.301244  1
  Dy  Dy6  1  0.750000  0.955277  0.801263  1
  Dy  Dy7  1  0.250000  0.044724  0.198748  1
  Dy  Dy8  1  0.250000  0.799040  0.673000  1
  Dy  Dy9  1  0.750000  0.201237  0.326954  1
  Dy  Dy10  1  0.750000  0.298609  0.827034  1
  Dy  Dy11  1  0.250000  0.701255  0.173037  1
  Dy  Dy12  1  0.250000  0.391390  0.444621  1
  Dy  Dy13  1  0.750000  0.608623  0.555112  1
  Dy  Dy14  1  0.750000  0.891442  0.055203  1
  Dy  Dy15  1  0.250000  0.108545  0.944808  1
  Te  Te16  1  0.250000  0.444059  0.569205  1
  Te  Te17  1  0.750000  0.555950  0.430441  1
  Te  Te18  1  0.750000  0.944055  0.930491  1
  Te  Te19  1  0.250000  0.055923  0.069515  1
  Te  Te20  1  0.250000  0.769733  0.544029  1
  Te  Te21  1  0.750000  0.230271  0.455921  1
  Te  Te22  1  0.750000  0.269675  0.955977  1
  Te  Te23  1  0.250000  0.730254  0.044071  1
  Te  Te24  1  0.250000  0.798970  0.802798  1
  Te  Te25  1  0.750000  0.201038  0.197203  1
  Te  Te26  1  0.750000  0.297976  0.697239  1
  Te  Te27  1  0.250000  0.701046  0.302807  1
  Te  Te28  1  0.250000  0.456805  0.829308  1
  Te  Te29  1  0.750000  0.543056  0.171261  1
  Te  Te30  1  0.750000  0.957074  0.671276  1
  Te  Te31  1  0.250000  0.043063  0.328730  1
  Te  Te32  1  0.250000  0.373221  0.313037  1
  Te  Te33  1  0.750000  0.627572  0.686795  1
  Te  Te34  1  0.750000  0.873233  0.186904  1
  Te  Te35  1  0.250000  0.126727  0.813125  1
