# generated using pymatgen
data_Ho3Hf(Si4Tc3)2
_symmetry_space_group_name_H-M   'P 1'
_cell_length_a   6.72894617
_cell_length_b   6.74210082
_cell_length_c   6.73015646
_cell_angle_alpha   69.70013739
_cell_angle_beta   89.87730718
_cell_angle_gamma   89.99022007
_symmetry_Int_Tables_number   1
_chemical_formula_structural   Ho3Hf(Si4Tc3)2
_chemical_formula_sum   'Ho3 Hf1 Si8 Tc6'
_cell_volume   286.36384044
_cell_formula_units_Z   1
loop_
 _symmetry_equiv_pos_site_id
 _symmetry_equiv_pos_as_xyz
  1  'x, y, z'
loop_
 _atom_site_type_symbol
 _atom_site_label
 _atom_site_symmetry_multiplicity
 _atom_site_fract_x
 _atom_site_fract_y
 _atom_site_fract_z
 _atom_site_occupancy
  Ho  Ho0  1  0.168220  0.059100  0.808659  1
  Ho  Ho1  1  0.333810  0.557124  0.811681  1
  Ho  Ho2  1  0.832099  0.943126  0.189632  1
  Hf  Hf3  1  0.671149  0.439674  0.198076  1
  Si  Si4  1  0.450430  0.129219  0.102280  1
  Si  Si5  1  0.944531  0.378597  0.900631  1
  Si  Si6  1  0.552068  0.871567  0.901303  1
  Si  Si7  1  0.048329  0.623247  0.101891  1
  Si  Si8  1  0.858413  0.134290  0.509280  1
  Si  Si9  1  0.362614  0.368629  0.485127  1
  Si  Si10  1  0.140921  0.867273  0.487517  1
  Si  Si11  1  0.640861  0.629456  0.511048  1
  Tc  Tc12  1  0.501436  0.004981  0.495982  1
  Tc  Tc13  1  0.994510  0.500126  0.495431  1
  Tc  Tc14  1  0.147111  0.242921  0.239446  1
  Tc  Tc15  1  0.649065  0.254082  0.761125  1
  Tc  Tc16  1  0.848450  0.757321  0.763479  1
  Tc  Tc17  1  0.355985  0.739267  0.237413  1
