# generated using pymatgen
data_Tc2MoAs7
_symmetry_space_group_name_H-M   'P 1'
_cell_length_a   7.65067542
_cell_length_b   7.65067551
_cell_length_c   7.64878475
_cell_angle_alpha   109.60607744
_cell_angle_beta   109.60608311
_cell_angle_gamma   109.21188782
_symmetry_Int_Tables_number   1
_chemical_formula_structural   Tc2MoAs7
_chemical_formula_sum   'Tc4 Mo2 As14'
_cell_volume   344.59525497
_cell_formula_units_Z   2
loop_
 _symmetry_equiv_pos_site_id
 _symmetry_equiv_pos_as_xyz
  1  'x, y, z'
loop_
 _atom_site_type_symbol
 _atom_site_label
 _atom_site_symmetry_multiplicity
 _atom_site_fract_x
 _atom_site_fract_y
 _atom_site_fract_z
 _atom_site_occupancy
  Tc  Tc0  1  0.000082  0.662022  0.662104  1
  Tc  Tc1  1  0.341358  0.341358  0.000329  1
  Tc  Tc2  1  0.658971  0.658971  0.000329  1
  Tc  Tc3  1  0.662022  0.000082  0.662104  1
  Mo  Mo4  1  0.341325  0.000198  0.341523  1
  Mo  Mo5  1  0.000198  0.341325  0.341523  1
  As  As6  1  0.749951  0.499530  0.249481  1
  As  As7  1  0.499530  0.749951  0.249481  1
  As  As8  1  0.499677  0.251336  0.751014  1
  As  As9  1  0.749516  0.249516  0.499031  1
  As  As10  1  0.249516  0.749516  0.499031  1
  As  As11  1  0.251336  0.499677  0.751014  1
  As  As12  1  0.998919  0.998919  0.329851  1
  As  As13  1  0.668310  0.998904  0.998891  1
  As  As14  1  0.998904  0.668310  0.998891  1
  As  As15  1  0.330933  0.330933  0.329851  1
  As  As16  1  0.999986  0.330581  0.998891  1
  As  As17  1  0.669030  0.669030  0.668885  1
  As  As18  1  0.330581  0.999986  0.998891  1
  As  As19  1  0.999854  0.999854  0.668885  1
