# generated using pymatgen
data_Ca4Bi4Sb2Rh7
_symmetry_space_group_name_H-M   'P 1'
_cell_length_a   7.76417686
_cell_length_b   7.75563138
_cell_length_c   7.75563019
_cell_angle_alpha   109.37041897
_cell_angle_beta   109.49927869
_cell_angle_gamma   109.49928221
_symmetry_Int_Tables_number   1
_chemical_formula_structural   Ca4Bi4Sb2Rh7
_chemical_formula_sum   'Ca4 Bi4 Sb2 Rh7'
_cell_volume   359.70500922
_cell_formula_units_Z   1
loop_
 _symmetry_equiv_pos_site_id
 _symmetry_equiv_pos_as_xyz
  1  'x, y, z'
loop_
 _atom_site_type_symbol
 _atom_site_label
 _atom_site_symmetry_multiplicity
 _atom_site_fract_x
 _atom_site_fract_y
 _atom_site_fract_z
 _atom_site_occupancy
  Ca  Ca0  1  0.477524  0.001928  0.001928  1
  Ca  Ca1  1  0.004047  0.502024  0.002024  1
  Ca  Ca2  1  0.004047  0.002024  0.502024  1
  Ca  Ca3  1  0.477524  0.475596  0.475596  1
  Bi  Bi4  1  0.989119  0.310099  0.310099  1
  Bi  Bi5  1  0.688685  0.994068  0.694617  1
  Bi  Bi6  1  0.688685  0.694617  0.994068  1
  Bi  Bi7  1  0.989119  0.679019  0.679019  1
  Sb  Sb8  1  0.325119  0.995758  0.329362  1
  Sb  Sb9  1  0.325119  0.329362  0.995758  1
  Rh  Rh10  1  0.044523  0.022262  0.022262  1
  Rh  Rh11  1  0.500877  0.750439  0.250439  1
  Rh  Rh12  1  0.744248  0.501722  0.242525  1
  Rh  Rh13  1  0.248120  0.748344  0.499776  1
  Rh  Rh14  1  0.248120  0.499776  0.748344  1
  Rh  Rh15  1  0.500877  0.250439  0.750439  1
  Rh  Rh16  1  0.744248  0.242525  0.501722  1
