# generated using pymatgen
data_Y3AlGa4Ni
_symmetry_space_group_name_H-M   'P 1'
_cell_length_a   6.86595000
_cell_length_b   6.92337814
_cell_length_c   4.24975800
_cell_angle_alpha   90.00000000
_cell_angle_beta   90.00000000
_cell_angle_gamma   119.72598699
_symmetry_Int_Tables_number   1
_chemical_formula_structural   Y3AlGa4Ni
_chemical_formula_sum   'Y3 Al1 Ga4 Ni1'
_cell_volume   175.43088617
_cell_formula_units_Z   1
loop_
 _symmetry_equiv_pos_site_id
 _symmetry_equiv_pos_as_xyz
  1  'x, y, z'
loop_
 _atom_site_type_symbol
 _atom_site_label
 _atom_site_symmetry_multiplicity
 _atom_site_fract_x
 _atom_site_fract_y
 _atom_site_fract_z
 _atom_site_occupancy
  Y  Y0  1  0.595329  0.000000  0.000000  1
  Y  Y1  1  0.998806  0.592829  0.000000  1
  Y  Y2  1  0.405979  0.407171  0.000000  1
  Al  Al3  1  0.228405  0.000000  0.500000  1
  Ga  Ga4  1  0.003099  0.237740  0.500000  1
  Ga  Ga5  1  0.765358  0.762260  0.500000  1
  Ga  Ga6  1  0.333615  0.670060  0.500000  1
  Ga  Ga7  1  0.663556  0.329940  0.500000  1
  Ni  Ni8  1  0.005853  0.000000  0.000000  1
