# generated using pymatgen
data_YbSm2Ga9Pd2
_symmetry_space_group_name_H-M   'P 1'
_cell_length_a   8.23182650
_cell_length_b   8.23182630
_cell_length_c   8.23182562
_cell_angle_alpha   149.22720790
_cell_angle_beta   109.51589875
_cell_angle_gamma   78.85624334
_symmetry_Int_Tables_number   1
_chemical_formula_structural   YbSm2Ga9Pd2
_chemical_formula_sum   'Yb1 Sm2 Ga9 Pd2'
_cell_volume   263.86679875
_cell_formula_units_Z   1
loop_
 _symmetry_equiv_pos_site_id
 _symmetry_equiv_pos_as_xyz
  1  'x, y, z'
loop_
 _atom_site_type_symbol
 _atom_site_label
 _atom_site_symmetry_multiplicity
 _atom_site_fract_x
 _atom_site_fract_y
 _atom_site_fract_z
 _atom_site_occupancy
  Yb  Yb0  1  0.800865  0.800865  0.000000  1
  Sm  Sm1  1  0.500966  0.500966  0.000000  1
  Sm  Sm2  1  0.200625  0.200625  0.000000  1
  Ga  Ga3  1  0.076686  0.360196  0.716489  1
  Ga  Ga4  1  0.918918  0.637383  0.281535  1
  Ga  Ga5  1  0.643708  0.360196  0.283511  1
  Ga  Ga6  1  0.355847  0.637383  0.718465  1
  Ga  Ga7  1  0.794819  0.158813  0.636006  1
  Ga  Ga8  1  0.210388  0.844839  0.365549  1
  Ga  Ga9  1  0.522806  0.158813  0.363994  1
  Ga  Ga10  1  0.479291  0.844839  0.634451  1
  Ga  Ga11  1  0.999388  0.499388  0.500000  1
  Pd  Pd12  1  0.814204  0.997847  0.816358  1
  Pd  Pd13  1  0.181489  0.997847  0.183642  1
