# generated using pymatgen
data_DyY19Sn16
_symmetry_space_group_name_H-M   'P 1'
_cell_length_a   8.05211809
_cell_length_b   8.19647383
_cell_length_c   15.50211300
_cell_angle_alpha   90.00588583
_cell_angle_beta   90.00855297
_cell_angle_gamma   90.02516419
_symmetry_Int_Tables_number   1
_chemical_formula_structural   DyY19Sn16
_chemical_formula_sum   'Dy1 Y19 Sn16'
_cell_volume   1023.12345641
_cell_formula_units_Z   1
loop_
 _symmetry_equiv_pos_site_id
 _symmetry_equiv_pos_as_xyz
  1  'x, y, z'
loop_
 _atom_site_type_symbol
 _atom_site_label
 _atom_site_symmetry_multiplicity
 _atom_site_fract_x
 _atom_site_fract_y
 _atom_site_fract_z
 _atom_site_occupancy
  Dy  Dy0  1  0.367546  0.836364  0.877865  1
  Y  Y1  1  0.867368  0.663652  0.622077  1
  Y  Y2  1  0.632624  0.163550  0.378012  1
  Y  Y3  1  0.132751  0.336365  0.121799  1
  Y  Y4  1  0.632611  0.163483  0.121982  1
  Y  Y5  1  0.132596  0.336412  0.378004  1
  Y  Y6  1  0.367389  0.836478  0.621963  1
  Y  Y7  1  0.867339  0.663501  0.878059  1
  Y  Y8  1  0.522157  0.321029  0.902118  1
  Y  Y9  1  0.022231  0.178953  0.597917  1
  Y  Y10  1  0.477847  0.679010  0.402125  1
  Y  Y11  1  0.977693  0.820963  0.097881  1
  Y  Y12  1  0.477843  0.679147  0.097737  1
  Y  Y13  1  0.977876  0.820992  0.402124  1
  Y  Y14  1  0.522072  0.320946  0.597940  1
  Y  Y15  1  0.022202  0.178907  0.902074  1
  Y  Y16  1  0.199009  0.502305  0.750012  1
  Y  Y17  1  0.699050  0.997505  0.750074  1
  Y  Y18  1  0.801013  0.497621  0.250026  1
  Y  Y19  1  0.301009  0.002403  0.249956  1
  Sn  Sn20  1  0.292215  0.034694  0.041645  1
  Sn  Sn21  1  0.792261  0.465132  0.458117  1
  Sn  Sn22  1  0.707771  0.965091  0.541856  1
  Sn  Sn23  1  0.207906  0.535641  0.958102  1
  Sn  Sn24  1  0.707118  0.964752  0.958121  1
  Sn  Sn25  1  0.207757  0.534913  0.541888  1
  Sn  Sn26  1  0.292228  0.034933  0.458178  1
  Sn  Sn27  1  0.792233  0.465146  0.041886  1
  Sn  Sn28  1  0.565252  0.619165  0.750238  1
  Sn  Sn29  1  0.065324  0.880963  0.750193  1
  Sn  Sn30  1  0.434772  0.381051  0.250008  1
  Sn  Sn31  1  0.934756  0.118913  0.249976  1
  Sn  Sn32  1  0.330433  0.147002  0.750089  1
  Sn  Sn33  1  0.830458  0.353076  0.749963  1
  Sn  Sn34  1  0.669626  0.853001  0.249997  1
  Sn  Sn35  1  0.169664  0.646942  0.249999  1
