# generated using pymatgen
data_ScPaCdNi2
_symmetry_space_group_name_H-M   'P 1'
_cell_length_a   7.49770500
_cell_length_b   7.26623800
_cell_length_c   3.41148600
_cell_angle_alpha   90.00000000
_cell_angle_beta   90.00000000
_cell_angle_gamma   90.00000000
_symmetry_Int_Tables_number   1
_chemical_formula_structural   ScPaCdNi2
_chemical_formula_sum   'Sc2 Pa2 Cd2 Ni4'
_cell_volume   185.85812908
_cell_formula_units_Z   2
loop_
 _symmetry_equiv_pos_site_id
 _symmetry_equiv_pos_as_xyz
  1  'x, y, z'
loop_
 _atom_site_type_symbol
 _atom_site_label
 _atom_site_symmetry_multiplicity
 _atom_site_fract_x
 _atom_site_fract_y
 _atom_site_fract_z
 _atom_site_occupancy
  Sc  Sc0  1  0.828198  0.669723  0.500000  1
  Sc  Sc1  1  0.328198  0.830277  0.500000  1
  Pa  Pa2  1  0.670807  0.163839  0.500000  1
  Pa  Pa3  1  0.170807  0.336161  0.500000  1
  Cd  Cd4  1  0.006367  0.979487  0.000000  1
  Cd  Cd5  1  0.506367  0.520513  0.000000  1
  Ni  Ni6  1  0.871960  0.361269  0.000000  1
  Ni  Ni7  1  0.371960  0.138731  0.000000  1
  Ni  Ni8  1  0.622668  0.889941  0.000000  1
  Ni  Ni9  1  0.122668  0.610059  0.000000  1
