# generated using pymatgen
data_Ti20Si15S
_symmetry_space_group_name_H-M   'P 1'
_cell_length_a   6.69577399
_cell_length_b   6.69571136
_cell_length_c   12.18045523
_cell_angle_alpha   89.85122656
_cell_angle_beta   90.40232508
_cell_angle_gamma   90.10351908
_symmetry_Int_Tables_number   1
_chemical_formula_structural   Ti20Si15S
_chemical_formula_sum   'Ti20 Si15 S1'
_cell_volume   546.06980660
_cell_formula_units_Z   1
loop_
 _symmetry_equiv_pos_site_id
 _symmetry_equiv_pos_as_xyz
  1  'x, y, z'
loop_
 _atom_site_type_symbol
 _atom_site_label
 _atom_site_symmetry_multiplicity
 _atom_site_fract_x
 _atom_site_fract_y
 _atom_site_fract_z
 _atom_site_occupancy
  Ti  Ti0  1  0.999580  0.151002  0.627962  1
  Ti  Ti1  1  0.340438  0.490975  0.868147  1
  Ti  Ti2  1  0.650770  0.503385  0.371739  1
  Ti  Ti3  1  0.495775  0.350501  0.127917  1
  Ti  Ti4  1  0.506220  0.652289  0.629353  1
  Ti  Ti5  1  0.004521  0.850042  0.121014  1
  Ti  Ti6  1  0.149840  0.996093  0.377880  1
  Ti  Ti7  1  0.852393  0.009286  0.877225  1
  Ti  Ti8  1  0.002307  0.345958  0.218121  1
  Ti  Ti9  1  0.154926  0.502260  0.469114  1
  Ti  Ti10  1  0.842539  0.497495  0.969211  1
  Ti  Ti11  1  0.506509  0.150989  0.530084  1
  Ti  Ti12  1  0.496422  0.844681  0.031610  1
  Ti  Ti13  1  0.997787  0.652100  0.720793  1
  Ti  Ti14  1  0.347771  0.999633  0.779151  1
  Ti  Ti15  1  0.655593  0.997740  0.282658  1
  Ti  Ti16  1  0.168484  0.173240  0.997244  1
  Ti  Ti17  1  0.329077  0.671152  0.249697  1
  Ti  Ti18  1  0.672361  0.329324  0.751270  1
  Ti  Ti19  1  0.829965  0.829052  0.500456  1
  Si  Si20  1  0.199220  0.545317  0.062882  1
  Si  Si21  1  0.801039  0.455273  0.563672  1
  Si  Si22  1  0.542873  0.198811  0.936756  1
  Si  Si23  1  0.454791  0.799475  0.436430  1
  Si  Si24  1  0.956007  0.699144  0.313510  1
  Si  Si25  1  0.300444  0.044909  0.185906  1
  Si  Si26  1  0.701263  0.954888  0.686604  1
  Si  Si27  1  0.305418  0.356959  0.664743  1
  Si  Si28  1  0.142678  0.795793  0.922888  1
  Si  Si29  1  0.859881  0.205049  0.425079  1
  Si  Si30  1  0.793745  0.141768  0.077294  1
  Si  Si31  1  0.203995  0.857390  0.577277  1
  Si  Si32  1  0.704966  0.643181  0.173126  1
  Si  Si33  1  0.357203  0.295199  0.326813  1
  Si  Si34  1  0.638200  0.706776  0.829355  1
  S  S35  1  0.035000  0.302871  0.817017  1
