# generated using pymatgen
data_Hf3Re2SiMoP2
_symmetry_space_group_name_H-M   'P 1'
_cell_length_a   6.87133893
_cell_length_b   6.87134009
_cell_length_c   3.44179000
_cell_angle_alpha   90.00000000
_cell_angle_beta   90.00000000
_cell_angle_gamma   119.77772200
_symmetry_Int_Tables_number   1
_chemical_formula_structural   Hf3Re2SiMoP2
_chemical_formula_sum   'Hf3 Re2 Si1 Mo1 P2'
_cell_volume   141.04776399
_cell_formula_units_Z   1
loop_
 _symmetry_equiv_pos_site_id
 _symmetry_equiv_pos_as_xyz
  1  'x, y, z'
loop_
 _atom_site_type_symbol
 _atom_site_label
 _atom_site_symmetry_multiplicity
 _atom_site_fract_x
 _atom_site_fract_y
 _atom_site_fract_z
 _atom_site_occupancy
  Hf  Hf0  1  0.405813  0.405813  0.500000  1
  Hf  Hf1  1  0.594694  0.999498  0.500000  1
  Hf  Hf2  1  0.999498  0.594694  0.500000  1
  Re  Re3  1  0.255880  0.000287  0.000000  1
  Re  Re4  1  0.000287  0.255880  0.000000  1
  Si  Si5  1  0.999572  0.999572  0.500000  1
  Mo  Mo6  1  0.744525  0.744525  0.000000  1
  P  P7  1  0.666618  0.333113  0.000000  1
  P  P8  1  0.333113  0.666618  0.000000  1
