# generated using pymatgen
data_SmPaCdPt2
_symmetry_space_group_name_H-M   'P 1'
_cell_length_a   7.87433400
_cell_length_b   7.93158300
_cell_length_c   3.67747400
_cell_angle_alpha   90.00000000
_cell_angle_beta   90.00000000
_cell_angle_gamma   90.00000000
_symmetry_Int_Tables_number   1
_chemical_formula_structural   SmPaCdPt2
_chemical_formula_sum   'Sm2 Pa2 Cd2 Pt4'
_cell_volume   229.68007229
_cell_formula_units_Z   2
loop_
 _symmetry_equiv_pos_site_id
 _symmetry_equiv_pos_as_xyz
  1  'x, y, z'
loop_
 _atom_site_type_symbol
 _atom_site_label
 _atom_site_symmetry_multiplicity
 _atom_site_fract_x
 _atom_site_fract_y
 _atom_site_fract_z
 _atom_site_occupancy
  Sm  Sm0  1  0.828743  0.672338  0.500000  1
  Sm  Sm1  1  0.671257  0.172338  0.500000  1
  Pa  Pa2  1  0.166887  0.331043  0.500000  1
  Pa  Pa3  1  0.333113  0.831043  0.500000  1
  Cd  Cd4  1  0.503754  0.495568  0.000000  1
  Cd  Cd5  1  0.996246  0.995568  0.000000  1
  Pt  Pt6  1  0.608333  0.869281  0.000000  1
  Pt  Pt7  1  0.151511  0.631771  0.000000  1
  Pt  Pt8  1  0.891667  0.369281  0.000000  1
  Pt  Pt9  1  0.348489  0.131771  0.000000  1
