# generated using pymatgen
data_Ce3NdIn2IrAu3
_symmetry_space_group_name_H-M   'P 1'
_cell_length_a   8.09607255
_cell_length_b   8.09607136
_cell_length_c   3.79826200
_cell_angle_alpha   90.00000000
_cell_angle_beta   90.00000000
_cell_angle_gamma   89.90387319
_symmetry_Int_Tables_number   1
_chemical_formula_structural   Ce3NdIn2IrAu3
_chemical_formula_sum   'Ce3 Nd1 In2 Ir1 Au3'
_cell_volume   248.96197833
_cell_formula_units_Z   1
loop_
 _symmetry_equiv_pos_site_id
 _symmetry_equiv_pos_as_xyz
  1  'x, y, z'
loop_
 _atom_site_type_symbol
 _atom_site_label
 _atom_site_symmetry_multiplicity
 _atom_site_fract_x
 _atom_site_fract_y
 _atom_site_fract_z
 _atom_site_occupancy
  Ce  Ce0  1  0.311609  0.811609  0.500000  1
  Ce  Ce1  1  0.177870  0.346275  0.500000  1
  Ce  Ce2  1  0.846275  0.677870  0.500000  1
  Nd  Nd3  1  0.670557  0.170557  0.500000  1
  In  In4  1  0.003657  0.998541  0.000000  1
  In  In5  1  0.498541  0.503657  0.000000  1
  Ir  Ir6  1  0.130751  0.630751  0.000000  1
  Au  Au7  1  0.874188  0.374188  0.000000  1
  Au  Au8  1  0.622095  0.864457  0.000000  1
  Au  Au9  1  0.364457  0.122095  0.000000  1
