# generated using pymatgen
data_Sr10ZrRe3N14
_symmetry_space_group_name_H-M   'P 1'
_cell_length_a   6.52567028
_cell_length_b   9.41193169
_cell_length_c   9.44673830
_cell_angle_alpha   115.16674484
_cell_angle_beta   97.17803108
_cell_angle_gamma   89.51969772
_symmetry_Int_Tables_number   1
_chemical_formula_structural   Sr10ZrRe3N14
_chemical_formula_sum   'Sr10 Zr1 Re3 N14'
_cell_volume   520.37057767
_cell_formula_units_Z   1
loop_
 _symmetry_equiv_pos_site_id
 _symmetry_equiv_pos_as_xyz
  1  'x, y, z'
loop_
 _atom_site_type_symbol
 _atom_site_label
 _atom_site_symmetry_multiplicity
 _atom_site_fract_x
 _atom_site_fract_y
 _atom_site_fract_z
 _atom_site_occupancy
  Sr  Sr0  1  0.848780  0.590270  0.324449  1
  Sr  Sr1  1  0.256138  0.990083  0.555263  1
  Sr  Sr2  1  0.700920  0.413735  0.851702  1
  Sr  Sr3  1  0.295823  0.583096  0.146691  1
  Sr  Sr4  1  0.403748  0.791964  0.917521  1
  Sr  Sr5  1  0.595982  0.209137  0.083749  1
  Sr  Sr6  1  0.157407  0.401678  0.663979  1
  Sr  Sr7  1  0.887867  0.842931  0.759592  1
  Sr  Sr8  1  0.110799  0.147306  0.245124  1
  Sr  Sr9  1  0.735194  0.021059  0.444972  1
  Zr  Zr10  1  0.588291  0.359080  0.476630  1
  Re  Re11  1  0.419979  0.655277  0.526476  1
  Re  Re12  1  0.120173  0.215711  0.916248  1
  Re  Re13  1  0.874260  0.779051  0.082740  1
  N  N14  1  0.534746  0.569526  0.680917  1
  N  N15  1  0.473095  0.464433  0.324670  1
  N  N16  1  0.154930  0.710186  0.557834  1
  N  N17  1  0.878191  0.282930  0.442368  1
  N  N18  1  0.405168  0.178140  0.468676  1
  N  N19  1  0.585976  0.816311  0.536360  1
  N  N20  1  0.952373  0.136102  0.724783  1
  N  N21  1  0.034865  0.849238  0.276952  1
  N  N22  1  0.225060  0.053962  0.961225  1
  N  N23  1  0.771522  0.943446  0.040335  1
  N  N24  1  0.348320  0.324723  0.904673  1
  N  N25  1  0.971638  0.349021  0.072755  1
  N  N26  1  0.024262  0.653726  0.923440  1
  N  N27  1  0.644491  0.667879  0.089877  1
