# generated using pymatgen
data_Ho10In8CuPdRh2
_symmetry_space_group_name_H-M   'P 1'
_cell_length_a   3.61732900
_cell_length_b   8.07953700
_cell_length_c   18.19520647
_cell_angle_alpha   89.97649504
_cell_angle_beta   90.00000000
_cell_angle_gamma   90.00000000
_symmetry_Int_Tables_number   1
_chemical_formula_structural   Ho10In8CuPdRh2
_chemical_formula_sum   'Ho10 In8 Cu1 Pd1 Rh2'
_cell_volume   531.77930960
_cell_formula_units_Z   1
loop_
 _symmetry_equiv_pos_site_id
 _symmetry_equiv_pos_as_xyz
  1  'x, y, z'
loop_
 _atom_site_type_symbol
 _atom_site_label
 _atom_site_symmetry_multiplicity
 _atom_site_fract_x
 _atom_site_fract_y
 _atom_site_fract_z
 _atom_site_occupancy
  Ho  Ho0  1  0.000000  0.499068  0.500649  1
  Ho  Ho1  1  0.000000  0.000431  0.999409  1
  Ho  Ho2  1  0.000000  0.733128  0.277949  1
  Ho  Ho3  1  0.000000  0.271694  0.720882  1
  Ho  Ho4  1  0.000000  0.744094  0.779964  1
  Ho  Ho5  1  0.000000  0.253998  0.220169  1
  Ho  Ho6  1  0.000000  0.616511  0.086449  1
  Ho  Ho7  1  0.000000  0.384800  0.913136  1
  Ho  Ho8  1  0.000000  0.881403  0.584631  1
  Ho  Ho9  1  0.000000  0.115509  0.416558  1
  In  In10  1  0.500000  0.708881  0.931707  1
  In  In11  1  0.500000  0.292243  0.068038  1
  In  In12  1  0.500000  0.789177  0.432838  1
  In  In13  1  0.500000  0.205658  0.568945  1
  In  In14  1  0.500000  0.577402  0.648975  1
  In  In15  1  0.500000  0.425007  0.351644  1
  In  In16  1  0.500000  0.925005  0.149537  1
  In  In17  1  0.500000  0.077356  0.847414  1
  Cu  Cu18  1  0.500000  0.978176  0.698031  1
  Pd  Pd19  1  0.500000  0.021245  0.303681  1
  Rh  Rh20  1  0.500000  0.522516  0.195378  1
  Rh  Rh21  1  0.500000  0.476696  0.804016  1
