# generated using pymatgen
data_NdPaTlRh2
_symmetry_space_group_name_H-M   'P 1'
_cell_length_a   7.80321000
_cell_length_b   7.80891500
_cell_length_c   3.66481400
_cell_angle_alpha   90.00000000
_cell_angle_beta   90.00000000
_cell_angle_gamma   90.00000000
_symmetry_Int_Tables_number   1
_chemical_formula_structural   NdPaTlRh2
_chemical_formula_sum   'Nd2 Pa2 Tl2 Rh4'
_cell_volume   223.31398842
_cell_formula_units_Z   2
loop_
 _symmetry_equiv_pos_site_id
 _symmetry_equiv_pos_as_xyz
  1  'x, y, z'
loop_
 _atom_site_type_symbol
 _atom_site_label
 _atom_site_symmetry_multiplicity
 _atom_site_fract_x
 _atom_site_fract_y
 _atom_site_fract_z
 _atom_site_occupancy
  Nd  Nd0  1  0.670624  0.171626  0.500000  1
  Nd  Nd1  1  0.170624  0.328374  0.500000  1
  Pa  Pa2  1  0.823299  0.667235  0.500000  1
  Pa  Pa3  1  0.323299  0.832765  0.500000  1
  Tl  Tl4  1  0.991631  0.005584  0.000000  1
  Tl  Tl5  1  0.491631  0.494416  0.000000  1
  Rh  Rh6  1  0.868447  0.417854  0.000000  1
  Rh  Rh7  1  0.368447  0.082146  0.000000  1
  Rh  Rh8  1  0.645999  0.844248  0.000000  1
  Rh  Rh9  1  0.145999  0.655752  0.000000  1
