# generated using pymatgen
data_Sr12Eu7ThPt16
_symmetry_space_group_name_H-M   'P 1'
_cell_length_a   8.00336328
_cell_length_b   8.08140411
_cell_length_c   15.43044700
_cell_angle_alpha   90.09900952
_cell_angle_beta   90.01508393
_cell_angle_gamma   89.95919323
_symmetry_Int_Tables_number   1
_chemical_formula_structural   Sr12Eu7ThPt16
_chemical_formula_sum   'Sr12 Eu7 Th1 Pt16'
_cell_volume   998.01504493
_cell_formula_units_Z   1
loop_
 _symmetry_equiv_pos_site_id
 _symmetry_equiv_pos_as_xyz
  1  'x, y, z'
loop_
 _atom_site_type_symbol
 _atom_site_label
 _atom_site_symmetry_multiplicity
 _atom_site_fract_x
 _atom_site_fract_y
 _atom_site_fract_z
 _atom_site_occupancy
  Sr  Sr0  1  0.497204  0.323918  0.904915  1
  Sr  Sr1  1  0.994070  0.180148  0.592264  1
  Sr  Sr2  1  0.504871  0.678578  0.404466  1
  Sr  Sr3  1  0.003902  0.820222  0.096648  1
  Sr  Sr4  1  0.505415  0.675739  0.097138  1
  Sr  Sr5  1  0.005026  0.820944  0.404519  1
  Sr  Sr6  1  0.496862  0.320566  0.593467  1
  Sr  Sr7  1  0.993364  0.180519  0.906028  1
  Sr  Sr8  1  0.175421  0.484172  0.748073  1
  Sr  Sr9  1  0.684453  0.013248  0.747791  1
  Sr  Sr10  1  0.822644  0.509675  0.250402  1
  Sr  Sr11  1  0.322317  0.989478  0.250300  1
  Eu  Eu12  1  0.837624  0.666801  0.621349  1
  Eu  Eu13  1  0.662114  0.168091  0.377964  1
  Eu  Eu14  1  0.161023  0.333144  0.120562  1
  Eu  Eu15  1  0.661666  0.167060  0.120520  1
  Eu  Eu16  1  0.162446  0.331343  0.378156  1
  Eu  Eu17  1  0.337317  0.831490  0.621157  1
  Eu  Eu18  1  0.839438  0.667069  0.880183  1
  Th  Th19  1  0.338894  0.835479  0.878126  1
  Pt  Pt20  1  0.323092  0.031644  0.032580  1
  Pt  Pt21  1  0.835148  0.461423  0.460540  1
  Pt  Pt22  1  0.664798  0.962481  0.539903  1
  Pt  Pt23  1  0.178116  0.556147  0.958855  1
  Pt  Pt24  1  0.650838  0.956360  0.956180  1
  Pt  Pt25  1  0.164481  0.535727  0.540188  1
  Pt  Pt26  1  0.335686  0.037726  0.460673  1
  Pt  Pt27  1  0.839609  0.460638  0.039147  1
  Pt  Pt28  1  0.539584  0.632653  0.758446  1
  Pt  Pt29  1  0.055635  0.870182  0.756080  1
  Pt  Pt30  1  0.451543  0.374910  0.248150  1
  Pt  Pt31  1  0.952037  0.123044  0.248985  1
  Pt  Pt32  1  0.301023  0.113472  0.757197  1
  Pt  Pt33  1  0.786146  0.386213  0.750013  1
  Pt  Pt34  1  0.707924  0.880248  0.249151  1
  Pt  Pt35  1  0.208270  0.619449  0.249884  1
