# generated using pymatgen
data_Ho2BeRu2
_symmetry_space_group_name_H-M   'P 1'
_cell_length_a   5.51797997
_cell_length_b   5.51797957
_cell_length_c   5.51797884
_cell_angle_alpha   143.57786679
_cell_angle_beta   111.61972632
_cell_angle_gamma   80.03138035
_symmetry_Int_Tables_number   1
_chemical_formula_structural   Ho2BeRu2
_chemical_formula_sum   'Ho2 Be1 Ru2'
_cell_volume   90.39006089
_cell_formula_units_Z   1
loop_
 _symmetry_equiv_pos_site_id
 _symmetry_equiv_pos_as_xyz
  1  'x, y, z'
loop_
 _atom_site_type_symbol
 _atom_site_label
 _atom_site_symmetry_multiplicity
 _atom_site_fract_x
 _atom_site_fract_y
 _atom_site_fract_z
 _atom_site_occupancy
  Ho  Ho0  1  0.703058  0.203058  0.500000  1
  Ho  Ho1  1  0.296942  0.796942  0.500000  1
  Be  Be2  1  0.000000  0.000000  0.000000  1
  Ru  Ru3  1  0.755433  0.500001  0.255435  1
  Ru  Ru4  1  0.244567  0.499999  0.744565  1
