# generated using pymatgen
data_Ca3DyU4Re(B8Ru)3
_symmetry_space_group_name_H-M   'P 1'
_cell_length_a   3.61415700
_cell_length_b   9.30640405
_cell_length_c   11.44242784
_cell_angle_alpha   89.97340444
_cell_angle_beta   90.00000000
_cell_angle_gamma   90.00000000
_symmetry_Int_Tables_number   1
_chemical_formula_structural   Ca3DyU4Re(B8Ru)3
_chemical_formula_sum   'Ca3 Dy1 U4 Re1 B24 Ru3'
_cell_volume   384.86379152
_cell_formula_units_Z   1
loop_
 _symmetry_equiv_pos_site_id
 _symmetry_equiv_pos_as_xyz
  1  'x, y, z'
loop_
 _atom_site_type_symbol
 _atom_site_label
 _atom_site_symmetry_multiplicity
 _atom_site_fract_x
 _atom_site_fract_y
 _atom_site_fract_z
 _atom_site_occupancy
  Ca  Ca0  1  0.000000  0.338690  0.409095  1
  Ca  Ca1  1  0.000000  0.661593  0.592042  1
  Ca  Ca2  1  0.000000  0.838344  0.091323  1
  Dy  Dy3  1  0.000000  0.161571  0.907466  1
  U  U4  1  0.000000  0.957002  0.397317  1
  U  U5  1  0.000000  0.040376  0.602093  1
  U  U6  1  0.000000  0.457606  0.102540  1
  U  U7  1  0.000000  0.545448  0.898494  1
  Re  Re8  1  0.000000  0.855090  0.818006  1
  B  B9  1  0.500000  0.552887  0.430489  1
  B  B10  1  0.500000  0.446580  0.570470  1
  B  B11  1  0.500000  0.052866  0.069457  1
  B  B12  1  0.500000  0.947991  0.930711  1
  B  B13  1  0.500000  0.742596  0.421773  1
  B  B14  1  0.500000  0.256850  0.577967  1
  B  B15  1  0.500000  0.242790  0.077436  1
  B  B16  1  0.500000  0.756862  0.922515  1
  B  B17  1  0.500000  0.801396  0.274490  1
  B  B18  1  0.500000  0.197874  0.725076  1
  B  B19  1  0.500000  0.301605  0.225330  1
  B  B20  1  0.500000  0.698415  0.775228  1
  B  B21  1  0.500000  0.643878  0.189406  1
  B  B22  1  0.500000  0.354914  0.811495  1
  B  B23  1  0.500000  0.144208  0.310607  1
  B  B24  1  0.500000  0.856529  0.688628  1
  B  B25  1  0.500000  0.990845  0.218635  1
  B  B26  1  0.500000  0.011194  0.780291  1
  B  B27  1  0.500000  0.490535  0.281590  1
  B  B28  1  0.500000  0.508809  0.719688  1
  B  B29  1  0.500000  0.639236  0.039233  1
  B  B30  1  0.500000  0.358899  0.960999  1
  B  B31  1  0.500000  0.140021  0.461011  1
  B  B32  1  0.500000  0.860695  0.537616  1
  Ru  Ru33  1  0.000000  0.646022  0.317945  1
  Ru  Ru34  1  0.000000  0.353039  0.683208  1
  Ru  Ru35  1  0.000000  0.146745  0.180334  1
