# generated using pymatgen
data_MoS2Br3
_symmetry_space_group_name_H-M   'P 1'
_cell_length_a   8.05775200
_cell_length_b   6.46236397
_cell_length_c   15.12017395
_cell_angle_alpha   65.61391423
_cell_angle_beta   90.00000000
_cell_angle_gamma   90.00000000
_symmetry_Int_Tables_number   1
_chemical_formula_structural   MoS2Br3
_chemical_formula_sum   'Mo4 S8 Br12'
_cell_volume   717.09628108
_cell_formula_units_Z   4
loop_
 _symmetry_equiv_pos_site_id
 _symmetry_equiv_pos_as_xyz
  1  'x, y, z'
loop_
 _atom_site_type_symbol
 _atom_site_label
 _atom_site_symmetry_multiplicity
 _atom_site_fract_x
 _atom_site_fract_y
 _atom_site_fract_z
 _atom_site_occupancy
  Mo  Mo0  1  0.589087  0.693625  0.996032  1
  Mo  Mo1  1  0.089087  0.306375  0.503968  1
  Mo  Mo2  1  0.410913  0.306375  0.003968  1
  Mo  Mo3  1  0.910913  0.693625  0.496032  1
  S  S4  1  0.707631  0.318894  0.045484  1
  S  S5  1  0.292369  0.681106  0.954516  1
  S  S6  1  0.792369  0.318894  0.545484  1
  S  S7  1  0.207631  0.681106  0.454516  1
  S  S8  1  0.044694  0.658393  0.358549  1
  S  S9  1  0.544694  0.341607  0.141451  1
  S  S10  1  0.955306  0.341607  0.641451  1
  S  S11  1  0.455306  0.658393  0.858549  1
  Br  Br12  1  0.678964  0.757007  0.361891  1
  Br  Br13  1  0.821036  0.757007  0.861891  1
  Br  Br14  1  0.178964  0.242993  0.138109  1
  Br  Br15  1  0.321036  0.242993  0.638109  1
  Br  Br16  1  0.921960  0.145282  0.388103  1
  Br  Br17  1  0.421960  0.854718  0.111897  1
  Br  Br18  1  0.078040  0.854718  0.611897  1
  Br  Br19  1  0.578040  0.145282  0.888103  1
  Br  Br20  1  0.665214  0.766466  0.585999  1
  Br  Br21  1  0.165214  0.233534  0.914001  1
  Br  Br22  1  0.334786  0.233534  0.414001  1
  Br  Br23  1  0.834786  0.766466  0.085999  1
