# generated using pymatgen
data_Dy3In2Pd3Pb
_symmetry_space_group_name_H-M   'P 1'
_cell_length_a   7.87496800
_cell_length_b   7.87496709
_cell_length_c   3.74820300
_cell_angle_alpha   90.00000000
_cell_angle_beta   90.00000000
_cell_angle_gamma   119.58236289
_symmetry_Int_Tables_number   1
_chemical_formula_structural   Dy3In2Pd3Pb
_chemical_formula_sum   'Dy3 In2 Pd3 Pb1'
_cell_volume   202.14528701
_cell_formula_units_Z   1
loop_
 _symmetry_equiv_pos_site_id
 _symmetry_equiv_pos_as_xyz
  1  'x, y, z'
loop_
 _atom_site_type_symbol
 _atom_site_label
 _atom_site_symmetry_multiplicity
 _atom_site_fract_x
 _atom_site_fract_y
 _atom_site_fract_z
 _atom_site_occupancy
  Dy  Dy0  1  0.404081  0.994165  0.500000  1
  Dy  Dy1  1  0.994165  0.404081  0.500000  1
  Dy  Dy2  1  0.601994  0.601994  0.500000  1
  In  In3  1  0.733105  0.998914  0.000000  1
  In  In4  1  0.998914  0.733105  0.000000  1
  Pd  Pd5  1  0.994279  0.994279  0.500000  1
  Pd  Pd6  1  0.335672  0.672432  0.000000  1
  Pd  Pd7  1  0.672432  0.335672  0.000000  1
  Pb  Pb8  1  0.265355  0.265355  0.000000  1
