# generated using pymatgen
data_SmY2(Ga2Ni3)3
_symmetry_space_group_name_H-M   'P 1'
_cell_length_a   8.79372200
_cell_length_b   8.79372231
_cell_length_c   4.10628700
_cell_angle_alpha   90.00000000
_cell_angle_beta   90.00000000
_cell_angle_gamma   119.99999885
_symmetry_Int_Tables_number   1
_chemical_formula_structural   SmY2(Ga2Ni3)3
_chemical_formula_sum   'Sm1 Y2 Ga6 Ni9'
_cell_volume   274.99539161
_cell_formula_units_Z   1
loop_
 _symmetry_equiv_pos_site_id
 _symmetry_equiv_pos_as_xyz
  1  'x, y, z'
loop_
 _atom_site_type_symbol
 _atom_site_label
 _atom_site_symmetry_multiplicity
 _atom_site_fract_x
 _atom_site_fract_y
 _atom_site_fract_z
 _atom_site_occupancy
  Sm  Sm0  1  0.333333  0.666667  0.500000  1
  Y  Y1  1  0.666667  0.333333  0.500000  1
  Y  Y2  1  0.000000  0.000000  0.000000  1
  Ga  Ga3  1  0.270400  0.269919  0.500000  1
  Ga  Ga4  1  0.730081  0.000481  0.500000  1
  Ga  Ga5  1  0.999519  0.729600  0.500000  1
  Ga  Ga6  1  0.520255  0.519499  0.000000  1
  Ga  Ga7  1  0.480501  0.000756  0.000000  1
  Ga  Ga8  1  0.999244  0.479745  0.000000  1
  Ni  Ni9  1  0.799518  0.173644  0.000000  1
  Ni  Ni10  1  0.826356  0.625873  0.000000  1
  Ni  Ni11  1  0.374127  0.200482  0.000000  1
  Ni  Ni12  1  0.172644  0.801797  0.000000  1
  Ni  Ni13  1  0.629152  0.827356  0.000000  1
  Ni  Ni14  1  0.198203  0.370848  0.000000  1
  Ni  Ni15  1  0.709048  0.708429  0.500000  1
  Ni  Ni16  1  0.291571  0.000620  0.500000  1
  Ni  Ni17  1  0.999380  0.290952  0.500000  1
