# generated using pymatgen
data_Y3Ho7(TlBi)3
_symmetry_space_group_name_H-M   'P 1'
_cell_length_a   9.04880100
_cell_length_b   9.08471510
_cell_length_c   6.69619800
_cell_angle_alpha   90.00000000
_cell_angle_beta   90.00000000
_cell_angle_gamma   119.86931728
_symmetry_Int_Tables_number   1
_chemical_formula_structural   Y3Ho7(TlBi)3
_chemical_formula_sum   'Y3 Ho7 Tl3 Bi3'
_cell_volume   477.34421345
_cell_formula_units_Z   1
loop_
 _symmetry_equiv_pos_site_id
 _symmetry_equiv_pos_as_xyz
  1  'x, y, z'
loop_
 _atom_site_type_symbol
 _atom_site_label
 _atom_site_symmetry_multiplicity
 _atom_site_fract_x
 _atom_site_fract_y
 _atom_site_fract_z
 _atom_site_occupancy
  Y  Y0  1  0.008449  0.244513  0.250000  1
  Y  Y1  1  0.763936  0.755487  0.250000  1
  Y  Y2  1  0.760087  0.000000  0.750000  1
  Ho  Ho3  1  0.327939  0.667161  0.001921  1
  Ho  Ho4  1  0.660779  0.332839  0.498079  1
  Ho  Ho5  1  0.660779  0.332839  0.001921  1
  Ho  Ho6  1  0.327939  0.667161  0.498079  1
  Ho  Ho7  1  0.235769  0.000000  0.250000  1
  Ho  Ho8  1  0.240698  0.232604  0.750000  1
  Ho  Ho9  1  0.008095  0.767396  0.750000  1
  Tl  Tl10  1  0.998145  0.602769  0.250000  1
  Tl  Tl11  1  0.395376  0.397231  0.250000  1
  Tl  Tl12  1  0.398728  0.000000  0.750000  1
  Bi  Bi13  1  0.610220  0.000000  0.250000  1
  Bi  Bi14  1  0.605605  0.608150  0.750000  1
  Bi  Bi15  1  0.997454  0.391850  0.750000  1
