# generated using pymatgen
data_Tm12Th4Mg4FeCo3
_symmetry_space_group_name_H-M   'P 1'
_cell_length_a   9.57324866
_cell_length_b   9.57324985
_cell_length_c   9.57324854
_cell_angle_alpha   59.54204917
_cell_angle_beta   59.54204144
_cell_angle_gamma   59.54204456
_symmetry_Int_Tables_number   1
_chemical_formula_structural   Tm12Th4Mg4FeCo3
_chemical_formula_sum   'Tm12 Th4 Mg4 Fe1 Co3'
_cell_volume   613.92778136
_cell_formula_units_Z   1
loop_
 _symmetry_equiv_pos_site_id
 _symmetry_equiv_pos_as_xyz
  1  'x, y, z'
loop_
 _atom_site_type_symbol
 _atom_site_label
 _atom_site_symmetry_multiplicity
 _atom_site_fract_x
 _atom_site_fract_y
 _atom_site_fract_z
 _atom_site_occupancy
  Tm  Tm0  1  0.813986  0.186155  0.186155  1
  Tm  Tm1  1  0.183913  0.815139  0.815139  1
  Tm  Tm2  1  0.186155  0.813986  0.186155  1
  Tm  Tm3  1  0.815139  0.183913  0.815139  1
  Tm  Tm4  1  0.186155  0.186155  0.813986  1
  Tm  Tm5  1  0.815139  0.815139  0.183913  1
  Tm  Tm6  1  0.935078  0.565813  0.565813  1
  Tm  Tm7  1  0.563910  0.935015  0.935015  1
  Tm  Tm8  1  0.565813  0.935078  0.565813  1
  Tm  Tm9  1  0.935015  0.563910  0.935015  1
  Tm  Tm10  1  0.565813  0.565813  0.935078  1
  Tm  Tm11  1  0.935015  0.935015  0.563910  1
  Th  Th12  1  0.344862  0.344862  0.344862  1
  Th  Th13  1  0.344015  0.344015  0.966066  1
  Th  Th14  1  0.344015  0.966066  0.344015  1
  Th  Th15  1  0.966066  0.344015  0.344015  1
  Mg  Mg16  1  0.579734  0.579734  0.579734  1
  Mg  Mg17  1  0.578767  0.578767  0.259205  1
  Mg  Mg18  1  0.578767  0.259205  0.578767  1
  Mg  Mg19  1  0.259205  0.578767  0.578767  1
  Fe  Fe20  1  0.145694  0.145694  0.145694  1
  Co  Co21  1  0.144602  0.144602  0.568539  1
  Co  Co22  1  0.144602  0.568539  0.144602  1
  Co  Co23  1  0.568539  0.144602  0.144602  1
