# generated using pymatgen
data_Nd3HoAl18(Pd2Ru)2
_symmetry_space_group_name_H-M   'P 1'
_cell_length_a   7.65004767
_cell_length_b   7.66099763
_cell_length_c   9.59286000
_cell_angle_alpha   90.00000000
_cell_angle_beta   90.00000000
_cell_angle_gamma   119.48214725
_symmetry_Int_Tables_number   1
_chemical_formula_structural   Nd3HoAl18(Pd2Ru)2
_chemical_formula_sum   'Nd3 Ho1 Al18 Pd4 Ru2'
_cell_volume   489.40779757
_cell_formula_units_Z   1
loop_
 _symmetry_equiv_pos_site_id
 _symmetry_equiv_pos_as_xyz
  1  'x, y, z'
loop_
 _atom_site_type_symbol
 _atom_site_label
 _atom_site_symmetry_multiplicity
 _atom_site_fract_x
 _atom_site_fract_y
 _atom_site_fract_z
 _atom_site_occupancy
  Nd  Nd0  1  0.995299  0.667789  0.250000  1
  Nd  Nd1  1  0.005431  0.331695  0.750000  1
  Nd  Nd2  1  0.667903  0.994581  0.250000  1
  Ho  Ho3  1  0.330136  0.005538  0.750000  1
  Al  Al4  1  0.126386  0.125228  0.250000  1
  Al  Al5  1  0.875902  0.874821  0.750000  1
  Al  Al6  1  0.002446  0.328606  0.074624  1
  Al  Al7  1  0.000274  0.673104  0.922834  1
  Al  Al8  1  0.000274  0.673104  0.577166  1
  Al  Al9  1  0.328766  0.001844  0.428107  1
  Al  Al10  1  0.002446  0.328606  0.425376  1
  Al  Al11  1  0.668760  0.998143  0.577146  1
  Al  Al12  1  0.668760  0.998143  0.922854  1
  Al  Al13  1  0.328766  0.001844  0.071893  1
  Al  Al14  1  0.329513  0.327999  0.552999  1
  Al  Al15  1  0.671237  0.671161  0.451616  1
  Al  Al16  1  0.671237  0.671161  0.048384  1
  Al  Al17  1  0.329513  0.327999  0.947001  1
  Al  Al18  1  0.342701  0.544334  0.250000  1
  Al  Al19  1  0.654834  0.452441  0.750000  1
  Al  Al20  1  0.543883  0.341263  0.250000  1
  Al  Al21  1  0.454404  0.659406  0.750000  1
  Pd  Pd22  1  0.671443  0.328121  0.999103  1
  Pd  Pd23  1  0.328282  0.671854  0.999190  1
  Pd  Pd24  1  0.328282  0.671854  0.500810  1
  Pd  Pd25  1  0.671443  0.328121  0.500897  1
  Ru  Ru26  1  0.000840  0.000621  0.998524  1
  Ru  Ru27  1  0.000840  0.000621  0.501476  1
