# generated using pymatgen
data_SrSn3PtAu2
_symmetry_space_group_name_H-M   'P 1'
_cell_length_a   4.64867600
_cell_length_b   7.74425300
_cell_length_c   9.35404100
_cell_angle_alpha   90.00000000
_cell_angle_beta   90.00000000
_cell_angle_gamma   90.00000000
_symmetry_Int_Tables_number   1
_chemical_formula_structural   SrSn3PtAu2
_chemical_formula_sum   'Sr2 Sn6 Pt2 Au4'
_cell_volume   336.75036872
_cell_formula_units_Z   2
loop_
 _symmetry_equiv_pos_site_id
 _symmetry_equiv_pos_as_xyz
  1  'x, y, z'
loop_
 _atom_site_type_symbol
 _atom_site_label
 _atom_site_symmetry_multiplicity
 _atom_site_fract_x
 _atom_site_fract_y
 _atom_site_fract_z
 _atom_site_occupancy
  Sr  Sr0  1  0.000000  0.500000  0.265312  1
  Sr  Sr1  1  0.500000  0.000000  0.734688  1
  Sn  Sn2  1  0.500000  0.204580  0.114380  1
  Sn  Sn3  1  0.500000  0.795420  0.114380  1
  Sn  Sn4  1  0.000000  0.704580  0.885620  1
  Sn  Sn5  1  0.000000  0.295420  0.885620  1
  Sn  Sn6  1  0.000000  0.000000  0.365973  1
  Sn  Sn7  1  0.500000  0.500000  0.634027  1
  Pt  Pt8  1  0.000000  0.000000  0.064450  1
  Pt  Pt9  1  0.500000  0.500000  0.935550  1
  Au  Au10  1  0.500000  0.774715  0.411057  1
  Au  Au11  1  0.000000  0.725285  0.588943  1
  Au  Au12  1  0.000000  0.274715  0.588943  1
  Au  Au13  1  0.500000  0.225285  0.411057  1
