# generated using pymatgen
data_YbNpO4
_symmetry_space_group_name_H-M   'P 1'
_cell_length_a   3.88735252
_cell_length_b   3.88735320
_cell_length_c   7.39197335
_cell_angle_alpha   122.69636424
_cell_angle_beta   122.69637317
_cell_angle_gamma   58.70547243
_symmetry_Int_Tables_number   1
_chemical_formula_structural   YbNpO4
_chemical_formula_sum   'Yb1 Np1 O4'
_cell_volume   74.91047703
_cell_formula_units_Z   1
loop_
 _symmetry_equiv_pos_site_id
 _symmetry_equiv_pos_as_xyz
  1  'x, y, z'
loop_
 _atom_site_type_symbol
 _atom_site_label
 _atom_site_symmetry_multiplicity
 _atom_site_fract_x
 _atom_site_fract_y
 _atom_site_fract_z
 _atom_site_occupancy
  Yb  Yb0  1  0.999909  0.000091  0.750000  1
  Np  Np1  1  0.000112  0.999888  0.250000  1
  O  O2  1  0.272783  0.273003  0.156561  1
  O  O3  1  0.726998  0.727217  0.343440  1
  O  O4  1  0.222555  0.222356  0.589121  1
  O  O5  1  0.777643  0.777444  0.910879  1
