# generated using pymatgen
data_Dy2Ho3Er3(P3Rh4)4
_symmetry_space_group_name_H-M   'P 1'
_cell_length_a   12.96309600
_cell_length_b   12.96309648
_cell_length_c   3.99958300
_cell_angle_alpha   90.00000000
_cell_angle_beta   90.00000000
_cell_angle_gamma   119.99999878
_symmetry_Int_Tables_number   1
_chemical_formula_structural   Dy2Ho3Er3(P3Rh4)4
_chemical_formula_sum   'Dy2 Ho3 Er3 P12 Rh16'
_cell_volume   582.05341462
_cell_formula_units_Z   1
loop_
 _symmetry_equiv_pos_site_id
 _symmetry_equiv_pos_as_xyz
  1  'x, y, z'
loop_
 _atom_site_type_symbol
 _atom_site_label
 _atom_site_symmetry_multiplicity
 _atom_site_fract_x
 _atom_site_fract_y
 _atom_site_fract_z
 _atom_site_occupancy
  Dy  Dy0  1  0.333333  0.666667  0.500000  1
  Dy  Dy1  1  0.666667  0.333333  0.500000  1
  Ho  Ho2  1  0.000000  0.813543  0.000000  1
  Ho  Ho3  1  0.186457  0.186457  0.000000  1
  Ho  Ho4  1  0.813543  0.000000  0.000000  1
  Er  Er5  1  0.000000  0.444286  0.500000  1
  Er  Er6  1  0.555714  0.555714  0.500000  1
  Er  Er7  1  0.444286  0.000000  0.500000  1
  P  P8  1  0.000000  0.652057  0.500000  1
  P  P9  1  0.347943  0.347943  0.500000  1
  P  P10  1  0.652057  0.000000  0.500000  1
  P  P11  1  0.517148  0.689868  0.000000  1
  P  P12  1  0.310132  0.827279  0.000000  1
  P  P13  1  0.172721  0.482852  0.000000  1
  P  P14  1  0.482852  0.172721  0.000000  1
  P  P15  1  0.689868  0.517148  0.000000  1
  P  P16  1  0.827279  0.310132  0.000000  1
  P  P17  1  0.000000  0.176758  0.500000  1
  P  P18  1  0.823242  0.823242  0.500000  1
  P  P19  1  0.176758  0.000000  0.500000  1
  Rh  Rh20  1  0.514042  0.869255  0.000000  1
  Rh  Rh21  1  0.130745  0.644788  0.000000  1
  Rh  Rh22  1  0.355212  0.485958  0.000000  1
  Rh  Rh23  1  0.485958  0.355212  0.000000  1
  Rh  Rh24  1  0.869255  0.514042  0.000000  1
  Rh  Rh25  1  0.644788  0.130745  0.000000  1
  Rh  Rh26  1  0.000000  0.274531  0.000000  1
  Rh  Rh27  1  0.725469  0.725469  0.000000  1
  Rh  Rh28  1  0.274531  0.000000  0.000000  1
  Rh  Rh29  1  0.629065  0.807360  0.500000  1
  Rh  Rh30  1  0.192640  0.821707  0.500000  1
  Rh  Rh31  1  0.178293  0.370935  0.500000  1
  Rh  Rh32  1  0.370935  0.178293  0.500000  1
  Rh  Rh33  1  0.807360  0.629065  0.500000  1
  Rh  Rh34  1  0.821707  0.192640  0.500000  1
  Rh  Rh35  1  0.000000  0.000000  0.500000  1
