# generated using pymatgen
data_Nd5CoSeO12
_symmetry_space_group_name_H-M   'P 1'
_cell_length_a   6.99266884
_cell_length_b   6.99266904
_cell_length_c   7.55055200
_cell_angle_alpha   74.50194308
_cell_angle_beta   74.50194262
_cell_angle_gamma   50.29980282
_symmetry_Int_Tables_number   1
_chemical_formula_structural   Nd5CoSeO12
_chemical_formula_sum   'Nd5 Co1 Se1 O12'
_cell_volume   271.40515798
_cell_formula_units_Z   1
loop_
 _symmetry_equiv_pos_site_id
 _symmetry_equiv_pos_as_xyz
  1  'x, y, z'
loop_
 _atom_site_type_symbol
 _atom_site_label
 _atom_site_symmetry_multiplicity
 _atom_site_fract_x
 _atom_site_fract_y
 _atom_site_fract_z
 _atom_site_occupancy
  Nd  Nd0  1  0.318591  0.294132  0.356454  1
  Nd  Nd1  1  0.705868  0.681409  0.643546  1
  Nd  Nd2  1  0.697056  0.695139  0.162017  1
  Nd  Nd3  1  0.304861  0.302944  0.837983  1
  Nd  Nd4  1  0.011963  0.988037  0.500000  1
  Co  Co5  1  0.746094  0.253906  0.000000  1
  Se  Se6  1  0.232693  0.767307  0.000000  1
  O  O7  1  0.104524  0.590593  0.575255  1
  O  O8  1  0.009715  0.989360  0.166826  1
  O  O9  1  0.409407  0.895476  0.424745  1
  O  O10  1  0.476494  0.525237  0.165746  1
  O  O11  1  0.103147  0.597095  0.075140  1
  O  O12  1  0.912638  0.397057  0.418203  1
  O  O13  1  0.010640  0.990285  0.833174  1
  O  O14  1  0.602943  0.087361  0.581797  1
  O  O15  1  0.474763  0.523506  0.834254  1
  O  O16  1  0.578640  0.102942  0.076018  1
  O  O17  1  0.402905  0.896853  0.924860  1
  O  O18  1  0.897058  0.421360  0.923982  1
