# generated using pymatgen
data_Ho8Ti8Nb4Si15Ge
_symmetry_space_group_name_H-M   'P 1'
_cell_length_a   7.05584383
_cell_length_b   7.04588006
_cell_length_c   12.96756402
_cell_angle_alpha   89.98599292
_cell_angle_beta   89.98103503
_cell_angle_gamma   89.97325140
_symmetry_Int_Tables_number   1
_chemical_formula_structural   Ho8Ti8Nb4Si15Ge
_chemical_formula_sum   'Ho8 Ti8 Nb4 Si15 Ge1'
_cell_volume   644.67751371
_cell_formula_units_Z   1
loop_
 _symmetry_equiv_pos_site_id
 _symmetry_equiv_pos_as_xyz
  1  'x, y, z'
loop_
 _atom_site_type_symbol
 _atom_site_label
 _atom_site_symmetry_multiplicity
 _atom_site_fract_x
 _atom_site_fract_y
 _atom_site_fract_z
 _atom_site_occupancy
  Ho  Ho0  1  0.341745  0.000973  0.465733  1
  Ho  Ho1  1  0.499443  0.840307  0.717202  1
  Ho  Ho2  1  0.501621  0.159077  0.216823  1
  Ho  Ho3  1  0.841011  0.498107  0.283066  1
  Ho  Ho4  1  0.159055  0.502261  0.783683  1
  Ho  Ho5  1  0.659548  0.997628  0.967356  1
  Ho  Ho6  1  0.999607  0.342675  0.532109  1
  Ho  Ho7  1  0.998642  0.659112  0.033361  1
  Ti  Ti8  1  0.152597  0.009178  0.876649  1
  Ti  Ti9  1  0.491264  0.651858  0.125595  1
  Ti  Ti10  1  0.510395  0.349103  0.625710  1
  Ti  Ti11  1  0.652649  0.491966  0.874983  1
  Ti  Ti12  1  0.347615  0.508851  0.374398  1
  Ti  Ti13  1  0.847591  0.991439  0.375422  1
  Ti  Ti14  1  0.008943  0.152017  0.124554  1
  Ti  Ti15  1  0.988517  0.844709  0.623398  1
  Nb  Nb16  1  0.326103  0.326290  0.000208  1
  Nb  Nb17  1  0.173766  0.826346  0.249983  1
  Nb  Nb18  1  0.823132  0.174389  0.750544  1
  Nb  Nb19  1  0.673733  0.673762  0.500009  1
  Si  Si20  1  0.369798  0.703347  0.934376  1
  Si  Si21  1  0.629535  0.297043  0.434071  1
  Si  Si22  1  0.703296  0.369838  0.066105  1
  Si  Si23  1  0.296875  0.630100  0.565848  1
  Si  Si24  1  0.796914  0.869812  0.184156  1
  Si  Si25  1  0.130128  0.203069  0.315841  1
  Si  Si26  1  0.870298  0.797535  0.815935  1
  Si  Si27  1  0.292646  0.952594  0.064331  1
  Si  Si28  1  0.547820  0.791897  0.313662  1
  Si  Si29  1  0.455401  0.208110  0.815814  1
  Si  Si30  1  0.792762  0.547071  0.686399  1
  Si  Si31  1  0.207684  0.452567  0.186080  1
  Si  Si32  1  0.707246  0.047695  0.564011  1
  Si  Si33  1  0.952689  0.292467  0.936012  1
  Si  Si34  1  0.047533  0.708000  0.435568  1
  Ge  Ge35  1  0.202396  0.128808  0.681006  1
