# generated using pymatgen
data_CeTm5(Ni3P2)6
_symmetry_space_group_name_H-M   'P 1'
_cell_length_a   3.75716000
_cell_length_b   10.44912500
_cell_length_c   12.26554200
_cell_angle_alpha   90.00000000
_cell_angle_beta   90.00000000
_cell_angle_gamma   90.00000000
_symmetry_Int_Tables_number   1
_chemical_formula_structural   CeTm5(Ni3P2)6
_chemical_formula_sum   'Ce1 Tm5 Ni18 P12'
_cell_volume   481.53333636
_cell_formula_units_Z   1
loop_
 _symmetry_equiv_pos_site_id
 _symmetry_equiv_pos_as_xyz
  1  'x, y, z'
loop_
 _atom_site_type_symbol
 _atom_site_label
 _atom_site_symmetry_multiplicity
 _atom_site_fract_x
 _atom_site_fract_y
 _atom_site_fract_z
 _atom_site_occupancy
  Ce  Ce0  1  0.000000  0.500000  0.523483  1
  Tm  Tm1  1  0.500000  0.000000  0.478088  1
  Tm  Tm2  1  0.500000  0.817451  0.206102  1
  Tm  Tm3  1  0.500000  0.182549  0.206102  1
  Tm  Tm4  1  0.000000  0.683553  0.794973  1
  Tm  Tm5  1  0.000000  0.316447  0.794973  1
  Ni  Ni6  1  0.500000  0.500000  0.157347  1
  Ni  Ni7  1  0.000000  0.000000  0.841414  1
  Ni  Ni8  1  0.500000  0.500000  0.700106  1
  Ni  Ni9  1  0.000000  0.000000  0.300379  1
  Ni  Ni10  1  0.000000  0.500000  0.984336  1
  Ni  Ni11  1  0.500000  0.000000  0.016489  1
  Ni  Ni12  1  0.500000  0.332451  0.995639  1
  Ni  Ni13  1  0.500000  0.667549  0.995639  1
  Ni  Ni14  1  0.000000  0.166927  0.004045  1
  Ni  Ni15  1  0.000000  0.833073  0.004045  1
  Ni  Ni16  1  0.500000  0.299815  0.427942  1
  Ni  Ni17  1  0.500000  0.700185  0.427942  1
  Ni  Ni18  1  0.000000  0.196801  0.571378  1
  Ni  Ni19  1  0.000000  0.803199  0.571378  1
  Ni  Ni20  1  0.500000  0.879146  0.711649  1
  Ni  Ni21  1  0.500000  0.120854  0.711649  1
  Ni  Ni22  1  0.000000  0.622130  0.288257  1
  Ni  Ni23  1  0.000000  0.377870  0.288257  1
  P  P24  1  0.500000  0.500000  0.876377  1
  P  P25  1  0.000000  0.000000  0.123970  1
  P  P26  1  0.500000  0.500000  0.341659  1
  P  P27  1  0.000000  0.000000  0.654599  1
  P  P28  1  0.500000  0.309980  0.615680  1
  P  P29  1  0.500000  0.690020  0.615680  1
  P  P30  1  0.000000  0.185553  0.385541  1
  P  P31  1  0.000000  0.814447  0.385541  1
  P  P32  1  0.500000  0.847501  0.892007  1
  P  P33  1  0.500000  0.152499  0.892007  1
  P  P34  1  0.000000  0.653432  0.107662  1
  P  P35  1  0.000000  0.346568  0.107662  1
