# generated using pymatgen
data_YEr2Pa(Co5P3)4
_symmetry_space_group_name_H-M   'P 1'
_cell_length_a   3.65715800
_cell_length_b   10.29255437
_cell_length_c   11.71060682
_cell_angle_alpha   90.04727210
_cell_angle_beta   90.00000000
_cell_angle_gamma   90.00000000
_symmetry_Int_Tables_number   1
_chemical_formula_structural   YEr2Pa(Co5P3)4
_chemical_formula_sum   'Y1 Er2 Pa1 Co20 P12'
_cell_volume   440.80462792
_cell_formula_units_Z   1
loop_
 _symmetry_equiv_pos_site_id
 _symmetry_equiv_pos_as_xyz
  1  'x, y, z'
loop_
 _atom_site_type_symbol
 _atom_site_label
 _atom_site_symmetry_multiplicity
 _atom_site_fract_x
 _atom_site_fract_y
 _atom_site_fract_z
 _atom_site_occupancy
  Y  Y0  1  0.750000  0.416945  0.297413  1
  Er  Er1  1  0.750000  0.082964  0.798669  1
  Er  Er2  1  0.250000  0.583052  0.701852  1
  Pa  Pa3  1  0.250000  0.917490  0.202854  1
  Co  Co4  1  0.250000  0.783614  0.490022  1
  Co  Co5  1  0.750000  0.217308  0.506064  1
  Co  Co6  1  0.750000  0.283810  0.005965  1
  Co  Co7  1  0.250000  0.718065  0.991245  1
  Co  Co8  1  0.250000  0.092005  0.987624  1
  Co  Co9  1  0.750000  0.907278  0.017001  1
  Co  Co10  1  0.750000  0.594009  0.512421  1
  Co  Co11  1  0.250000  0.407595  0.489078  1
  Co  Co12  1  0.250000  0.278002  0.676722  1
  Co  Co13  1  0.750000  0.723081  0.322198  1
  Co  Co14  1  0.750000  0.778902  0.824016  1
  Co  Co15  1  0.250000  0.221540  0.177200  1
  Co  Co16  1  0.250000  0.617633  0.198332  1
  Co  Co17  1  0.750000  0.383759  0.799883  1
  Co  Co18  1  0.750000  0.112516  0.300216  1
  Co  Co19  1  0.250000  0.882858  0.699238  1
  Co  Co20  1  0.250000  0.032316  0.431761  1
  Co  Co21  1  0.750000  0.969112  0.570656  1
  Co  Co22  1  0.750000  0.529687  0.067286  1
  Co  Co23  1  0.250000  0.468126  0.930382  1
  P  P24  1  0.250000  0.081520  0.614348  1
  P  P25  1  0.750000  0.916881  0.392136  1
  P  P26  1  0.750000  0.581381  0.886394  1
  P  P27  1  0.250000  0.418074  0.111732  1
  P  P28  1  0.250000  0.229934  0.371243  1
  P  P29  1  0.750000  0.770236  0.630342  1
  P  P30  1  0.750000  0.724148  0.128778  1
  P  P31  1  0.250000  0.270422  0.868950  1
  P  P32  1  0.250000  0.898818  0.890062  1
  P  P33  1  0.750000  0.106853  0.107835  1
  P  P34  1  0.750000  0.399112  0.608587  1
  P  P35  1  0.250000  0.600957  0.391493  1
