# generated using pymatgen
data_NiB2MoO6
_symmetry_space_group_name_H-M   'P 1'
_cell_length_a   5.70155809
_cell_length_b   5.70155898
_cell_length_c   5.70155893
_cell_angle_alpha   49.03433670
_cell_angle_beta   49.03433372
_cell_angle_gamma   49.03433271
_symmetry_Int_Tables_number   1
_chemical_formula_structural   NiB2MoO6
_chemical_formula_sum   'Ni1 B2 Mo1 O6'
_cell_volume   97.04106621
_cell_formula_units_Z   1
loop_
 _symmetry_equiv_pos_site_id
 _symmetry_equiv_pos_as_xyz
  1  'x, y, z'
loop_
 _atom_site_type_symbol
 _atom_site_label
 _atom_site_symmetry_multiplicity
 _atom_site_fract_x
 _atom_site_fract_y
 _atom_site_fract_z
 _atom_site_occupancy
  Ni  Ni0  1  0.000000  0.000000  0.000000  1
  B  B1  1  0.250239  0.250239  0.250239  1
  B  B2  1  0.749761  0.749761  0.749761  1
  Mo  Mo3  1  0.500000  0.500000  0.500000  1
  O  O4  1  0.459417  0.746494  0.045533  1
  O  O5  1  0.954466  0.540583  0.253507  1
  O  O6  1  0.746493  0.045534  0.459417  1
  O  O7  1  0.253507  0.954466  0.540583  1
  O  O8  1  0.045534  0.459417  0.746493  1
  O  O9  1  0.540583  0.253506  0.954466  1
