# generated using pymatgen
data_CeNd4P12Ir7Ru12
_symmetry_space_group_name_H-M   'P 1'
_cell_length_a   12.70017027
_cell_length_b   12.74090386
_cell_length_c   3.98396500
_cell_angle_alpha   90.00000000
_cell_angle_beta   90.00000000
_cell_angle_gamma   120.11702409
_symmetry_Int_Tables_number   1
_chemical_formula_structural   CeNd4P12Ir7Ru12
_chemical_formula_sum   'Ce1 Nd4 P12 Ir7 Ru12'
_cell_volume   557.62545944
_cell_formula_units_Z   1
loop_
 _symmetry_equiv_pos_site_id
 _symmetry_equiv_pos_as_xyz
  1  'x, y, z'
loop_
 _atom_site_type_symbol
 _atom_site_label
 _atom_site_symmetry_multiplicity
 _atom_site_fract_x
 _atom_site_fract_y
 _atom_site_fract_z
 _atom_site_occupancy
  Ce  Ce0  1  0.667130  0.333970  0.000000  1
  Nd  Nd1  1  0.999538  0.186931  0.500000  1
  Nd  Nd2  1  0.813324  0.813444  0.500000  1
  Nd  Nd3  1  0.186466  0.999779  0.500000  1
  Nd  Nd4  1  0.332831  0.665211  0.000000  1
  P  P5  1  0.000639  0.817652  0.000000  1
  P  P6  1  0.182740  0.182982  0.000000  1
  P  P7  1  0.816668  0.000983  0.000000  1
  P  P8  1  0.694594  0.173459  0.500000  1
  P  P9  1  0.828044  0.522497  0.500000  1
  P  P10  1  0.478532  0.305759  0.500000  1
  P  P11  1  0.171684  0.690181  0.500000  1
  P  P12  1  0.520284  0.823398  0.500000  1
  P  P13  1  0.306667  0.479937  0.500000  1
  P  P14  1  0.006902  0.373836  0.000000  1
  P  P15  1  0.626767  0.633435  0.000000  1
  P  P16  1  0.366663  0.997984  0.000000  1
  Ir  Ir17  1  0.000307  0.713573  0.500000  1
  Ir  Ir18  1  0.287417  0.286016  0.500000  1
  Ir  Ir19  1  0.712476  0.001382  0.500000  1
  Ir  Ir20  1  0.871173  0.366907  0.500000  1
  Ir  Ir21  1  0.634104  0.504478  0.500000  1
  Ir  Ir22  1  0.494603  0.128623  0.500000  1
  Ir  Ir23  1  0.365989  0.872932  0.500000  1
  Ru  Ru24  1  0.997647  0.549873  0.000000  1
  Ru  Ru25  1  0.450992  0.447806  0.000000  1
  Ru  Ru26  1  0.549745  0.002102  0.000000  1
  Ru  Ru27  1  0.802594  0.185018  0.000000  1
  Ru  Ru28  1  0.815771  0.619259  0.000000  1
  Ru  Ru29  1  0.381822  0.197452  0.000000  1
  Ru  Ru30  1  0.182208  0.802213  0.000000  1
  Ru  Ru31  1  0.620532  0.820475  0.000000  1
  Ru  Ru32  1  0.199286  0.378631  0.000000  1
  Ru  Ru33  1  0.510830  0.633417  0.500000  1
  Ru  Ru34  1  0.123954  0.488767  0.500000  1
  Ru  Ru35  1  0.999078  0.999639  0.000000  1
