# generated using pymatgen
data_Dy3In4RuRh
_symmetry_space_group_name_H-M   'P 1'
_cell_length_a   7.91119500
_cell_length_b   7.91119538
_cell_length_c   3.79451000
_cell_angle_alpha   90.00000000
_cell_angle_beta   90.00000000
_cell_angle_gamma   120.00000257
_symmetry_Int_Tables_number   1
_chemical_formula_structural   Dy3In4RuRh
_chemical_formula_sum   'Dy3 In4 Ru1 Rh1'
_cell_volume   205.66979826
_cell_formula_units_Z   1
loop_
 _symmetry_equiv_pos_site_id
 _symmetry_equiv_pos_as_xyz
  1  'x, y, z'
loop_
 _atom_site_type_symbol
 _atom_site_label
 _atom_site_symmetry_multiplicity
 _atom_site_fract_x
 _atom_site_fract_y
 _atom_site_fract_z
 _atom_site_occupancy
  Dy  Dy0  1  0.045169  0.294217  0.500000  1
  Dy  Dy1  1  0.705783  0.750951  0.500000  1
  Dy  Dy2  1  0.249049  0.954831  0.500000  1
  In  In3  1  0.667522  0.076661  0.000000  1
  In  In4  1  0.923339  0.590862  0.000000  1
  In  In5  1  0.409138  0.332478  0.000000  1
  In  In6  1  0.333333  0.666667  0.000000  1
  Ru  Ru7  1  0.000000  0.000000  0.000000  1
  Rh  Rh8  1  0.666667  0.333333  0.500000  1
