# generated using pymatgen
data_Tb3Y3(Sb4Au3)2
_symmetry_space_group_name_H-M   'P 1'
_cell_length_a   8.62280508
_cell_length_b   8.62280120
_cell_length_c   8.62280401
_cell_angle_alpha   109.47657087
_cell_angle_beta   109.47123898
_cell_angle_gamma   109.46586927
_symmetry_Int_Tables_number   1
_chemical_formula_structural   Tb3Y3(Sb4Au3)2
_chemical_formula_sum   'Tb3 Y3 Sb8 Au6'
_cell_volume   493.54126708
_cell_formula_units_Z   1
loop_
 _symmetry_equiv_pos_site_id
 _symmetry_equiv_pos_as_xyz
  1  'x, y, z'
loop_
 _atom_site_type_symbol
 _atom_site_label
 _atom_site_symmetry_multiplicity
 _atom_site_fract_x
 _atom_site_fract_y
 _atom_site_fract_z
 _atom_site_occupancy
  Tb  Tb0  1  0.624990  0.750000  0.374990  1
  Tb  Tb1  1  0.750002  0.375005  0.625007  1
  Tb  Tb2  1  0.250002  0.124995  0.874997  1
  Y  Y3  1  0.375003  0.625005  0.749999  1
  Y  Y4  1  0.124994  0.874995  0.249998  1
  Y  Y5  1  0.875009  0.250000  0.125009  1
  Sb  Sb6  1  0.177576  0.500013  0.000014  1
  Sb  Sb7  1  0.322426  0.322432  0.322437  1
  Sb  Sb8  1  0.000005  0.177568  0.499994  1
  Sb  Sb9  1  0.822428  0.822433  0.822439  1
  Sb  Sb10  1  0.499986  0.999987  0.677559  1
  Sb  Sb11  1  0.000006  0.677567  0.499995  1
  Sb  Sb12  1  0.500001  0.999987  0.177563  1
  Sb  Sb13  1  0.677572  0.500013  0.999999  1
  Au  Au14  1  0.374995  0.250000  0.624995  1
  Au  Au15  1  0.875001  0.125004  0.750010  1
  Au  Au16  1  0.249990  0.624996  0.374999  1
  Au  Au17  1  0.750003  0.875004  0.124994  1
  Au  Au18  1  0.125005  0.750000  0.875005  1
  Au  Au19  1  0.625006  0.374996  0.249997  1
