# generated using pymatgen
data_Sc12Ni(RuBr8)2
_symmetry_space_group_name_H-M   'P 1'
_cell_length_a   8.85677497
_cell_length_b   11.69043610
_cell_length_c   12.35917900
_cell_angle_alpha   117.42322571
_cell_angle_beta   101.02171340
_cell_angle_gamma   100.63882403
_symmetry_Int_Tables_number   1
_chemical_formula_structural   Sc12Ni(RuBr8)2
_chemical_formula_sum   'Sc12 Ni1 Ru2 Br16'
_cell_volume   1058.90928242
_cell_formula_units_Z   1
loop_
 _symmetry_equiv_pos_site_id
 _symmetry_equiv_pos_as_xyz
  1  'x, y, z'
loop_
 _atom_site_type_symbol
 _atom_site_label
 _atom_site_symmetry_multiplicity
 _atom_site_fract_x
 _atom_site_fract_y
 _atom_site_fract_z
 _atom_site_occupancy
  Sc  Sc0  1  0.089457  0.271537  0.359952  1
  Sc  Sc1  1  0.916949  0.729527  0.640788  1
  Sc  Sc2  1  0.785051  0.535980  0.330455  1
  Sc  Sc3  1  0.219882  0.464047  0.668429  1
  Sc  Sc4  1  0.276137  0.728368  0.640186  1
  Sc  Sc5  1  0.729332  0.270449  0.358825  1
  Sc  Sc6  1  0.145250  0.535473  0.332043  1
  Sc  Sc7  1  0.860689  0.464521  0.669100  1
  Sc  Sc8  1  0.406143  0.361061  0.277924  1
  Sc  Sc9  1  0.592367  0.639118  0.722569  1
  Sc  Sc10  1  0.458388  0.310118  0.520206  1
  Sc  Sc11  1  0.540171  0.689662  0.479932  1
  Ni  Ni12  1  0.342490  0.499987  0.499883  1
  Ru  Ru13  1  0.002678  0.499864  0.499871  1
  Ru  Ru14  1  0.658223  0.499991  0.500383  1
  Br  Br15  1  0.389738  0.728945  0.865699  1
  Br  Br16  1  0.608638  0.270489  0.133408  1
  Br  Br17  1  0.184113  0.946141  0.773141  1
  Br  Br18  1  0.820159  0.053826  0.225880  1
  Br  Br19  1  0.336469  0.113146  0.262735  1
  Br  Br20  1  0.647598  0.886788  0.737421  1
  Br  Br21  1  0.548444  0.439747  0.784897  1
  Br  Br22  1  0.437530  0.560235  0.215169  1
  Br  Br23  1  0.304762  0.812503  0.465352  1
  Br  Br24  1  0.695226  0.186956  0.534354  1
  Br  Br25  1  0.169346  0.185979  0.532080  1
  Br  Br26  1  0.830398  0.814453  0.468146  1
  Br  Br27  1  0.931042  0.570088  0.172276  1
  Br  Br28  1  0.073338  0.430068  0.827863  1
  Br  Br29  1  0.915580  0.728889  0.866528  1
  Br  Br30  1  0.084412  0.272044  0.134507  1
