# generated using pymatgen
data_Tb3Dy5Er12(CoBi2)4
_symmetry_space_group_name_H-M   'P 1'
_cell_length_a   7.97209103
_cell_length_b   8.88525500
_cell_length_c   12.40187605
_cell_angle_alpha   90.00000000
_cell_angle_beta   90.01013698
_cell_angle_gamma   90.00000000
_symmetry_Int_Tables_number   1
_chemical_formula_structural   Tb3Dy5Er12(CoBi2)4
_chemical_formula_sum   'Tb3 Dy5 Er12 Co4 Bi8'
_cell_volume   878.47523941
_cell_formula_units_Z   1
loop_
 _symmetry_equiv_pos_site_id
 _symmetry_equiv_pos_as_xyz
  1  'x, y, z'
loop_
 _atom_site_type_symbol
 _atom_site_label
 _atom_site_symmetry_multiplicity
 _atom_site_fract_x
 _atom_site_fract_y
 _atom_site_fract_z
 _atom_site_occupancy
  Tb  Tb0  1  0.876855  0.250000  0.186900  1
  Tb  Tb1  1  0.623166  0.250000  0.686902  1
  Tb  Tb2  1  0.376852  0.750000  0.313079  1
  Dy  Dy3  1  0.654955  0.750000  0.699566  1
  Dy  Dy4  1  0.345163  0.250000  0.300453  1
  Dy  Dy5  1  0.154858  0.250000  0.800425  1
  Dy  Dy6  1  0.845124  0.750000  0.199577  1
  Dy  Dy7  1  0.122733  0.750000  0.813500  1
  Er  Er8  1  0.553674  0.750000  0.996684  1
  Er  Er9  1  0.446126  0.250000  0.003278  1
  Er  Er10  1  0.053644  0.250000  0.503354  1
  Er  Er11  1  0.946226  0.750000  0.496691  1
  Er  Er12  1  0.827052  0.463974  0.935574  1
  Er  Er13  1  0.173149  0.536512  0.064187  1
  Er  Er14  1  0.326881  0.536463  0.564354  1
  Er  Er15  1  0.173149  0.963488  0.064187  1
  Er  Er16  1  0.673134  0.463719  0.435675  1
  Er  Er17  1  0.827052  0.036026  0.935574  1
  Er  Er18  1  0.673134  0.036281  0.435675  1
  Er  Er19  1  0.326881  0.963537  0.564354  1
  Co  Co20  1  0.937189  0.750000  0.992762  1
  Co  Co21  1  0.063010  0.250000  0.007045  1
  Co  Co22  1  0.436976  0.250000  0.507117  1
  Co  Co23  1  0.563033  0.750000  0.492915  1
  Bi  Bi24  1  0.934698  0.006550  0.672423  1
  Bi  Bi25  1  0.065630  0.993190  0.327699  1
  Bi  Bi26  1  0.434035  0.992956  0.827653  1
  Bi  Bi27  1  0.065630  0.506810  0.327699  1
  Bi  Bi28  1  0.565628  0.006841  0.172310  1
  Bi  Bi29  1  0.934698  0.493450  0.672423  1
  Bi  Bi30  1  0.565628  0.493159  0.172310  1
  Bi  Bi31  1  0.434035  0.507044  0.827653  1
