# generated using pymatgen
data_Er12ZnInFe3Co
_symmetry_space_group_name_H-M   'P 1'
_cell_length_a   8.28126780
_cell_length_b   8.28126729
_cell_length_c   8.28126754
_cell_angle_alpha   111.22959661
_cell_angle_beta   110.38373672
_cell_angle_gamma   106.83328256
_symmetry_Int_Tables_number   1
_chemical_formula_structural   Er12ZnInFe3Co
_chemical_formula_sum   'Er12 Zn1 In1 Fe3 Co1'
_cell_volume   436.47233208
_cell_formula_units_Z   1
loop_
 _symmetry_equiv_pos_site_id
 _symmetry_equiv_pos_as_xyz
  1  'x, y, z'
loop_
 _atom_site_type_symbol
 _atom_site_label
 _atom_site_symmetry_multiplicity
 _atom_site_fract_x
 _atom_site_fract_y
 _atom_site_fract_z
 _atom_site_occupancy
  Er  Er0  1  0.186958  0.288669  0.475626  1
  Er  Er1  1  0.812588  0.710823  0.523411  1
  Er  Er2  1  0.186958  0.711331  0.898289  1
  Er  Er3  1  0.812588  0.289177  0.101766  1
  Er  Er4  1  0.313364  0.615583  0.300035  1
  Er  Er5  1  0.684450  0.384417  0.697780  1
  Er  Er6  1  0.313364  0.013330  0.697780  1
  Er  Er7  1  0.684450  0.986670  0.300035  1
  Er  Er8  1  0.427292  0.221996  0.205295  1
  Er  Er9  1  0.571394  0.777618  0.793778  1
  Er  Er10  1  0.016160  0.222382  0.793778  1
  Er  Er11  1  0.983301  0.778004  0.205295  1
  Zn  Zn12  1  0.999338  0.000000  0.999338  1
  In  In13  1  0.499201  0.500000  0.999201  1
  Fe  Fe14  1  0.107985  0.609034  0.498951  1
  Fe  Fe15  1  0.889916  0.390966  0.498951  1
  Fe  Fe16  1  0.386657  0.000000  0.386657  1
  Co  Co17  1  0.624035  0.000000  0.624035  1
