# generated using pymatgen
data_Dy3Y5(WC2)4
_symmetry_space_group_name_H-M   'P 1'
_cell_length_a   5.74851124
_cell_length_b   5.74851160
_cell_length_c   9.90365525
_cell_angle_alpha   90.00621068
_cell_angle_beta   90.00620891
_cell_angle_gamma   90.00653865
_symmetry_Int_Tables_number   1
_chemical_formula_structural   Dy3Y5(WC2)4
_chemical_formula_sum   'Dy3 Y5 W4 C8'
_cell_volume   327.27008018
_cell_formula_units_Z   1
loop_
 _symmetry_equiv_pos_site_id
 _symmetry_equiv_pos_as_xyz
  1  'x, y, z'
loop_
 _atom_site_type_symbol
 _atom_site_label
 _atom_site_symmetry_multiplicity
 _atom_site_fract_x
 _atom_site_fract_y
 _atom_site_fract_z
 _atom_site_occupancy
  Dy  Dy0  1  0.199328  0.199328  0.657643  1
  Dy  Dy1  1  0.799938  0.799938  0.342333  1
  Dy  Dy2  1  0.800029  0.800029  0.657383  1
  Y  Y3  1  0.199542  0.199542  0.342152  1
  Y  Y4  1  0.300607  0.699927  0.841985  1
  Y  Y5  1  0.699927  0.300607  0.841985  1
  Y  Y6  1  0.700517  0.300789  0.158179  1
  Y  Y7  1  0.300789  0.700517  0.158179  1
  W  W8  1  0.321311  0.677425  0.499791  1
  W  W9  1  0.822489  0.822489  0.000262  1
  W  W10  1  0.178350  0.178350  0.000027  1
  W  W11  1  0.677425  0.321311  0.499791  1
  C  C12  1  0.000330  0.000330  0.153059  1
  C  C13  1  0.499485  0.499485  0.652460  1
  C  C14  1  0.499433  0.999037  0.499689  1
  C  C15  1  0.500148  0.500148  0.347115  1
  C  C16  1  0.000089  0.000089  0.847027  1
  C  C17  1  0.500466  0.000760  0.000627  1
  C  C18  1  0.000760  0.500466  0.000627  1
  C  C19  1  0.999037  0.499433  0.499689  1
