# generated using pymatgen
data_Ho20PtRh11
_symmetry_space_group_name_H-M   'P 1'
_cell_length_a   10.88824344
_cell_length_b   10.88824233
_cell_length_c   6.31066908
_cell_angle_alpha   89.99007787
_cell_angle_beta   89.99007808
_cell_angle_gamma   89.81811278
_symmetry_Int_Tables_number   1
_chemical_formula_structural   Ho20PtRh11
_chemical_formula_sum   'Ho20 Pt1 Rh11'
_cell_volume   748.15021662
_cell_formula_units_Z   1
loop_
 _symmetry_equiv_pos_site_id
 _symmetry_equiv_pos_as_xyz
  1  'x, y, z'
loop_
 _atom_site_type_symbol
 _atom_site_label
 _atom_site_symmetry_multiplicity
 _atom_site_fract_x
 _atom_site_fract_y
 _atom_site_fract_z
 _atom_site_occupancy
  Ho  Ho0  1  0.290733  0.089556  0.378350  1
  Ho  Ho1  1  0.291048  0.913136  0.878986  1
  Ho  Ho2  1  0.709039  0.088838  0.878274  1
  Ho  Ho3  1  0.708919  0.910820  0.378267  1
  Ho  Ho4  1  0.590574  0.791743  0.879595  1
  Ho  Ho5  1  0.589415  0.208617  0.377736  1
  Ho  Ho6  1  0.412066  0.792545  0.375328  1
  Ho  Ho7  1  0.410463  0.209388  0.878206  1
  Ho  Ho8  1  0.208257  0.409426  0.620405  1
  Ho  Ho9  1  0.207455  0.587934  0.124672  1
  Ho  Ho10  1  0.791383  0.410585  0.122264  1
  Ho  Ho11  1  0.790612  0.589537  0.621794  1
  Ho  Ho12  1  0.910444  0.709267  0.121650  1
  Ho  Ho13  1  0.911162  0.290961  0.621726  1
  Ho  Ho14  1  0.086864  0.708952  0.621014  1
  Ho  Ho15  1  0.089180  0.291081  0.121733  1
  Ho  Ho16  1  0.999748  0.000067  0.499814  1
  Ho  Ho17  1  0.999933  0.000252  0.000186  1
  Ho  Ho18  1  0.501508  0.498402  0.000471  1
  Ho  Ho19  1  0.501598  0.498492  0.499529  1
  Pt  Pt20  1  0.345401  0.654599  0.750000  1
  Rh  Rh21  1  0.845787  0.154213  0.250000  1
  Rh  Rh22  1  0.845907  0.845949  0.749897  1
  Rh  Rh23  1  0.154051  0.154093  0.750103  1
  Rh  Rh24  1  0.154617  0.845383  0.250000  1
  Rh  Rh25  1  0.654724  0.345276  0.750000  1
  Rh  Rh26  1  0.654114  0.654331  0.249750  1
  Rh  Rh27  1  0.345669  0.345886  0.250250  1
  Rh  Rh28  1  0.499648  0.000182  0.124124  1
  Rh  Rh29  1  0.500157  0.000295  0.624983  1
  Rh  Rh30  1  0.999705  0.499843  0.875017  1
  Rh  Rh31  1  0.999818  0.500352  0.375876  1
