# generated using pymatgen
data_Y8TmLu(SiB4)4
_symmetry_space_group_name_H-M   'P 1'
_cell_length_a   7.22668300
_cell_length_b   7.22668300
_cell_length_c   8.05874000
_cell_angle_alpha   90.00000000
_cell_angle_beta   90.00000000
_cell_angle_gamma   90.00000000
_symmetry_Int_Tables_number   1
_chemical_formula_structural   Y8TmLu(SiB4)4
_chemical_formula_sum   'Y8 Tm1 Lu1 Si4 B16'
_cell_volume   420.86727086
_cell_formula_units_Z   1
loop_
 _symmetry_equiv_pos_site_id
 _symmetry_equiv_pos_as_xyz
  1  'x, y, z'
loop_
 _atom_site_type_symbol
 _atom_site_label
 _atom_site_symmetry_multiplicity
 _atom_site_fract_x
 _atom_site_fract_y
 _atom_site_fract_z
 _atom_site_occupancy
  Y  Y0  1  0.680325  0.180455  0.225200  1
  Y  Y1  1  0.319675  0.819545  0.774800  1
  Y  Y2  1  0.319675  0.819545  0.225200  1
  Y  Y3  1  0.819545  0.680325  0.225200  1
  Y  Y4  1  0.819545  0.680325  0.774800  1
  Y  Y5  1  0.680325  0.180455  0.774800  1
  Y  Y6  1  0.180455  0.319675  0.774800  1
  Y  Y7  1  0.180455  0.319675  0.225200  1
  Tm  Tm8  1  0.000000  0.000000  0.500000  1
  Lu  Lu9  1  0.500000  0.500000  0.500000  1
  Si  Si10  1  0.116024  0.615487  0.500000  1
  Si  Si11  1  0.883976  0.384513  0.500000  1
  Si  Si12  1  0.384513  0.116024  0.500000  1
  Si  Si13  1  0.615487  0.883976  0.500000  1
  B  B14  1  0.172340  0.039126  0.000000  1
  B  B15  1  0.827660  0.960874  0.000000  1
  B  B16  1  0.960874  0.172340  0.000000  1
  B  B17  1  0.327642  0.539089  0.000000  1
  B  B18  1  0.039126  0.827660  0.000000  1
  B  B19  1  0.672358  0.460911  0.000000  1
  B  B20  1  0.539089  0.672358  0.000000  1
  B  B21  1  0.460911  0.327642  0.000000  1
  B  B22  1  0.089749  0.589802  0.000000  1
  B  B23  1  0.910251  0.410198  0.000000  1
  B  B24  1  0.410198  0.089749  0.000000  1
  B  B25  1  0.589802  0.910251  0.000000  1
  B  B26  1  0.000000  0.000000  0.162956  1
  B  B27  1  0.000000  0.000000  0.837044  1
  B  B28  1  0.500000  0.500000  0.836808  1
  B  B29  1  0.500000  0.500000  0.163192  1
