# generated using pymatgen
data_Dy4Al18ZnIr5
_symmetry_space_group_name_H-M   'P 1'
_cell_length_a   7.58245324
_cell_length_b   7.58245303
_cell_length_c   9.44485459
_cell_angle_alpha   89.95747800
_cell_angle_beta   89.95748088
_cell_angle_gamma   119.69728266
_symmetry_Int_Tables_number   1
_chemical_formula_structural   Dy4Al18ZnIr5
_chemical_formula_sum   'Dy4 Al18 Zn1 Ir5'
_cell_volume   471.69535598
_cell_formula_units_Z   1
loop_
 _symmetry_equiv_pos_site_id
 _symmetry_equiv_pos_as_xyz
  1  'x, y, z'
loop_
 _atom_site_type_symbol
 _atom_site_label
 _atom_site_symmetry_multiplicity
 _atom_site_fract_x
 _atom_site_fract_y
 _atom_site_fract_z
 _atom_site_occupancy
  Dy  Dy0  1  0.991386  0.666315  0.749894  1
  Dy  Dy1  1  0.001101  0.329029  0.250419  1
  Dy  Dy2  1  0.670971  0.998899  0.749581  1
  Dy  Dy3  1  0.333685  0.008614  0.250106  1
  Al  Al4  1  0.127292  0.124760  0.751683  1
  Al  Al5  1  0.875240  0.872708  0.248317  1
  Al  Al6  1  0.012199  0.335464  0.578884  1
  Al  Al7  1  0.007544  0.674886  0.421831  1
  Al  Al8  1  0.002062  0.665321  0.071802  1
  Al  Al9  1  0.334679  0.997938  0.928198  1
  Al  Al10  1  0.999791  0.334417  0.926453  1
  Al  Al11  1  0.665583  0.000209  0.073547  1
  Al  Al12  1  0.664536  0.987801  0.421116  1
  Al  Al13  1  0.325114  0.992456  0.578169  1
  Al  Al14  1  0.331142  0.331570  0.048871  1
  Al  Al15  1  0.668430  0.668858  0.951129  1
  Al  Al16  1  0.665456  0.671712  0.560221  1
  Al  Al17  1  0.328288  0.334544  0.439779  1
  Al  Al18  1  0.341295  0.551387  0.751921  1
  Al  Al19  1  0.660468  0.457753  0.242188  1
  Al  Al20  1  0.542247  0.339532  0.757812  1
  Al  Al21  1  0.448613  0.658705  0.248079  1
  Zn  Zn22  1  0.673882  0.326118  0.500000  1
  Ir  Ir23  1  0.328676  0.671324  0.500000  1
  Ir  Ir24  1  0.328599  0.671401  0.000000  1
  Ir  Ir25  1  0.672256  0.327744  0.000000  1
  Ir  Ir26  1  0.999210  0.000790  0.500000  1
  Ir  Ir27  1  0.000257  0.999743  0.000000  1
