# generated using pymatgen
data_Be2Nb3Ru4Rh
_symmetry_space_group_name_H-M   'P 1'
_cell_length_a   9.43763500
_cell_length_b   9.43763500
_cell_length_c   3.14120800
_cell_angle_alpha   90.00000000
_cell_angle_beta   90.00000000
_cell_angle_gamma   90.00000000
_symmetry_Int_Tables_number   1
_chemical_formula_structural   Be2Nb3Ru4Rh
_chemical_formula_sum   'Be4 Nb6 Ru8 Rh2'
_cell_volume   279.78411209
_cell_formula_units_Z   2
loop_
 _symmetry_equiv_pos_site_id
 _symmetry_equiv_pos_as_xyz
  1  'x, y, z'
loop_
 _atom_site_type_symbol
 _atom_site_label
 _atom_site_symmetry_multiplicity
 _atom_site_fract_x
 _atom_site_fract_y
 _atom_site_fract_z
 _atom_site_occupancy
  Be  Be0  1  0.620229  0.879771  0.000000  1
  Be  Be1  1  0.379771  0.120229  0.000000  1
  Be  Be2  1  0.120229  0.620229  0.000000  1
  Be  Be3  1  0.879771  0.379771  0.000000  1
  Nb  Nb4  1  0.821247  0.678753  0.000000  1
  Nb  Nb5  1  0.178753  0.321247  0.000000  1
  Nb  Nb6  1  0.321247  0.821247  0.000000  1
  Nb  Nb7  1  0.678753  0.178753  0.000000  1
  Nb  Nb8  1  0.500000  0.500000  0.000000  1
  Nb  Nb9  1  0.000000  0.000000  0.000000  1
  Ru  Ru10  1  0.570413  0.713512  0.500000  1
  Ru  Ru11  1  0.429587  0.286488  0.500000  1
  Ru  Ru12  1  0.070413  0.786488  0.500000  1
  Ru  Ru13  1  0.929587  0.213512  0.500000  1
  Ru  Ru14  1  0.286488  0.570413  0.500000  1
  Ru  Ru15  1  0.713512  0.429587  0.500000  1
  Ru  Ru16  1  0.213512  0.070413  0.500000  1
  Ru  Ru17  1  0.786488  0.929587  0.500000  1
  Rh  Rh18  1  0.500000  0.000000  0.500000  1
  Rh  Rh19  1  0.000000  0.500000  0.500000  1
