# generated using pymatgen
data_Tb20Ir7PtAu4
_symmetry_space_group_name_H-M   'P 1'
_cell_length_a   11.22688749
_cell_length_b   11.20859476
_cell_length_c   6.35092027
_cell_angle_alpha   89.90131789
_cell_angle_beta   89.99864699
_cell_angle_gamma   89.69592844
_symmetry_Int_Tables_number   1
_chemical_formula_structural   Tb20Ir7PtAu4
_chemical_formula_sum   'Tb20 Ir7 Pt1 Au4'
_cell_volume   799.17232996
_cell_formula_units_Z   1
loop_
 _symmetry_equiv_pos_site_id
 _symmetry_equiv_pos_as_xyz
  1  'x, y, z'
loop_
 _atom_site_type_symbol
 _atom_site_label
 _atom_site_symmetry_multiplicity
 _atom_site_fract_x
 _atom_site_fract_y
 _atom_site_fract_z
 _atom_site_occupancy
  Tb  Tb0  1  0.299189  0.091028  0.364601  1
  Tb  Tb1  1  0.302169  0.906564  0.864132  1
  Tb  Tb2  1  0.700256  0.077512  0.857907  1
  Tb  Tb3  1  0.700878  0.903517  0.368801  1
  Tb  Tb4  1  0.586005  0.786370  0.875956  1
  Tb  Tb5  1  0.577490  0.205712  0.362383  1
  Tb  Tb6  1  0.417378  0.789646  0.375810  1
  Tb  Tb7  1  0.411188  0.207505  0.876872  1
  Tb  Tb8  1  0.214916  0.419142  0.623196  1
  Tb  Tb9  1  0.210514  0.583804  0.123830  1
  Tb  Tb10  1  0.793905  0.423966  0.137704  1
  Tb  Tb11  1  0.793536  0.594085  0.623706  1
  Tb  Tb12  1  0.906839  0.703081  0.129010  1
  Tb  Tb13  1  0.918283  0.302255  0.640310  1
  Tb  Tb14  1  0.090086  0.699991  0.638148  1
  Tb  Tb15  1  0.094266  0.301432  0.138135  1
  Tb  Tb16  1  0.995015  0.996841  0.500811  1
  Tb  Tb17  1  0.996062  0.997957  0.999082  1
  Tb  Tb18  1  0.496099  0.502539  0.000910  1
  Tb  Tb19  1  0.498305  0.503901  0.499466  1
  Ir  Ir20  1  0.653367  0.651738  0.251106  1
  Ir  Ir21  1  0.348483  0.346512  0.248915  1
  Ir  Ir22  1  0.344695  0.654905  0.749661  1
  Ir  Ir23  1  0.500037  0.999489  0.112567  1
  Ir  Ir24  1  0.498863  0.000739  0.612068  1
  Ir  Ir25  1  0.999524  0.500340  0.887911  1
  Ir  Ir26  1  0.000709  0.500527  0.387396  1
  Pt  Pt27  1  0.845094  0.847638  0.750936  1
  Au  Au28  1  0.841481  0.157921  0.249460  1
  Au  Au29  1  0.153543  0.155568  0.748949  1
  Au  Au30  1  0.155400  0.844462  0.249946  1
  Au  Au31  1  0.656426  0.343316  0.750318  1
