# generated using pymatgen
data_Sr7TbBi6
_symmetry_space_group_name_H-M   'P 1'
_cell_length_a   8.72023334
_cell_length_b   8.78150270
_cell_length_c   8.78150370
_cell_angle_alpha   109.61212772
_cell_angle_beta   109.32994025
_cell_angle_gamma   109.32994280
_symmetry_Int_Tables_number   1
_chemical_formula_structural   Sr7TbBi6
_chemical_formula_sum   'Sr7 Tb1 Bi6'
_cell_volume   518.55903848
_cell_formula_units_Z   1
loop_
 _symmetry_equiv_pos_site_id
 _symmetry_equiv_pos_as_xyz
  1  'x, y, z'
loop_
 _atom_site_type_symbol
 _atom_site_label
 _atom_site_symmetry_multiplicity
 _atom_site_fract_x
 _atom_site_fract_y
 _atom_site_fract_z
 _atom_site_occupancy
  Sr  Sr0  1  0.500269  0.005088  0.363830  1
  Sr  Sr1  1  0.502011  0.001625  0.855937  1
  Sr  Sr2  1  0.646074  0.644063  0.645688  1
  Sr  Sr3  1  0.995181  0.358742  0.494912  1
  Sr  Sr4  1  0.136439  0.136170  0.141258  1
  Sr  Sr5  1  0.856630  0.500000  0.000000  1
  Sr  Sr6  1  0.000386  0.854312  0.498375  1
  Tb  Tb7  1  0.360406  0.500000  0.000000  1
  Bi  Bi8  1  0.135166  0.741415  0.880167  1
  Bi  Bi9  1  0.893751  0.138752  0.758585  1
  Bi  Bi10  1  0.611553  0.377383  0.238588  1
  Bi  Bi11  1  0.372965  0.261412  0.638795  1
  Bi  Bi12  1  0.734170  0.861205  0.122617  1
  Bi  Bi13  1  0.254999  0.619833  0.361248  1
