# generated using pymatgen
data_Dy3Er(GaNi)4
_symmetry_space_group_name_H-M   'P 1'
_cell_length_a   4.26098900
_cell_length_b   6.78429459
_cell_length_c   7.41835939
_cell_angle_alpha   89.59219307
_cell_angle_beta   90.00000000
_cell_angle_gamma   90.00000000
_symmetry_Int_Tables_number   1
_chemical_formula_structural   Dy3Er(GaNi)4
_chemical_formula_sum   'Dy3 Er1 Ga4 Ni4'
_cell_volume   214.44305175
_cell_formula_units_Z   1
loop_
 _symmetry_equiv_pos_site_id
 _symmetry_equiv_pos_as_xyz
  1  'x, y, z'
loop_
 _atom_site_type_symbol
 _atom_site_label
 _atom_site_symmetry_multiplicity
 _atom_site_fract_x
 _atom_site_fract_y
 _atom_site_fract_z
 _atom_site_occupancy
  Dy  Dy0  1  0.250000  0.980014  0.305113  1
  Dy  Dy1  1  0.250000  0.480217  0.193790  1
  Dy  Dy2  1  0.750000  0.020241  0.695234  1
  Er  Er3  1  0.750000  0.520288  0.804509  1
  Ga  Ga4  1  0.250000  0.328844  0.574354  1
  Ga  Ga5  1  0.250000  0.826509  0.926038  1
  Ga  Ga6  1  0.750000  0.671972  0.427243  1
  Ga  Ga7  1  0.750000  0.173081  0.073144  1
  Ni  Ni8  1  0.250000  0.217383  0.900882  1
  Ni  Ni9  1  0.250000  0.717250  0.600354  1
  Ni  Ni10  1  0.750000  0.780691  0.098704  1
  Ni  Ni11  1  0.750000  0.283511  0.400634  1
