# generated using pymatgen
data_Y14Ho6Si15As
_symmetry_space_group_name_H-M   'P 1'
_cell_length_a   7.51160260
_cell_length_b   7.66477572
_cell_length_c   14.64690420
_cell_angle_alpha   89.77058082
_cell_angle_beta   85.88434600
_cell_angle_gamma   89.57026910
_symmetry_Int_Tables_number   1
_chemical_formula_structural   Y14Ho6Si15As
_chemical_formula_sum   'Y14 Ho6 Si15 As1'
_cell_volume   841.08842836
_cell_formula_units_Z   1
loop_
 _symmetry_equiv_pos_site_id
 _symmetry_equiv_pos_as_xyz
  1  'x, y, z'
loop_
 _atom_site_type_symbol
 _atom_site_label
 _atom_site_symmetry_multiplicity
 _atom_site_fract_x
 _atom_site_fract_y
 _atom_site_fract_z
 _atom_site_occupancy
  Y  Y0  1  0.675195  0.995423  0.246635  1
  Y  Y1  1  0.174391  0.505775  0.245916  1
  Y  Y2  1  0.825978  0.493323  0.751162  1
  Y  Y3  1  0.324062  0.004717  0.753255  1
  Y  Y4  1  0.011708  0.825832  0.101995  1
  Y  Y5  1  0.477548  0.683609  0.399058  1
  Y  Y6  1  0.487307  0.318525  0.898331  1
  Y  Y7  1  0.022475  0.182565  0.600523  1
  Y  Y8  1  0.991375  0.177057  0.899198  1
  Y  Y9  1  0.522632  0.315607  0.601169  1
  Y  Y10  1  0.507463  0.682331  0.102260  1
  Y  Y11  1  0.976600  0.816092  0.398928  1
  Y  Y12  1  0.638361  0.837141  0.881549  1
  Y  Y13  1  0.172426  0.677360  0.621669  1
  Ho  Ho14  1  0.862819  0.336459  0.118798  1
  Ho  Ho15  1  0.328632  0.178360  0.378088  1
  Ho  Ho16  1  0.360649  0.164491  0.118733  1
  Ho  Ho17  1  0.827898  0.322157  0.377549  1
  Ho  Ho18  1  0.139842  0.664082  0.881591  1
  Ho  Ho19  1  0.671442  0.821299  0.622611  1
  Si  Si20  1  0.789168  0.627683  0.251968  1
  Si  Si21  1  0.289507  0.873648  0.252706  1
  Si  Si22  1  0.710174  0.127397  0.747743  1
  Si  Si23  1  0.209620  0.371624  0.748348  1
  Si  Si24  1  0.049506  0.111496  0.251830  1
  Si  Si25  1  0.549017  0.389542  0.250998  1
  Si  Si26  1  0.451462  0.609207  0.749702  1
  Si  Si27  1  0.950527  0.888814  0.748927  1
  Si  Si28  1  0.356276  0.971798  0.541477  1
  Si  Si29  1  0.710147  0.035580  0.043282  1
  Si  Si30  1  0.144498  0.470469  0.458116  1
  Si  Si31  1  0.213429  0.468166  0.043428  1
  Si  Si32  1  0.647365  0.029164  0.459001  1
  Si  Si33  1  0.290042  0.965425  0.957118  1
  Si  Si34  1  0.852721  0.528127  0.540734  1
  As  As35  1  0.787736  0.529653  0.955603  1
