# generated using pymatgen
data_CaTm3Ir8
_symmetry_space_group_name_H-M   'P 1'
_cell_length_a   5.33608100
_cell_length_b   5.33608237
_cell_length_c   8.67915600
_cell_angle_alpha   90.00000000
_cell_angle_beta   90.00000000
_cell_angle_gamma   119.99999768
_symmetry_Int_Tables_number   1
_chemical_formula_structural   CaTm3Ir8
_chemical_formula_sum   'Ca1 Tm3 Ir8'
_cell_volume   214.01936686
_cell_formula_units_Z   1
loop_
 _symmetry_equiv_pos_site_id
 _symmetry_equiv_pos_as_xyz
  1  'x, y, z'
loop_
 _atom_site_type_symbol
 _atom_site_label
 _atom_site_symmetry_multiplicity
 _atom_site_fract_x
 _atom_site_fract_y
 _atom_site_fract_z
 _atom_site_occupancy
  Ca  Ca0  1  0.333334  0.666668  0.065535  1
  Tm  Tm1  1  0.333334  0.666668  0.428155  1
  Tm  Tm2  1  0.666667  0.333333  0.567933  1
  Tm  Tm3  1  0.666667  0.333333  0.936195  1
  Ir  Ir4  1  0.000000  0.000000  0.000355  1
  Ir  Ir5  1  0.340393  0.170197  0.252316  1
  Ir  Ir6  1  0.829803  0.170197  0.252316  1
  Ir  Ir7  1  0.829803  0.659605  0.252316  1
  Ir  Ir8  1  0.000000  0.000000  0.500049  1
  Ir  Ir9  1  0.170080  0.340160  0.748276  1
  Ir  Ir10  1  0.170081  0.829921  0.748276  1
  Ir  Ir11  1  0.659840  0.829921  0.748276  1
