# generated using pymatgen
data_Ca(Nd4Rh3)2
_symmetry_space_group_name_H-M   'P 1'
_cell_length_a   7.63050175
_cell_length_b   7.63050222
_cell_length_c   7.63050263
_cell_angle_alpha   71.19769668
_cell_angle_beta   71.19769329
_cell_angle_gamma   71.19769492
_symmetry_Int_Tables_number   1
_chemical_formula_structural   Ca(Nd4Rh3)2
_chemical_formula_sum   'Ca1 Nd8 Rh6'
_cell_volume   386.12291017
_cell_formula_units_Z   1
loop_
 _symmetry_equiv_pos_site_id
 _symmetry_equiv_pos_as_xyz
  1  'x, y, z'
loop_
 _atom_site_type_symbol
 _atom_site_label
 _atom_site_symmetry_multiplicity
 _atom_site_fract_x
 _atom_site_fract_y
 _atom_site_fract_z
 _atom_site_occupancy
  Ca  Ca0  1  0.000000  0.000000  0.000000  1
  Nd  Nd1  1  0.800534  0.800534  0.800534  1
  Nd  Nd2  1  0.199466  0.199466  0.199466  1
  Nd  Nd3  1  0.156908  0.388393  0.668738  1
  Nd  Nd4  1  0.668738  0.156908  0.388393  1
  Nd  Nd5  1  0.388393  0.668738  0.156908  1
  Nd  Nd6  1  0.843092  0.611607  0.331262  1
  Nd  Nd7  1  0.331262  0.843092  0.611607  1
  Nd  Nd8  1  0.611607  0.331262  0.843092  1
  Rh  Rh9  1  0.952867  0.172389  0.580857  1
  Rh  Rh10  1  0.580857  0.952867  0.172389  1
  Rh  Rh11  1  0.172389  0.580857  0.952867  1
  Rh  Rh12  1  0.047133  0.827611  0.419143  1
  Rh  Rh13  1  0.419143  0.047133  0.827611  1
  Rh  Rh14  1  0.827611  0.419143  0.047133  1
