# generated using pymatgen
data_CaDy3(Rh2O7)2
_symmetry_space_group_name_H-M   'P 1'
_cell_length_a   7.23294889
_cell_length_b   7.23294900
_cell_length_c   7.23294800
_cell_angle_alpha   60.10736604
_cell_angle_beta   60.10736222
_cell_angle_gamma   60.10737123
_symmetry_Int_Tables_number   1
_chemical_formula_structural   CaDy3(Rh2O7)2
_chemical_formula_sum   'Ca1 Dy3 Rh4 O14'
_cell_volume   268.21701966
_cell_formula_units_Z   1
loop_
 _symmetry_equiv_pos_site_id
 _symmetry_equiv_pos_as_xyz
  1  'x, y, z'
loop_
 _atom_site_type_symbol
 _atom_site_label
 _atom_site_symmetry_multiplicity
 _atom_site_fract_x
 _atom_site_fract_y
 _atom_site_fract_z
 _atom_site_occupancy
  Ca  Ca0  1  0.125000  0.125000  0.125000  1
  Dy  Dy1  1  0.125000  0.625000  0.125000  1
  Dy  Dy2  1  0.125000  0.125000  0.625000  1
  Dy  Dy3  1  0.625000  0.125000  0.125000  1
  Rh  Rh4  1  0.625000  0.625000  0.625000  1
  Rh  Rh5  1  0.125000  0.625000  0.625000  1
  Rh  Rh6  1  0.625000  0.125000  0.625000  1
  Rh  Rh7  1  0.625000  0.625000  0.125000  1
  O  O8  1  0.291190  0.709911  0.709911  1
  O  O9  1  0.551330  0.956540  0.956540  1
  O  O10  1  0.709911  0.291190  0.709911  1
  O  O11  1  0.293460  0.293460  0.698670  1
  O  O12  1  0.709911  0.709911  0.291190  1
  O  O13  1  0.997649  0.997649  0.997649  1
  O  O14  1  0.293460  0.698670  0.293460  1
  O  O15  1  0.956540  0.551330  0.956540  1
  O  O16  1  0.956540  0.956540  0.551330  1
  O  O17  1  0.540089  0.540089  0.958810  1
  O  O18  1  0.252351  0.252351  0.252351  1
  O  O19  1  0.540089  0.958810  0.540089  1
  O  O20  1  0.698670  0.293460  0.293460  1
  O  O21  1  0.958810  0.540089  0.540089  1
