# generated using pymatgen
data_LaNdSm5CoI12
_symmetry_space_group_name_H-M   'P 1'
_cell_length_a   9.95050823
_cell_length_b   9.95137074
_cell_length_c   9.95443343
_cell_angle_alpha   106.49645286
_cell_angle_beta   106.46693683
_cell_angle_gamma   106.42035648
_symmetry_Int_Tables_number   1
_chemical_formula_structural   LaNdSm5CoI12
_chemical_formula_sum   'La1 Nd1 Sm5 Co1 I12'
_cell_volume   832.66991543
_cell_formula_units_Z   1
loop_
 _symmetry_equiv_pos_site_id
 _symmetry_equiv_pos_as_xyz
  1  'x, y, z'
loop_
 _atom_site_type_symbol
 _atom_site_label
 _atom_site_symmetry_multiplicity
 _atom_site_fract_x
 _atom_site_fract_y
 _atom_site_fract_z
 _atom_site_occupancy
  La  La0  1  0.995779  0.995703  0.995543  1
  Nd  Nd1  1  0.518225  0.592038  0.791502  1
  Sm  Sm2  1  0.788616  0.517922  0.590309  1
  Sm  Sm3  1  0.590960  0.788431  0.517610  1
  Sm  Sm4  1  0.480210  0.407346  0.210416  1
  Sm  Sm5  1  0.210002  0.479981  0.406506  1
  Sm  Sm6  1  0.407386  0.209971  0.479528  1
  Co  Co7  1  0.499462  0.499432  0.499041  1
  I  I8  1  0.275432  0.821561  0.426776  1
  I  I9  1  0.425943  0.272643  0.821272  1
  I  I10  1  0.821743  0.426742  0.275313  1
  I  I11  1  0.723345  0.177261  0.572037  1
  I  I12  1  0.572317  0.723803  0.178418  1
  I  I13  1  0.174800  0.571677  0.722226  1
  I  I14  1  0.042151  0.120703  0.345366  1
  I  I15  1  0.345359  0.042066  0.120663  1
  I  I16  1  0.120590  0.345296  0.042044  1
  I  I17  1  0.955905  0.876513  0.647702  1
  I  I18  1  0.648650  0.958290  0.876675  1
  I  I19  1  0.878492  0.647990  0.956419  1
