# generated using pymatgen
data_Ho2Er3Co19(SiP)6
_symmetry_space_group_name_H-M   'P 1'
_cell_length_a   12.03783800
_cell_length_b   12.03783979
_cell_length_c   3.66865000
_cell_angle_alpha   90.00000000
_cell_angle_beta   90.00000000
_cell_angle_gamma   120.00000059
_symmetry_Int_Tables_number   1
_chemical_formula_structural   Ho2Er3Co19(SiP)6
_chemical_formula_sum   'Ho2 Er3 Co19 Si6 P6'
_cell_volume   460.39856709
_cell_formula_units_Z   1
loop_
 _symmetry_equiv_pos_site_id
 _symmetry_equiv_pos_as_xyz
  1  'x, y, z'
loop_
 _atom_site_type_symbol
 _atom_site_label
 _atom_site_symmetry_multiplicity
 _atom_site_fract_x
 _atom_site_fract_y
 _atom_site_fract_z
 _atom_site_occupancy
  Ho  Ho0  1  0.666667  0.333333  0.000000  1
  Ho  Ho1  1  0.333333  0.666667  0.000000  1
  Er  Er2  1  0.815576  0.815576  0.500000  1
  Er  Er3  1  0.184424  0.000000  0.500000  1
  Er  Er4  1  0.000000  0.184424  0.500000  1
  Co  Co5  1  0.878306  0.355075  0.500000  1
  Co  Co6  1  0.644925  0.523232  0.500000  1
  Co  Co7  1  0.476768  0.121694  0.500000  1
  Co  Co8  1  0.355075  0.878306  0.500000  1
  Co  Co9  1  0.523232  0.644925  0.500000  1
  Co  Co10  1  0.121694  0.476768  0.500000  1
  Co  Co11  1  0.447017  0.447017  0.000000  1
  Co  Co12  1  0.552983  0.000000  0.000000  1
  Co  Co13  1  0.000000  0.552983  0.000000  1
  Co  Co14  1  0.805970  0.178879  0.000000  1
  Co  Co15  1  0.821121  0.627091  0.000000  1
  Co  Co16  1  0.372909  0.194030  0.000000  1
  Co  Co17  1  0.178879  0.805970  0.000000  1
  Co  Co18  1  0.627091  0.821121  0.000000  1
  Co  Co19  1  0.194030  0.372909  0.000000  1
  Co  Co20  1  0.277261  0.277261  0.500000  1
  Co  Co21  1  0.722739  0.000000  0.500000  1
  Co  Co22  1  0.000000  0.722739  0.500000  1
  Co  Co23  1  0.000000  0.000000  0.000000  1
  Si  Si24  1  0.681391  0.159551  0.500000  1
  Si  Si25  1  0.840449  0.521841  0.500000  1
  Si  Si26  1  0.478159  0.318609  0.500000  1
  Si  Si27  1  0.159551  0.681391  0.500000  1
  Si  Si28  1  0.521841  0.840449  0.500000  1
  Si  Si29  1  0.318609  0.478159  0.500000  1
  P  P30  1  0.180495  0.180495  0.000000  1
  P  P31  1  0.819505  0.000000  0.000000  1
  P  P32  1  0.000000  0.819505  0.000000  1
  P  P33  1  0.631716  0.631716  0.000000  1
  P  P34  1  0.368284  0.000000  0.000000  1
  P  P35  1  0.000000  0.368284  0.000000  1
