# generated using pymatgen
data_Ho2NbSi2Ru5
_symmetry_space_group_name_H-M   'P 1'
_cell_length_a   10.03685600
_cell_length_b   10.03685600
_cell_length_c   3.25574500
_cell_angle_alpha   90.00000000
_cell_angle_beta   90.00000000
_cell_angle_gamma   90.00000000
_symmetry_Int_Tables_number   1
_chemical_formula_structural   Ho2NbSi2Ru5
_chemical_formula_sum   'Ho4 Nb2 Si4 Ru10'
_cell_volume   327.97879724
_cell_formula_units_Z   2
loop_
 _symmetry_equiv_pos_site_id
 _symmetry_equiv_pos_as_xyz
  1  'x, y, z'
loop_
 _atom_site_type_symbol
 _atom_site_label
 _atom_site_symmetry_multiplicity
 _atom_site_fract_x
 _atom_site_fract_y
 _atom_site_fract_z
 _atom_site_occupancy
  Ho  Ho0  1  0.825914  0.674086  0.000000  1
  Ho  Ho1  1  0.174086  0.325914  0.000000  1
  Ho  Ho2  1  0.325914  0.825914  0.000000  1
  Ho  Ho3  1  0.674086  0.174086  0.000000  1
  Nb  Nb4  1  0.500000  0.500000  0.000000  1
  Nb  Nb5  1  0.000000  0.000000  0.000000  1
  Si  Si6  1  0.625661  0.874339  0.000000  1
  Si  Si7  1  0.374339  0.125661  0.000000  1
  Si  Si8  1  0.125661  0.625661  0.000000  1
  Si  Si9  1  0.874339  0.374339  0.000000  1
  Ru  Ru10  1  0.566847  0.708919  0.500000  1
  Ru  Ru11  1  0.433153  0.291081  0.500000  1
  Ru  Ru12  1  0.066847  0.791081  0.500000  1
  Ru  Ru13  1  0.933153  0.208919  0.500000  1
  Ru  Ru14  1  0.291081  0.566847  0.500000  1
  Ru  Ru15  1  0.708919  0.433153  0.500000  1
  Ru  Ru16  1  0.208919  0.066847  0.500000  1
  Ru  Ru17  1  0.791081  0.933153  0.500000  1
  Ru  Ru18  1  0.500000  0.000000  0.500000  1
  Ru  Ru19  1  0.000000  0.500000  0.500000  1
