# generated using pymatgen
data_TaTiZn(Co10B3)2
_symmetry_space_group_name_H-M   'P 1'
_cell_length_a   7.42170856
_cell_length_b   7.42210052
_cell_length_c   7.42197201
_cell_angle_alpha   59.99957765
_cell_angle_beta   59.99942644
_cell_angle_gamma   59.99860019
_symmetry_Int_Tables_number   1
_chemical_formula_structural   TaTiZn(Co10B3)2
_chemical_formula_sum   'Ta1 Ti1 Zn1 Co20 B6'
_cell_volume   289.08607893
_cell_formula_units_Z   1
loop_
 _symmetry_equiv_pos_site_id
 _symmetry_equiv_pos_as_xyz
  1  'x, y, z'
loop_
 _atom_site_type_symbol
 _atom_site_label
 _atom_site_symmetry_multiplicity
 _atom_site_fract_x
 _atom_site_fract_y
 _atom_site_fract_z
 _atom_site_occupancy
  Ta  Ta0  1  0.249992  0.250012  0.250032  1
  Ti  Ti1  1  0.749988  0.750096  0.749858  1
  Zn  Zn2  1  0.000009  0.000029  0.999917  1
  Co  Co3  1  0.847275  0.384251  0.384220  1
  Co  Co4  1  0.384248  0.847336  0.384194  1
  Co  Co5  1  0.384256  0.384234  0.847280  1
  Co  Co6  1  0.384260  0.384238  0.384207  1
  Co  Co7  1  0.145603  0.618074  0.618203  1
  Co  Co8  1  0.618108  0.145642  0.618167  1
  Co  Co9  1  0.618169  0.618100  0.145585  1
  Co  Co10  1  0.618128  0.618061  0.618193  1
  Co  Co11  1  0.658428  0.999940  0.999894  1
  Co  Co12  1  0.658308  0.999970  0.341771  1
  Co  Co13  1  0.658424  0.341739  0.999905  1
  Co  Co14  1  0.999949  0.658294  0.341785  1
  Co  Co15  1  0.999914  0.658422  0.999922  1
  Co  Co16  1  0.341755  0.658397  0.999914  1
  Co  Co17  1  0.999946  0.341636  0.658452  1
  Co  Co18  1  0.341630  0.999973  0.658449  1
  Co  Co19  1  0.999929  0.999980  0.658468  1
  Co  Co20  1  0.341752  0.999942  0.999900  1
  Co  Co21  1  0.999915  0.341747  0.999917  1
  Co  Co22  1  0.999934  0.999979  0.341787  1
  B  B23  1  0.724531  0.275463  0.275459  1
  B  B24  1  0.724595  0.275422  0.724543  1
  B  B25  1  0.724580  0.724519  0.275444  1
  B  B26  1  0.275436  0.724590  0.724584  1
  B  B27  1  0.275475  0.724520  0.275414  1
  B  B28  1  0.275465  0.275395  0.724535  1
