# generated using pymatgen
data_Dy2Tc3Ge4
_symmetry_space_group_name_H-M   'P 1'
_cell_length_a   8.30764300
_cell_length_b   5.69517263
_cell_length_c   7.01730263
_cell_angle_alpha   76.16448280
_cell_angle_beta   90.00000000
_cell_angle_gamma   90.00000000
_symmetry_Int_Tables_number   1
_chemical_formula_structural   Dy2Tc3Ge4
_chemical_formula_sum   'Dy4 Tc6 Ge8'
_cell_volume   322.37992862
_cell_formula_units_Z   2
loop_
 _symmetry_equiv_pos_site_id
 _symmetry_equiv_pos_as_xyz
  1  'x, y, z'
loop_
 _atom_site_type_symbol
 _atom_site_label
 _atom_site_symmetry_multiplicity
 _atom_site_fract_x
 _atom_site_fract_y
 _atom_site_fract_z
 _atom_site_occupancy
  Dy  Dy0  1  0.555586  0.076347  0.245144  1
  Dy  Dy1  1  0.055586  0.423653  0.754856  1
  Dy  Dy2  1  0.444414  0.923653  0.754856  1
  Dy  Dy3  1  0.944414  0.576347  0.245144  1
  Tc  Tc4  1  0.205026  0.112223  0.115759  1
  Tc  Tc5  1  0.705026  0.387777  0.884241  1
  Tc  Tc6  1  0.794974  0.887777  0.884241  1
  Tc  Tc7  1  0.294974  0.612223  0.115759  1
  Tc  Tc8  1  0.000000  0.000000  0.500000  1
  Tc  Tc9  1  0.500000  0.500000  0.500000  1
  Ge  Ge10  1  0.901031  0.120768  0.126751  1
  Ge  Ge11  1  0.401031  0.379232  0.873249  1
  Ge  Ge12  1  0.098969  0.879232  0.873249  1
  Ge  Ge13  1  0.598969  0.620768  0.126751  1
  Ge  Ge14  1  0.747474  0.222066  0.578307  1
  Ge  Ge15  1  0.247474  0.277934  0.421693  1
  Ge  Ge16  1  0.252526  0.777934  0.421693  1
  Ge  Ge17  1  0.752526  0.722066  0.578307  1
