# generated using pymatgen
data_ErPa(B2Ir)3
_symmetry_space_group_name_H-M   'P 1'
_cell_length_a   5.94736056
_cell_length_b   5.94736058
_cell_length_c   3.73455500
_cell_angle_alpha   90.00000000
_cell_angle_beta   90.00000000
_cell_angle_gamma   94.10597569
_symmetry_Int_Tables_number   1
_chemical_formula_structural   ErPa(B2Ir)3
_chemical_formula_sum   'Er1 Pa1 B6 Ir3'
_cell_volume   131.75626379
_cell_formula_units_Z   1
loop_
 _symmetry_equiv_pos_site_id
 _symmetry_equiv_pos_as_xyz
  1  'x, y, z'
loop_
 _atom_site_type_symbol
 _atom_site_label
 _atom_site_symmetry_multiplicity
 _atom_site_fract_x
 _atom_site_fract_y
 _atom_site_fract_z
 _atom_site_occupancy
  Er  Er0  1  0.729086  0.270913  0.000000  1
  Pa  Pa1  1  0.271514  0.728486  0.000000  1
  B  B2  1  0.604657  0.607659  0.500000  1
  B  B3  1  0.392341  0.395343  0.500000  1
  B  B4  1  0.612159  0.913489  0.500000  1
  B  B5  1  0.385411  0.085401  0.500000  1
  B  B6  1  0.914599  0.614589  0.500000  1
  B  B7  1  0.086511  0.387841  0.500000  1
  Ir  Ir8  1  0.238935  0.238373  0.000000  1
  Ir  Ir9  1  0.761627  0.761065  0.000000  1
  Ir  Ir10  1  0.003159  0.996841  0.500000  1
