# generated using pymatgen
data_Dy12Tc3Sn2
_symmetry_space_group_name_H-M   'P 1'
_cell_length_a   8.48746146
_cell_length_b   8.48746182
_cell_length_c   8.48746164
_cell_angle_alpha   109.12111921
_cell_angle_beta   109.12112608
_cell_angle_gamma   110.17371239
_symmetry_Int_Tables_number   1
_chemical_formula_structural   Dy12Tc3Sn2
_chemical_formula_sum   'Dy12 Tc3 Sn2'
_cell_volume   470.61148958
_cell_formula_units_Z   1
loop_
 _symmetry_equiv_pos_site_id
 _symmetry_equiv_pos_as_xyz
  1  'x, y, z'
loop_
 _atom_site_type_symbol
 _atom_site_label
 _atom_site_symmetry_multiplicity
 _atom_site_fract_x
 _atom_site_fract_y
 _atom_site_fract_z
 _atom_site_occupancy
  Dy  Dy0  1  0.306504  0.306504  0.613009  1
  Dy  Dy1  1  0.693496  0.693496  0.386991  1
  Dy  Dy2  1  0.693496  0.306504  0.000000  1
  Dy  Dy3  1  0.306504  0.693496  0.000000  1
  Dy  Dy4  1  0.190660  0.430504  0.239844  1
  Dy  Dy5  1  0.809340  0.569496  0.760156  1
  Dy  Dy6  1  0.190660  0.950813  0.760156  1
  Dy  Dy7  1  0.950813  0.190660  0.760156  1
  Dy  Dy8  1  0.809340  0.049187  0.239844  1
  Dy  Dy9  1  0.049187  0.809340  0.239844  1
  Dy  Dy10  1  0.430504  0.190660  0.239844  1
  Dy  Dy11  1  0.569496  0.809340  0.760156  1
  Tc  Tc12  1  0.372073  0.372073  0.000000  1
  Tc  Tc13  1  0.627927  0.627927  0.000000  1
  Tc  Tc14  1  0.000000  0.000000  0.000000  1
  Sn  Sn15  1  0.000000  0.500000  0.500000  1
  Sn  Sn16  1  0.500000  0.000000  0.500000  1
