# generated using pymatgen
data_LaCe(NdSe2)6
_symmetry_space_group_name_H-M   'P 1'
_cell_length_a   4.22460200
_cell_length_b   7.86501482
_cell_length_c   16.37857400
_cell_angle_alpha   89.89877862
_cell_angle_beta   90.00000000
_cell_angle_gamma   90.00000000
_symmetry_Int_Tables_number   1
_chemical_formula_structural   LaCe(NdSe2)6
_chemical_formula_sum   'La1 Ce1 Nd6 Se12'
_cell_volume   544.20277875
_cell_formula_units_Z   1
loop_
 _symmetry_equiv_pos_site_id
 _symmetry_equiv_pos_as_xyz
  1  'x, y, z'
loop_
 _atom_site_type_symbol
 _atom_site_label
 _atom_site_symmetry_multiplicity
 _atom_site_fract_x
 _atom_site_fract_y
 _atom_site_fract_z
 _atom_site_occupancy
  La  La0  1  0.000000  0.140780  0.204591  1
  Ce  Ce1  1  0.499999  0.732793  0.042475  1
  Nd  Nd2  1  0.000000  0.642205  0.296966  1
  Nd  Nd3  1  0.499999  0.234078  0.456289  1
  Nd  Nd4  1  0.000000  0.766268  0.543798  1
  Nd  Nd5  1  0.499999  0.357930  0.703592  1
  Nd  Nd6  1  0.499999  0.858186  0.795142  1
  Nd  Nd7  1  0.000000  0.264429  0.955734  1
  Se  Se8  1  0.499999  0.125684  0.066008  1
  Se  Se9  1  0.000000  0.510334  0.108558  1
  Se  Se10  1  0.499999  0.849884  0.218218  1
  Se  Se11  1  0.499999  0.356656  0.281951  1
  Se  Se12  1  0.000000  0.007083  0.391418  1
  Se  Se13  1  0.499999  0.624596  0.433015  1
  Se  Se14  1  0.000000  0.375992  0.567434  1
  Se  Se15  1  0.499999  0.992756  0.609624  1
  Se  Se16  1  0.000000  0.645958  0.719037  1
  Se  Se17  1  0.000000  0.146361  0.781703  1
  Se  Se18  1  0.499999  0.493702  0.891589  1
  Se  Se19  1  0.000000  0.874311  0.932860  1
