# generated using pymatgen
data_Y8CuPd23Pb
_symmetry_space_group_name_H-M   'P 1'
_cell_length_a   8.45233700
_cell_length_b   8.41722100
_cell_length_c   8.41722100
_cell_angle_alpha   90.00000000
_cell_angle_beta   90.00000000
_cell_angle_gamma   90.00000000
_symmetry_Int_Tables_number   1
_chemical_formula_structural   Y8CuPd23Pb
_chemical_formula_sum   'Y8 Cu1 Pd23 Pb1'
_cell_volume   598.84477465
_cell_formula_units_Z   1
loop_
 _symmetry_equiv_pos_site_id
 _symmetry_equiv_pos_as_xyz
  1  'x, y, z'
loop_
 _atom_site_type_symbol
 _atom_site_label
 _atom_site_symmetry_multiplicity
 _atom_site_fract_x
 _atom_site_fract_y
 _atom_site_fract_z
 _atom_site_occupancy
  Y  Y0  1  0.250206  0.252689  0.252689  1
  Y  Y1  1  0.746284  0.747919  0.747919  1
  Y  Y2  1  0.746284  0.747919  0.252081  1
  Y  Y3  1  0.746284  0.252081  0.747919  1
  Y  Y4  1  0.250206  0.252689  0.747311  1
  Y  Y5  1  0.250206  0.747311  0.252689  1
  Y  Y6  1  0.250206  0.747311  0.747311  1
  Y  Y7  1  0.746284  0.252081  0.252081  1
  Cu  Cu8  1  0.344201  0.000000  0.000000  1
  Pd  Pd9  1  0.265637  0.500000  0.000000  1
  Pd  Pd10  1  0.727635  0.500000  0.000000  1
  Pd  Pd11  1  0.998536  0.267400  0.500000  1
  Pd  Pd12  1  0.497175  0.262116  0.000000  1
  Pd  Pd13  1  0.998536  0.732600  0.500000  1
  Pd  Pd14  1  0.497175  0.737884  0.000000  1
  Pd  Pd15  1  0.497175  0.000000  0.262116  1
  Pd  Pd16  1  0.265637  0.000000  0.500000  1
  Pd  Pd17  1  0.497175  0.000000  0.737884  1
  Pd  Pd18  1  0.727635  0.000000  0.500000  1
  Pd  Pd19  1  0.998536  0.500000  0.267400  1
  Pd  Pd20  1  0.998536  0.500000  0.732600  1
  Pd  Pd21  1  0.253825  0.500000  0.500000  1
  Pd  Pd22  1  0.742829  0.500000  0.500000  1
  Pd  Pd23  1  0.497948  0.254292  0.500000  1
  Pd  Pd24  1  0.497948  0.745708  0.500000  1
  Pd  Pd25  1  0.497948  0.500000  0.254292  1
  Pd  Pd26  1  0.497948  0.500000  0.745708  1
  Pd  Pd27  1  0.701323  0.000000  0.000000  1
  Pd  Pd28  1  0.996264  0.316384  0.000000  1
  Pd  Pd29  1  0.996264  0.683616  0.000000  1
  Pd  Pd30  1  0.996264  0.000000  0.316384  1
  Pd  Pd31  1  0.996264  0.000000  0.683616  1
  Pb  Pb32  1  0.025628  0.000000  0.000000  1
