# generated using pymatgen
data_Tb6GaSiC6
_symmetry_space_group_name_H-M   'P 1'
_cell_length_a   3.60946400
_cell_length_b   7.10212700
_cell_length_c   9.72412100
_cell_angle_alpha   90.00000000
_cell_angle_beta   90.00000000
_cell_angle_gamma   90.00000000
_symmetry_Int_Tables_number   1
_chemical_formula_structural   Tb6GaSiC6
_chemical_formula_sum   'Tb6 Ga1 Si1 C6'
_cell_volume   249.27659452
_cell_formula_units_Z   1
loop_
 _symmetry_equiv_pos_site_id
 _symmetry_equiv_pos_as_xyz
  1  'x, y, z'
loop_
 _atom_site_type_symbol
 _atom_site_label
 _atom_site_symmetry_multiplicity
 _atom_site_fract_x
 _atom_site_fract_y
 _atom_site_fract_z
 _atom_site_occupancy
  Tb  Tb0  1  0.500000  0.510515  0.189837  1
  Tb  Tb1  1  0.500000  0.490452  0.810083  1
  Tb  Tb2  1  0.500000  0.989485  0.189837  1
  Tb  Tb3  1  0.500000  0.009548  0.810083  1
  Tb  Tb4  1  0.000000  0.750000  0.457305  1
  Tb  Tb5  1  0.000000  0.250000  0.540541  1
  Ga  Ga6  1  0.000000  0.250000  0.003359  1
  Si  Si7  1  0.000000  0.750000  0.005555  1
  C  C8  1  0.500000  0.510616  0.567693  1
  C  C9  1  0.500000  0.491838  0.431906  1
  C  C10  1  0.500000  0.989384  0.567693  1
  C  C11  1  0.500000  0.008162  0.431906  1
  C  C12  1  0.000000  0.750000  0.201487  1
  C  C13  1  0.000000  0.250000  0.792715  1
