# generated using pymatgen
data_Lu5ScOsRh
_symmetry_space_group_name_H-M   'P 1'
_cell_length_a   7.09968000
_cell_length_b   8.88943500
_cell_length_c   6.17828600
_cell_angle_alpha   90.00000000
_cell_angle_beta   90.00000000
_cell_angle_gamma   90.00000000
_symmetry_Int_Tables_number   1
_chemical_formula_structural   Lu5ScOsRh
_chemical_formula_sum   'Lu10 Sc2 Os2 Rh2'
_cell_volume   389.92487497
_cell_formula_units_Z   2
loop_
 _symmetry_equiv_pos_site_id
 _symmetry_equiv_pos_as_xyz
  1  'x, y, z'
loop_
 _atom_site_type_symbol
 _atom_site_label
 _atom_site_symmetry_multiplicity
 _atom_site_fract_x
 _atom_site_fract_y
 _atom_site_fract_z
 _atom_site_occupancy
  Lu  Lu0  1  0.676835  0.054249  0.330456  1
  Lu  Lu1  1  0.176835  0.445751  0.169544  1
  Lu  Lu2  1  0.320956  0.567212  0.675280  1
  Lu  Lu3  1  0.820956  0.932788  0.824720  1
  Lu  Lu4  1  0.320956  0.932788  0.675280  1
  Lu  Lu5  1  0.820956  0.567212  0.824720  1
  Lu  Lu6  1  0.676835  0.445751  0.330456  1
  Lu  Lu7  1  0.176835  0.054249  0.169544  1
  Lu  Lu8  1  0.536940  0.250000  0.873396  1
  Lu  Lu9  1  0.036940  0.250000  0.626604  1
  Sc  Sc10  1  0.462621  0.750000  0.123147  1
  Sc  Sc11  1  0.962621  0.750000  0.376853  1
  Os  Os12  1  0.117514  0.750000  0.977819  1
  Os  Os13  1  0.617514  0.750000  0.522181  1
  Rh  Rh14  1  0.887343  0.250000  0.041210  1
  Rh  Rh15  1  0.387343  0.250000  0.458790  1
