# generated using pymatgen
data_CeU(Al5Fe)4
_symmetry_space_group_name_H-M   'P 1'
_cell_length_a   6.75594785
_cell_length_b   6.75814769
_cell_length_c   8.93045300
_cell_angle_alpha   90.00000000
_cell_angle_beta   90.00000000
_cell_angle_gamma   97.80483941
_symmetry_Int_Tables_number   1
_chemical_formula_structural   CeU(Al5Fe)4
_chemical_formula_sum   'Ce1 U1 Al20 Fe4'
_cell_volume   403.96669774
_cell_formula_units_Z   1
loop_
 _symmetry_equiv_pos_site_id
 _symmetry_equiv_pos_as_xyz
  1  'x, y, z'
loop_
 _atom_site_type_symbol
 _atom_site_label
 _atom_site_symmetry_multiplicity
 _atom_site_fract_x
 _atom_site_fract_y
 _atom_site_fract_z
 _atom_site_occupancy
  Ce  Ce0  1  0.876108  0.124012  0.250000  1
  U  U1  1  0.119850  0.879896  0.750000  1
  Al  Al2  1  0.226157  0.225476  0.502221  1
  Al  Al3  1  0.774410  0.773961  0.997789  1
  Al  Al4  1  0.774410  0.773961  0.502211  1
  Al  Al5  1  0.226157  0.225476  0.997779  1
  Al  Al6  1  0.374967  0.625146  0.550779  1
  Al  Al7  1  0.625183  0.374716  0.049695  1
  Al  Al8  1  0.586609  0.866338  0.750000  1
  Al  Al9  1  0.412047  0.133255  0.250000  1
  Al  Al10  1  0.866665  0.588019  0.250000  1
  Al  Al11  1  0.133740  0.413311  0.750000  1
  Al  Al12  1  0.477907  0.220019  0.750000  1
  Al  Al13  1  0.521557  0.778096  0.250000  1
  Al  Al14  1  0.222074  0.478445  0.250000  1
  Al  Al15  1  0.779737  0.522038  0.750000  1
  Al  Al16  1  0.159869  0.840315  0.402352  1
  Al  Al17  1  0.841739  0.158146  0.900774  1
  Al  Al18  1  0.841739  0.158146  0.599226  1
  Al  Al19  1  0.159869  0.840315  0.097648  1
  Al  Al20  1  0.374967  0.625146  0.949221  1
  Al  Al21  1  0.625183  0.374716  0.450305  1
  Fe  Fe22  1  0.000565  0.501075  0.500767  1
  Fe  Fe23  1  0.000565  0.501075  0.999233  1
  Fe  Fe24  1  0.498963  0.999449  0.500756  1
  Fe  Fe25  1  0.498963  0.999449  0.999244  1
