# generated using pymatgen
data_SrCe2(H6Ru)2
_symmetry_space_group_name_H-M   'P 1'
_cell_length_a   5.06412500
_cell_length_b   5.06412347
_cell_length_c   8.50168900
_cell_angle_alpha   90.00000000
_cell_angle_beta   90.00000000
_cell_angle_gamma   119.99999038
_symmetry_Int_Tables_number   1
_chemical_formula_structural   SrCe2(H6Ru)2
_chemical_formula_sum   'Sr1 Ce2 H12 Ru2'
_cell_volume   188.81852070
_cell_formula_units_Z   1
loop_
 _symmetry_equiv_pos_site_id
 _symmetry_equiv_pos_as_xyz
  1  'x, y, z'
loop_
 _atom_site_type_symbol
 _atom_site_label
 _atom_site_symmetry_multiplicity
 _atom_site_fract_x
 _atom_site_fract_y
 _atom_site_fract_z
 _atom_site_occupancy
  Sr  Sr0  1  0.000000  0.000000  0.000000  1
  Ce  Ce1  1  0.666667  0.333333  0.362243  1
  Ce  Ce2  1  0.333333  0.666667  0.637757  1
  H  H3  1  0.171600  0.828400  0.381267  1
  H  H4  1  0.656800  0.828400  0.381267  1
  H  H5  1  0.171600  0.343200  0.381267  1
  H  H6  1  0.828400  0.171600  0.618733  1
  H  H7  1  0.343200  0.171600  0.618733  1
  H  H8  1  0.828400  0.656800  0.618733  1
  H  H9  1  0.511444  0.022887  0.857864  1
  H  H10  1  0.511444  0.488556  0.857864  1
  H  H11  1  0.977113  0.488556  0.857864  1
  H  H12  1  0.488556  0.977113  0.142136  1
  H  H13  1  0.488556  0.511444  0.142136  1
  H  H14  1  0.022887  0.511444  0.142136  1
  Ru  Ru15  1  0.666667  0.333333  0.735090  1
  Ru  Ru16  1  0.333333  0.666667  0.264910  1
