# generated using pymatgen
data_La2Nd2PdSe7
_symmetry_space_group_name_H-M   'P 1'
_cell_length_a   4.09142202
_cell_length_b   8.43388475
_cell_length_c   8.73657900
_cell_angle_alpha   90.03586300
_cell_angle_beta   89.99413237
_cell_angle_gamma   89.99141666
_symmetry_Int_Tables_number   1
_chemical_formula_structural   La2Nd2PdSe7
_chemical_formula_sum   'La2 Nd2 Pd1 Se7'
_cell_volume   301.46941372
_cell_formula_units_Z   1
loop_
 _symmetry_equiv_pos_site_id
 _symmetry_equiv_pos_as_xyz
  1  'x, y, z'
loop_
 _atom_site_type_symbol
 _atom_site_label
 _atom_site_symmetry_multiplicity
 _atom_site_fract_x
 _atom_site_fract_y
 _atom_site_fract_z
 _atom_site_occupancy
  La  La0  1  0.250734  0.625986  0.749667  1
  La  La1  1  0.749694  0.381449  0.273856  1
  Nd  Nd2  1  0.250326  0.124978  0.701226  1
  Nd  Nd3  1  0.749997  0.867922  0.272735  1
  Pd  Pd4  1  0.749180  0.124060  0.999863  1
  Se  Se5  1  0.249248  0.316500  0.995782  1
  Se  Se6  1  0.750443  0.626211  0.008355  1
  Se  Se7  1  0.750586  0.875294  0.632171  1
  Se  Se8  1  0.249998  0.628578  0.373358  1
  Se  Se9  1  0.249419  0.932059  0.998283  1
  Se  Se10  1  0.750393  0.375747  0.633665  1
  Se  Se11  1  0.249981  0.121215  0.361039  1
