# generated using pymatgen
data_Ca2AgClO2
_symmetry_space_group_name_H-M   'P 1'
_cell_length_a   9.90981048
_cell_length_b   9.90981068
_cell_length_c   9.90981046
_cell_angle_alpha   21.76019467
_cell_angle_beta   21.76019076
_cell_angle_gamma   21.76019603
_symmetry_Int_Tables_number   1
_chemical_formula_structural   Ca2AgClO2
_chemical_formula_sum   'Ca2 Ag1 Cl1 O2'
_cell_volume   117.22278034
_cell_formula_units_Z   1
loop_
 _symmetry_equiv_pos_site_id
 _symmetry_equiv_pos_as_xyz
  1  'x, y, z'
loop_
 _atom_site_type_symbol
 _atom_site_label
 _atom_site_symmetry_multiplicity
 _atom_site_fract_x
 _atom_site_fract_y
 _atom_site_fract_z
 _atom_site_occupancy
  Ca  Ca0  1  0.260960  0.260960  0.260960  1
  Ca  Ca1  1  0.739040  0.739040  0.739040  1
  Ag  Ag2  1  0.500000  0.500000  0.500000  1
  Cl  Cl3  1  0.000000  0.000000  0.000000  1
  O  O4  1  0.428285  0.428285  0.428285  1
  O  O5  1  0.571715  0.571715  0.571715  1
