# generated using pymatgen
data_Nd3Ho5(CdRu)2
_symmetry_space_group_name_H-M   'P 1'
_cell_length_a   9.70527328
_cell_length_b   9.70527389
_cell_length_c   9.70527300
_cell_angle_alpha   59.99999962
_cell_angle_beta   59.99999754
_cell_angle_gamma   60.00000044
_symmetry_Int_Tables_number   1
_chemical_formula_structural   Nd3Ho5(CdRu)2
_chemical_formula_sum   'Nd6 Ho10 Cd4 Ru4'
_cell_volume   646.41037005
_cell_formula_units_Z   2
loop_
 _symmetry_equiv_pos_site_id
 _symmetry_equiv_pos_as_xyz
  1  'x, y, z'
loop_
 _atom_site_type_symbol
 _atom_site_label
 _atom_site_symmetry_multiplicity
 _atom_site_fract_x
 _atom_site_fract_y
 _atom_site_fract_z
 _atom_site_occupancy
  Nd  Nd0  1  0.941571  0.558429  0.558429  1
  Nd  Nd1  1  0.558429  0.941571  0.941571  1
  Nd  Nd2  1  0.558429  0.941571  0.558429  1
  Nd  Nd3  1  0.941571  0.558429  0.941571  1
  Nd  Nd4  1  0.558429  0.558429  0.941571  1
  Nd  Nd5  1  0.941571  0.941571  0.558429  1
  Ho  Ho6  1  0.344928  0.344928  0.344928  1
  Ho  Ho7  1  0.344928  0.344928  0.965217  1
  Ho  Ho8  1  0.344928  0.965217  0.344928  1
  Ho  Ho9  1  0.965217  0.344928  0.344928  1
  Ho  Ho10  1  0.812631  0.187369  0.187369  1
  Ho  Ho11  1  0.187369  0.812631  0.812631  1
  Ho  Ho12  1  0.187369  0.812631  0.187369  1
  Ho  Ho13  1  0.812631  0.187369  0.812631  1
  Ho  Ho14  1  0.187369  0.187369  0.812631  1
  Ho  Ho15  1  0.812631  0.812631  0.187369  1
  Cd  Cd16  1  0.578881  0.578881  0.578881  1
  Cd  Cd17  1  0.578881  0.578881  0.263356  1
  Cd  Cd18  1  0.578881  0.263356  0.578881  1
  Cd  Cd19  1  0.263356  0.578881  0.578881  1
  Ru  Ru20  1  0.139535  0.139535  0.139535  1
  Ru  Ru21  1  0.139535  0.139535  0.581395  1
  Ru  Ru22  1  0.139535  0.581395  0.139535  1
  Ru  Ru23  1  0.581395  0.139535  0.139535  1
