# generated using pymatgen
data_CaYb6ErBi6
_symmetry_space_group_name_H-M   'P 1'
_cell_length_a   8.27833155
_cell_length_b   8.34597513
_cell_length_c   8.34597437
_cell_angle_alpha   109.63481965
_cell_angle_beta   109.30711732
_cell_angle_gamma   109.30713048
_symmetry_Int_Tables_number   1
_chemical_formula_structural   CaYb6ErBi6
_chemical_formula_sum   'Ca1 Yb6 Er1 Bi6'
_cell_volume   444.78544307
_cell_formula_units_Z   1
loop_
 _symmetry_equiv_pos_site_id
 _symmetry_equiv_pos_as_xyz
  1  'x, y, z'
loop_
 _atom_site_type_symbol
 _atom_site_label
 _atom_site_symmetry_multiplicity
 _atom_site_fract_x
 _atom_site_fract_y
 _atom_site_fract_z
 _atom_site_occupancy
  Ca  Ca0  1  0.148655  0.500000  0.000000  1
  Yb  Yb1  1  0.499786  0.997049  0.645076  1
  Yb  Yb2  1  0.350131  0.350503  0.350644  1
  Yb  Yb3  1  0.499628  0.000141  0.149497  1
  Yb  Yb4  1  0.002737  0.648027  0.502951  1
  Yb  Yb5  1  0.854710  0.854924  0.851973  1
  Yb  Yb6  1  0.999486  0.149356  0.499859  1
  Er  Er7  1  0.645729  0.500000  0.000000  1
  Bi  Bi8  1  0.382025  0.625432  0.755085  1
  Bi  Bi9  1  0.870884  0.254793  0.124279  1
  Bi  Bi10  1  0.626940  0.744915  0.370347  1
  Bi  Bi11  1  0.116091  0.869486  0.245207  1
  Bi  Bi12  1  0.256593  0.129653  0.874568  1
  Bi  Bi13  1  0.746604  0.375721  0.630514  1
