# generated using pymatgen
data_LaTh3(B2Ir5)2
_symmetry_space_group_name_H-M   'P 1'
_cell_length_a   11.20335893
_cell_length_b   11.20335861
_cell_length_c   11.20335878
_cell_angle_alpha   28.69834621
_cell_angle_beta   28.69834973
_cell_angle_gamma   28.69834994
_symmetry_Int_Tables_number   1
_chemical_formula_structural   LaTh3(B2Ir5)2
_chemical_formula_sum   'La1 Th3 B4 Ir10'
_cell_volume   286.67625499
_cell_formula_units_Z   1
loop_
 _symmetry_equiv_pos_site_id
 _symmetry_equiv_pos_as_xyz
  1  'x, y, z'
loop_
 _atom_site_type_symbol
 _atom_site_label
 _atom_site_symmetry_multiplicity
 _atom_site_fract_x
 _atom_site_fract_y
 _atom_site_fract_z
 _atom_site_occupancy
  La  La0  1  0.152865  0.152865  0.152865  1
  Th  Th1  1  0.948528  0.948528  0.948528  1
  Th  Th2  1  0.846058  0.846058  0.846058  1
  Th  Th3  1  0.052254  0.052254  0.052254  1
  B  B4  1  0.617428  0.617428  0.617428  1
  B  B5  1  0.716964  0.716964  0.716964  1
  B  B6  1  0.382383  0.382383  0.382383  1
  B  B7  1  0.283053  0.283053  0.283053  1
  Ir  Ir8  1  0.407873  0.899396  0.407873  1
  Ir  Ir9  1  0.899396  0.407873  0.407873  1
  Ir  Ir10  1  0.500114  0.500114  0.000093  1
  Ir  Ir11  1  0.500114  0.000093  0.500114  1
  Ir  Ir12  1  0.000093  0.500114  0.500114  1
  Ir  Ir13  1  0.500089  0.500089  0.500089  1
  Ir  Ir14  1  0.592463  0.099990  0.592463  1
  Ir  Ir15  1  0.592463  0.592463  0.099990  1
  Ir  Ir16  1  0.099990  0.592463  0.592463  1
  Ir  Ir17  1  0.407873  0.407873  0.899396  1
