# generated using pymatgen
data_Y3Sc3Si2Ir
_symmetry_space_group_name_H-M   'P 1'
_cell_length_a   7.45875200
_cell_length_b   7.45875225
_cell_length_c   4.22585400
_cell_angle_alpha   90.00000000
_cell_angle_beta   90.00000000
_cell_angle_gamma   119.99999890
_symmetry_Int_Tables_number   1
_chemical_formula_structural   Y3Sc3Si2Ir
_chemical_formula_sum   'Y3 Sc3 Si2 Ir1'
_cell_volume   203.59985955
_cell_formula_units_Z   1
loop_
 _symmetry_equiv_pos_site_id
 _symmetry_equiv_pos_as_xyz
  1  'x, y, z'
loop_
 _atom_site_type_symbol
 _atom_site_label
 _atom_site_symmetry_multiplicity
 _atom_site_fract_x
 _atom_site_fract_y
 _atom_site_fract_z
 _atom_site_occupancy
  Y  Y0  1  0.414637  0.000000  0.000000  1
  Y  Y1  1  0.000000  0.414637  0.000000  1
  Y  Y2  1  0.585363  0.585363  0.000000  1
  Sc  Sc3  1  0.759428  0.000000  0.500001  1
  Sc  Sc4  1  0.240573  0.240573  0.500001  1
  Sc  Sc5  1  0.000000  0.759428  0.500001  1
  Si  Si6  1  0.666666  0.333333  0.500001  1
  Si  Si7  1  0.333333  0.666666  0.500001  1
  Ir  Ir8  1  0.000000  0.000000  0.000000  1
