# generated using pymatgen
data_Ho4Lu4Tl3Ir
_symmetry_space_group_name_H-M   'P 1'
_cell_length_a   10.14485400
_cell_length_b   10.14485376
_cell_length_c   7.15614900
_cell_angle_alpha   90.00000000
_cell_angle_beta   90.00000000
_cell_angle_gamma   120.00000080
_symmetry_Int_Tables_number   1
_chemical_formula_structural   Ho4Lu4Tl3Ir
_chemical_formula_sum   'Ho8 Lu8 Tl6 Ir2'
_cell_volume   637.82508386
_cell_formula_units_Z   2
loop_
 _symmetry_equiv_pos_site_id
 _symmetry_equiv_pos_as_xyz
  1  'x, y, z'
loop_
 _atom_site_type_symbol
 _atom_site_label
 _atom_site_symmetry_multiplicity
 _atom_site_fract_x
 _atom_site_fract_y
 _atom_site_fract_z
 _atom_site_occupancy
  Ho  Ho0  1  0.465336  0.534664  0.211412  1
  Ho  Ho1  1  0.069326  0.534664  0.211412  1
  Ho  Ho2  1  0.465336  0.930674  0.211412  1
  Ho  Ho3  1  0.534664  0.465336  0.711412  1
  Ho  Ho4  1  0.930674  0.465336  0.711412  1
  Ho  Ho5  1  0.534664  0.069326  0.711412  1
  Ho  Ho6  1  0.000000  0.000000  0.229624  1
  Ho  Ho7  1  0.000000  0.000000  0.729624  1
  Lu  Lu8  1  0.176615  0.823385  0.510743  1
  Lu  Lu9  1  0.646770  0.823385  0.510743  1
  Lu  Lu10  1  0.176615  0.353230  0.510743  1
  Lu  Lu11  1  0.823385  0.176615  0.010743  1
  Lu  Lu12  1  0.353230  0.176615  0.010743  1
  Lu  Lu13  1  0.823385  0.646770  0.010743  1
  Lu  Lu14  1  0.333333  0.666667  0.826341  1
  Lu  Lu15  1  0.666667  0.333333  0.326341  1
  Tl  Tl16  1  0.163998  0.836002  0.956862  1
  Tl  Tl17  1  0.672002  0.836002  0.956862  1
  Tl  Tl18  1  0.163998  0.327998  0.956862  1
  Tl  Tl19  1  0.836002  0.163998  0.456862  1
  Tl  Tl20  1  0.327998  0.163998  0.456862  1
  Tl  Tl21  1  0.836002  0.672002  0.456862  1
  Ir  Ir22  1  0.333333  0.666667  0.444006  1
  Ir  Ir23  1  0.666667  0.333333  0.944006  1
