# generated using pymatgen
data_Y2PaRh2
_symmetry_space_group_name_H-M   'P 1'
_cell_length_a   3.79950257
_cell_length_b   6.46979748
_cell_length_c   6.11284260
_cell_angle_alpha   121.95120434
_cell_angle_beta   108.10626584
_cell_angle_gamma   89.99999618
_symmetry_Int_Tables_number   1
_chemical_formula_structural   Y2PaRh2
_chemical_formula_sum   'Y2 Pa1 Rh2'
_cell_volume   118.64031692
_cell_formula_units_Z   1
loop_
 _symmetry_equiv_pos_site_id
 _symmetry_equiv_pos_as_xyz
  1  'x, y, z'
loop_
 _atom_site_type_symbol
 _atom_site_label
 _atom_site_symmetry_multiplicity
 _atom_site_fract_x
 _atom_site_fract_y
 _atom_site_fract_z
 _atom_site_occupancy
  Y  Y0  1  0.805007  0.305007  0.610014  1
  Y  Y1  1  0.194993  0.694993  0.389986  1
  Pa  Pa2  1  0.000000  0.000000  0.000000  1
  Rh  Rh3  1  0.500000  0.279601  0.000000  1
  Rh  Rh4  1  0.500000  0.720399  0.000000  1
