# generated using pymatgen
data_Zr4NbCo16(P4Ru)3
_symmetry_space_group_name_H-M   'P 1'
_cell_length_a   11.83933019
_cell_length_b   11.83933038
_cell_length_c   3.64839300
_cell_angle_alpha   90.00000000
_cell_angle_beta   90.00000000
_cell_angle_gamma   119.98629930
_symmetry_Int_Tables_number   1
_chemical_formula_structural   Zr4NbCo16(P4Ru)3
_chemical_formula_sum   'Zr4 Nb1 Co16 P12 Ru3'
_cell_volume   442.94158872
_cell_formula_units_Z   1
loop_
 _symmetry_equiv_pos_site_id
 _symmetry_equiv_pos_as_xyz
  1  'x, y, z'
loop_
 _atom_site_type_symbol
 _atom_site_label
 _atom_site_symmetry_multiplicity
 _atom_site_fract_x
 _atom_site_fract_y
 _atom_site_fract_z
 _atom_site_occupancy
  Zr  Zr0  1  0.821922  0.000928  0.500000  1
  Zr  Zr1  1  0.000928  0.821922  0.500000  1
  Zr  Zr2  1  0.332770  0.666483  0.000000  1
  Zr  Zr3  1  0.666483  0.332770  0.000000  1
  Nb  Nb4  1  0.180223  0.180223  0.500000  1
  Co  Co5  1  0.280988  0.000928  0.500000  1
  Co  Co6  1  0.000928  0.280988  0.500000  1
  Co  Co7  1  0.718116  0.718116  0.500000  1
  Co  Co8  1  0.625968  0.805746  0.000000  1
  Co  Co9  1  0.194190  0.820371  0.000000  1
  Co  Co10  1  0.180616  0.372587  0.000000  1
  Co  Co11  1  0.372587  0.180616  0.000000  1
  Co  Co12  1  0.805746  0.625968  0.000000  1
  Co  Co13  1  0.820371  0.194190  0.000000  1
  Co  Co14  1  0.515504  0.871052  0.500000  1
  Co  Co15  1  0.127963  0.644323  0.500000  1
  Co  Co16  1  0.354864  0.482903  0.500000  1
  Co  Co17  1  0.482903  0.354864  0.500000  1
  Co  Co18  1  0.871052  0.515504  0.500000  1
  Co  Co19  1  0.644323  0.127963  0.500000  1
  Co  Co20  1  0.000927  0.000927  0.000000  1
  P  P21  1  0.177732  0.002289  0.000000  1
  P  P22  1  0.002289  0.177732  0.000000  1
  P  P23  1  0.823507  0.823507  0.000000  1
  P  P24  1  0.518384  0.684810  0.500000  1
  P  P25  1  0.314063  0.833889  0.500000  1
  P  P26  1  0.166644  0.480892  0.500000  1
  P  P27  1  0.480892  0.166644  0.500000  1
  P  P28  1  0.684810  0.518384  0.500000  1
  P  P29  1  0.833889  0.314063  0.500000  1
  P  P30  1  0.641943  0.000045  0.000000  1
  P  P31  1  0.000045  0.641943  0.000000  1
  P  P32  1  0.356429  0.356429  0.000000  1
  Ru  Ru33  1  0.449030  0.000658  0.000000  1
  Ru  Ru34  1  0.000658  0.449030  0.000000  1
  Ru  Ru35  1  0.550317  0.550317  0.000000  1
