# generated using pymatgen
data_Ba4Si3GePd4
_symmetry_space_group_name_H-M   'P 1'
_cell_length_a   6.78244828
_cell_length_b   6.78244828
_cell_length_c   6.78244828
_cell_angle_alpha   89.79721661
_cell_angle_beta   89.79721661
_cell_angle_gamma   90.20278339
_symmetry_Int_Tables_number   1
_chemical_formula_structural   Ba4Si3GePd4
_chemical_formula_sum   'Ba4 Si3 Ge1 Pd4'
_cell_volume   311.99762792
_cell_formula_units_Z   1
loop_
 _symmetry_equiv_pos_site_id
 _symmetry_equiv_pos_as_xyz
  1  'x, y, z'
loop_
 _atom_site_type_symbol
 _atom_site_label
 _atom_site_symmetry_multiplicity
 _atom_site_fract_x
 _atom_site_fract_y
 _atom_site_fract_z
 _atom_site_occupancy
  Ba  Ba0  1  0.366310  0.866310  0.633690  1
  Ba  Ba1  1  0.867388  0.634035  0.366648  1
  Ba  Ba2  1  0.633352  0.367388  0.865965  1
  Ba  Ba3  1  0.134035  0.133352  0.132612  1
  Si  Si4  1  0.156294  0.345556  0.659838  1
  Si  Si5  1  0.340162  0.656294  0.154444  1
  Si  Si6  1  0.845556  0.840162  0.843706  1
  Ge  Ge7  1  0.659077  0.159077  0.340923  1
  Pd  Pd8  1  0.094613  0.594613  0.905387  1
  Pd  Pd9  1  0.593224  0.896349  0.086361  1
  Pd  Pd10  1  0.913639  0.093224  0.603651  1
  Pd  Pd11  1  0.396349  0.413639  0.406776  1
