# generated using pymatgen
data_ErZr8ScPb6
_symmetry_space_group_name_H-M   'P 1'
_cell_length_a   8.73148969
_cell_length_b   8.74465848
_cell_length_c   5.94392100
_cell_angle_alpha   90.00000000
_cell_angle_beta   90.00000000
_cell_angle_gamma   120.70618623
_symmetry_Int_Tables_number   1
_chemical_formula_structural   ErZr8ScPb6
_chemical_formula_sum   'Er1 Zr8 Sc1 Pb6'
_cell_volume   390.21164422
_cell_formula_units_Z   1
loop_
 _symmetry_equiv_pos_site_id
 _symmetry_equiv_pos_as_xyz
  1  'x, y, z'
loop_
 _atom_site_type_symbol
 _atom_site_label
 _atom_site_symmetry_multiplicity
 _atom_site_fract_x
 _atom_site_fract_y
 _atom_site_fract_z
 _atom_site_occupancy
  Er  Er0  1  0.766788  0.764538  0.250000  1
  Zr  Zr1  1  0.754546  0.999223  0.750000  1
  Zr  Zr2  1  0.334328  0.668525  0.500488  1
  Zr  Zr3  1  0.249434  0.999461  0.250000  1
  Zr  Zr4  1  0.663012  0.333410  0.500407  1
  Zr  Zr5  1  0.999822  0.755091  0.750000  1
  Zr  Zr6  1  0.334328  0.668525  0.999512  1
  Zr  Zr7  1  0.236404  0.235580  0.750000  1
  Zr  Zr8  1  0.663012  0.333410  0.999593  1
  Sc  Sc9  1  0.001588  0.246773  0.250000  1
  Pb  Pb10  1  0.606374  0.607189  0.750000  1
  Pb  Pb11  1  0.390774  0.999750  0.750000  1
  Pb  Pb12  1  0.611375  0.004887  0.250000  1
  Pb  Pb13  1  0.999149  0.389980  0.750000  1
  Pb  Pb14  1  0.386832  0.389473  0.250000  1
  Pb  Pb15  1  0.002232  0.604184  0.250000  1
