# generated using pymatgen
data_TbY3(ErPd)4
_symmetry_space_group_name_H-M   'P 1'
_cell_length_a   4.86571600
_cell_length_b   7.17453181
_cell_length_c   8.68483503
_cell_angle_alpha   90.12310034
_cell_angle_beta   90.00000000
_cell_angle_gamma   90.00000000
_symmetry_Int_Tables_number   1
_chemical_formula_structural   TbY3(ErPd)4
_chemical_formula_sum   'Tb1 Y3 Er4 Pd4'
_cell_volume   303.18024047
_cell_formula_units_Z   1
loop_
 _symmetry_equiv_pos_site_id
 _symmetry_equiv_pos_as_xyz
  1  'x, y, z'
loop_
 _atom_site_type_symbol
 _atom_site_label
 _atom_site_symmetry_multiplicity
 _atom_site_fract_x
 _atom_site_fract_y
 _atom_site_fract_z
 _atom_site_occupancy
  Tb  Tb0  1  0.250000  0.018516  0.329319  1
  Y  Y1  1  0.250000  0.518358  0.171266  1
  Y  Y2  1  0.750000  0.981494  0.672172  1
  Y  Y3  1  0.750000  0.481697  0.828462  1
  Er  Er4  1  0.250000  0.143677  0.921743  1
  Er  Er5  1  0.250000  0.644258  0.577914  1
  Er  Er6  1  0.750000  0.856244  0.078375  1
  Er  Er7  1  0.750000  0.355881  0.421625  1
  Pd  Pd8  1  0.250000  0.248137  0.596238  1
  Pd  Pd9  1  0.250000  0.748789  0.903157  1
  Pd  Pd10  1  0.750000  0.751681  0.403256  1
  Pd  Pd11  1  0.750000  0.251268  0.096473  1
