# generated using pymatgen
data_Ho3Si2IrOs
_symmetry_space_group_name_H-M   'P 1'
_cell_length_a   5.52656297
_cell_length_b   5.52656385
_cell_length_c   13.15058800
_cell_angle_alpha   90.00000000
_cell_angle_beta   90.00000000
_cell_angle_gamma   136.08938853
_symmetry_Int_Tables_number   1
_chemical_formula_structural   Ho3Si2IrOs
_chemical_formula_sum   'Ho6 Si4 Ir2 Os2'
_cell_volume   278.56338853
_cell_formula_units_Z   2
loop_
 _symmetry_equiv_pos_site_id
 _symmetry_equiv_pos_as_xyz
  1  'x, y, z'
loop_
 _atom_site_type_symbol
 _atom_site_label
 _atom_site_symmetry_multiplicity
 _atom_site_fract_x
 _atom_site_fract_y
 _atom_site_fract_z
 _atom_site_occupancy
  Ho  Ho0  1  0.773369  0.226631  0.602844  1
  Ho  Ho1  1  0.516656  0.483344  0.250000  1
  Ho  Ho2  1  0.226631  0.773369  0.397156  1
  Ho  Ho3  1  0.773369  0.226631  0.897156  1
  Ho  Ho4  1  0.483344  0.516656  0.750000  1
  Ho  Ho5  1  0.226631  0.773369  0.102844  1
  Si  Si6  1  0.062512  0.937488  0.589470  1
  Si  Si7  1  0.062512  0.937488  0.910530  1
  Si  Si8  1  0.937488  0.062512  0.410530  1
  Si  Si9  1  0.937488  0.062512  0.089470  1
  Ir  Ir10  1  0.810202  0.189798  0.250000  1
  Ir  Ir11  1  0.189798  0.810202  0.750000  1
  Os  Os12  1  0.500000  0.500000  0.000000  1
  Os  Os13  1  0.500000  0.500000  0.500000  1
