# generated using pymatgen
data_Ho13Th3(CdCo)4
_symmetry_space_group_name_H-M   'P 1'
_cell_length_a   9.53599796
_cell_length_b   9.55234834
_cell_length_c   9.55234800
_cell_angle_alpha   60.00000119
_cell_angle_beta   59.94326660
_cell_angle_gamma   59.94327453
_symmetry_Int_Tables_number   1
_chemical_formula_structural   Ho13Th3(CdCo)4
_chemical_formula_sum   'Ho13 Th3 Cd4 Co4'
_cell_volume   614.74997240
_cell_formula_units_Z   1
loop_
 _symmetry_equiv_pos_site_id
 _symmetry_equiv_pos_as_xyz
  1  'x, y, z'
loop_
 _atom_site_type_symbol
 _atom_site_label
 _atom_site_symmetry_multiplicity
 _atom_site_fract_x
 _atom_site_fract_y
 _atom_site_fract_z
 _atom_site_occupancy
  Ho  Ho0  1  0.953642  0.348786  0.348786  1
  Ho  Ho1  1  0.812971  0.187841  0.187841  1
  Ho  Ho2  1  0.187935  0.812955  0.812955  1
  Ho  Ho3  1  0.187935  0.812955  0.186154  1
  Ho  Ho4  1  0.812971  0.187841  0.811348  1
  Ho  Ho5  1  0.187935  0.186154  0.812955  1
  Ho  Ho6  1  0.812971  0.811348  0.187841  1
  Ho  Ho7  1  0.936182  0.563945  0.563945  1
  Ho  Ho8  1  0.564014  0.936120  0.936120  1
  Ho  Ho9  1  0.564014  0.936120  0.563745  1
  Ho  Ho10  1  0.936182  0.563945  0.935929  1
  Ho  Ho11  1  0.564014  0.563745  0.936120  1
  Ho  Ho12  1  0.936182  0.935929  0.563945  1
  Th  Th13  1  0.341793  0.346703  0.346703  1
  Th  Th14  1  0.341793  0.346703  0.964802  1
  Th  Th15  1  0.341793  0.964802  0.346703  1
  Cd  Cd16  1  0.583871  0.580904  0.580904  1
  Cd  Cd17  1  0.583871  0.580904  0.254322  1
  Cd  Cd18  1  0.583871  0.254322  0.580904  1
  Cd  Cd19  1  0.252843  0.582386  0.582386  1
  Co  Co20  1  0.148522  0.140394  0.140394  1
  Co  Co21  1  0.148522  0.140394  0.570691  1
  Co  Co22  1  0.148522  0.570691  0.140394  1
  Co  Co23  1  0.567653  0.144116  0.144116  1
