# generated using pymatgen
data_Dy3Ga2Pd3Au
_symmetry_space_group_name_H-M   'P 1'
_cell_length_a   7.36603600
_cell_length_b   7.36603418
_cell_length_c   3.79448500
_cell_angle_alpha   90.00000000
_cell_angle_beta   90.00000000
_cell_angle_gamma   117.71254253
_symmetry_Int_Tables_number   1
_chemical_formula_structural   Dy3Ga2Pd3Au
_chemical_formula_sum   'Dy3 Ga2 Pd3 Au1'
_cell_volume   182.26650733
_cell_formula_units_Z   1
loop_
 _symmetry_equiv_pos_site_id
 _symmetry_equiv_pos_as_xyz
  1  'x, y, z'
loop_
 _atom_site_type_symbol
 _atom_site_label
 _atom_site_symmetry_multiplicity
 _atom_site_fract_x
 _atom_site_fract_y
 _atom_site_fract_z
 _atom_site_occupancy
  Dy  Dy0  1  0.409741  0.409741  0.500000  1
  Dy  Dy1  1  0.603273  0.989307  0.500000  1
  Dy  Dy2  1  0.989307  0.603273  0.500000  1
  Ga  Ga3  1  0.263392  0.003210  0.000000  1
  Ga  Ga4  1  0.003210  0.263392  0.000000  1
  Pd  Pd5  1  0.659281  0.309181  0.000000  1
  Pd  Pd6  1  0.309181  0.659281  0.000000  1
  Pd  Pd7  1  0.029237  0.029237  0.500000  1
  Au  Au8  1  0.733379  0.733379  0.000000  1
