# generated using pymatgen
data_Tb16In3AgPd4
_symmetry_space_group_name_H-M   'P 1'
_cell_length_a   9.76642495
_cell_length_b   9.75953257
_cell_length_c   9.75953300
_cell_angle_alpha   60.00000194
_cell_angle_beta   60.02334428
_cell_angle_gamma   60.02333403
_symmetry_Int_Tables_number   1
_chemical_formula_structural   Tb16In3AgPd4
_chemical_formula_sum   'Tb16 In3 Ag1 Pd4'
_cell_volume   658.00894426
_cell_formula_units_Z   1
loop_
 _symmetry_equiv_pos_site_id
 _symmetry_equiv_pos_as_xyz
  1  'x, y, z'
loop_
 _atom_site_type_symbol
 _atom_site_label
 _atom_site_symmetry_multiplicity
 _atom_site_fract_x
 _atom_site_fract_y
 _atom_site_fract_z
 _atom_site_occupancy
  Tb  Tb0  1  0.352792  0.353973  0.353973  1
  Tb  Tb1  1  0.352792  0.353973  0.939264  1
  Tb  Tb2  1  0.352792  0.939264  0.353973  1
  Tb  Tb3  1  0.941210  0.352931  0.352931  1
  Tb  Tb4  1  0.809728  0.190362  0.190362  1
  Tb  Tb5  1  0.190046  0.810403  0.810403  1
  Tb  Tb6  1  0.190046  0.810403  0.189148  1
  Tb  Tb7  1  0.809728  0.190362  0.809550  1
  Tb  Tb8  1  0.190046  0.189148  0.810403  1
  Tb  Tb9  1  0.809728  0.809550  0.190362  1
  Tb  Tb10  1  0.939523  0.564070  0.564070  1
  Tb  Tb11  1  0.565614  0.935305  0.935305  1
  Tb  Tb12  1  0.565614  0.935305  0.563774  1
  Tb  Tb13  1  0.939523  0.564070  0.932339  1
  Tb  Tb14  1  0.565614  0.563774  0.935305  1
  Tb  Tb15  1  0.939523  0.932339  0.564070  1
  In  In16  1  0.581402  0.583289  0.583289  1
  In  In17  1  0.581402  0.583289  0.252019  1
  In  In18  1  0.581402  0.252019  0.583289  1
  Ag  Ag19  1  0.240610  0.586463  0.586463  1
  Pd  Pd20  1  0.144651  0.143906  0.143906  1
  Pd  Pd21  1  0.144651  0.143906  0.567536  1
  Pd  Pd22  1  0.144651  0.567536  0.143906  1
  Pd  Pd23  1  0.566915  0.144362  0.144362  1
