# generated using pymatgen
data_Tb2HoEr7Bi6
_symmetry_space_group_name_H-M   'P 1'
_cell_length_a   8.23564300
_cell_length_b   9.48630053
_cell_length_c   11.99162102
_cell_angle_alpha   89.98388221
_cell_angle_beta   90.00000000
_cell_angle_gamma   90.00000000
_symmetry_Int_Tables_number   1
_chemical_formula_structural   Tb2HoEr7Bi6
_chemical_formula_sum   'Tb4 Ho2 Er14 Bi12'
_cell_volume   936.85476266
_cell_formula_units_Z   2
loop_
 _symmetry_equiv_pos_site_id
 _symmetry_equiv_pos_as_xyz
  1  'x, y, z'
loop_
 _atom_site_type_symbol
 _atom_site_label
 _atom_site_symmetry_multiplicity
 _atom_site_fract_x
 _atom_site_fract_y
 _atom_site_fract_z
 _atom_site_occupancy
  Tb  Tb0  1  0.312703  0.250032  0.219049  1
  Tb  Tb1  1  0.812703  0.249968  0.280951  1
  Tb  Tb2  1  0.687369  0.749874  0.780938  1
  Tb  Tb3  1  0.187369  0.750126  0.719062  1
  Ho  Ho4  1  0.693274  0.936072  0.058920  1
  Ho  Ho5  1  0.193274  0.563928  0.441080  1
  Er  Er6  1  0.352912  0.750038  0.216141  1
  Er  Er7  1  0.852912  0.749962  0.283859  1
  Er  Er8  1  0.647359  0.249843  0.783886  1
  Er  Er9  1  0.147359  0.250157  0.716114  1
  Er  Er10  1  0.693222  0.564462  0.058969  1
  Er  Er11  1  0.193222  0.935538  0.441031  1
  Er  Er12  1  0.306910  0.064532  0.941174  1
  Er  Er13  1  0.806910  0.435468  0.558826  1
  Er  Er14  1  0.306544  0.435539  0.940978  1
  Er  Er15  1  0.806544  0.064461  0.559022  1
  Er  Er16  1  0.475346  0.249906  0.488608  1
  Er  Er17  1  0.975346  0.250094  0.011392  1
  Er  Er18  1  0.525003  0.750144  0.511549  1
  Er  Er19  1  0.025003  0.749856  0.988451  1
  Bi  Bi20  1  0.406705  0.749659  0.958121  1
  Bi  Bi21  1  0.906705  0.750341  0.541879  1
  Bi  Bi22  1  0.592710  0.251013  0.041537  1
  Bi  Bi23  1  0.092710  0.248987  0.458463  1
  Bi  Bi24  1  0.565081  0.994576  0.325881  1
  Bi  Bi25  1  0.065081  0.505424  0.174119  1
  Bi  Bi26  1  0.434739  0.494482  0.674334  1
  Bi  Bi27  1  0.934739  0.005518  0.825666  1
  Bi  Bi28  1  0.434701  0.005541  0.674200  1
  Bi  Bi29  1  0.934701  0.494459  0.825800  1
  Bi  Bi30  1  0.565422  0.505462  0.325730  1
  Bi  Bi31  1  0.065422  0.994538  0.174270  1
