# generated using pymatgen
data_Li2TbLuSi3
_symmetry_space_group_name_H-M   'P 1'
_cell_length_a   9.19049318
_cell_length_b   9.19049417
_cell_length_c   6.70356100
_cell_angle_alpha   90.00000000
_cell_angle_beta   90.00000000
_cell_angle_gamma   153.54440310
_symmetry_Int_Tables_number   1
_chemical_formula_structural   Li2TbLuSi3
_chemical_formula_sum   'Li4 Tb2 Lu2 Si6'
_cell_volume   252.25220645
_cell_formula_units_Z   2
loop_
 _symmetry_equiv_pos_site_id
 _symmetry_equiv_pos_as_xyz
  1  'x, y, z'
loop_
 _atom_site_type_symbol
 _atom_site_label
 _atom_site_symmetry_multiplicity
 _atom_site_fract_x
 _atom_site_fract_y
 _atom_site_fract_z
 _atom_site_occupancy
  Li  Li0  1  0.190791  0.809209  0.060062  1
  Li  Li1  1  0.190791  0.809209  0.439938  1
  Li  Li2  1  0.809209  0.190791  0.939938  1
  Li  Li3  1  0.809209  0.190791  0.560062  1
  Tb  Tb4  1  0.553743  0.446257  0.250000  1
  Tb  Tb5  1  0.446257  0.553743  0.750000  1
  Lu  Lu6  1  0.344941  0.655059  0.250000  1
  Lu  Lu7  1  0.655059  0.344941  0.750000  1
  Si  Si8  1  0.723268  0.276732  0.250000  1
  Si  Si9  1  0.276732  0.723268  0.750000  1
  Si  Si10  1  0.060140  0.939860  0.927027  1
  Si  Si11  1  0.939860  0.060140  0.072973  1
  Si  Si12  1  0.939860  0.060140  0.427027  1
  Si  Si13  1  0.060140  0.939860  0.572973  1
