# generated using pymatgen
data_Pr2LuMgPb2
_symmetry_space_group_name_H-M   'P 1'
_cell_length_a   9.00083534
_cell_length_b   9.00083486
_cell_length_c   9.00083572
_cell_angle_alpha   150.34783183
_cell_angle_beta   149.82076751
_cell_angle_gamma   42.81922053
_symmetry_Int_Tables_number   1
_chemical_formula_structural   Pr2LuMgPb2
_chemical_formula_sum   'Pr2 Lu1 Mg1 Pb2'
_cell_volume   180.89449873
_cell_formula_units_Z   1
loop_
 _symmetry_equiv_pos_site_id
 _symmetry_equiv_pos_as_xyz
  1  'x, y, z'
loop_
 _atom_site_type_symbol
 _atom_site_label
 _atom_site_symmetry_multiplicity
 _atom_site_fract_x
 _atom_site_fract_y
 _atom_site_fract_z
 _atom_site_occupancy
  Pr  Pr0  1  0.669823  0.669823  0.000000  1
  Pr  Pr1  1  0.330177  0.330177  0.000000  1
  Lu  Lu2  1  0.000000  0.500000  0.500000  1
  Mg  Mg3  1  0.500000  0.000000  0.500000  1
  Pb  Pb4  1  0.868511  0.868511  0.000000  1
  Pb  Pb5  1  0.131489  0.131489  0.000000  1
