# generated using pymatgen
data_U6Sb8(PdPt)3
_symmetry_space_group_name_H-M   'P 1'
_cell_length_a   8.44986936
_cell_length_b   8.44821701
_cell_length_c   8.44821687
_cell_angle_alpha   109.44045366
_cell_angle_beta   109.23863353
_cell_angle_gamma   109.72702293
_symmetry_Int_Tables_number   1
_chemical_formula_structural   U6Sb8(PdPt)3
_chemical_formula_sum   'U6 Sb8 Pd3 Pt3'
_cell_volume   464.29361353
_cell_formula_units_Z   1
loop_
 _symmetry_equiv_pos_site_id
 _symmetry_equiv_pos_as_xyz
  1  'x, y, z'
loop_
 _atom_site_type_symbol
 _atom_site_label
 _atom_site_symmetry_multiplicity
 _atom_site_fract_x
 _atom_site_fract_y
 _atom_site_fract_z
 _atom_site_occupancy
  U  U0  1  0.878337  0.252386  0.126522  1
  U  U1  1  0.621663  0.748186  0.374050  1
  U  U2  1  0.250000  0.122458  0.872458  1
  U  U3  1  0.750000  0.378496  0.628496  1
  U  U4  1  0.130261  0.876661  0.253099  1
  U  U5  1  0.369739  0.622839  0.746400  1
  Sb  Sb6  1  0.677799  0.501262  0.002657  1
  Sb  Sb7  1  0.503642  0.003533  0.679125  1
  Sb  Sb8  1  0.996358  0.675483  0.499891  1
  Sb  Sb9  1  0.822201  0.824859  0.823463  1
  Sb  Sb10  1  0.503522  0.000051  0.176965  1
  Sb  Sb11  1  0.175799  0.496863  0.999145  1
  Sb  Sb12  1  0.996478  0.173443  0.496529  1
  Sb  Sb13  1  0.324201  0.323347  0.321065  1
  Pd  Pd14  1  0.750000  0.873698  0.123698  1
  Pd  Pd15  1  0.624830  0.373864  0.249567  1
  Pd  Pd16  1  0.875170  0.124738  0.749034  1
  Pt  Pt17  1  0.374934  0.251225  0.625127  1
  Pt  Pt18  1  0.125066  0.750193  0.876292  1
  Pt  Pt19  1  0.250000  0.626415  0.376415  1
