# generated using pymatgen
data_Tb4Al4PdRuRh2
_symmetry_space_group_name_H-M   'P 1'
_cell_length_a   4.22591600
_cell_length_b   6.96134953
_cell_length_c   8.00103659
_cell_angle_alpha   89.98391413
_cell_angle_beta   90.00000000
_cell_angle_gamma   90.00000000
_symmetry_Int_Tables_number   1
_chemical_formula_structural   Tb4Al4PdRuRh2
_chemical_formula_sum   'Tb4 Al4 Pd1 Ru1 Rh2'
_cell_volume   235.37511217
_cell_formula_units_Z   1
loop_
 _symmetry_equiv_pos_site_id
 _symmetry_equiv_pos_as_xyz
  1  'x, y, z'
loop_
 _atom_site_type_symbol
 _atom_site_label
 _atom_site_symmetry_multiplicity
 _atom_site_fract_x
 _atom_site_fract_y
 _atom_site_fract_z
 _atom_site_occupancy
  Tb  Tb0  1  0.250000  0.531782  0.815506  1
  Tb  Tb1  1  0.750000  0.458651  0.184218  1
  Tb  Tb2  1  0.250000  0.035100  0.679203  1
  Tb  Tb3  1  0.750000  0.970941  0.323117  1
  Al  Al4  1  0.250000  0.635338  0.439726  1
  Al  Al5  1  0.750000  0.360685  0.560814  1
  Al  Al6  1  0.250000  0.142291  0.061451  1
  Al  Al7  1  0.750000  0.864343  0.935330  1
  Pd  Pd8  1  0.250000  0.770735  0.118621  1
  Ru  Ru9  1  0.250000  0.264313  0.380785  1
  Rh  Rh10  1  0.750000  0.732393  0.618854  1
  Rh  Rh11  1  0.750000  0.233429  0.882377  1
