# generated using pymatgen
data_Sm4Cd2Si3Ge
_symmetry_space_group_name_H-M   'P 1'
_cell_length_a   7.32280327
_cell_length_b   7.32280327
_cell_length_c   4.30888400
_cell_angle_alpha   90.00000000
_cell_angle_beta   90.00000000
_cell_angle_gamma   90.10828827
_symmetry_Int_Tables_number   1
_chemical_formula_structural   Sm4Cd2Si3Ge
_chemical_formula_sum   'Sm4 Cd2 Si3 Ge1'
_cell_volume   231.05680326
_cell_formula_units_Z   1
loop_
 _symmetry_equiv_pos_site_id
 _symmetry_equiv_pos_as_xyz
  1  'x, y, z'
loop_
 _atom_site_type_symbol
 _atom_site_label
 _atom_site_symmetry_multiplicity
 _atom_site_fract_x
 _atom_site_fract_y
 _atom_site_fract_z
 _atom_site_occupancy
  Sm  Sm0  1  0.680870  0.178658  0.500000  1
  Sm  Sm1  1  0.321342  0.819130  0.500000  1
  Sm  Sm2  1  0.177215  0.322785  0.500000  1
  Sm  Sm3  1  0.821653  0.678347  0.500000  1
  Cd  Cd4  1  0.501090  0.502666  0.000000  1
  Cd  Cd5  1  0.997334  0.998910  0.000000  1
  Si  Si6  1  0.115743  0.615905  0.000000  1
  Si  Si7  1  0.884095  0.384257  0.000000  1
  Si  Si8  1  0.618807  0.881193  0.000000  1
  Ge  Ge9  1  0.381851  0.118149  0.000000  1
