# generated using pymatgen
data_Tb9Er(IrPt2)2
_symmetry_space_group_name_H-M   'P 1'
_cell_length_a   11.11090000
_cell_length_b   11.11090000
_cell_length_c   6.36007200
_cell_angle_alpha   90.00000000
_cell_angle_beta   90.00000000
_cell_angle_gamma   90.00000000
_symmetry_Int_Tables_number   1
_chemical_formula_structural   Tb9Er(IrPt2)2
_chemical_formula_sum   'Tb18 Er2 Ir4 Pt8'
_cell_volume   785.16423698
_cell_formula_units_Z   2
loop_
 _symmetry_equiv_pos_site_id
 _symmetry_equiv_pos_as_xyz
  1  'x, y, z'
loop_
 _atom_site_type_symbol
 _atom_site_label
 _atom_site_symmetry_multiplicity
 _atom_site_fract_x
 _atom_site_fract_y
 _atom_site_fract_z
 _atom_site_occupancy
  Tb  Tb0  1  0.294023  0.087718  0.375060  1
  Tb  Tb1  1  0.294023  0.912282  0.875060  1
  Tb  Tb2  1  0.705977  0.087718  0.875060  1
  Tb  Tb3  1  0.705977  0.912282  0.375060  1
  Tb  Tb4  1  0.587892  0.794612  0.874601  1
  Tb  Tb5  1  0.587892  0.205388  0.374601  1
  Tb  Tb6  1  0.412108  0.794612  0.374601  1
  Tb  Tb7  1  0.412108  0.205388  0.874601  1
  Tb  Tb8  1  0.205388  0.412108  0.625399  1
  Tb  Tb9  1  0.205388  0.587892  0.125399  1
  Tb  Tb10  1  0.794612  0.412108  0.125399  1
  Tb  Tb11  1  0.794612  0.587892  0.625399  1
  Tb  Tb12  1  0.912282  0.705977  0.124940  1
  Tb  Tb13  1  0.912282  0.294023  0.624940  1
  Tb  Tb14  1  0.087718  0.705977  0.624940  1
  Tb  Tb15  1  0.087718  0.294023  0.124940  1
  Tb  Tb16  1  0.500000  0.500000  0.000000  1
  Tb  Tb17  1  0.500000  0.500000  0.500000  1
  Er  Er18  1  0.000000  0.000000  0.500000  1
  Er  Er19  1  0.000000  0.000000  0.000000  1
  Ir  Ir20  1  0.500000  0.000000  0.119247  1
  Ir  Ir21  1  0.500000  0.000000  0.619247  1
  Ir  Ir22  1  0.000000  0.500000  0.880753  1
  Ir  Ir23  1  0.000000  0.500000  0.380753  1
  Pt  Pt24  1  0.847820  0.152180  0.250000  1
  Pt  Pt25  1  0.847820  0.847820  0.750000  1
  Pt  Pt26  1  0.152180  0.152180  0.750000  1
  Pt  Pt27  1  0.152180  0.847820  0.250000  1
  Pt  Pt28  1  0.653688  0.346312  0.750000  1
  Pt  Pt29  1  0.653688  0.653688  0.250000  1
  Pt  Pt30  1  0.346312  0.346312  0.250000  1
  Pt  Pt31  1  0.346312  0.653688  0.750000  1
