# generated using pymatgen
data_Ca4InGaAg12
_symmetry_space_group_name_H-M   'P 1'
_cell_length_a   5.60514273
_cell_length_b   5.60514376
_cell_length_c   14.00055100
_cell_angle_alpha   90.00000000
_cell_angle_beta   90.00000000
_cell_angle_gamma   118.49517063
_symmetry_Int_Tables_number   1
_chemical_formula_structural   Ca4InGaAg12
_chemical_formula_sum   'Ca4 In1 Ga1 Ag12'
_cell_volume   386.57782526
_cell_formula_units_Z   1
loop_
 _symmetry_equiv_pos_site_id
 _symmetry_equiv_pos_as_xyz
  1  'x, y, z'
loop_
 _atom_site_type_symbol
 _atom_site_label
 _atom_site_symmetry_multiplicity
 _atom_site_fract_x
 _atom_site_fract_y
 _atom_site_fract_z
 _atom_site_occupancy
  Ca  Ca0  1  0.323277  0.323277  0.115080  1
  Ca  Ca1  1  0.677170  0.677170  0.618485  1
  Ca  Ca2  1  0.323277  0.323277  0.384920  1
  Ca  Ca3  1  0.677170  0.677170  0.881515  1
  In  In4  1  0.828724  0.828724  0.250000  1
  Ga  Ga5  1  0.168848  0.168848  0.750000  1
  Ag  Ag6  1  0.829973  0.332462  0.250000  1
  Ag  Ag7  1  0.171157  0.665431  0.750000  1
  Ag  Ag8  1  0.332462  0.829973  0.250000  1
  Ag  Ag9  1  0.665431  0.171157  0.750000  1
  Ag  Ag10  1  0.997597  0.665330  0.072464  1
  Ag  Ag11  1  0.009704  0.328625  0.579055  1
  Ag  Ag12  1  0.665330  0.997597  0.427536  1
  Ag  Ag13  1  0.328625  0.009704  0.920945  1
  Ag  Ag14  1  0.009704  0.328625  0.920945  1
  Ag  Ag15  1  0.997597  0.665330  0.427536  1
  Ag  Ag16  1  0.328625  0.009704  0.579055  1
  Ag  Ag17  1  0.665330  0.997597  0.072464  1
