# generated using pymatgen
data_YbDy3(TcB4)4
_symmetry_space_group_name_H-M   'P 1'
_cell_length_a   3.59161500
_cell_length_b   5.96551203
_cell_length_c   11.54899809
_cell_angle_alpha   90.03994992
_cell_angle_beta   90.00000000
_cell_angle_gamma   90.00000000
_symmetry_Int_Tables_number   1
_chemical_formula_structural   YbDy3(TcB4)4
_chemical_formula_sum   'Yb1 Dy3 Tc4 B16'
_cell_volume   247.44672280
_cell_formula_units_Z   1
loop_
 _symmetry_equiv_pos_site_id
 _symmetry_equiv_pos_as_xyz
  1  'x, y, z'
loop_
 _atom_site_type_symbol
 _atom_site_label
 _atom_site_symmetry_multiplicity
 _atom_site_fract_x
 _atom_site_fract_y
 _atom_site_fract_z
 _atom_site_occupancy
  Yb  Yb0  1  0.500000  0.871862  0.650285  1
  Dy  Dy1  1  0.500000  0.628233  0.150107  1
  Dy  Dy2  1  0.500000  0.370998  0.849060  1
  Dy  Dy3  1  0.500000  0.127204  0.349937  1
  Tc  Tc4  1  0.500000  0.630728  0.414585  1
  Tc  Tc5  1  0.500000  0.368193  0.584700  1
  Tc  Tc6  1  0.500000  0.132928  0.087249  1
  Tc  Tc7  1  0.500000  0.866137  0.913283  1
  B  B8  1  0.000000  0.976964  0.192556  1
  B  B9  1  0.000000  0.023122  0.807161  1
  B  B10  1  0.000000  0.478062  0.307782  1
  B  B11  1  0.000000  0.522190  0.692079  1
  B  B12  1  0.000000  0.787428  0.315749  1
  B  B13  1  0.000000  0.213190  0.684543  1
  B  B14  1  0.000000  0.287143  0.185264  1
  B  B15  1  0.000000  0.714025  0.814418  1
  B  B16  1  0.000000  0.864410  0.468396  1
  B  B17  1  0.000000  0.135512  0.532102  1
  B  B18  1  0.000000  0.363909  0.031301  1
  B  B19  1  0.000000  0.635861  0.968647  1
  B  B20  1  0.000000  0.887015  0.047284  1
  B  B21  1  0.000000  0.112876  0.952567  1
  B  B22  1  0.000000  0.387140  0.453186  1
  B  B23  1  0.000000  0.614867  0.547755  1
