# generated using pymatgen
data_Fe3Si2Ni3Mo4
_symmetry_space_group_name_H-M   'P 1'
_cell_length_a   4.73922200
_cell_length_b   4.73922094
_cell_length_c   7.65700100
_cell_angle_alpha   90.00000000
_cell_angle_beta   90.00000000
_cell_angle_gamma   119.99999344
_symmetry_Int_Tables_number   1
_chemical_formula_structural   Fe3Si2Ni3Mo4
_chemical_formula_sum   'Fe3 Si2 Ni3 Mo4'
_cell_volume   148.93726448
_cell_formula_units_Z   1
loop_
 _symmetry_equiv_pos_site_id
 _symmetry_equiv_pos_as_xyz
  1  'x, y, z'
loop_
 _atom_site_type_symbol
 _atom_site_label
 _atom_site_symmetry_multiplicity
 _atom_site_fract_x
 _atom_site_fract_y
 _atom_site_fract_z
 _atom_site_occupancy
  Fe  Fe0  1  0.830341  0.169659  0.250000  1
  Fe  Fe1  1  0.830341  0.660681  0.250000  1
  Fe  Fe2  1  0.339319  0.169659  0.250000  1
  Si  Si3  1  0.000000  0.000000  0.507441  1
  Si  Si4  1  0.000000  0.000000  0.992559  1
  Ni  Ni5  1  0.170233  0.829767  0.750000  1
  Ni  Ni6  1  0.170233  0.340466  0.750000  1
  Ni  Ni7  1  0.659534  0.829767  0.750000  1
  Mo  Mo8  1  0.333333  0.666667  0.435395  1
  Mo  Mo9  1  0.666667  0.333333  0.561617  1
  Mo  Mo10  1  0.666667  0.333333  0.938383  1
  Mo  Mo11  1  0.333333  0.666667  0.064605  1
