# generated using pymatgen
data_Pr3SmGa4PdRu3
_symmetry_space_group_name_H-M   'P 1'
_cell_length_a   4.63372900
_cell_length_b   7.37111380
_cell_length_c   7.27563088
_cell_angle_alpha   90.43789920
_cell_angle_beta   90.00000000
_cell_angle_gamma   90.00000000
_symmetry_Int_Tables_number   1
_chemical_formula_structural   Pr3SmGa4PdRu3
_chemical_formula_sum   'Pr3 Sm1 Ga4 Pd1 Ru3'
_cell_volume   248.49732625
_cell_formula_units_Z   1
loop_
 _symmetry_equiv_pos_site_id
 _symmetry_equiv_pos_as_xyz
  1  'x, y, z'
loop_
 _atom_site_type_symbol
 _atom_site_label
 _atom_site_symmetry_multiplicity
 _atom_site_fract_x
 _atom_site_fract_y
 _atom_site_fract_z
 _atom_site_occupancy
  Pr  Pr0  1  0.250000  0.021084  0.310222  1
  Pr  Pr1  1  0.250000  0.520483  0.192709  1
  Pr  Pr2  1  0.750000  0.970667  0.690059  1
  Sm  Sm3  1  0.750000  0.483546  0.798416  1
  Ga  Ga4  1  0.250000  0.693011  0.603372  1
  Ga  Ga5  1  0.250000  0.186450  0.880462  1
  Ga  Ga6  1  0.750000  0.306640  0.409413  1
  Ga  Ga7  1  0.750000  0.804809  0.103086  1
  Pd  Pd8  1  0.750000  0.170116  0.069948  1
  Ru  Ru9  1  0.250000  0.346919  0.568451  1
  Ru  Ru10  1  0.250000  0.839084  0.937839  1
  Ru  Ru11  1  0.750000  0.657191  0.436022  1
