# generated using pymatgen
data_LiNd2Be2(PPd5)4
_symmetry_space_group_name_H-M   'P 1'
_cell_length_a   8.64409082
_cell_length_b   8.59366099
_cell_length_c   8.59366135
_cell_angle_alpha   60.38863244
_cell_angle_beta   59.80568323
_cell_angle_gamma   59.80567974
_symmetry_Int_Tables_number   1
_chemical_formula_structural   LiNd2Be2(PPd5)4
_chemical_formula_sum   'Li1 Nd2 Be2 P4 Pd20'
_cell_volume   451.36790065
_cell_formula_units_Z   1
loop_
 _symmetry_equiv_pos_site_id
 _symmetry_equiv_pos_as_xyz
  1  'x, y, z'
loop_
 _atom_site_type_symbol
 _atom_site_label
 _atom_site_symmetry_multiplicity
 _atom_site_fract_x
 _atom_site_fract_y
 _atom_site_fract_z
 _atom_site_occupancy
  Li  Li0  1  0.000000  0.000000  0.000000  1
  Nd  Nd1  1  0.250000  0.250000  0.250000  1
  Nd  Nd2  1  0.750000  0.750000  0.750000  1
  Be  Be3  1  0.733922  0.266078  0.266078  1
  Be  Be4  1  0.266078  0.733922  0.733922  1
  P  P5  1  0.263751  0.736249  0.263751  1
  P  P6  1  0.736249  0.263751  0.736249  1
  P  P7  1  0.263751  0.263751  0.736249  1
  P  P8  1  0.736249  0.736249  0.263751  1
  Pd  Pd9  1  0.388643  0.384207  0.384207  1
  Pd  Pd10  1  0.611357  0.615793  0.615793  1
  Pd  Pd11  1  0.384207  0.388643  0.842945  1
  Pd  Pd12  1  0.384207  0.842945  0.388643  1
  Pd  Pd13  1  0.615793  0.611357  0.157055  1
  Pd  Pd14  1  0.615793  0.157055  0.611357  1
  Pd  Pd15  1  0.842945  0.384207  0.384207  1
  Pd  Pd16  1  0.157055  0.615793  0.615793  1
  Pd  Pd17  1  0.342152  0.000000  0.000000  1
  Pd  Pd18  1  0.657848  0.000000  0.000000  1
  Pd  Pd19  1  0.000000  0.342152  0.657848  1
  Pd  Pd20  1  0.000000  0.657848  0.342152  1
  Pd  Pd21  1  0.997152  0.341382  0.002848  1
  Pd  Pd22  1  0.658618  0.002848  0.341382  1
  Pd  Pd23  1  0.002848  0.658618  0.997152  1
  Pd  Pd24  1  0.341382  0.997152  0.658618  1
  Pd  Pd25  1  0.997152  0.002848  0.341382  1
  Pd  Pd26  1  0.002848  0.997152  0.658618  1
  Pd  Pd27  1  0.658618  0.341382  0.002848  1
  Pd  Pd28  1  0.341382  0.658618  0.997152  1
