# generated using pymatgen
data_Tm10Sn5Bi
_symmetry_space_group_name_H-M   'P 1'
_cell_length_a   8.88667600
_cell_length_b   8.87934878
_cell_length_c   6.41213100
_cell_angle_alpha   90.00006527
_cell_angle_beta   90.00005260
_cell_angle_gamma   120.02698213
_symmetry_Int_Tables_number   1
_chemical_formula_structural   Tm10Sn5Bi
_chemical_formula_sum   'Tm10 Sn5 Bi1'
_cell_volume   438.06175188
_cell_formula_units_Z   1
loop_
 _symmetry_equiv_pos_site_id
 _symmetry_equiv_pos_as_xyz
  1  'x, y, z'
loop_
 _atom_site_type_symbol
 _atom_site_label
 _atom_site_symmetry_multiplicity
 _atom_site_fract_x
 _atom_site_fract_y
 _atom_site_fract_z
 _atom_site_occupancy
  Tm  Tm0  1  0.667554  0.337531  0.998155  1
  Tm  Tm1  1  0.330024  0.662465  0.998157  1
  Tm  Tm2  1  0.763560  0.757890  0.250000  1
  Tm  Tm3  1  0.234394  0.999994  0.250001  1
  Tm  Tm4  1  0.005663  0.242104  0.250000  1
  Tm  Tm5  1  0.667553  0.337533  0.501844  1
  Tm  Tm6  1  0.330030  0.662468  0.501846  1
  Tm  Tm7  1  0.238294  0.238697  0.750002  1
  Tm  Tm8  1  0.762989  0.000007  0.750000  1
  Tm  Tm9  1  0.999602  0.761307  0.750000  1
  Sn  Sn10  1  0.000464  0.604401  0.250000  1
  Sn  Sn11  1  0.396055  0.395587  0.250002  1
  Sn  Sn12  1  0.394450  0.000000  0.750001  1
  Sn  Sn13  1  0.998660  0.393859  0.749992  1
  Sn  Sn14  1  0.604813  0.606156  0.750006  1
  Bi  Bi15  1  0.605896  0.000001  0.249998  1
