# generated using pymatgen
data_KRb3GeAu8
_symmetry_space_group_name_H-M   'P 1'
_cell_length_a   11.01659013
_cell_length_b   11.01658944
_cell_length_c   10.46252154
_cell_angle_alpha   77.62343499
_cell_angle_beta   77.62343037
_cell_angle_gamma   35.74897539
_symmetry_Int_Tables_number   1
_chemical_formula_structural   KRb3GeAu8
_chemical_formula_sum   'K2 Rb6 Ge2 Au16'
_cell_volume   722.79652333
_cell_formula_units_Z   2
loop_
 _symmetry_equiv_pos_site_id
 _symmetry_equiv_pos_as_xyz
  1  'x, y, z'
loop_
 _atom_site_type_symbol
 _atom_site_label
 _atom_site_symmetry_multiplicity
 _atom_site_fract_x
 _atom_site_fract_y
 _atom_site_fract_z
 _atom_site_occupancy
  K  K0  1  0.039597  0.039597  0.645430  1
  K  K1  1  0.960403  0.960403  0.354570  1
  Rb  Rb2  1  0.480679  0.480679  0.841022  1
  Rb  Rb3  1  0.519321  0.519321  0.158978  1
  Rb  Rb4  1  0.283021  0.283021  0.915131  1
  Rb  Rb5  1  0.716979  0.716979  0.084869  1
  Rb  Rb6  1  0.219364  0.219364  0.600975  1
  Rb  Rb7  1  0.780636  0.780636  0.399025  1
  Ge  Ge8  1  0.665291  0.665291  0.770713  1
  Ge  Ge9  1  0.334709  0.334709  0.229287  1
  Au  Au10  1  0.786761  0.786761  0.733142  1
  Au  Au11  1  0.213239  0.213239  0.266858  1
  Au  Au12  1  0.619971  0.619971  0.572190  1
  Au  Au13  1  0.380029  0.380029  0.427810  1
  Au  Au14  1  0.500000  0.500000  0.500000  1
  Au  Au15  1  0.000000  0.000000  0.000000  1
  Au  Au16  1  0.108068  0.108068  0.143215  1
  Au  Au17  1  0.891932  0.891932  0.856785  1
  Au  Au18  1  0.849250  0.365207  0.361577  1
  Au  Au19  1  0.634793  0.150750  0.638423  1
  Au  Au20  1  0.150750  0.634793  0.638423  1
  Au  Au21  1  0.365207  0.849250  0.361577  1
  Au  Au22  1  0.090081  0.672604  0.095775  1
  Au  Au23  1  0.327396  0.909919  0.904225  1
  Au  Au24  1  0.909919  0.327396  0.904225  1
  Au  Au25  1  0.672604  0.090081  0.095775  1
