# generated using pymatgen
data_Ce3HoCu3SiRh9
_symmetry_space_group_name_H-M   'P 1'
_cell_length_a   7.13085784
_cell_length_b   7.13085761
_cell_length_c   7.24029100
_cell_angle_alpha   109.78239302
_cell_angle_beta   109.78239235
_cell_angle_gamma   109.15826911
_symmetry_Int_Tables_number   1
_chemical_formula_structural   Ce3HoCu3SiRh9
_chemical_formula_sum   'Ce3 Ho1 Cu3 Si1 Rh9'
_cell_volume   282.31594318
_cell_formula_units_Z   1
loop_
 _symmetry_equiv_pos_site_id
 _symmetry_equiv_pos_as_xyz
  1  'x, y, z'
loop_
 _atom_site_type_symbol
 _atom_site_label
 _atom_site_symmetry_multiplicity
 _atom_site_fract_x
 _atom_site_fract_y
 _atom_site_fract_z
 _atom_site_occupancy
  Ce  Ce0  1  0.022360  0.511180  0.011180  1
  Ce  Ce1  1  0.488820  0.977640  0.988820  1
  Ce  Ce2  1  0.488820  0.511180  0.500000  1
  Ho  Ho3  1  0.000000  0.000000  0.500000  1
  Cu  Cu4  1  0.749309  0.250691  0.500000  1
  Cu  Cu5  1  0.749309  0.498617  0.249309  1
  Cu  Cu6  1  0.501383  0.250691  0.750691  1
  Si  Si7  1  0.000000  0.000000  0.000000  1
  Rh  Rh8  1  0.247938  0.495875  0.747938  1
  Rh  Rh9  1  0.247938  0.752062  0.500000  1
  Rh  Rh10  1  0.504125  0.752062  0.252062  1
  Rh  Rh11  1  0.731462  0.706204  0.001809  1
  Rh  Rh12  1  0.293796  0.025260  0.295605  1
  Rh  Rh13  1  0.974740  0.268538  0.270345  1
  Rh  Rh14  1  0.293796  0.268538  0.998191  1
  Rh  Rh15  1  0.731462  0.025260  0.729655  1
  Rh  Rh16  1  0.974740  0.706204  0.704395  1
