# generated using pymatgen
data_NaZr(Si7Ir3)2
_symmetry_space_group_name_H-M   'P 1'
_cell_length_a   7.98689672
_cell_length_b   7.98689717
_cell_length_c   7.98689604
_cell_angle_alpha   56.83992242
_cell_angle_beta   56.83990880
_cell_angle_gamma   56.83991562
_symmetry_Int_Tables_number   1
_chemical_formula_structural   NaZr(Si7Ir3)2
_chemical_formula_sum   'Na1 Zr1 Si14 Ir6'
_cell_volume   333.99167818
_cell_formula_units_Z   1
loop_
 _symmetry_equiv_pos_site_id
 _symmetry_equiv_pos_as_xyz
  1  'x, y, z'
loop_
 _atom_site_type_symbol
 _atom_site_label
 _atom_site_symmetry_multiplicity
 _atom_site_fract_x
 _atom_site_fract_y
 _atom_site_fract_z
 _atom_site_occupancy
  Na  Na0  1  0.500000  0.500000  0.500000  1
  Zr  Zr1  1  0.000000  0.000000  0.000000  1
  Si  Si2  1  0.847328  0.066624  0.671921  1
  Si  Si3  1  0.671921  0.847328  0.066624  1
  Si  Si4  1  0.066624  0.671921  0.847328  1
  Si  Si5  1  0.646181  0.825606  0.434416  1
  Si  Si6  1  0.249778  0.249778  0.249778  1
  Si  Si7  1  0.750222  0.750222  0.750222  1
  Si  Si8  1  0.174394  0.565584  0.353819  1
  Si  Si9  1  0.565584  0.353819  0.174394  1
  Si  Si10  1  0.353819  0.174394  0.565584  1
  Si  Si11  1  0.933376  0.328079  0.152672  1
  Si  Si12  1  0.328079  0.152672  0.933376  1
  Si  Si13  1  0.152672  0.933376  0.328079  1
  Si  Si14  1  0.825606  0.434416  0.646181  1
  Si  Si15  1  0.434416  0.646181  0.825606  1
  Ir  Ir16  1  0.756133  0.065851  0.422622  1
  Ir  Ir17  1  0.422622  0.756133  0.065851  1
  Ir  Ir18  1  0.065851  0.422622  0.756133  1
  Ir  Ir19  1  0.243867  0.934149  0.577378  1
  Ir  Ir20  1  0.577378  0.243867  0.934149  1
  Ir  Ir21  1  0.934149  0.577378  0.243867  1
