# generated using pymatgen
data_Tm8Ti12Si15Sn
_symmetry_space_group_name_H-M   'P 1'
_cell_length_a   7.07572904
_cell_length_b   7.03886183
_cell_length_c   12.94805001
_cell_angle_alpha   89.98825647
_cell_angle_beta   89.73981136
_cell_angle_gamma   89.91937376
_symmetry_Int_Tables_number   1
_chemical_formula_structural   Tm8Ti12Si15Sn
_chemical_formula_sum   'Tm8 Ti12 Si15 Sn1'
_cell_volume   644.87135372
_cell_formula_units_Z   1
loop_
 _symmetry_equiv_pos_site_id
 _symmetry_equiv_pos_as_xyz
  1  'x, y, z'
loop_
 _atom_site_type_symbol
 _atom_site_label
 _atom_site_symmetry_multiplicity
 _atom_site_fract_x
 _atom_site_fract_y
 _atom_site_fract_z
 _atom_site_occupancy
  Tm  Tm0  1  0.342878  0.998836  0.461275  1
  Tm  Tm1  1  0.506175  0.834948  0.718248  1
  Tm  Tm2  1  0.502184  0.159847  0.216889  1
  Tm  Tm3  1  0.840827  0.497026  0.282163  1
  Tm  Tm4  1  0.159374  0.509967  0.786145  1
  Tm  Tm5  1  0.661850  0.996628  0.968908  1
  Tm  Tm6  1  0.991874  0.348518  0.527349  1
  Tm  Tm7  1  0.999743  0.659275  0.034029  1
  Ti  Ti8  1  0.326671  0.326619  0.001265  1
  Ti  Ti9  1  0.173839  0.826060  0.249670  1
  Ti  Ti10  1  0.816646  0.174955  0.752014  1
  Ti  Ti11  1  0.672151  0.673129  0.499469  1
  Ti  Ti12  1  0.152491  0.007574  0.883342  1
  Ti  Ti13  1  0.493109  0.649527  0.126782  1
  Ti  Ti14  1  0.514578  0.354742  0.626503  1
  Ti  Ti15  1  0.653929  0.493720  0.875859  1
  Ti  Ti16  1  0.347512  0.508940  0.372768  1
  Ti  Ti17  1  0.846934  0.992972  0.375510  1
  Ti  Ti18  1  0.009580  0.150757  0.123419  1
  Ti  Ti19  1  0.979190  0.835954  0.618649  1
  Si  Si20  1  0.370879  0.703149  0.935450  1
  Si  Si21  1  0.628170  0.297216  0.432239  1
  Si  Si22  1  0.704653  0.368670  0.067326  1
  Si  Si23  1  0.296017  0.631526  0.566131  1
  Si  Si24  1  0.797388  0.868917  0.183573  1
  Si  Si25  1  0.130417  0.202783  0.315453  1
  Si  Si26  1  0.870337  0.799852  0.816685  1
  Si  Si27  1  0.294083  0.952027  0.067010  1
  Si  Si28  1  0.549205  0.790057  0.313581  1
  Si  Si29  1  0.459555  0.209658  0.820202  1
  Si  Si30  1  0.794395  0.544668  0.686944  1
  Si  Si31  1  0.208653  0.452654  0.185070  1
  Si  Si32  1  0.705183  0.048470  0.564383  1
  Si  Si33  1  0.953047  0.292445  0.935324  1
  Si  Si34  1  0.047098  0.710147  0.432558  1
  Sn  Sn35  1  0.199385  0.127771  0.677818  1
