# generated using pymatgen
data_DyHo2In4CoRu
_symmetry_space_group_name_H-M   'P 1'
_cell_length_a   7.90218425
_cell_length_b   7.90676989
_cell_length_c   3.69653900
_cell_angle_alpha   90.00000000
_cell_angle_beta   90.00000000
_cell_angle_gamma   120.04515528
_symmetry_Int_Tables_number   1
_chemical_formula_structural   DyHo2In4CoRu
_chemical_formula_sum   'Dy1 Ho2 In4 Co1 Ru1'
_cell_volume   199.92835148
_cell_formula_units_Z   1
loop_
 _symmetry_equiv_pos_site_id
 _symmetry_equiv_pos_as_xyz
  1  'x, y, z'
loop_
 _atom_site_type_symbol
 _atom_site_label
 _atom_site_symmetry_multiplicity
 _atom_site_fract_x
 _atom_site_fract_y
 _atom_site_fract_z
 _atom_site_occupancy
  Dy  Dy0  1  0.247948  0.951792  0.500000  1
  Ho  Ho1  1  0.047675  0.295696  0.500000  1
  Ho  Ho2  1  0.704344  0.752151  0.500000  1
  In  In3  1  0.667646  0.082894  0.000000  1
  In  In4  1  0.917192  0.584430  0.000000  1
  In  In5  1  0.415545  0.332760  0.000000  1
  In  In6  1  0.333439  0.666608  0.000000  1
  Co  Co7  1  0.666948  0.333470  0.500000  1
  Ru  Ru8  1  0.999264  0.000199  0.000000  1
