# generated using pymatgen
data_Ac3Pr5(CrN3)4
_symmetry_space_group_name_H-M   'P 1'
_cell_length_a   6.18522252
_cell_length_b   6.18522266
_cell_length_c   12.37308547
_cell_angle_alpha   90.51972487
_cell_angle_beta   89.48027276
_cell_angle_gamma   126.84539133
_symmetry_Int_Tables_number   1
_chemical_formula_structural   Ac3Pr5(CrN3)4
_chemical_formula_sum   'Ac3 Pr5 Cr4 N12'
_cell_volume   378.78744971
_cell_formula_units_Z   1
loop_
 _symmetry_equiv_pos_site_id
 _symmetry_equiv_pos_as_xyz
  1  'x, y, z'
loop_
 _atom_site_type_symbol
 _atom_site_label
 _atom_site_symmetry_multiplicity
 _atom_site_fract_x
 _atom_site_fract_y
 _atom_site_fract_z
 _atom_site_occupancy
  Ac  Ac0  1  0.555285  0.444715  0.649353  1
  Ac  Ac1  1  0.441837  0.558163  0.354402  1
  Ac  Ac2  1  0.942017  0.057983  0.143262  1
  Pr  Pr3  1  0.063002  0.936998  0.860801  1
  Pr  Pr4  1  0.856817  0.143183  0.571069  1
  Pr  Pr5  1  0.141718  0.858282  0.431478  1
  Pr  Pr6  1  0.642541  0.357459  0.067163  1
  Pr  Pr7  1  0.359797  0.640203  0.928082  1
  Cr  Cr8  1  0.744586  0.255414  0.839638  1
  Cr  Cr9  1  0.256420  0.743580  0.158521  1
  Cr  Cr10  1  0.757288  0.242712  0.340306  1
  Cr  Cr11  1  0.239129  0.760871  0.660913  1
  N  N12  1  0.851398  0.148602  0.956594  1
  N  N13  1  0.154445  0.845555  0.037292  1
  N  N14  1  0.654311  0.345689  0.461106  1
  N  N15  1  0.343638  0.656362  0.540553  1
  N  N16  1  0.573807  0.426193  0.870929  1
  N  N17  1  0.427079  0.572921  0.125903  1
  N  N18  1  0.926505  0.073495  0.372835  1
  N  N19  1  0.071267  0.928733  0.630671  1
  N  N20  1  0.511595  0.986509  0.749240  1
  N  N21  1  0.986399  0.514372  0.250325  1
  N  N22  1  0.485628  0.013601  0.250325  1
  N  N23  1  0.013491  0.488405  0.749240  1
