# generated using pymatgen
data_Er4HfZr3Ir4
_symmetry_space_group_name_H-M   'P 1'
_cell_length_a   4.55238500
_cell_length_b   7.06371539
_cell_length_c   8.29055640
_cell_angle_alpha   90.17090873
_cell_angle_beta   90.00000000
_cell_angle_gamma   90.00000000
_symmetry_Int_Tables_number   1
_chemical_formula_structural   Er4HfZr3Ir4
_chemical_formula_sum   'Er4 Hf1 Zr3 Ir4'
_cell_volume   266.59617987
_cell_formula_units_Z   1
loop_
 _symmetry_equiv_pos_site_id
 _symmetry_equiv_pos_as_xyz
  1  'x, y, z'
loop_
 _atom_site_type_symbol
 _atom_site_label
 _atom_site_symmetry_multiplicity
 _atom_site_fract_x
 _atom_site_fract_y
 _atom_site_fract_z
 _atom_site_occupancy
  Er  Er0  1  0.250000  0.985415  0.323367  1
  Er  Er1  1  0.250000  0.483332  0.176246  1
  Er  Er2  1  0.750000  0.015497  0.675513  1
  Er  Er3  1  0.750000  0.514194  0.825224  1
  Hf  Hf4  1  0.750000  0.142397  0.074651  1
  Zr  Zr5  1  0.250000  0.356387  0.574991  1
  Zr  Zr6  1  0.250000  0.856666  0.925368  1
  Zr  Zr7  1  0.750000  0.644012  0.424544  1
  Ir  Ir8  1  0.250000  0.234284  0.909901  1
  Ir  Ir9  1  0.250000  0.735026  0.592199  1
  Ir  Ir10  1  0.750000  0.767901  0.093726  1
  Ir  Ir11  1  0.750000  0.264889  0.404271  1
