# generated using pymatgen
data_Li3Nd3MgSn4
_symmetry_space_group_name_H-M   'P 1'
_cell_length_a   8.83646760
_cell_length_b   8.95921621
_cell_length_c   8.95921727
_cell_angle_alpha   149.38511035
_cell_angle_beta   131.12697053
_cell_angle_gamma   58.90870132
_symmetry_Int_Tables_number   1
_chemical_formula_structural   Li3Nd3MgSn4
_chemical_formula_sum   'Li3 Nd3 Mg1 Sn4'
_cell_volume   269.79646038
_cell_formula_units_Z   1
loop_
 _symmetry_equiv_pos_site_id
 _symmetry_equiv_pos_as_xyz
  1  'x, y, z'
loop_
 _atom_site_type_symbol
 _atom_site_label
 _atom_site_symmetry_multiplicity
 _atom_site_fract_x
 _atom_site_fract_y
 _atom_site_fract_z
 _atom_site_occupancy
  Li  Li0  1  0.362673  0.673306  0.689367  1
  Li  Li1  1  0.022059  0.327856  0.694204  1
  Li  Li2  1  0.986960  0.671269  0.315691  1
  Nd  Nd3  1  0.358997  0.872732  0.486266  1
  Nd  Nd4  1  0.628005  0.125844  0.502161  1
  Nd  Nd5  1  0.999181  0.999520  0.999660  1
  Mg  Mg6  1  0.637649  0.327993  0.309656  1
  Sn  Sn7  1  0.206612  0.214101  0.992510  1
  Sn  Sn8  1  0.799614  0.783057  0.016557  1
  Sn  Sn9  1  0.696903  0.503322  0.193581  1
  Sn  Sn10  1  0.301348  0.501000  0.800348  1
