# generated using pymatgen
data_La6Ce2AlZn7Rh8
_symmetry_space_group_name_H-M   'P 1'
_cell_length_a   4.00037100
_cell_length_b   7.54733313
_cell_length_c   16.48796529
_cell_angle_alpha   89.86635983
_cell_angle_beta   90.00000000
_cell_angle_gamma   90.00000000
_symmetry_Int_Tables_number   1
_chemical_formula_structural   La6Ce2AlZn7Rh8
_chemical_formula_sum   'La6 Ce2 Al1 Zn7 Rh8'
_cell_volume   497.80547997
_cell_formula_units_Z   1
loop_
 _symmetry_equiv_pos_site_id
 _symmetry_equiv_pos_as_xyz
  1  'x, y, z'
loop_
 _atom_site_type_symbol
 _atom_site_label
 _atom_site_symmetry_multiplicity
 _atom_site_fract_x
 _atom_site_fract_y
 _atom_site_fract_z
 _atom_site_occupancy
  La  La0  1  0.250000  0.051482  0.716587  1
  La  La1  1  0.250000  0.551972  0.783401  1
  La  La2  1  0.250000  0.672086  0.559010  1
  La  La3  1  0.250000  0.171853  0.940130  1
  La  La4  1  0.750000  0.454482  0.218517  1
  La  La5  1  0.750000  0.946253  0.283593  1
  Ce  Ce6  1  0.750000  0.320794  0.440235  1
  Ce  Ce7  1  0.750000  0.821139  0.057207  1
  Al  Al8  1  0.250000  0.121492  0.149707  1
  Zn  Zn9  1  0.250000  0.996396  0.439560  1
  Zn  Zn10  1  0.750000  0.875982  0.851126  1
  Zn  Zn11  1  0.750000  0.002019  0.557951  1
  Zn  Zn12  1  0.250000  0.495462  0.061143  1
  Zn  Zn13  1  0.750000  0.374852  0.648613  1
  Zn  Zn14  1  0.750000  0.498686  0.942742  1
  Zn  Zn15  1  0.250000  0.614805  0.353430  1
  Rh  Rh16  1  0.750000  0.254661  0.814935  1
  Rh  Rh17  1  0.250000  0.253858  0.318960  1
  Rh  Rh18  1  0.250000  0.746183  0.941503  1
  Rh  Rh19  1  0.250000  0.249992  0.556449  1
  Rh  Rh20  1  0.250000  0.770444  0.172637  1
  Rh  Rh21  1  0.750000  0.752389  0.433996  1
  Rh  Rh22  1  0.750000  0.246382  0.072569  1
  Rh  Rh23  1  0.750000  0.756336  0.685994  1
