# generated using pymatgen
data_Er2Al20Ru3Rh
_symmetry_space_group_name_H-M   'P 1'
_cell_length_a   6.83599999
_cell_length_b   6.84504146
_cell_length_c   9.13031010
_cell_angle_alpha   90.16633659
_cell_angle_beta   90.19020708
_cell_angle_gamma   96.75849683
_symmetry_Int_Tables_number   1
_chemical_formula_structural   Er2Al20Ru3Rh
_chemical_formula_sum   'Er2 Al20 Ru3 Rh1'
_cell_volume   424.25839255
_cell_formula_units_Z   1
loop_
 _symmetry_equiv_pos_site_id
 _symmetry_equiv_pos_as_xyz
  1  'x, y, z'
loop_
 _atom_site_type_symbol
 _atom_site_label
 _atom_site_symmetry_multiplicity
 _atom_site_fract_x
 _atom_site_fract_y
 _atom_site_fract_z
 _atom_site_occupancy
  Er  Er0  1  0.871565  0.126974  0.750598  1
  Er  Er1  1  0.128435  0.873026  0.249402  1
  Al  Al2  1  0.620992  0.376068  0.550860  1
  Al  Al3  1  0.379008  0.623932  0.449140  1
  Al  Al4  1  0.377154  0.623395  0.049890  1
  Al  Al5  1  0.622846  0.376605  0.950110  1
  Al  Al6  1  0.227155  0.225227  0.499352  1
  Al  Al7  1  0.772845  0.774773  0.500648  1
  Al  Al8  1  0.774042  0.774493  0.999971  1
  Al  Al9  1  0.225958  0.225507  0.000029  1
  Al  Al10  1  0.844826  0.155650  0.099598  1
  Al  Al11  1  0.155174  0.844350  0.900402  1
  Al  Al12  1  0.156536  0.845773  0.600913  1
  Al  Al13  1  0.843464  0.154227  0.399087  1
  Al  Al14  1  0.857899  0.586675  0.750884  1
  Al  Al15  1  0.142101  0.413325  0.249116  1
  Al  Al16  1  0.413732  0.141075  0.750464  1
  Al  Al17  1  0.586268  0.858925  0.249536  1
  Al  Al18  1  0.222936  0.480136  0.752091  1
  Al  Al19  1  0.777064  0.519864  0.247909  1
  Al  Al20  1  0.519868  0.778704  0.749796  1
  Al  Al21  1  0.480132  0.221296  0.250204  1
  Ru  Ru22  1  0.000000  0.500000  0.000000  1
  Ru  Ru23  1  0.500000  0.000000  0.000000  1
  Ru  Ru24  1  0.500000  0.000000  0.500000  1
  Rh  Rh25  1  0.000000  0.500000  0.500000  1
