# generated using pymatgen
data_HfZr3U2F22
_symmetry_space_group_name_H-M   'P 1'
_cell_length_a   8.50269925
_cell_length_b   8.50269821
_cell_length_c   8.50177363
_cell_angle_alpha   124.81509385
_cell_angle_beta   106.38540082
_cell_angle_gamma   98.45694318
_symmetry_Int_Tables_number   1
_chemical_formula_structural   HfZr3U2F22
_chemical_formula_sum   'Hf1 Zr3 U2 F22'
_cell_volume   445.54627174
_cell_formula_units_Z   1
loop_
 _symmetry_equiv_pos_site_id
 _symmetry_equiv_pos_as_xyz
  1  'x, y, z'
loop_
 _atom_site_type_symbol
 _atom_site_label
 _atom_site_symmetry_multiplicity
 _atom_site_fract_x
 _atom_site_fract_y
 _atom_site_fract_z
 _atom_site_occupancy
  Hf  Hf0  1  0.819081  0.134026  0.953107  1
  Zr  Zr1  1  0.681631  0.633642  0.315272  1
  Zr  Zr2  1  0.319529  0.366364  0.685894  1
  Zr  Zr3  1  0.179722  0.866703  0.046426  1
  U  U4  1  0.749922  0.248949  0.499616  1
  U  U5  1  0.250667  0.749693  0.499616  1
  F  F6  1  0.706494  0.895712  0.340826  1
  F  F7  1  0.293974  0.104078  0.659657  1
  F  F8  1  0.555579  0.365683  0.659657  1
  F  F9  1  0.944090  0.604211  0.810185  1
  F  F10  1  0.445113  0.634332  0.340826  1
  F  F11  1  0.051098  0.391625  0.185326  1
  F  F12  1  0.793700  0.134228  0.185326  1
  F  F13  1  0.205974  0.866095  0.810185  1
  F  F14  1  0.501000  0.499788  0.000788  1
  F  F15  1  0.997278  0.002180  0.999458  1
  F  F16  1  0.780593  0.872880  0.653473  1
  F  F17  1  0.218612  0.130434  0.349046  1
  F  F18  1  0.280643  0.630518  0.911162  1
  F  F19  1  0.720992  0.367573  0.088564  1
  F  F20  1  0.954062  0.739389  0.417957  1
  F  F21  1  0.045975  0.260509  0.582264  1
  F  F22  1  0.321755  0.536288  0.582264  1
  F  F23  1  0.178160  0.760867  0.214202  1
  F  F24  1  0.678567  0.463896  0.417957  1
  F  F25  1  0.821621  0.237542  0.788374  1
  F  F26  1  0.550833  0.966753  0.788374  1
  F  F27  1  0.453335  0.036042  0.214202  1
