# generated using pymatgen
data_Dy2Ho2TcRu7
_symmetry_space_group_name_H-M   'P 1'
_cell_length_a   5.20252264
_cell_length_b   5.39268032
_cell_length_c   8.98813000
_cell_angle_alpha   89.99999992
_cell_angle_beta   90.00220927
_cell_angle_gamma   121.21663502
_symmetry_Int_Tables_number   1
_chemical_formula_structural   Dy2Ho2TcRu7
_chemical_formula_sum   'Dy2 Ho2 Tc1 Ru7'
_cell_volume   215.65657893
_cell_formula_units_Z   1
loop_
 _symmetry_equiv_pos_site_id
 _symmetry_equiv_pos_as_xyz
  1  'x, y, z'
loop_
 _atom_site_type_symbol
 _atom_site_label
 _atom_site_symmetry_multiplicity
 _atom_site_fract_x
 _atom_site_fract_y
 _atom_site_fract_z
 _atom_site_occupancy
  Dy  Dy0  1  0.326855  0.663428  0.433322  1
  Dy  Dy1  1  0.654746  0.327372  0.565418  1
  Ho  Ho2  1  0.654454  0.327226  0.934691  1
  Ho  Ho3  1  0.327097  0.663549  0.066510  1
  Tc  Tc4  1  0.687441  0.843720  0.750620  1
  Ru  Ru5  1  0.978024  0.989012  0.499309  1
  Ru  Ru6  1  0.977997  0.988998  0.000732  1
  Ru  Ru7  1  0.837338  0.167471  0.249341  1
  Ru  Ru8  1  0.837338  0.669866  0.249341  1
  Ru  Ru9  1  0.357311  0.178655  0.249300  1
  Ru  Ru10  1  0.180701  0.826678  0.750708  1
  Ru  Ru11  1  0.180701  0.354022  0.750708  1
