# generated using pymatgen
data_Tb2Fe2SiGeC
_symmetry_space_group_name_H-M   'P 1'
_cell_length_a   3.96125489
_cell_length_b   5.67752401
_cell_length_c   5.74225995
_cell_angle_alpha   92.92783503
_cell_angle_beta   110.17698256
_cell_angle_gamma   110.41722781
_symmetry_Int_Tables_number   1
_chemical_formula_structural   Tb2Fe2SiGeC
_chemical_formula_sum   'Tb2 Fe2 Si1 Ge1 C1'
_cell_volume   111.42594644
_cell_formula_units_Z   1
loop_
 _symmetry_equiv_pos_site_id
 _symmetry_equiv_pos_as_xyz
  1  'x, y, z'
loop_
 _atom_site_type_symbol
 _atom_site_label
 _atom_site_symmetry_multiplicity
 _atom_site_fract_x
 _atom_site_fract_y
 _atom_site_fract_z
 _atom_site_occupancy
  Tb  Tb0  1  0.265520  0.324294  0.206748  1
  Tb  Tb1  1  0.732786  0.674437  0.791134  1
  Fe  Fe2  1  0.108285  0.804139  0.412433  1
  Fe  Fe3  1  0.897946  0.196117  0.599775  1
  Si  Si4  1  0.444567  0.111202  0.777932  1
  Ge  Ge5  1  0.550465  0.891027  0.209902  1
  C  C6  1  0.000429  0.498783  0.502076  1
