# generated using pymatgen
data_Li2Pr16Cd2CoIr3
_symmetry_space_group_name_H-M   'P 1'
_cell_length_a   9.98905882
_cell_length_b   9.98905872
_cell_length_c   9.98659789
_cell_angle_alpha   60.46215962
_cell_angle_beta   60.46215873
_cell_angle_gamma   60.48545751
_symmetry_Int_Tables_number   1
_chemical_formula_structural   Li2Pr16Cd2CoIr3
_chemical_formula_sum   'Li2 Pr16 Cd2 Co1 Ir3'
_cell_volume   712.09928727
_cell_formula_units_Z   1
loop_
 _symmetry_equiv_pos_site_id
 _symmetry_equiv_pos_as_xyz
  1  'x, y, z'
loop_
 _atom_site_type_symbol
 _atom_site_label
 _atom_site_symmetry_multiplicity
 _atom_site_fract_x
 _atom_site_fract_y
 _atom_site_fract_z
 _atom_site_occupancy
  Li  Li0  1  0.571354  0.571354  0.575868  1
  Li  Li1  1  0.571712  0.571712  0.280163  1
  Pr  Pr2  1  0.348055  0.348055  0.347871  1
  Pr  Pr3  1  0.344527  0.344527  0.958074  1
  Pr  Pr4  1  0.343638  0.962566  0.343595  1
  Pr  Pr5  1  0.962566  0.343638  0.343595  1
  Pr  Pr6  1  0.816888  0.187852  0.188885  1
  Pr  Pr7  1  0.190157  0.811329  0.809023  1
  Pr  Pr8  1  0.187852  0.816888  0.188885  1
  Pr  Pr9  1  0.811329  0.190157  0.809023  1
  Pr  Pr10  1  0.191504  0.191504  0.813257  1
  Pr  Pr11  1  0.814791  0.814791  0.184884  1
  Pr  Pr12  1  0.939060  0.561237  0.561674  1
  Pr  Pr13  1  0.563259  0.937878  0.937449  1
  Pr  Pr14  1  0.561237  0.939060  0.561674  1
  Pr  Pr15  1  0.937878  0.563259  0.937449  1
  Pr  Pr16  1  0.561666  0.561666  0.938036  1
  Pr  Pr17  1  0.938032  0.938032  0.563183  1
  Cd  Cd18  1  0.582652  0.258001  0.580261  1
  Cd  Cd19  1  0.258001  0.582652  0.580261  1
  Co  Co20  1  0.141535  0.141535  0.140508  1
  Ir  Ir21  1  0.142617  0.142617  0.575023  1
  Ir  Ir22  1  0.143343  0.576342  0.140679  1
  Ir  Ir23  1  0.576342  0.143343  0.140679  1
