# generated using pymatgen
data_La4I3N2
_symmetry_space_group_name_H-M   'P 1'
_cell_length_a   7.90061359
_cell_length_b   7.90061434
_cell_length_c   13.89570029
_cell_angle_alpha   139.48697396
_cell_angle_beta   139.48697901
_cell_angle_gamma   29.89799170
_symmetry_Int_Tables_number   1
_chemical_formula_structural   La4I3N2
_chemical_formula_sum   'La4 I3 N2'
_cell_volume   266.79703336
_cell_formula_units_Z   1
loop_
 _symmetry_equiv_pos_site_id
 _symmetry_equiv_pos_as_xyz
  1  'x, y, z'
loop_
 _atom_site_type_symbol
 _atom_site_label
 _atom_site_symmetry_multiplicity
 _atom_site_fract_x
 _atom_site_fract_y
 _atom_site_fract_z
 _atom_site_occupancy
  La  La0  1  0.718520  0.718520  0.078003  1
  La  La1  1  0.574562  0.574562  0.377386  1
  La  La2  1  0.425437  0.425437  0.622614  1
  La  La3  1  0.281479  0.281479  0.921997  1
  I  I4  1  0.109982  0.109982  0.215195  1
  I  I5  1  0.000000  0.000000  0.499999  1
  I  I6  1  0.890018  0.890018  0.784805  1
  N  N7  1  0.334597  0.334597  0.133033  1
  N  N8  1  0.665404  0.665404  0.866967  1
