# generated using pymatgen
data_Y12ZnCo4Pb
_symmetry_space_group_name_H-M   'P 1'
_cell_length_a   8.37963105
_cell_length_b   8.37963122
_cell_length_c   8.37963105
_cell_angle_alpha   110.01940012
_cell_angle_beta   111.32869195
_cell_angle_gamma   107.09421717
_symmetry_Int_Tables_number   1
_chemical_formula_structural   Y12ZnCo4Pb
_chemical_formula_sum   'Y12 Zn1 Co4 Pb1'
_cell_volume   452.30927870
_cell_formula_units_Z   1
loop_
 _symmetry_equiv_pos_site_id
 _symmetry_equiv_pos_as_xyz
  1  'x, y, z'
loop_
 _atom_site_type_symbol
 _atom_site_label
 _atom_site_symmetry_multiplicity
 _atom_site_fract_x
 _atom_site_fract_y
 _atom_site_fract_z
 _atom_site_occupancy
  Y  Y0  1  0.287271  0.184508  0.471779  1
  Y  Y1  1  0.712729  0.815492  0.528221  1
  Y  Y2  1  0.287271  0.815492  0.102765  1
  Y  Y3  1  0.712729  0.184508  0.897235  1
  Y  Y4  1  0.618392  0.313376  0.305016  1
  Y  Y5  1  0.381608  0.686624  0.694984  1
  Y  Y6  1  0.008360  0.313376  0.694984  1
  Y  Y7  1  0.991640  0.686624  0.305016  1
  Y  Y8  1  0.219407  0.424355  0.204948  1
  Y  Y9  1  0.780593  0.575645  0.795052  1
  Y  Y10  1  0.219407  0.014459  0.795052  1
  Y  Y11  1  0.780593  0.985541  0.204948  1
  Zn  Zn12  1  0.000000  0.000000  0.000000  1
  Co  Co13  1  0.000000  0.379363  0.379363  1
  Co  Co14  1  0.000000  0.620637  0.620637  1
  Co  Co15  1  0.389204  0.889204  0.500000  1
  Co  Co16  1  0.610796  0.110796  0.500000  1
  Pb  Pb17  1  0.500000  0.500000  0.000000  1
