# generated using pymatgen
data_NaMgSc3Ni9As7
_symmetry_space_group_name_H-M   'P 1'
_cell_length_a   9.63848722
_cell_length_b   9.73091145
_cell_length_c   3.84183600
_cell_angle_alpha   90.00000000
_cell_angle_beta   90.00000000
_cell_angle_gamma   120.18994461
_symmetry_Int_Tables_number   1
_chemical_formula_structural   NaMgSc3Ni9As7
_chemical_formula_sum   'Na1 Mg1 Sc3 Ni9 As7'
_cell_volume   311.45651562
_cell_formula_units_Z   1
loop_
 _symmetry_equiv_pos_site_id
 _symmetry_equiv_pos_as_xyz
  1  'x, y, z'
loop_
 _atom_site_type_symbol
 _atom_site_label
 _atom_site_symmetry_multiplicity
 _atom_site_fract_x
 _atom_site_fract_y
 _atom_site_fract_z
 _atom_site_occupancy
  Na  Na0  1  0.666887  0.335304  0.500000  1
  Mg  Mg1  1  0.232382  0.119683  0.500000  1
  Sc  Sc2  1  0.878368  0.111110  0.500000  1
  Sc  Sc3  1  0.893229  0.770890  0.500000  1
  Sc  Sc4  1  0.331858  0.661098  0.000000  1
  Ni  Ni5  1  0.125846  0.290236  0.000000  1
  Ni  Ni6  1  0.708940  0.836117  0.000000  1
  Ni  Ni7  1  0.165417  0.877263  0.000000  1
  Ni  Ni8  1  0.418171  0.359342  0.000000  1
  Ni  Ni9  1  0.634789  0.056488  0.000000  1
  Ni  Ni10  1  0.943213  0.581424  0.000000  1
  Ni  Ni11  1  0.055821  0.442423  0.500000  1
  Ni  Ni12  1  0.557397  0.613461  0.500000  1
  Ni  Ni13  1  0.389102  0.947442  0.500000  1
  As  As14  1  0.289197  0.419691  0.500000  1
  As  As15  1  0.575061  0.863652  0.500000  1
  As  As16  1  0.135650  0.709713  0.500000  1
  As  As17  1  0.427810  0.113930  0.000000  1
  As  As18  1  0.888743  0.316959  0.000000  1
  As  As19  1  0.683255  0.572946  0.000000  1
  As  As20  1  0.998862  0.000829  0.000000  1
