# generated using pymatgen
data_Nd2Al5(Fe6C)2
_symmetry_space_group_name_H-M   'P 1'
_cell_length_a   6.66896637
_cell_length_b   6.66896768
_cell_length_c   6.56485200
_cell_angle_alpha   83.71087850
_cell_angle_beta   83.71087726
_cell_angle_gamma   84.49907833
_symmetry_Int_Tables_number   1
_chemical_formula_structural   Nd2Al5(Fe6C)2
_chemical_formula_sum   'Nd2 Al5 Fe12 C2'
_cell_volume   287.42781327
_cell_formula_units_Z   1
loop_
 _symmetry_equiv_pos_site_id
 _symmetry_equiv_pos_as_xyz
  1  'x, y, z'
loop_
 _atom_site_type_symbol
 _atom_site_label
 _atom_site_symmetry_multiplicity
 _atom_site_fract_x
 _atom_site_fract_y
 _atom_site_fract_z
 _atom_site_occupancy
  Nd  Nd0  1  0.346875  0.346875  0.340373  1
  Nd  Nd1  1  0.653125  0.653125  0.659627  1
  Al  Al2  1  0.668376  0.668376  0.153937  1
  Al  Al3  1  0.331624  0.331624  0.846063  1
  Al  Al4  1  0.000000  0.000000  0.500000  1
  Al  Al5  1  0.733212  0.266788  0.000000  1
  Al  Al6  1  0.266788  0.733212  0.000000  1
  Fe  Fe7  1  0.657687  0.140828  0.658736  1
  Fe  Fe8  1  0.140828  0.657687  0.658736  1
  Fe  Fe9  1  0.342313  0.859172  0.341264  1
  Fe  Fe10  1  0.859172  0.342313  0.341264  1
  Fe  Fe11  1  0.095271  0.095271  0.092198  1
  Fe  Fe12  1  0.904729  0.904729  0.907802  1
  Fe  Fe13  1  0.000000  0.500000  0.000000  1
  Fe  Fe14  1  0.500000  0.000000  0.000000  1
  Fe  Fe15  1  0.287782  0.999330  0.708639  1
  Fe  Fe16  1  0.000670  0.712218  0.291361  1
  Fe  Fe17  1  0.712218  0.000670  0.291361  1
  Fe  Fe18  1  0.999330  0.287782  0.708639  1
  C  C19  1  0.500000  0.000000  0.500000  1
  C  C20  1  0.000000  0.500000  0.500000  1
