# generated using pymatgen
data_ZrSc3NbRe24
_symmetry_space_group_name_H-M   'P 1'
_cell_length_a   8.45876458
_cell_length_b   8.46180931
_cell_length_c   8.46182400
_cell_angle_alpha   109.47981679
_cell_angle_beta   109.46282088
_cell_angle_gamma   109.46376591
_symmetry_Int_Tables_number   1
_chemical_formula_structural   ZrSc3NbRe24
_chemical_formula_sum   'Zr1 Sc3 Nb1 Re24'
_cell_volume   466.28469117
_cell_formula_units_Z   1
loop_
 _symmetry_equiv_pos_site_id
 _symmetry_equiv_pos_as_xyz
  1  'x, y, z'
loop_
 _atom_site_type_symbol
 _atom_site_label
 _atom_site_symmetry_multiplicity
 _atom_site_fract_x
 _atom_site_fract_y
 _atom_site_fract_z
 _atom_site_occupancy
  Zr  Zr0  1  0.000458  0.000129  0.000205  1
  Sc  Sc1  1  0.999365  0.629284  0.000079  1
  Sc  Sc2  1  0.999444  0.000189  0.629292  1
  Sc  Sc3  1  0.370128  0.370627  0.370626  1
  Nb  Nb4  1  0.627939  0.000002  0.000036  1
  Re  Re5  1  0.401071  0.682231  0.999935  1
  Re  Re6  1  0.718968  0.318023  0.317997  1
  Re  Re7  1  0.401081  0.000002  0.682141  1
  Re  Re8  1  0.676543  0.397667  0.000096  1
  Re  Re9  1  0.003033  0.398641  0.678872  1
  Re  Re10  1  0.324101  0.719699  0.321138  1
  Re  Re11  1  0.324139  0.321248  0.719707  1
  Re  Re12  1  0.003005  0.678794  0.398625  1
  Re  Re13  1  0.676628  0.000133  0.397694  1
  Re  Re14  1  0.604474  0.601439  0.280214  1
  Re  Re15  1  0.278685  0.602177  0.602142  1
  Re  Re16  1  0.604429  0.280164  0.601472  1
  Re  Re17  1  0.376535  0.193330  0.000000  1
  Re  Re18  1  0.183096  0.806539  0.806522  1
  Re  Re19  1  0.376539  0.999969  0.193316  1
  Re  Re20  1  0.190877  0.376868  0.999964  1
  Re  Re21  1  0.999512  0.377347  0.193945  1
  Re  Re22  1  0.805688  0.183578  0.806073  1
  Re  Re23  1  0.805709  0.806077  0.183611  1
  Re  Re24  1  0.999531  0.193928  0.377358  1
  Re  Re25  1  0.190871  0.999966  0.376954  1
  Re  Re26  1  0.622048  0.622549  0.816313  1
  Re  Re27  1  0.813998  0.623080  0.623059  1
  Re  Re28  1  0.622108  0.816323  0.622613  1
