# generated using pymatgen
data_TbNd10In9Pd4
_symmetry_space_group_name_H-M   'P 1'
_cell_length_a   13.47798705
_cell_length_b   13.47798596
_cell_length_c   3.79580000
_cell_angle_alpha   90.00000000
_cell_angle_beta   90.00000000
_cell_angle_gamma   111.09440676
_symmetry_Int_Tables_number   1
_chemical_formula_structural   TbNd10In9Pd4
_chemical_formula_sum   'Tb1 Nd10 In9 Pd4'
_cell_volume   643.32396134
_cell_formula_units_Z   1
loop_
 _symmetry_equiv_pos_site_id
 _symmetry_equiv_pos_as_xyz
  1  'x, y, z'
loop_
 _atom_site_type_symbol
 _atom_site_label
 _atom_site_symmetry_multiplicity
 _atom_site_fract_x
 _atom_site_fract_y
 _atom_site_fract_z
 _atom_site_occupancy
  Tb  Tb0  1  0.690700  0.690700  0.000000  1
  Nd  Nd1  1  0.418119  0.069932  0.000000  1
  Nd  Nd2  1  0.582521  0.928784  0.000000  1
  Nd  Nd3  1  0.069932  0.418119  0.000000  1
  Nd  Nd4  1  0.928784  0.582521  0.000000  1
  Nd  Nd5  1  0.158264  0.841286  0.000000  1
  Nd  Nd6  1  0.841286  0.158264  0.000000  1
  Nd  Nd7  1  0.371275  0.629775  0.000000  1
  Nd  Nd8  1  0.629775  0.371275  0.000000  1
  Nd  Nd9  1  0.307997  0.307997  0.000000  1
  Nd  Nd10  1  0.999994  0.999994  0.000000  1
  In  In11  1  0.366154  0.839996  0.500000  1
  In  In12  1  0.634001  0.160047  0.500000  1
  In  In13  1  0.839996  0.366154  0.500000  1
  In  In14  1  0.160047  0.634001  0.500000  1
  In  In15  1  0.218858  0.075588  0.500000  1
  In  In16  1  0.780343  0.921627  0.500000  1
  In  In17  1  0.075588  0.218858  0.500000  1
  In  In18  1  0.921627  0.780343  0.500000  1
  In  In19  1  0.502022  0.502022  0.500000  1
  Pd  Pd20  1  0.451408  0.248772  0.500000  1
  Pd  Pd21  1  0.552833  0.749707  0.500000  1
  Pd  Pd22  1  0.248772  0.451408  0.500000  1
  Pd  Pd23  1  0.749707  0.552833  0.500000  1
