# generated using pymatgen
data_NdEr3(Tc2Ge)8
_symmetry_space_group_name_H-M   'P 1'
_cell_length_a   4.18278900
_cell_length_b   7.28314265
_cell_length_c   15.50121300
_cell_angle_alpha   89.94261093
_cell_angle_beta   90.00000000
_cell_angle_gamma   90.00000000
_symmetry_Int_Tables_number   1
_chemical_formula_structural   NdEr3(Tc2Ge)8
_chemical_formula_sum   'Nd1 Er3 Tc16 Ge8'
_cell_volume   472.22637490
_cell_formula_units_Z   1
loop_
 _symmetry_equiv_pos_site_id
 _symmetry_equiv_pos_as_xyz
  1  'x, y, z'
loop_
 _atom_site_type_symbol
 _atom_site_label
 _atom_site_symmetry_multiplicity
 _atom_site_fract_x
 _atom_site_fract_y
 _atom_site_fract_z
 _atom_site_occupancy
  Nd  Nd0  1  0.500000  0.921971  0.618690  1
  Er  Er1  1  0.000000  0.579367  0.118552  1
  Er  Er2  1  0.000000  0.418311  0.882912  1
  Er  Er3  1  0.500000  0.082033  0.380154  1
  Tc  Tc4  1  0.000000  0.137464  0.052796  1
  Tc  Tc5  1  0.000000  0.860609  0.948440  1
  Tc  Tc6  1  0.500000  0.640058  0.444899  1
  Tc  Tc7  1  0.500000  0.367937  0.551116  1
  Tc  Tc8  1  0.000000  0.727878  0.319646  1
  Tc  Tc9  1  0.000000  0.276747  0.680111  1
  Tc  Tc10  1  0.500000  0.226410  0.179097  1
  Tc  Tc11  1  0.500000  0.769967  0.822560  1
  Tc  Tc12  1  0.000000  0.437457  0.418282  1
  Tc  Tc13  1  0.000000  0.565074  0.578553  1
  Tc  Tc14  1  0.500000  0.935700  0.080454  1
  Tc  Tc15  1  0.500000  0.062429  0.920694  1
  Tc  Tc16  1  0.000000  0.982626  0.203189  1
  Tc  Tc17  1  0.000000  0.015503  0.798281  1
  Tc  Tc18  1  0.500000  0.482290  0.295784  1
  Tc  Tc19  1  0.500000  0.512787  0.704259  1
  Ge  Ge20  1  0.000000  0.836117  0.473619  1
  Ge  Ge21  1  0.000000  0.171388  0.523202  1
  Ge  Ge22  1  0.500000  0.333295  0.024426  1
  Ge  Ge23  1  0.500000  0.664595  0.977115  1
  Ge  Ge24  1  0.000000  0.285743  0.273342  1
  Ge  Ge25  1  0.000000  0.707716  0.728337  1
  Ge  Ge26  1  0.500000  0.785467  0.225422  1
  Ge  Ge27  1  0.500000  0.213059  0.776069  1
