# generated using pymatgen
data_CaNiAs4F24
_symmetry_space_group_name_H-M   'P 1'
_cell_length_a   9.58716533
_cell_length_b   9.58716439
_cell_length_c   9.58716445
_cell_angle_alpha   132.84441967
_cell_angle_beta   132.84441916
_cell_angle_gamma   68.89858722
_symmetry_Int_Tables_number   1
_chemical_formula_structural   CaNiAs4F24
_chemical_formula_sum   'Ca1 Ni1 As4 F24'
_cell_volume   465.04467711
_cell_formula_units_Z   1
loop_
 _symmetry_equiv_pos_site_id
 _symmetry_equiv_pos_as_xyz
  1  'x, y, z'
loop_
 _atom_site_type_symbol
 _atom_site_label
 _atom_site_symmetry_multiplicity
 _atom_site_fract_x
 _atom_site_fract_y
 _atom_site_fract_z
 _atom_site_occupancy
  Ca  Ca0  1  0.750000  0.250000  0.500000  1
  Ni  Ni1  1  0.000000  0.000000  0.000000  1
  As  As2  1  0.783801  0.783801  0.000000  1
  As  As3  1  0.216199  0.216199  0.000000  1
  As  As4  1  0.976310  0.476310  0.500000  1
  As  As5  1  0.523690  0.023690  0.500000  1
  F  F6  1  0.868328  0.758834  0.207875  1
  F  F7  1  0.550959  0.660454  0.792125  1
  F  F8  1  0.418799  0.787085  0.305981  1
  F  F9  1  0.339546  0.131672  0.890506  1
  F  F10  1  0.241166  0.449041  0.109494  1
  F  F11  1  0.212915  0.518896  0.631713  1
  F  F12  1  0.637870  0.260819  0.683176  1
  F  F13  1  0.739181  0.422357  0.377052  1
  F  F14  1  0.045306  0.362130  0.622948  1
  F  F15  1  0.088415  0.281542  0.105881  1
  F  F16  1  0.175660  0.982534  0.894119  1
  F  F17  1  0.577643  0.954694  0.316824  1
  F  F18  1  0.718458  0.824340  0.806875  1
  F  F19  1  0.017466  0.911585  0.193125  1
  F  F20  1  0.290916  0.072868  0.310832  1
  F  F21  1  0.927132  0.237964  0.218049  1
  F  F22  1  0.019916  0.709084  0.781951  1
  F  F23  1  0.437725  0.283129  0.293714  1
  F  F24  1  0.989416  0.144010  0.706286  1
  F  F25  1  0.762036  0.980084  0.689168  1
  F  F26  1  0.716871  0.010584  0.154595  1
  F  F27  1  0.855990  0.562275  0.845405  1
  F  F28  1  0.481104  0.112817  0.694019  1
  F  F29  1  0.887183  0.581201  0.368287  1
