# generated using pymatgen
data_DyHoNiSn5Rh2
_symmetry_space_group_name_H-M   'P 1'
_cell_length_a   13.34116502
_cell_length_b   13.34116603
_cell_length_c   7.20414300
_cell_angle_alpha   90.00000000
_cell_angle_beta   90.00000000
_cell_angle_gamma   161.00007620
_symmetry_Int_Tables_number   1
_chemical_formula_structural   DyHoNiSn5Rh2
_chemical_formula_sum   'Dy2 Ho2 Ni2 Sn10 Rh4'
_cell_volume   417.45542618
_cell_formula_units_Z   2
loop_
 _symmetry_equiv_pos_site_id
 _symmetry_equiv_pos_as_xyz
  1  'x, y, z'
loop_
 _atom_site_type_symbol
 _atom_site_label
 _atom_site_symmetry_multiplicity
 _atom_site_fract_x
 _atom_site_fract_y
 _atom_site_fract_z
 _atom_site_occupancy
  Dy  Dy0  1  0.171301  0.828699  0.747487  1
  Dy  Dy1  1  0.828699  0.171301  0.247487  1
  Ho  Ho2  1  0.475911  0.524089  0.757468  1
  Ho  Ho3  1  0.524089  0.475911  0.257468  1
  Ni  Ni4  1  0.049979  0.950021  0.982375  1
  Ni  Ni5  1  0.950021  0.049979  0.482375  1
  Sn  Sn6  1  0.881636  0.118364  0.765881  1
  Sn  Sn7  1  0.118364  0.881636  0.265881  1
  Sn  Sn8  1  0.703516  0.296484  0.453665  1
  Sn  Sn9  1  0.296484  0.703516  0.953665  1
  Sn  Sn10  1  0.593657  0.406343  0.889978  1
  Sn  Sn11  1  0.406343  0.593657  0.389978  1
  Sn  Sn12  1  0.954744  0.045256  0.101681  1
  Sn  Sn13  1  0.045256  0.954744  0.601681  1
  Sn  Sn14  1  0.290987  0.709013  0.521984  1
  Sn  Sn15  1  0.709013  0.290987  0.021984  1
  Rh  Rh16  1  0.777664  0.222336  0.734278  1
  Rh  Rh17  1  0.222336  0.777664  0.234278  1
  Rh  Rh18  1  0.396472  0.603528  0.017205  1
  Rh  Rh19  1  0.603528  0.396472  0.517205  1
