# generated using pymatgen
data_Er4Mg3GaPt4
_symmetry_space_group_name_H-M   'P 1'
_cell_length_a   4.22073200
_cell_length_b   6.98582234
_cell_length_c   8.39048478
_cell_angle_alpha   89.54199934
_cell_angle_beta   90.00000000
_cell_angle_gamma   90.00000000
_symmetry_Int_Tables_number   1
_chemical_formula_structural   Er4Mg3GaPt4
_chemical_formula_sum   'Er4 Mg3 Ga1 Pt4'
_cell_volume   247.38792160
_cell_formula_units_Z   1
loop_
 _symmetry_equiv_pos_site_id
 _symmetry_equiv_pos_as_xyz
  1  'x, y, z'
loop_
 _atom_site_type_symbol
 _atom_site_label
 _atom_site_symmetry_multiplicity
 _atom_site_fract_x
 _atom_site_fract_y
 _atom_site_fract_z
 _atom_site_occupancy
  Er  Er0  1  0.250000  0.963315  0.318623  1
  Er  Er1  1  0.250000  0.452119  0.173728  1
  Er  Er2  1  0.750000  0.042294  0.681170  1
  Er  Er3  1  0.750000  0.535599  0.827331  1
  Mg  Mg4  1  0.250000  0.364299  0.560519  1
  Mg  Mg5  1  0.250000  0.868205  0.941982  1
  Mg  Mg6  1  0.750000  0.634033  0.439034  1
  Ga  Ga7  1  0.750000  0.133633  0.059109  1
  Pt  Pt8  1  0.250000  0.251397  0.877160  1
  Pt  Pt9  1  0.250000  0.755957  0.627085  1
  Pt  Pt10  1  0.750000  0.753911  0.124885  1
  Pt  Pt11  1  0.750000  0.245238  0.369374  1
