# generated using pymatgen
data_Ta10GaIr4
_symmetry_space_group_name_H-M   'P 1'
_cell_length_a   9.92100300
_cell_length_b   9.92100300
_cell_length_c   5.17303600
_cell_angle_alpha   90.00000000
_cell_angle_beta   90.00000000
_cell_angle_gamma   90.00000000
_symmetry_Int_Tables_number   1
_chemical_formula_structural   Ta10GaIr4
_chemical_formula_sum   'Ta20 Ga2 Ir8'
_cell_volume   509.16279597
_cell_formula_units_Z   2
loop_
 _symmetry_equiv_pos_site_id
 _symmetry_equiv_pos_as_xyz
  1  'x, y, z'
loop_
 _atom_site_type_symbol
 _atom_site_label
 _atom_site_symmetry_multiplicity
 _atom_site_fract_x
 _atom_site_fract_y
 _atom_site_fract_z
 _atom_site_occupancy
  Ta  Ta0  1  0.395064  0.395064  0.000000  1
  Ta  Ta1  1  0.895064  0.104936  0.500000  1
  Ta  Ta2  1  0.104936  0.895064  0.500000  1
  Ta  Ta3  1  0.604936  0.604936  0.000000  1
  Ta  Ta4  1  0.129049  0.465676  0.000000  1
  Ta  Ta5  1  0.965676  0.370951  0.500000  1
  Ta  Ta6  1  0.034324  0.629049  0.500000  1
  Ta  Ta7  1  0.870951  0.534324  0.000000  1
  Ta  Ta8  1  0.370951  0.965676  0.500000  1
  Ta  Ta9  1  0.629049  0.034324  0.500000  1
  Ta  Ta10  1  0.465676  0.129049  0.000000  1
  Ta  Ta11  1  0.534324  0.870951  0.000000  1
  Ta  Ta12  1  0.182430  0.182430  0.251700  1
  Ta  Ta13  1  0.682430  0.317570  0.751700  1
  Ta  Ta14  1  0.317570  0.682430  0.751700  1
  Ta  Ta15  1  0.817570  0.817570  0.251700  1
  Ta  Ta16  1  0.317570  0.682430  0.248300  1
  Ta  Ta17  1  0.682430  0.317570  0.248300  1
  Ta  Ta18  1  0.182430  0.182430  0.748300  1
  Ta  Ta19  1  0.817570  0.817570  0.748300  1
  Ga  Ga20  1  0.000000  0.000000  0.000000  1
  Ga  Ga21  1  0.500000  0.500000  0.500000  1
  Ir  Ir22  1  0.261087  0.936134  0.000000  1
  Ir  Ir23  1  0.436134  0.238913  0.500000  1
  Ir  Ir24  1  0.563866  0.761087  0.500000  1
  Ir  Ir25  1  0.738913  0.063866  0.000000  1
  Ir  Ir26  1  0.238913  0.436134  0.500000  1
  Ir  Ir27  1  0.761087  0.563866  0.500000  1
  Ir  Ir28  1  0.936134  0.261087  0.000000  1
  Ir  Ir29  1  0.063866  0.738913  0.000000  1
