# generated using pymatgen
data_Y7Tm9(AlRh)4
_symmetry_space_group_name_H-M   'P 1'
_cell_length_a   9.46314805
_cell_length_b   9.46307599
_cell_length_c   9.46541108
_cell_angle_alpha   60.07763211
_cell_angle_beta   60.07780985
_cell_angle_gamma   60.22582777
_symmetry_Int_Tables_number   1
_chemical_formula_structural   Y7Tm9(AlRh)4
_chemical_formula_sum   'Y7 Tm9 Al4 Rh4'
_cell_volume   601.08945404
_cell_formula_units_Z   1
loop_
 _symmetry_equiv_pos_site_id
 _symmetry_equiv_pos_as_xyz
  1  'x, y, z'
loop_
 _atom_site_type_symbol
 _atom_site_label
 _atom_site_symmetry_multiplicity
 _atom_site_fract_x
 _atom_site_fract_y
 _atom_site_fract_z
 _atom_site_occupancy
  Y  Y0  1  0.058251  0.058251  0.441668  1
  Y  Y1  1  0.188221  0.811870  0.813720  1
  Y  Y2  1  0.811234  0.189856  0.188706  1
  Y  Y3  1  0.811868  0.188214  0.813735  1
  Y  Y4  1  0.189874  0.811227  0.188704  1
  Y  Y5  1  0.812669  0.812658  0.187865  1
  Y  Y6  1  0.189127  0.189123  0.812433  1
  Tm  Tm7  1  0.599414  0.599426  0.600068  1
  Tm  Tm8  1  0.604605  0.604605  0.190502  1
  Tm  Tm9  1  0.603257  0.191776  0.604798  1
  Tm  Tm10  1  0.191778  0.603261  0.604795  1
  Tm  Tm11  1  0.056381  0.443321  0.442197  1
  Tm  Tm12  1  0.442160  0.058297  0.058040  1
  Tm  Tm13  1  0.443311  0.056396  0.442189  1
  Tm  Tm14  1  0.058306  0.442159  0.058032  1
  Tm  Tm15  1  0.442336  0.442337  0.056659  1
  Al  Al16  1  0.827957  0.827951  0.828073  1
  Al  Al17  1  0.826441  0.826433  0.517993  1
  Al  Al18  1  0.826417  0.518050  0.826510  1
  Al  Al19  1  0.518051  0.826417  0.826511  1
  Rh  Rh20  1  0.393078  0.393088  0.393370  1
  Rh  Rh21  1  0.390572  0.390563  0.823058  1
  Rh  Rh22  1  0.394687  0.820016  0.390185  1
  Rh  Rh23  1  0.820007  0.394707  0.390189  1
