# generated using pymatgen
data_La2SnPt9
_symmetry_space_group_name_H-M   'P 1'
_cell_length_a   5.47778501
_cell_length_b   5.47778506
_cell_length_c   8.98169300
_cell_angle_alpha   90.00000000
_cell_angle_beta   90.00000000
_cell_angle_gamma   119.31253818
_symmetry_Int_Tables_number   1
_chemical_formula_structural   La2SnPt9
_chemical_formula_sum   'La2 Sn1 Pt9'
_cell_volume   234.99889186
_cell_formula_units_Z   1
loop_
 _symmetry_equiv_pos_site_id
 _symmetry_equiv_pos_as_xyz
  1  'x, y, z'
loop_
 _atom_site_type_symbol
 _atom_site_label
 _atom_site_symmetry_multiplicity
 _atom_site_fract_x
 _atom_site_fract_y
 _atom_site_fract_z
 _atom_site_occupancy
  La  La0  1  0.000000  0.000000  0.769508  1
  La  La1  1  0.000000  0.000000  0.230492  1
  Sn  Sn2  1  0.500000  0.500000  0.500000  1
  Pt  Pt3  1  0.669501  0.330499  0.750825  1
  Pt  Pt4  1  0.669501  0.330499  0.249175  1
  Pt  Pt5  1  0.500000  0.500000  0.000000  1
  Pt  Pt6  1  0.330499  0.669501  0.750825  1
  Pt  Pt7  1  0.500000  0.000000  0.500000  1
  Pt  Pt8  1  0.000000  0.500000  0.000000  1
  Pt  Pt9  1  0.500000  0.000000  0.000000  1
  Pt  Pt10  1  0.330499  0.669501  0.249175  1
  Pt  Pt11  1  0.000000  0.500000  0.500000  1
