# generated using pymatgen
data_Pr2Nd3SmOsBr10
_symmetry_space_group_name_H-M   'P 1'
_cell_length_a   7.68506882
_cell_length_b   9.64496636
_cell_length_c   9.49879075
_cell_angle_alpha   107.95951350
_cell_angle_beta   95.95065837
_cell_angle_gamma   106.14536937
_symmetry_Int_Tables_number   1
_chemical_formula_structural   Pr2Nd3SmOsBr10
_chemical_formula_sum   'Pr2 Nd3 Sm1 Os1 Br10'
_cell_volume   629.37512828
_cell_formula_units_Z   1
loop_
 _symmetry_equiv_pos_site_id
 _symmetry_equiv_pos_as_xyz
  1  'x, y, z'
loop_
 _atom_site_type_symbol
 _atom_site_label
 _atom_site_symmetry_multiplicity
 _atom_site_fract_x
 _atom_site_fract_y
 _atom_site_fract_z
 _atom_site_occupancy
  Pr  Pr0  1  0.625655  0.548421  0.261912  1
  Pr  Pr1  1  0.376560  0.452652  0.739081  1
  Nd  Nd2  1  0.530863  0.195557  0.403785  1
  Nd  Nd3  1  0.470333  0.804637  0.597255  1
  Nd  Nd4  1  0.131722  0.358600  0.315196  1
  Sm  Sm5  1  0.865359  0.640567  0.683310  1
  Os  Os6  1  0.500376  0.500234  0.500049  1
  Br  Br7  1  0.150267  0.046825  0.229283  1
  Br  Br8  1  0.852015  0.949671  0.770571  1
  Br  Br9  1  0.251461  0.416612  0.048525  1
  Br  Br10  1  0.751649  0.584894  0.948766  1
  Br  Br11  1  0.710000  0.244791  0.153062  1
  Br  Br12  1  0.284727  0.753807  0.844872  1
  Br  Br13  1  0.045827  0.673603  0.419352  1
  Br  Br14  1  0.953212  0.329193  0.584887  1
  Br  Br15  1  0.412735  0.131464  0.671542  1
  Br  Br16  1  0.587239  0.868471  0.328553  1
