# generated using pymatgen
data_Ta12Mn4Al3Si5C4
_symmetry_space_group_name_H-M   'P 1'
_cell_length_a   8.11185164
_cell_length_b   8.11949809
_cell_length_c   8.11185117
_cell_angle_alpha   60.08764414
_cell_angle_beta   60.04213305
_cell_angle_gamma   60.08764071
_symmetry_Int_Tables_number   1
_chemical_formula_structural   Ta12Mn4Al3Si5C4
_chemical_formula_sum   'Ta12 Mn4 Al3 Si5 C4'
_cell_volume   378.41354198
_cell_formula_units_Z   1
loop_
 _symmetry_equiv_pos_site_id
 _symmetry_equiv_pos_as_xyz
  1  'x, y, z'
loop_
 _atom_site_type_symbol
 _atom_site_label
 _atom_site_symmetry_multiplicity
 _atom_site_fract_x
 _atom_site_fract_y
 _atom_site_fract_z
 _atom_site_occupancy
  Ta  Ta0  1  0.551942  0.948391  0.551942  1
  Ta  Ta1  1  0.305184  0.695224  0.694790  1
  Ta  Ta2  1  0.699243  0.303341  0.303934  1
  Ta  Ta3  1  0.304126  0.699045  0.304126  1
  Ta  Ta4  1  0.694790  0.695224  0.305184  1
  Ta  Ta5  1  0.303934  0.303341  0.699243  1
  Ta  Ta6  1  0.556524  0.550000  0.946884  1
  Ta  Ta7  1  0.946884  0.550000  0.556524  1
  Ta  Ta8  1  0.555914  0.947358  0.946855  1
  Ta  Ta9  1  0.946855  0.947358  0.555914  1
  Ta  Ta10  1  0.695337  0.304492  0.695337  1
  Ta  Ta11  1  0.945523  0.554300  0.945523  1
  Mn  Mn12  1  0.126773  0.132883  0.126773  1
  Mn  Mn13  1  0.625852  0.124816  0.117253  1
  Mn  Mn14  1  0.121511  0.619907  0.121511  1
  Mn  Mn15  1  0.117253  0.124816  0.625852  1
  Al  Al16  1  0.919554  0.917020  0.245886  1
  Al  Al17  1  0.245886  0.917020  0.919554  1
  Al  Al18  1  0.331587  0.332180  0.331587  1
  Si  Si19  1  0.918628  0.913930  0.918628  1
  Si  Si20  1  0.999491  0.335230  0.334582  1
  Si  Si21  1  0.334340  0.000944  0.334340  1
  Si  Si22  1  0.334582  0.335230  0.999491  1
  Si  Si23  1  0.918868  0.247576  0.918868  1
  C  C24  1  0.625152  0.625078  0.625152  1
  C  C25  1  0.123912  0.625446  0.625211  1
  C  C26  1  0.625144  0.124404  0.625144  1
  C  C27  1  0.625211  0.625446  0.123912  1
