# generated using pymatgen
data_Nd4Al18Ir4PtAu
_symmetry_space_group_name_H-M   'P 1'
_cell_length_a   7.65296083
_cell_length_b   7.65296179
_cell_length_c   9.58963603
_cell_angle_alpha   89.96940526
_cell_angle_beta   89.96940144
_cell_angle_gamma   119.48553569
_symmetry_Int_Tables_number   1
_chemical_formula_structural   Nd4Al18Ir4PtAu
_chemical_formula_sum   'Nd4 Al18 Ir4 Pt1 Au1'
_cell_volume   488.89962400
_cell_formula_units_Z   1
loop_
 _symmetry_equiv_pos_site_id
 _symmetry_equiv_pos_as_xyz
  1  'x, y, z'
loop_
 _atom_site_type_symbol
 _atom_site_label
 _atom_site_symmetry_multiplicity
 _atom_site_fract_x
 _atom_site_fract_y
 _atom_site_fract_z
 _atom_site_occupancy
  Nd  Nd0  1  0.995450  0.672776  0.250004  1
  Nd  Nd1  1  0.004550  0.327224  0.749996  1
  Nd  Nd2  1  0.672776  0.995450  0.250004  1
  Nd  Nd3  1  0.327224  0.004550  0.749996  1
  Al  Al4  1  0.138030  0.138030  0.254749  1
  Al  Al5  1  0.861970  0.861970  0.745251  1
  Al  Al6  1  0.003160  0.344542  0.076236  1
  Al  Al7  1  0.996840  0.655458  0.923764  1
  Al  Al8  1  0.998830  0.660997  0.572461  1
  Al  Al9  1  0.339003  0.001170  0.427539  1
  Al  Al10  1  0.001170  0.339003  0.427539  1
  Al  Al11  1  0.660997  0.998830  0.572461  1
  Al  Al12  1  0.655458  0.996840  0.923764  1
  Al  Al13  1  0.344542  0.003160  0.076236  1
  Al  Al14  1  0.337103  0.337103  0.550001  1
  Al  Al15  1  0.662897  0.662897  0.449999  1
  Al  Al16  1  0.656776  0.656776  0.055704  1
  Al  Al17  1  0.343224  0.343224  0.944296  1
  Al  Al18  1  0.338957  0.548510  0.251007  1
  Al  Al19  1  0.661043  0.451490  0.748993  1
  Al  Al20  1  0.548510  0.338957  0.251007  1
  Al  Al21  1  0.451490  0.661043  0.748993  1
  Ir  Ir22  1  0.670978  0.329022  0.000000  1
  Ir  Ir23  1  0.329022  0.670978  0.000000  1
  Ir  Ir24  1  0.329200  0.670800  0.500000  1
  Ir  Ir25  1  0.670800  0.329200  0.500000  1
  Pt  Pt26  1  0.000000  0.000000  0.500000  1
  Au  Au27  1  0.000000  0.000000  0.000000  1
