# generated using pymatgen
data_Ho2Tm10InFe3Ag
_symmetry_space_group_name_H-M   'P 1'
_cell_length_a   8.21337415
_cell_length_b   8.21327760
_cell_length_c   8.21337383
_cell_angle_alpha   110.18576787
_cell_angle_beta   106.77996236
_cell_angle_gamma   111.48429289
_symmetry_Int_Tables_number   1
_chemical_formula_structural   Ho2Tm10InFe3Ag
_chemical_formula_sum   'Ho2 Tm10 In1 Fe3 Ag1'
_cell_volume   425.75661659
_cell_formula_units_Z   1
loop_
 _symmetry_equiv_pos_site_id
 _symmetry_equiv_pos_as_xyz
  1  'x, y, z'
loop_
 _atom_site_type_symbol
 _atom_site_label
 _atom_site_symmetry_multiplicity
 _atom_site_fract_x
 _atom_site_fract_y
 _atom_site_fract_z
 _atom_site_occupancy
  Ho  Ho0  1  0.192972  0.441988  0.249016  1
  Ho  Ho1  1  0.807028  0.558012  0.750984  1
  Tm  Tm2  1  0.193610  0.945063  0.751452  1
  Tm  Tm3  1  0.960227  0.188846  0.770246  1
  Tm  Tm4  1  0.806390  0.054937  0.248548  1
  Tm  Tm5  1  0.039773  0.811154  0.229754  1
  Tm  Tm6  1  0.418600  0.188846  0.228620  1
  Tm  Tm7  1  0.581400  0.811154  0.771380  1
  Tm  Tm8  1  0.308775  0.307827  0.617728  1
  Tm  Tm9  1  0.691225  0.692173  0.382272  1
  Tm  Tm10  1  0.690099  0.307827  0.999052  1
  Tm  Tm11  1  0.309901  0.692173  0.000948  1
  In  In12  1  0.500000  0.000000  0.500000  1
  Fe  Fe13  1  0.383253  0.382899  0.999646  1
  Fe  Fe14  1  0.616747  0.617101  0.000354  1
  Fe  Fe15  1  0.000000  0.000000  0.000000  1
  Ag  Ag16  1  0.000000  0.500000  0.500000  1
