# generated using pymatgen
data_SmDyMnFe11P7
_symmetry_space_group_name_H-M   'P 1'
_cell_length_a   9.01587178
_cell_length_b   8.99545818
_cell_length_c   3.64414100
_cell_angle_alpha   90.00000000
_cell_angle_beta   90.00000000
_cell_angle_gamma   119.93677130
_symmetry_Int_Tables_number   1
_chemical_formula_structural   SmDyMnFe11P7
_chemical_formula_sum   'Sm1 Dy1 Mn1 Fe11 P7'
_cell_volume   256.11391276
_cell_formula_units_Z   1
loop_
 _symmetry_equiv_pos_site_id
 _symmetry_equiv_pos_as_xyz
  1  'x, y, z'
loop_
 _atom_site_type_symbol
 _atom_site_label
 _atom_site_symmetry_multiplicity
 _atom_site_fract_x
 _atom_site_fract_y
 _atom_site_fract_z
 _atom_site_occupancy
  Sm  Sm0  1  0.332107  0.666770  0.500000  1
  Dy  Dy1  1  0.665015  0.332299  0.000000  1
  Mn  Mn2  1  0.887135  0.785260  0.000000  1
  Fe  Fe3  1  0.424730  0.057508  0.500000  1
  Fe  Fe4  1  0.942239  0.366178  0.500000  1
  Fe  Fe5  1  0.632426  0.574801  0.500000  1
  Fe  Fe6  1  0.154684  0.274276  0.500000  1
  Fe  Fe7  1  0.730123  0.882741  0.500000  1
  Fe  Fe8  1  0.118407  0.847346  0.500000  1
  Fe  Fe9  1  0.384024  0.432581  0.000000  1
  Fe  Fe10  1  0.567241  0.952695  0.000000  1
  Fe  Fe11  1  0.046062  0.613210  0.000000  1
  Fe  Fe12  1  0.217385  0.099265  0.000000  1
  Fe  Fe13  1  0.902519  0.115108  0.000000  1
  P  P14  1  0.109094  0.396775  0.000000  1
  P  P15  1  0.596602  0.710097  0.000000  1
  P  P16  1  0.288298  0.891574  0.000000  1
  P  P17  1  0.003320  0.004707  0.500000  1
  P  P18  1  0.411126  0.300846  0.500000  1
  P  P19  1  0.698350  0.109725  0.500000  1
  P  P20  1  0.889115  0.586238  0.500000  1
