# generated using pymatgen
data_Sr3Li7Sn4Pd
_symmetry_space_group_name_H-M   'P 1'
_cell_length_a   9.82534100
_cell_length_b   9.82534183
_cell_length_c   8.35935300
_cell_angle_alpha   90.00000000
_cell_angle_beta   90.00000000
_cell_angle_gamma   120.00000730
_symmetry_Int_Tables_number   1
_chemical_formula_structural   Sr3Li7Sn4Pd
_chemical_formula_sum   'Sr6 Li14 Sn8 Pd2'
_cell_volume   698.87348777
_cell_formula_units_Z   2
loop_
 _symmetry_equiv_pos_site_id
 _symmetry_equiv_pos_as_xyz
  1  'x, y, z'
loop_
 _atom_site_type_symbol
 _atom_site_label
 _atom_site_symmetry_multiplicity
 _atom_site_fract_x
 _atom_site_fract_y
 _atom_site_fract_z
 _atom_site_occupancy
  Sr  Sr0  1  0.477748  0.955495  0.503648  1
  Sr  Sr1  1  0.044505  0.522252  0.503648  1
  Sr  Sr2  1  0.477748  0.522252  0.503648  1
  Sr  Sr3  1  0.522252  0.044505  0.003648  1
  Sr  Sr4  1  0.955495  0.477748  0.003648  1
  Sr  Sr5  1  0.522252  0.477748  0.003648  1
  Li  Li6  1  0.836262  0.672526  0.659441  1
  Li  Li7  1  0.327474  0.163738  0.659441  1
  Li  Li8  1  0.836262  0.163738  0.659441  1
  Li  Li9  1  0.163738  0.327474  0.159441  1
  Li  Li10  1  0.672526  0.836262  0.159441  1
  Li  Li11  1  0.163738  0.836262  0.159441  1
  Li  Li12  1  0.902174  0.804346  0.974540  1
  Li  Li13  1  0.195654  0.097826  0.974540  1
  Li  Li14  1  0.902174  0.097826  0.974540  1
  Li  Li15  1  0.097826  0.195654  0.474540  1
  Li  Li16  1  0.804346  0.902174  0.474540  1
  Li  Li17  1  0.097826  0.902174  0.474540  1
  Li  Li18  1  0.666667  0.333333  0.367932  1
  Li  Li19  1  0.333333  0.666667  0.867932  1
  Sn  Sn20  1  0.837214  0.674427  0.284757  1
  Sn  Sn21  1  0.325573  0.162786  0.284757  1
  Sn  Sn22  1  0.837214  0.162786  0.284757  1
  Sn  Sn23  1  0.162786  0.325573  0.784757  1
  Sn  Sn24  1  0.674427  0.837214  0.784757  1
  Sn  Sn25  1  0.162786  0.837214  0.784757  1
  Sn  Sn26  1  0.666667  0.333333  0.715569  1
  Sn  Sn27  1  0.333333  0.666667  0.215569  1
  Pd  Pd28  1  0.000000  0.000000  0.232064  1
  Pd  Pd29  1  0.000000  0.000000  0.732064  1
