# generated using pymatgen
data_La7Pr(Lu3Sn4)4
_symmetry_space_group_name_H-M   'P 1'
_cell_length_a   8.09640052
_cell_length_b   8.27641353
_cell_length_c   15.53417808
_cell_angle_alpha   90.00745506
_cell_angle_beta   90.00890978
_cell_angle_gamma   90.04012990
_symmetry_Int_Tables_number   1
_chemical_formula_structural   La7Pr(Lu3Sn4)4
_chemical_formula_sum   'La7 Pr1 Lu12 Sn16'
_cell_volume   1040.93192867
_cell_formula_units_Z   1
loop_
 _symmetry_equiv_pos_site_id
 _symmetry_equiv_pos_as_xyz
  1  'x, y, z'
loop_
 _atom_site_type_symbol
 _atom_site_label
 _atom_site_symmetry_multiplicity
 _atom_site_fract_x
 _atom_site_fract_y
 _atom_site_fract_z
 _atom_site_occupancy
  La  La0  1  0.509367  0.324450  0.904277  1
  La  La1  1  0.009690  0.175311  0.595789  1
  La  La2  1  0.490307  0.675305  0.404243  1
  La  La3  1  0.990299  0.824864  0.095445  1
  La  La4  1  0.490668  0.675272  0.095610  1
  La  La5  1  0.990390  0.824747  0.404258  1
  La  La6  1  0.509634  0.324484  0.596066  1
  Pr  Pr7  1  0.010008  0.175634  0.903677  1
  Lu  Lu8  1  0.348817  0.836173  0.875014  1
  Lu  Lu9  1  0.849035  0.663981  0.625337  1
  Lu  Lu10  1  0.650970  0.164049  0.374879  1
  Lu  Lu11  1  0.150736  0.335858  0.124878  1
  Lu  Lu12  1  0.651031  0.164046  0.124895  1
  Lu  Lu13  1  0.151037  0.336113  0.374892  1
  Lu  Lu14  1  0.349040  0.835975  0.625244  1
  Lu  Lu15  1  0.849269  0.664094  0.874948  1
  Lu  Lu16  1  0.181252  0.503608  0.750195  1
  Lu  Lu17  1  0.681477  0.996375  0.750264  1
  Lu  Lu18  1  0.818720  0.496156  0.249960  1
  Lu  Lu19  1  0.318602  0.003720  0.249932  1
  Sn  Sn20  1  0.314183  0.042789  0.041925  1
  Sn  Sn21  1  0.815402  0.457417  0.457700  1
  Sn  Sn22  1  0.684474  0.957400  0.542386  1
  Sn  Sn23  1  0.184266  0.541984  0.957601  1
  Sn  Sn24  1  0.685676  0.958179  0.957482  1
  Sn  Sn25  1  0.184520  0.542541  0.542444  1
  Sn  Sn26  1  0.315432  0.042680  0.457664  1
  Sn  Sn27  1  0.815638  0.456972  0.042071  1
  Sn  Sn28  1  0.545987  0.627210  0.750082  1
  Sn  Sn29  1  0.045939  0.873272  0.750199  1
  Sn  Sn30  1  0.454146  0.372669  0.249958  1
  Sn  Sn31  1  0.954164  0.127160  0.249947  1
  Sn  Sn32  1  0.316466  0.142780  0.750330  1
  Sn  Sn33  1  0.817776  0.356668  0.750551  1
  Sn  Sn34  1  0.682746  0.857228  0.249920  1
  Sn  Sn35  1  0.182837  0.642838  0.249940  1
