# generated using pymatgen
data_Cs4ScUI12
_symmetry_space_group_name_H-M   'P 1'
_cell_length_a   8.45789100
_cell_length_b   8.45789100
_cell_length_c   12.53354500
_cell_angle_alpha   90.00000000
_cell_angle_beta   90.00000000
_cell_angle_gamma   90.00000000
_symmetry_Int_Tables_number   1
_chemical_formula_structural   Cs4ScUI12
_chemical_formula_sum   'Cs4 Sc1 U1 I12'
_cell_volume   896.59867456
_cell_formula_units_Z   1
loop_
 _symmetry_equiv_pos_site_id
 _symmetry_equiv_pos_as_xyz
  1  'x, y, z'
loop_
 _atom_site_type_symbol
 _atom_site_label
 _atom_site_symmetry_multiplicity
 _atom_site_fract_x
 _atom_site_fract_y
 _atom_site_fract_z
 _atom_site_occupancy
  Cs  Cs0  1  0.500000  0.000000  0.789871  1
  Cs  Cs1  1  0.500000  0.000000  0.210129  1
  Cs  Cs2  1  0.000000  0.500000  0.210129  1
  Cs  Cs3  1  0.000000  0.500000  0.789871  1
  Sc  Sc4  1  0.000000  0.000000  0.000000  1
  U  U5  1  0.500000  0.500000  0.500000  1
  I  I6  1  0.760163  0.247400  0.000000  1
  I  I7  1  0.239837  0.752600  0.000000  1
  I  I8  1  0.500000  0.500000  0.264942  1
  I  I9  1  0.296531  0.218349  0.500000  1
  I  I10  1  0.247400  0.239837  0.000000  1
  I  I11  1  0.781651  0.296531  0.500000  1
  I  I12  1  0.000000  0.000000  0.232398  1
  I  I13  1  0.703469  0.781651  0.500000  1
  I  I14  1  0.218349  0.703469  0.500000  1
  I  I15  1  0.500000  0.500000  0.735058  1
  I  I16  1  0.752600  0.760163  0.000000  1
  I  I17  1  0.000000  0.000000  0.767602  1
