# generated using pymatgen
data_Tb19DyGaCo4Bi7
_symmetry_space_group_name_H-M   'P 1'
_cell_length_a   8.03653912
_cell_length_b   8.90205130
_cell_length_c   12.36279814
_cell_angle_alpha   90.13119082
_cell_angle_beta   90.12164893
_cell_angle_gamma   90.13006842
_symmetry_Int_Tables_number   1
_chemical_formula_structural   Tb19DyGaCo4Bi7
_chemical_formula_sum   'Tb19 Dy1 Ga1 Co4 Bi7'
_cell_volume   884.44879104
_cell_formula_units_Z   1
loop_
 _symmetry_equiv_pos_site_id
 _symmetry_equiv_pos_as_xyz
  1  'x, y, z'
loop_
 _atom_site_type_symbol
 _atom_site_label
 _atom_site_symmetry_multiplicity
 _atom_site_fract_x
 _atom_site_fract_y
 _atom_site_fract_z
 _atom_site_occupancy
  Tb  Tb0  1  0.839583  0.741291  0.798183  1
  Tb  Tb1  1  0.151443  0.250165  0.195107  1
  Tb  Tb2  1  0.354280  0.258482  0.704511  1
  Tb  Tb3  1  0.650712  0.751819  0.300412  1
  Tb  Tb4  1  0.389612  0.740069  0.696939  1
  Tb  Tb5  1  0.617050  0.249591  0.311005  1
  Tb  Tb6  1  0.867767  0.258492  0.811422  1
  Tb  Tb7  1  0.118449  0.749700  0.188962  1
  Tb  Tb8  1  0.953620  0.752222  0.502858  1
  Tb  Tb9  1  0.051146  0.248315  0.497721  1
  Tb  Tb10  1  0.463112  0.262979  0.989919  1
  Tb  Tb11  1  0.547683  0.737403  0.995483  1
  Tb  Tb12  1  0.678034  0.035064  0.564876  1
  Tb  Tb13  1  0.323801  0.962732  0.437591  1
  Tb  Tb14  1  0.176779  0.967194  0.934873  1
  Tb  Tb15  1  0.323992  0.533979  0.436544  1
  Tb  Tb16  1  0.819330  0.029207  0.063022  1
  Tb  Tb17  1  0.674651  0.467503  0.571940  1
  Tb  Tb18  1  0.823198  0.465747  0.062034  1
  Dy  Dy19  1  0.179810  0.535814  0.933236  1
  Ga  Ga20  1  0.569721  0.494867  0.829164  1
  Co  Co21  1  0.565559  0.749179  0.509996  1
  Co  Co22  1  0.436440  0.249610  0.493607  1
  Co  Co23  1  0.057076  0.250410  0.990523  1
  Co  Co24  1  0.938575  0.748876  0.006247  1
  Bi  Bi25  1  0.427054  0.507969  0.175293  1
  Bi  Bi26  1  0.073213  0.507173  0.673098  1
  Bi  Bi27  1  0.427294  0.992592  0.168746  1
  Bi  Bi28  1  0.927513  0.491596  0.327096  1
  Bi  Bi29  1  0.572338  0.006960  0.827501  1
  Bi  Bi30  1  0.928597  0.009080  0.324908  1
  Bi  Bi31  1  0.072573  0.993922  0.677184  1
