# generated using pymatgen
data_Tm15Th(CdPt)4
_symmetry_space_group_name_H-M   'P 1'
_cell_length_a   9.59350329
_cell_length_b   9.59350372
_cell_length_c   9.59350319
_cell_angle_alpha   60.04661951
_cell_angle_beta   60.04661711
_cell_angle_gamma   60.04661962
_symmetry_Int_Tables_number   1
_chemical_formula_structural   Tm15Th(CdPt)4
_chemical_formula_sum   'Tm15 Th1 Cd4 Pt4'
_cell_volume   624.99329685
_cell_formula_units_Z   1
loop_
 _symmetry_equiv_pos_site_id
 _symmetry_equiv_pos_as_xyz
  1  'x, y, z'
loop_
 _atom_site_type_symbol
 _atom_site_label
 _atom_site_symmetry_multiplicity
 _atom_site_fract_x
 _atom_site_fract_y
 _atom_site_fract_z
 _atom_site_occupancy
  Tm  Tm0  1  0.354596  0.354596  0.937808  1
  Tm  Tm1  1  0.354596  0.937808  0.354596  1
  Tm  Tm2  1  0.937808  0.354596  0.354596  1
  Tm  Tm3  1  0.813350  0.188434  0.188434  1
  Tm  Tm4  1  0.190066  0.810653  0.810653  1
  Tm  Tm5  1  0.188434  0.813350  0.188434  1
  Tm  Tm6  1  0.810653  0.190066  0.810653  1
  Tm  Tm7  1  0.188434  0.188434  0.813350  1
  Tm  Tm8  1  0.810653  0.810653  0.190066  1
  Tm  Tm9  1  0.934361  0.566748  0.566748  1
  Tm  Tm10  1  0.563476  0.936394  0.936394  1
  Tm  Tm11  1  0.566748  0.934361  0.566748  1
  Tm  Tm12  1  0.936394  0.563476  0.936394  1
  Tm  Tm13  1  0.566748  0.566748  0.934361  1
  Tm  Tm14  1  0.936394  0.936394  0.563476  1
  Th  Th15  1  0.350338  0.350338  0.350338  1
  Cd  Cd16  1  0.582328  0.582328  0.582328  1
  Cd  Cd17  1  0.584098  0.584098  0.250677  1
  Cd  Cd18  1  0.584098  0.250677  0.584098  1
  Cd  Cd19  1  0.250677  0.584098  0.584098  1
  Pt  Pt20  1  0.144223  0.144223  0.144223  1
  Pt  Pt21  1  0.140213  0.140213  0.571105  1
  Pt  Pt22  1  0.140213  0.571105  0.140213  1
  Pt  Pt23  1  0.571105  0.140213  0.140213  1
