# generated using pymatgen
data_TbHoBeSi4Ni
_symmetry_space_group_name_H-M   'P 1'
_cell_length_a   8.47849904
_cell_length_b   8.47850029
_cell_length_c   3.91562900
_cell_angle_alpha   90.00000000
_cell_angle_beta   90.00000000
_cell_angle_gamma   152.66613859
_symmetry_Int_Tables_number   1
_chemical_formula_structural   TbHoBeSi4Ni
_chemical_formula_sum   'Tb1 Ho1 Be1 Si4 Ni1'
_cell_volume   129.24609955
_cell_formula_units_Z   1
loop_
 _symmetry_equiv_pos_site_id
 _symmetry_equiv_pos_as_xyz
  1  'x, y, z'
loop_
 _atom_site_type_symbol
 _atom_site_label
 _atom_site_symmetry_multiplicity
 _atom_site_fract_x
 _atom_site_fract_y
 _atom_site_fract_z
 _atom_site_occupancy
  Tb  Tb0  1  0.106548  0.893452  0.250000  1
  Ho  Ho1  1  0.898080  0.101920  0.750000  1
  Be  Be2  1  0.672741  0.327259  0.750000  1
  Si  Si3  1  0.751670  0.248330  0.250000  1
  Si  Si4  1  0.249801  0.750199  0.750000  1
  Si  Si5  1  0.538600  0.461400  0.750000  1
  Si  Si6  1  0.459791  0.540209  0.250000  1
  Ni  Ni7  1  0.322768  0.677232  0.250000  1
