# generated using pymatgen
data_SmYHo4(Si3Ru)8
_symmetry_space_group_name_H-M   'P 1'
_cell_length_a   10.11964161
_cell_length_b   10.11964302
_cell_length_c   8.14013605
_cell_angle_alpha   90.10136228
_cell_angle_beta   89.89864078
_cell_angle_gamma   132.58235083
_symmetry_Int_Tables_number   1
_chemical_formula_structural   SmYHo4(Si3Ru)8
_chemical_formula_sum   'Sm1 Y1 Ho4 Si24 Ru8'
_cell_volume   613.78921627
_cell_formula_units_Z   1
loop_
 _symmetry_equiv_pos_site_id
 _symmetry_equiv_pos_as_xyz
  1  'x, y, z'
loop_
 _atom_site_type_symbol
 _atom_site_label
 _atom_site_symmetry_multiplicity
 _atom_site_fract_x
 _atom_site_fract_y
 _atom_site_fract_z
 _atom_site_occupancy
  Sm  Sm0  1  0.002806  0.502806  0.250000  1
  Y  Y1  1  0.502587  0.002587  0.250000  1
  Ho  Ho2  1  0.000088  0.000062  0.999913  1
  Ho  Ho3  1  0.500062  0.500088  0.500087  1
  Ho  Ho4  1  0.497843  0.997843  0.750000  1
  Ho  Ho5  1  0.997604  0.497604  0.750000  1
  Si  Si6  1  0.295002  0.706224  0.998662  1
  Si  Si7  1  0.794029  0.205133  0.501498  1
  Si  Si8  1  0.705133  0.294029  0.998502  1
  Si  Si9  1  0.206224  0.795002  0.501338  1
  Si  Si10  1  0.832362  0.832107  0.332822  1
  Si  Si11  1  0.167694  0.167853  0.666917  1
  Si  Si12  1  0.667853  0.667694  0.833083  1
  Si  Si13  1  0.332107  0.332362  0.167178  1
  Si  Si14  1  0.621528  0.387385  0.228235  1
  Si  Si15  1  0.613549  0.379970  0.771959  1
  Si  Si16  1  0.111266  0.877326  0.727641  1
  Si  Si17  1  0.121589  0.887172  0.271075  1
  Si  Si18  1  0.377326  0.611266  0.772359  1
  Si  Si19  1  0.387172  0.621589  0.228925  1
  Si  Si20  1  0.887385  0.121528  0.271765  1
  Si  Si21  1  0.879970  0.113549  0.728041  1
  Si  Si22  1  0.845770  0.612104  0.003361  1
  Si  Si23  1  0.388953  0.156535  0.995809  1
  Si  Si24  1  0.887897  0.653661  0.505714  1
  Si  Si25  1  0.343592  0.111184  0.495644  1
  Si  Si26  1  0.153661  0.387897  0.994286  1
  Si  Si27  1  0.611184  0.843592  0.004356  1
  Si  Si28  1  0.112104  0.345770  0.496639  1
  Si  Si29  1  0.656535  0.888953  0.504191  1
  Ru  Ru30  1  0.171444  0.834141  0.997335  1
  Ru  Ru31  1  0.665721  0.328376  0.501419  1
  Ru  Ru32  1  0.828376  0.165721  0.998581  1
  Ru  Ru33  1  0.334141  0.671444  0.502665  1
  Ru  Ru34  1  0.625881  0.625793  0.127238  1
  Ru  Ru35  1  0.373673  0.374098  0.873278  1
  Ru  Ru36  1  0.874098  0.873673  0.626722  1
  Ru  Ru37  1  0.125793  0.125881  0.372762  1
