# generated using pymatgen
data_Y4Ga4PdPt3
_symmetry_space_group_name_H-M   'P 1'
_cell_length_a   4.45936100
_cell_length_b   6.95095640
_cell_length_c   7.69306926
_cell_angle_alpha   90.53166175
_cell_angle_beta   90.00000000
_cell_angle_gamma   90.00000000
_symmetry_Int_Tables_number   1
_chemical_formula_structural   Y4Ga4PdPt3
_chemical_formula_sum   'Y4 Ga4 Pd1 Pt3'
_cell_volume   238.45044677
_cell_formula_units_Z   1
loop_
 _symmetry_equiv_pos_site_id
 _symmetry_equiv_pos_as_xyz
  1  'x, y, z'
loop_
 _atom_site_type_symbol
 _atom_site_label
 _atom_site_symmetry_multiplicity
 _atom_site_fract_x
 _atom_site_fract_y
 _atom_site_fract_z
 _atom_site_occupancy
  Y  Y0  1  0.250000  0.985548  0.301249  1
  Y  Y1  1  0.250000  0.485682  0.200806  1
  Y  Y2  1  0.750000  0.014065  0.697972  1
  Y  Y3  1  0.750000  0.518381  0.799338  1
  Ga  Ga4  1  0.250000  0.324880  0.575894  1
  Ga  Ga5  1  0.250000  0.821946  0.926111  1
  Ga  Ga6  1  0.750000  0.676221  0.424010  1
  Ga  Ga7  1  0.750000  0.178125  0.074179  1
  Pd  Pd8  1  0.250000  0.217000  0.901559  1
  Pt  Pt9  1  0.250000  0.720880  0.598192  1
  Pt  Pt10  1  0.750000  0.778880  0.098141  1
  Pt  Pt11  1  0.750000  0.278390  0.402550  1
