# generated using pymatgen
data_Tb5Mg(P2Ru3)6
_symmetry_space_group_name_H-M   'P 1'
_cell_length_a   3.98766600
_cell_length_b   12.64452879
_cell_length_c   12.48498401
_cell_angle_alpha   119.58729368
_cell_angle_beta   90.00000000
_cell_angle_gamma   90.00000000
_symmetry_Int_Tables_number   1
_chemical_formula_structural   Tb5Mg(P2Ru3)6
_chemical_formula_sum   'Tb5 Mg1 P12 Ru18'
_cell_volume   547.43324490
_cell_formula_units_Z   1
loop_
 _symmetry_equiv_pos_site_id
 _symmetry_equiv_pos_as_xyz
  1  'x, y, z'
loop_
 _atom_site_type_symbol
 _atom_site_label
 _atom_site_symmetry_multiplicity
 _atom_site_fract_x
 _atom_site_fract_y
 _atom_site_fract_z
 _atom_site_occupancy
  Tb  Tb0  1  0.500000  0.999998  0.181093  1
  Tb  Tb1  1  0.500000  0.183969  0.001371  1
  Tb  Tb2  1  0.500000  0.816030  0.817403  1
  Tb  Tb3  1  0.000000  0.339463  0.668491  1
  Tb  Tb4  1  0.000000  0.660522  0.329015  1
  Mg  Mg5  1  0.000000  0.999991  0.561534  1
  P  P6  1  0.000000  0.000004  0.811622  1
  P  P7  1  0.000000  0.816517  0.000528  1
  P  P8  1  0.000000  0.183484  0.184008  1
  P  P9  1  0.500000  0.308598  0.480467  1
  P  P10  1  0.500000  0.181168  0.700199  1
  P  P11  1  0.500000  0.525189  0.832010  1
  P  P12  1  0.500000  0.818815  0.519023  1
  P  P13  1  0.500000  0.474799  0.306809  1
  P  P14  1  0.500000  0.691374  0.171839  1
  P  P15  1  0.000000  0.000012  0.360326  1
  P  P16  1  0.000000  0.374825  0.000127  1
  P  P17  1  0.000000  0.625183  0.625309  1
  Ru  Ru18  1  0.000000  0.555477  0.000094  1
  Ru  Ru19  1  0.000000  0.444535  0.444616  1
  Ru  Ru20  1  0.500000  0.999999  0.716391  1
  Ru  Ru21  1  0.500000  0.717770  0.001551  1
  Ru  Ru22  1  0.500000  0.282230  0.283782  1
  Ru  Ru23  1  0.000000  0.195028  0.379229  1
  Ru  Ru24  1  0.000000  0.186593  0.806440  1
  Ru  Ru25  1  0.000000  0.626112  0.815944  1
  Ru  Ru26  1  0.000000  0.813403  0.619837  1
  Ru  Ru27  1  0.000000  0.373880  0.189834  1
  Ru  Ru28  1  0.000000  0.804987  0.184208  1
  Ru  Ru29  1  0.500000  0.124787  0.490604  1
  Ru  Ru30  1  0.500000  0.369023  0.878614  1
  Ru  Ru31  1  0.500000  0.507616  0.635982  1
  Ru  Ru32  1  0.500000  0.630971  0.509594  1
  Ru  Ru33  1  0.500000  0.492368  0.128356  1
  Ru  Ru34  1  0.500000  0.875185  0.365815  1
  Ru  Ru35  1  0.000000  0.999994  0.997934  1
