# generated using pymatgen
data_Er20(OsRh3)3
_symmetry_space_group_name_H-M   'P 1'
_cell_length_a   10.76661400
_cell_length_b   10.76661400
_cell_length_c   6.34216000
_cell_angle_alpha   90.00000000
_cell_angle_beta   90.00000000
_cell_angle_gamma   90.00000000
_symmetry_Int_Tables_number   1
_chemical_formula_structural   Er20(OsRh3)3
_chemical_formula_sum   'Er20 Os3 Rh9'
_cell_volume   735.18304149
_cell_formula_units_Z   1
loop_
 _symmetry_equiv_pos_site_id
 _symmetry_equiv_pos_as_xyz
  1  'x, y, z'
loop_
 _atom_site_type_symbol
 _atom_site_label
 _atom_site_symmetry_multiplicity
 _atom_site_fract_x
 _atom_site_fract_y
 _atom_site_fract_z
 _atom_site_occupancy
  Er  Er0  1  0.294549  0.086185  0.376474  1
  Er  Er1  1  0.294599  0.914149  0.876613  1
  Er  Er2  1  0.705401  0.085851  0.876613  1
  Er  Er3  1  0.705451  0.913815  0.376474  1
  Er  Er4  1  0.585851  0.794599  0.876613  1
  Er  Er5  1  0.586185  0.205451  0.376474  1
  Er  Er6  1  0.413815  0.794549  0.376474  1
  Er  Er7  1  0.414149  0.205401  0.876613  1
  Er  Er8  1  0.207702  0.413126  0.625872  1
  Er  Er9  1  0.207248  0.587152  0.120265  1
  Er  Er10  1  0.792752  0.412848  0.120265  1
  Er  Er11  1  0.792298  0.586874  0.625872  1
  Er  Er12  1  0.912848  0.707248  0.120265  1
  Er  Er13  1  0.913126  0.292298  0.625872  1
  Er  Er14  1  0.086874  0.707702  0.625872  1
  Er  Er15  1  0.087152  0.292752  0.120265  1
  Er  Er16  1  0.000000  0.000000  0.499504  1
  Er  Er17  1  0.000000  0.000000  0.999908  1
  Er  Er18  1  0.500000  0.500000  0.999908  1
  Er  Er19  1  0.500000  0.500000  0.499504  1
  Os  Os20  1  0.500000  0.000000  0.123708  1
  Os  Os21  1  0.500000  0.000000  0.623345  1
  Os  Os22  1  0.000000  0.500000  0.877154  1
  Rh  Rh23  1  0.848594  0.153345  0.250484  1
  Rh  Rh24  1  0.848321  0.846982  0.749759  1
  Rh  Rh25  1  0.151679  0.153018  0.749759  1
  Rh  Rh26  1  0.151406  0.846655  0.250484  1
  Rh  Rh27  1  0.653018  0.348321  0.749759  1
  Rh  Rh28  1  0.653345  0.651406  0.250484  1
  Rh  Rh29  1  0.346655  0.348594  0.250484  1
  Rh  Rh30  1  0.346982  0.651679  0.749759  1
  Rh  Rh31  1  0.000000  0.500000  0.379100  1
