# generated using pymatgen
data_NdIrBr
_symmetry_space_group_name_H-M   'P 1'
_cell_length_a   4.35074800
_cell_length_b   4.35074861
_cell_length_c   11.30513300
_cell_angle_alpha   90.00000000
_cell_angle_beta   90.00000000
_cell_angle_gamma   119.99999535
_symmetry_Int_Tables_number   1
_chemical_formula_structural   NdIrBr
_chemical_formula_sum   'Nd2 Ir2 Br2'
_cell_volume   185.32510189
_cell_formula_units_Z   2
loop_
 _symmetry_equiv_pos_site_id
 _symmetry_equiv_pos_as_xyz
  1  'x, y, z'
loop_
 _atom_site_type_symbol
 _atom_site_label
 _atom_site_symmetry_multiplicity
 _atom_site_fract_x
 _atom_site_fract_y
 _atom_site_fract_z
 _atom_site_occupancy
  Nd  Nd0  1  0.000000  0.000000  0.333151  1
  Nd  Nd1  1  0.000000  0.000000  0.666849  1
  Ir  Ir2  1  0.333333  0.666666  0.495946  1
  Ir  Ir3  1  0.666666  0.333335  0.504054  1
  Br  Br4  1  0.666666  0.333335  0.170497  1
  Br  Br5  1  0.333333  0.666666  0.829503  1
