# generated using pymatgen
data_TbNd9(Ni2Sn5)4
_symmetry_space_group_name_H-M   'P 1'
_cell_length_a   13.98601143
_cell_length_b   13.98601143
_cell_length_c   4.55269800
_cell_angle_alpha   90.00000000
_cell_angle_beta   90.00000000
_cell_angle_gamma   89.90880858
_symmetry_Int_Tables_number   1
_chemical_formula_structural   TbNd9(Ni2Sn5)4
_chemical_formula_sum   'Tb1 Nd9 Ni8 Sn20'
_cell_volume   890.54537018
_cell_formula_units_Z   1
loop_
 _symmetry_equiv_pos_site_id
 _symmetry_equiv_pos_as_xyz
  1  'x, y, z'
loop_
 _atom_site_type_symbol
 _atom_site_label
 _atom_site_symmetry_multiplicity
 _atom_site_fract_x
 _atom_site_fract_y
 _atom_site_fract_z
 _atom_site_occupancy
  Tb  Tb0  1  0.180878  0.680878  0.500000  1
  Nd  Nd1  1  0.000133  0.999653  0.000000  1
  Nd  Nd2  1  0.499653  0.500133  0.000000  1
  Nd  Nd3  1  0.818276  0.318276  0.500000  1
  Nd  Nd4  1  0.681870  0.818032  0.500000  1
  Nd  Nd5  1  0.318032  0.181870  0.500000  1
  Nd  Nd6  1  0.893279  0.607582  0.500000  1
  Nd  Nd7  1  0.107582  0.393279  0.500000  1
  Nd  Nd8  1  0.392030  0.892030  0.500000  1
  Nd  Nd9  1  0.607265  0.107265  0.500000  1
  Ni  Ni10  1  0.256219  0.535363  0.000000  1
  Ni  Ni11  1  0.743029  0.466156  0.000000  1
  Ni  Ni12  1  0.756969  0.966057  0.000000  1
  Ni  Ni13  1  0.242950  0.033251  0.000000  1
  Ni  Ni14  1  0.466057  0.256969  0.000000  1
  Ni  Ni15  1  0.533251  0.742950  0.000000  1
  Ni  Ni16  1  0.035363  0.756219  0.000000  1
  Ni  Ni17  1  0.966156  0.243029  0.000000  1
  Sn  Sn18  1  0.350206  0.700414  0.000000  1
  Sn  Sn19  1  0.648284  0.299404  0.000000  1
  Sn  Sn20  1  0.852052  0.799272  0.000000  1
  Sn  Sn21  1  0.148311  0.200554  0.000000  1
  Sn  Sn22  1  0.299272  0.352052  0.000000  1
  Sn  Sn23  1  0.700554  0.648311  0.000000  1
  Sn  Sn24  1  0.200414  0.850206  0.000000  1
  Sn  Sn25  1  0.799404  0.148284  0.000000  1
  Sn  Sn26  1  0.333049  0.508238  0.500000  1
  Sn  Sn27  1  0.666205  0.493365  0.500000  1
  Sn  Sn28  1  0.833765  0.993202  0.500000  1
  Sn  Sn29  1  0.166078  0.007081  0.500000  1
  Sn  Sn30  1  0.493202  0.333765  0.500000  1
  Sn  Sn31  1  0.507081  0.666078  0.500000  1
  Sn  Sn32  1  0.008238  0.833049  0.500000  1
  Sn  Sn33  1  0.993365  0.166205  0.500000  1
  Sn  Sn34  1  0.073133  0.573133  0.000000  1
  Sn  Sn35  1  0.928537  0.428537  0.000000  1
  Sn  Sn36  1  0.571871  0.927987  0.000000  1
  Sn  Sn37  1  0.427987  0.071871  0.000000  1
