# generated using pymatgen
data_Pr4CdInSi4
_symmetry_space_group_name_H-M   'P 1'
_cell_length_a   7.44316600
_cell_length_b   7.44316600
_cell_length_c   4.38122000
_cell_angle_alpha   90.00000000
_cell_angle_beta   90.00000000
_cell_angle_gamma   90.00000000
_symmetry_Int_Tables_number   1
_chemical_formula_structural   Pr4CdInSi4
_chemical_formula_sum   'Pr4 Cd1 In1 Si4'
_cell_volume   242.72274293
_cell_formula_units_Z   1
loop_
 _symmetry_equiv_pos_site_id
 _symmetry_equiv_pos_as_xyz
  1  'x, y, z'
loop_
 _atom_site_type_symbol
 _atom_site_label
 _atom_site_symmetry_multiplicity
 _atom_site_fract_x
 _atom_site_fract_y
 _atom_site_fract_z
 _atom_site_occupancy
  Pr  Pr0  1  0.319045  0.180958  0.500000  1
  Pr  Pr1  1  0.819041  0.319045  0.500000  1
  Pr  Pr2  1  0.180958  0.680954  0.500000  1
  Pr  Pr3  1  0.680954  0.819041  0.500000  1
  Cd  Cd4  1  0.500000  0.500000  0.000000  1
  In  In5  1  0.000000  0.000000  0.000000  1
  Si  Si6  1  0.612489  0.113641  0.000000  1
  Si  Si7  1  0.113641  0.387510  0.000000  1
  Si  Si8  1  0.886359  0.612489  0.000000  1
  Si  Si9  1  0.387510  0.886359  0.000000  1
