# generated using pymatgen
data_BaAl3CuIr
_symmetry_space_group_name_H-M   'P 1'
_cell_length_a   6.81451256
_cell_length_b   6.81452866
_cell_length_c   5.33409119
_cell_angle_alpha   90.18106051
_cell_angle_beta   89.81913206
_cell_angle_gamma   73.84398274
_symmetry_Int_Tables_number   1
_chemical_formula_structural   BaAl3CuIr
_chemical_formula_sum   'Ba2 Al6 Cu2 Ir2'
_cell_volume   237.91720176
_cell_formula_units_Z   2
loop_
 _symmetry_equiv_pos_site_id
 _symmetry_equiv_pos_as_xyz
  1  'x, y, z'
loop_
 _atom_site_type_symbol
 _atom_site_label
 _atom_site_symmetry_multiplicity
 _atom_site_fract_x
 _atom_site_fract_y
 _atom_site_fract_z
 _atom_site_occupancy
  Ba  Ba0  1  0.148521  0.851472  0.251263  1
  Ba  Ba1  1  0.851479  0.148516  0.748735  1
  Al  Al2  1  0.569139  0.025460  0.241536  1
  Al  Al3  1  0.564957  0.435032  0.242233  1
  Al  Al4  1  0.974518  0.430868  0.241526  1
  Al  Al5  1  0.025461  0.569139  0.758464  1
  Al  Al6  1  0.435036  0.564951  0.757765  1
  Al  Al7  1  0.430868  0.974519  0.758471  1
  Cu  Cu8  1  0.301831  0.301837  0.499994  1
  Cu  Cu9  1  0.698192  0.698213  0.500007  1
  Ir  Ir10  1  0.302598  0.302595  0.999995  1
  Ir  Ir11  1  0.697395  0.697393  0.000004  1
