# generated using pymatgen
data_Er4Zn8Cd3In
_symmetry_space_group_name_H-M   'P 1'
_cell_length_a   4.42852000
_cell_length_b   7.13064998
_cell_length_c   10.07887509
_cell_angle_alpha   89.96243176
_cell_angle_beta   90.00000000
_cell_angle_gamma   90.00000000
_symmetry_Int_Tables_number   1
_chemical_formula_structural   Er4Zn8Cd3In
_chemical_formula_sum   'Er4 Zn8 Cd3 In1'
_cell_volume   318.27292727
_cell_formula_units_Z   1
loop_
 _symmetry_equiv_pos_site_id
 _symmetry_equiv_pos_as_xyz
  1  'x, y, z'
loop_
 _atom_site_type_symbol
 _atom_site_label
 _atom_site_symmetry_multiplicity
 _atom_site_fract_x
 _atom_site_fract_y
 _atom_site_fract_z
 _atom_site_occupancy
  Er  Er0  1  0.250000  0.303040  0.673586  1
  Er  Er1  1  0.250000  0.802171  0.826775  1
  Er  Er2  1  0.750000  0.697512  0.325609  1
  Er  Er3  1  0.750000  0.198490  0.171913  1
  Zn  Zn4  1  0.250000  0.916012  0.146252  1
  Zn  Zn5  1  0.250000  0.417965  0.357004  1
  Zn  Zn6  1  0.750000  0.085153  0.855544  1
  Zn  Zn7  1  0.750000  0.580470  0.644200  1
  Zn  Zn8  1  0.250000  0.188582  0.962107  1
  Zn  Zn9  1  0.250000  0.688761  0.537195  1
  Zn  Zn10  1  0.750000  0.811164  0.037359  1
  Zn  Zn11  1  0.750000  0.309732  0.462705  1
  Cd  Cd12  1  0.250000  0.533160  0.099241  1
  Cd  Cd13  1  0.250000  0.035721  0.400879  1
  Cd  Cd14  1  0.750000  0.466227  0.900340  1
  In  In15  1  0.750000  0.965843  0.599289  1
