# generated using pymatgen
data_Ho5Th3(CdOs)2
_symmetry_space_group_name_H-M   'P 1'
_cell_length_a   9.75061709
_cell_length_b   9.83255726
_cell_length_c   9.83253400
_cell_angle_alpha   59.30389985
_cell_angle_beta   60.31009095
_cell_angle_gamma   60.31013680
_symmetry_Int_Tables_number   1
_chemical_formula_structural   Ho5Th3(CdOs)2
_chemical_formula_sum   'Ho10 Th6 Cd4 Os4'
_cell_volume   666.05659474
_cell_formula_units_Z   2
loop_
 _symmetry_equiv_pos_site_id
 _symmetry_equiv_pos_as_xyz
  1  'x, y, z'
loop_
 _atom_site_type_symbol
 _atom_site_label
 _atom_site_symmetry_multiplicity
 _atom_site_fract_x
 _atom_site_fract_y
 _atom_site_fract_z
 _atom_site_occupancy
  Ho  Ho0  1  0.191241  0.808740  0.190999  1
  Ho  Ho1  1  0.809261  0.189816  0.809101  1
  Ho  Ho2  1  0.191221  0.191017  0.808752  1
  Ho  Ho3  1  0.809264  0.809098  0.189814  1
  Ho  Ho4  1  0.934662  0.567123  0.567109  1
  Ho  Ho5  1  0.564369  0.934486  0.934483  1
  Ho  Ho6  1  0.559663  0.941477  0.562336  1
  Ho  Ho7  1  0.939376  0.561168  0.939385  1
  Ho  Ho8  1  0.559671  0.562337  0.941471  1
  Ho  Ho9  1  0.939377  0.939405  0.561150  1
  Th  Th10  1  0.340832  0.350387  0.350372  1
  Th  Th11  1  0.351855  0.342343  0.955303  1
  Th  Th12  1  0.351856  0.955289  0.342364  1
  Th  Th13  1  0.955809  0.351074  0.351073  1
  Th  Th14  1  0.815373  0.185484  0.185498  1
  Th  Th15  1  0.184405  0.815770  0.815771  1
  Cd  Cd16  1  0.584838  0.580452  0.580456  1
  Cd  Cd17  1  0.580993  0.583065  0.252391  1
  Cd  Cd18  1  0.580991  0.252394  0.583066  1
  Cd  Cd19  1  0.252683  0.580277  0.580281  1
  Os  Os20  1  0.132146  0.145969  0.145979  1
  Os  Os21  1  0.146527  0.130512  0.575549  1
  Os  Os22  1  0.146519  0.575549  0.130523  1
  Os  Os23  1  0.577067  0.146761  0.146770  1
