# generated using pymatgen
data_NdTh(FeB)8
_symmetry_space_group_name_H-M   'P 1'
_cell_length_a   7.07126500
_cell_length_b   7.07126500
_cell_length_c   3.80712900
_cell_angle_alpha   90.00000000
_cell_angle_beta   90.00000000
_cell_angle_gamma   90.00000000
_symmetry_Int_Tables_number   1
_chemical_formula_structural   NdTh(FeB)8
_chemical_formula_sum   'Nd1 Th1 Fe8 B8'
_cell_volume   190.36706694
_cell_formula_units_Z   1
loop_
 _symmetry_equiv_pos_site_id
 _symmetry_equiv_pos_as_xyz
  1  'x, y, z'
loop_
 _atom_site_type_symbol
 _atom_site_label
 _atom_site_symmetry_multiplicity
 _atom_site_fract_x
 _atom_site_fract_y
 _atom_site_fract_z
 _atom_site_occupancy
  Nd  Nd0  1  0.500000  0.500000  0.500000  1
  Th  Th1  1  0.000000  0.000000  0.000000  1
  Fe  Fe2  1  0.131430  0.387754  0.895174  1
  Fe  Fe3  1  0.868570  0.612246  0.895174  1
  Fe  Fe4  1  0.888865  0.367449  0.394106  1
  Fe  Fe5  1  0.111135  0.632551  0.394106  1
  Fe  Fe6  1  0.367449  0.111135  0.605894  1
  Fe  Fe7  1  0.632551  0.888865  0.605894  1
  Fe  Fe8  1  0.612246  0.131430  0.104826  1
  Fe  Fe9  1  0.387754  0.868570  0.104826  1
  B  B10  1  0.664497  0.797561  0.106245  1
  B  B11  1  0.335503  0.202439  0.106245  1
  B  B12  1  0.298007  0.834490  0.604095  1
  B  B13  1  0.701993  0.165510  0.604095  1
  B  B14  1  0.834490  0.701993  0.395905  1
  B  B15  1  0.165510  0.298007  0.395905  1
  B  B16  1  0.202439  0.664497  0.893755  1
  B  B17  1  0.797561  0.335503  0.893755  1
