# generated using pymatgen
data_Ac2HgPd2
_symmetry_space_group_name_H-M   'P 1'
_cell_length_a   8.12416400
_cell_length_b   8.12416400
_cell_length_c   4.12470400
_cell_angle_alpha   90.00000000
_cell_angle_beta   90.00000000
_cell_angle_gamma   90.00000000
_symmetry_Int_Tables_number   1
_chemical_formula_structural   Ac2HgPd2
_chemical_formula_sum   'Ac4 Hg2 Pd4'
_cell_volume   272.23888128
_cell_formula_units_Z   2
loop_
 _symmetry_equiv_pos_site_id
 _symmetry_equiv_pos_as_xyz
  1  'x, y, z'
loop_
 _atom_site_type_symbol
 _atom_site_label
 _atom_site_symmetry_multiplicity
 _atom_site_fract_x
 _atom_site_fract_y
 _atom_site_fract_z
 _atom_site_occupancy
  Ac  Ac0  1  0.323381  0.176620  0.500001  1
  Ac  Ac1  1  0.823381  0.323381  0.500001  1
  Ac  Ac2  1  0.176620  0.676620  0.500001  1
  Ac  Ac3  1  0.676620  0.823381  0.500001  1
  Hg  Hg4  1  0.000000  0.000000  0.000000  1
  Hg  Hg5  1  0.500000  0.500000  0.000000  1
  Pd  Pd6  1  0.624109  0.124109  0.000000  1
  Pd  Pd7  1  0.124109  0.375891  0.000000  1
  Pd  Pd8  1  0.875891  0.624109  0.000000  1
  Pd  Pd9  1  0.375891  0.875891  0.000000  1
