# generated using pymatgen
data_Ca5AgPt2
_symmetry_space_group_name_H-M   'P 1'
_cell_length_a   9.07873968
_cell_length_b   9.07873990
_cell_length_c   9.07873980
_cell_angle_alpha   128.80004399
_cell_angle_beta   128.80004498
_cell_angle_gamma   75.33252692
_symmetry_Int_Tables_number   1
_chemical_formula_structural   Ca5AgPt2
_chemical_formula_sum   'Ca10 Ag2 Pt4'
_cell_volume   442.35668673
_cell_formula_units_Z   2
loop_
 _symmetry_equiv_pos_site_id
 _symmetry_equiv_pos_as_xyz
  1  'x, y, z'
loop_
 _atom_site_type_symbol
 _atom_site_label
 _atom_site_symmetry_multiplicity
 _atom_site_fract_x
 _atom_site_fract_y
 _atom_site_fract_z
 _atom_site_occupancy
  Ca  Ca0  1  0.467034  0.967034  0.166758  1
  Ca  Ca1  1  0.199725  0.699725  0.166758  1
  Ca  Ca2  1  0.532966  0.032966  0.833242  1
  Ca  Ca3  1  0.032966  0.199725  0.500000  1
  Ca  Ca4  1  0.699725  0.532966  0.500000  1
  Ca  Ca5  1  0.967034  0.800275  0.500000  1
  Ca  Ca6  1  0.000000  0.000000  0.000000  1
  Ca  Ca7  1  0.500000  0.500000  0.000000  1
  Ca  Ca8  1  0.800275  0.300275  0.833242  1
  Ca  Ca9  1  0.300275  0.467034  0.500000  1
  Ag  Ag10  1  0.750000  0.750000  0.000000  1
  Ag  Ag11  1  0.250000  0.250000  0.000000  1
  Pt  Pt12  1  0.131900  0.631900  0.763798  1
  Pt  Pt13  1  0.631900  0.868100  0.500000  1
  Pt  Pt14  1  0.368100  0.131900  0.500000  1
  Pt  Pt15  1  0.868100  0.368100  0.236202  1
