# generated using pymatgen
data_Sc12Tc2RhBr16
_symmetry_space_group_name_H-M   'P 1'
_cell_length_a   9.10777262
_cell_length_b   10.92972928
_cell_length_c   11.62127449
_cell_angle_alpha   116.61021231
_cell_angle_beta   102.02029395
_cell_angle_gamma   101.68662075
_symmetry_Int_Tables_number   1
_chemical_formula_structural   Sc12Tc2RhBr16
_chemical_formula_sum   'Sc12 Tc2 Rh1 Br16'
_cell_volume   951.97711015
_cell_formula_units_Z   1
loop_
 _symmetry_equiv_pos_site_id
 _symmetry_equiv_pos_as_xyz
  1  'x, y, z'
loop_
 _atom_site_type_symbol
 _atom_site_label
 _atom_site_symmetry_multiplicity
 _atom_site_fract_x
 _atom_site_fract_y
 _atom_site_fract_z
 _atom_site_occupancy
  Sc  Sc0  1  0.079978  0.253769  0.347527  1
  Sc  Sc1  1  0.920022  0.746231  0.652473  1
  Sc  Sc2  1  0.776835  0.536252  0.316730  1
  Sc  Sc3  1  0.223165  0.463748  0.683270  1
  Sc  Sc4  1  0.282817  0.747172  0.652846  1
  Sc  Sc5  1  0.717183  0.252828  0.347154  1
  Sc  Sc6  1  0.139549  0.536376  0.317438  1
  Sc  Sc7  1  0.860451  0.463624  0.682562  1
  Sc  Sc8  1  0.400463  0.350349  0.261414  1
  Sc  Sc9  1  0.599537  0.649651  0.738586  1
  Sc  Sc10  1  0.456638  0.300444  0.521242  1
  Sc  Sc11  1  0.543362  0.699556  0.478758  1
  Tc  Tc12  1  0.333393  0.500230  0.499432  1
  Tc  Tc13  1  0.666608  0.499770  0.500568  1
  Rh  Rh14  1  0.000000  0.500000  0.500000  1
  Br  Br15  1  0.399805  0.746439  0.891803  1
  Br  Br16  1  0.600195  0.253561  0.108197  1
  Br  Br17  1  0.192964  0.976601  0.789580  1
  Br  Br18  1  0.807036  0.023399  0.210420  1
  Br  Br19  1  0.335093  0.084504  0.246160  1
  Br  Br20  1  0.664907  0.915496  0.753840  1
  Br  Br21  1  0.554529  0.434812  0.804720  1
  Br  Br22  1  0.445471  0.565188  0.195280  1
  Br  Br23  1  0.310208  0.831770  0.462243  1
  Br  Br24  1  0.689792  0.168230  0.537757  1
  Br  Br25  1  0.165746  0.167058  0.533530  1
  Br  Br26  1  0.834254  0.832942  0.466470  1
  Br  Br27  1  0.925209  0.579101  0.154508  1
  Br  Br28  1  0.074791  0.420899  0.845492  1
  Br  Br29  1  0.926006  0.744478  0.891615  1
  Br  Br30  1  0.073994  0.255522  0.108385  1
