# generated using pymatgen
data_Tb2Nd3Pa(Al3Os)8
_symmetry_space_group_name_H-M   'P 1'
_cell_length_a   8.83492300
_cell_length_b   8.88188466
_cell_length_c   9.61513200
_cell_angle_alpha   90.00000000
_cell_angle_beta   90.00000000
_cell_angle_gamma   119.82524563
_symmetry_Int_Tables_number   1
_chemical_formula_structural   Tb2Nd3Pa(Al3Os)8
_chemical_formula_sum   'Tb2 Nd3 Pa1 Al24 Os8'
_cell_volume   654.56963852
_cell_formula_units_Z   1
loop_
 _symmetry_equiv_pos_site_id
 _symmetry_equiv_pos_as_xyz
  1  'x, y, z'
loop_
 _atom_site_type_symbol
 _atom_site_label
 _atom_site_symmetry_multiplicity
 _atom_site_fract_x
 _atom_site_fract_y
 _atom_site_fract_z
 _atom_site_occupancy
  Tb  Tb0  1  0.611471  0.803174  0.250000  1
  Tb  Tb1  1  0.191703  0.803174  0.250000  1
  Nd  Nd2  1  0.809158  0.618316  0.750000  1
  Nd  Nd3  1  0.384670  0.190046  0.750000  1
  Nd  Nd4  1  0.805377  0.190046  0.750000  1
  Pa  Pa5  1  0.197823  0.395646  0.250000  1
  Al  Al6  1  0.336542  0.673086  0.018970  1
  Al  Al7  1  0.667478  0.334956  0.987770  1
  Al  Al8  1  0.667478  0.334956  0.512230  1
  Al  Al9  1  0.336542  0.673086  0.481030  1
  Al  Al10  1  0.163724  0.327447  0.573153  1
  Al  Al11  1  0.837117  0.674233  0.422952  1
  Al  Al12  1  0.671388  0.835098  0.571593  1
  Al  Al13  1  0.837117  0.674233  0.077048  1
  Al  Al14  1  0.325308  0.161739  0.421639  1
  Al  Al15  1  0.163724  0.327447  0.926847  1
  Al  Al16  1  0.163710  0.835098  0.571593  1
  Al  Al17  1  0.325308  0.161739  0.078361  1
  Al  Al18  1  0.836430  0.161739  0.421639  1
  Al  Al19  1  0.671388  0.835098  0.928407  1
  Al  Al20  1  0.836430  0.161739  0.078361  1
  Al  Al21  1  0.163710  0.835098  0.928407  1
  Al  Al22  1  0.559092  0.118183  0.250000  1
  Al  Al23  1  0.436149  0.872298  0.750000  1
  Al  Al24  1  0.873574  0.437682  0.250000  1
  Al  Al25  1  0.123047  0.560615  0.750000  1
  Al  Al26  1  0.564108  0.437682  0.250000  1
  Al  Al27  1  0.437569  0.560615  0.750000  1
  Al  Al28  1  0.002347  0.004695  0.250000  1
  Al  Al29  1  0.000308  0.000616  0.750000  1
  Os  Os30  1  0.500789  0.001576  0.000356  1
  Os  Os31  1  0.004991  0.500005  0.007223  1
  Os  Os32  1  0.500789  0.001576  0.499644  1
  Os  Os33  1  0.495014  0.500005  0.007223  1
  Os  Os34  1  0.004991  0.500005  0.492777  1
  Os  Os35  1  0.495014  0.500005  0.492777  1
  Os  Os36  1  0.999311  0.998622  0.000088  1
  Os  Os37  1  0.999311  0.998622  0.499912  1
