# generated using pymatgen
data_Pr7Nd(LuPb3)2
_symmetry_space_group_name_H-M   'P 1'
_cell_length_a   9.34732700
_cell_length_b   9.34732756
_cell_length_c   6.85266000
_cell_angle_alpha   90.00000000
_cell_angle_beta   90.00000000
_cell_angle_gamma   120.00000155
_symmetry_Int_Tables_number   1
_chemical_formula_structural   Pr7Nd(LuPb3)2
_chemical_formula_sum   'Pr7 Nd1 Lu2 Pb6'
_cell_volume   518.51903908
_cell_formula_units_Z   1
loop_
 _symmetry_equiv_pos_site_id
 _symmetry_equiv_pos_as_xyz
  1  'x, y, z'
loop_
 _atom_site_type_symbol
 _atom_site_label
 _atom_site_symmetry_multiplicity
 _atom_site_fract_x
 _atom_site_fract_y
 _atom_site_fract_z
 _atom_site_occupancy
  Pr  Pr0  1  0.666667  0.333333  0.500000  1
  Pr  Pr1  1  0.759041  0.759100  0.752477  1
  Pr  Pr2  1  0.240900  0.999940  0.752477  1
  Pr  Pr3  1  0.000060  0.240959  0.752477  1
  Pr  Pr4  1  0.240900  0.240959  0.247523  1
  Pr  Pr5  1  0.759041  0.999940  0.247523  1
  Pr  Pr6  1  0.000060  0.759100  0.247523  1
  Nd  Nd7  1  0.333333  0.666667  0.500000  1
  Lu  Lu8  1  0.666667  0.333333  0.000000  1
  Lu  Lu9  1  0.333333  0.666667  0.000000  1
  Pb  Pb10  1  0.396802  0.397073  0.758799  1
  Pb  Pb11  1  0.602927  0.999728  0.758799  1
  Pb  Pb12  1  0.000272  0.603198  0.758799  1
  Pb  Pb13  1  0.602927  0.603198  0.241201  1
  Pb  Pb14  1  0.396802  0.999728  0.241201  1
  Pb  Pb15  1  0.000272  0.397073  0.241201  1
