# generated using pymatgen
data_Sr2TcNiO6
_symmetry_space_group_name_H-M   'P 1'
_cell_length_a   5.59504241
_cell_length_b   5.59504251
_cell_length_c   5.59568285
_cell_angle_alpha   121.20764368
_cell_angle_beta   121.20719727
_cell_angle_gamma   87.91431239
_symmetry_Int_Tables_number   1
_chemical_formula_structural   Sr2TcNiO6
_chemical_formula_sum   'Sr2 Tc1 Ni1 O6'
_cell_volume   121.52347810
_cell_formula_units_Z   1
loop_
 _symmetry_equiv_pos_site_id
 _symmetry_equiv_pos_as_xyz
  1  'x, y, z'
loop_
 _atom_site_type_symbol
 _atom_site_label
 _atom_site_symmetry_multiplicity
 _atom_site_fract_x
 _atom_site_fract_y
 _atom_site_fract_z
 _atom_site_occupancy
  Sr  Sr0  1  0.249998  0.749998  0.500000  1
  Sr  Sr1  1  0.750002  0.250002  0.500000  1
  Tc  Tc2  1  0.500000  0.500000  0.000000  1
  Ni  Ni3  1  0.000000  0.000000  0.000000  1
  O  O4  1  0.698646  0.787207  0.485841  1
  O  O5  1  0.301354  0.212793  0.514159  1
  O  O6  1  0.787215  0.301353  0.088562  1
  O  O7  1  0.212785  0.698647  0.911438  1
  O  O8  1  0.257910  0.257905  0.000012  1
  O  O9  1  0.742090  0.742095  0.999988  1
