# generated using pymatgen
data_CsCeZr6CBr18
_symmetry_space_group_name_H-M   'P 1'
_cell_length_a   10.21227800
_cell_length_b   10.21227785
_cell_length_c   19.21153400
_cell_angle_alpha   90.00000000
_cell_angle_beta   90.00000000
_cell_angle_gamma   120.00000050
_symmetry_Int_Tables_number   1
_chemical_formula_structural   CsCeZr6CBr18
_chemical_formula_sum   'Cs2 Ce2 Zr12 C2 Br36'
_cell_volume   1735.15359388
_cell_formula_units_Z   2
loop_
 _symmetry_equiv_pos_site_id
 _symmetry_equiv_pos_as_xyz
  1  'x, y, z'
loop_
 _atom_site_type_symbol
 _atom_site_label
 _atom_site_symmetry_multiplicity
 _atom_site_fract_x
 _atom_site_fract_y
 _atom_site_fract_z
 _atom_site_occupancy
  Cs  Cs0  1  0.333333  0.666667  0.750000  1
  Cs  Cs1  1  0.666667  0.333333  0.250000  1
  Ce  Ce2  1  0.666667  0.333333  0.750000  1
  Ce  Ce3  1  0.333333  0.666667  0.250000  1
  Zr  Zr4  1  0.836132  0.037299  0.569480  1
  Zr  Zr5  1  0.163868  0.962701  0.430520  1
  Zr  Zr6  1  0.962701  0.798833  0.569480  1
  Zr  Zr7  1  0.836132  0.798833  0.930520  1
  Zr  Zr8  1  0.037299  0.201167  0.430520  1
  Zr  Zr9  1  0.163868  0.201167  0.069480  1
  Zr  Zr10  1  0.201167  0.163868  0.569480  1
  Zr  Zr11  1  0.962701  0.163868  0.930520  1
  Zr  Zr12  1  0.798833  0.836132  0.430520  1
  Zr  Zr13  1  0.037299  0.836132  0.069480  1
  Zr  Zr14  1  0.201167  0.037299  0.930520  1
  Zr  Zr15  1  0.798833  0.962701  0.069480  1
  C  C16  1  0.000000  0.000000  0.500000  1
  C  C17  1  0.000000  0.000000  0.000000  1
  Br  Br18  1  0.272482  0.419542  0.500598  1
  Br  Br19  1  0.727518  0.580458  0.499402  1
  Br  Br20  1  0.580458  0.852940  0.500598  1
  Br  Br21  1  0.272482  0.852940  0.999402  1
  Br  Br22  1  0.419542  0.147060  0.499402  1
  Br  Br23  1  0.727518  0.147060  0.000598  1
  Br  Br24  1  0.147060  0.727518  0.500598  1
  Br  Br25  1  0.580458  0.727518  0.999402  1
  Br  Br26  1  0.852940  0.272482  0.499402  1
  Br  Br27  1  0.419542  0.272482  0.000598  1
  Br  Br28  1  0.147060  0.419542  0.999402  1
  Br  Br29  1  0.852940  0.580458  0.000598  1
  Br  Br30  1  0.042253  0.231319  0.659711  1
  Br  Br31  1  0.957747  0.768681  0.340289  1
  Br  Br32  1  0.768681  0.810934  0.659711  1
  Br  Br33  1  0.042253  0.810934  0.840289  1
  Br  Br34  1  0.231319  0.189066  0.340289  1
  Br  Br35  1  0.957747  0.189066  0.159711  1
  Br  Br36  1  0.189066  0.957747  0.659711  1
  Br  Br37  1  0.768681  0.957747  0.840289  1
  Br  Br38  1  0.810934  0.042253  0.340289  1
  Br  Br39  1  0.231319  0.042253  0.159711  1
  Br  Br40  1  0.189066  0.231319  0.840289  1
  Br  Br41  1  0.810934  0.768681  0.159711  1
  Br  Br42  1  0.626916  0.078351  0.661305  1
  Br  Br43  1  0.373084  0.921649  0.338695  1
  Br  Br44  1  0.921649  0.548565  0.661305  1
  Br  Br45  1  0.626916  0.548565  0.838695  1
  Br  Br46  1  0.078351  0.451435  0.338695  1
  Br  Br47  1  0.373084  0.451435  0.161305  1
  Br  Br48  1  0.451435  0.373084  0.661305  1
  Br  Br49  1  0.921649  0.373084  0.838695  1
  Br  Br50  1  0.548565  0.626916  0.338695  1
  Br  Br51  1  0.078351  0.626916  0.161305  1
  Br  Br52  1  0.451435  0.078351  0.838695  1
  Br  Br53  1  0.548565  0.921649  0.161305  1
