# generated using pymatgen
data_Ba8As5Cl
_symmetry_space_group_name_H-M   'P 1'
_cell_length_a   8.73306930
_cell_length_b   8.73308228
_cell_length_c   8.73307915
_cell_angle_alpha   109.57728409
_cell_angle_beta   109.57719599
_cell_angle_gamma   109.25941825
_symmetry_Int_Tables_number   1
_chemical_formula_structural   Ba8As5Cl
_chemical_formula_sum   'Ba8 As5 Cl1'
_cell_volume   512.71421548
_cell_formula_units_Z   1
loop_
 _symmetry_equiv_pos_site_id
 _symmetry_equiv_pos_as_xyz
  1  'x, y, z'
loop_
 _atom_site_type_symbol
 _atom_site_label
 _atom_site_symmetry_multiplicity
 _atom_site_fract_x
 _atom_site_fract_y
 _atom_site_fract_z
 _atom_site_occupancy
  Ba  Ba0  1  0.740503  0.367921  0.245820  1
  Ba  Ba1  1  0.988700  0.737662  0.104150  1
  Ba  Ba2  1  0.633513  0.884551  0.895851  1
  Ba  Ba3  1  0.122101  0.494683  0.754180  1
  Ba  Ba4  1  0.632080  0.877899  0.372583  1
  Ba  Ba5  1  0.505317  0.259497  0.627417  1
  Ba  Ba6  1  0.262339  0.366486  0.251037  1
  Ba  Ba7  1  0.115448  0.011300  0.748963  1
  As  As8  1  0.746833  0.631265  0.625348  1
  As  As9  1  0.368736  0.994085  0.115568  1
  As  As10  1  0.005916  0.121484  0.374652  1
  As  As11  1  0.500000  0.500000  0.000000  1
  As  As12  1  0.878516  0.253167  0.884432  1
  Cl  Cl13  1  0.250000  0.750000  0.500000  1
