# generated using pymatgen
data_Tb2Si7(NiRu2)4
_symmetry_space_group_name_H-M   'P 1'
_cell_length_a   9.52788294
_cell_length_b   9.54682711
_cell_length_c   3.81967200
_cell_angle_alpha   90.00000000
_cell_angle_beta   90.00000000
_cell_angle_gamma   120.30920138
_symmetry_Int_Tables_number   1
_chemical_formula_structural   Tb2Si7(NiRu2)4
_chemical_formula_sum   'Tb2 Si7 Ni4 Ru8'
_cell_volume   299.95118674
_cell_formula_units_Z   1
loop_
 _symmetry_equiv_pos_site_id
 _symmetry_equiv_pos_as_xyz
  1  'x, y, z'
loop_
 _atom_site_type_symbol
 _atom_site_label
 _atom_site_symmetry_multiplicity
 _atom_site_fract_x
 _atom_site_fract_y
 _atom_site_fract_z
 _atom_site_occupancy
  Tb  Tb0  1  0.664526  0.332890  0.000000  1
  Tb  Tb1  1  0.335027  0.667033  0.500000  1
  Si  Si2  1  0.290973  0.893225  0.000000  1
  Si  Si3  1  0.600905  0.709436  0.000000  1
  Si  Si4  1  0.110526  0.398998  0.000000  1
  Si  Si5  1  0.394857  0.288214  0.500000  1
  Si  Si6  1  0.892893  0.604751  0.500000  1
  Si  Si7  1  0.711447  0.104871  0.500000  1
  Si  Si8  1  0.000999  0.999777  0.000000  1
  Ni  Ni9  1  0.371094  0.428977  0.000000  1
  Ni  Ni10  1  0.275781  0.128175  0.000000  1
  Ni  Ni11  1  0.846946  0.723048  0.000000  1
  Ni  Ni12  1  0.878048  0.149322  0.000000  1
  Ru  Ru13  1  0.060427  0.627897  0.000000  1
  Ru  Ru14  1  0.568228  0.939305  0.000000  1
  Ru  Ru15  1  0.433863  0.056230  0.500000  1
  Ru  Ru16  1  0.613951  0.561837  0.500000  1
  Ru  Ru17  1  0.944414  0.377689  0.500000  1
  Ru  Ru18  1  0.094607  0.890410  0.500000  1
  Ru  Ru19  1  0.796109  0.905341  0.500000  1
  Ru  Ru20  1  0.114379  0.212572  0.500000  1
