# generated using pymatgen
data_Pa3Fe2Ni7P6
_symmetry_space_group_name_H-M   'P 1'
_cell_length_a   3.80547900
_cell_length_b   10.38285300
_cell_length_c   12.35377500
_cell_angle_alpha   90.00000000
_cell_angle_beta   90.00000000
_cell_angle_gamma   90.00000000
_symmetry_Int_Tables_number   1
_chemical_formula_structural   Pa3Fe2Ni7P6
_chemical_formula_sum   'Pa6 Fe4 Ni14 P12'
_cell_volume   488.11901056
_cell_formula_units_Z   2
loop_
 _symmetry_equiv_pos_site_id
 _symmetry_equiv_pos_as_xyz
  1  'x, y, z'
loop_
 _atom_site_type_symbol
 _atom_site_label
 _atom_site_symmetry_multiplicity
 _atom_site_fract_x
 _atom_site_fract_y
 _atom_site_fract_z
 _atom_site_occupancy
  Pa  Pa0  1  0.751893  0.000000  0.480116  1
  Pa  Pa1  1  0.251893  0.500000  0.519884  1
  Pa  Pa2  1  0.251881  0.686351  0.793813  1
  Pa  Pa3  1  0.251881  0.313649  0.793813  1
  Pa  Pa4  1  0.751881  0.813649  0.206187  1
  Pa  Pa5  1  0.751881  0.186351  0.206187  1
  Fe  Fe6  1  0.251921  0.199298  0.569700  1
  Fe  Fe7  1  0.251921  0.800702  0.569700  1
  Fe  Fe8  1  0.751921  0.300702  0.430300  1
  Fe  Fe9  1  0.751921  0.699298  0.430300  1
  Ni  Ni10  1  0.751889  0.000000  0.022606  1
  Ni  Ni11  1  0.251889  0.500000  0.977394  1
  Ni  Ni12  1  0.251879  0.622649  0.295453  1
  Ni  Ni13  1  0.251879  0.377351  0.295453  1
  Ni  Ni14  1  0.751879  0.877351  0.704547  1
  Ni  Ni15  1  0.751879  0.122649  0.704547  1
  Ni  Ni16  1  0.251963  0.169677  0.003325  1
  Ni  Ni17  1  0.251963  0.830323  0.003325  1
  Ni  Ni18  1  0.751963  0.330323  0.996675  1
  Ni  Ni19  1  0.751963  0.669677  0.996675  1
  Ni  Ni20  1  0.250549  0.000000  0.842170  1
  Ni  Ni21  1  0.750549  0.500000  0.157830  1
  Ni  Ni22  1  0.252103  0.000000  0.301637  1
  Ni  Ni23  1  0.752103  0.500000  0.698363  1
  P  P24  1  0.251890  0.190796  0.389770  1
  P  P25  1  0.251890  0.809204  0.389770  1
  P  P26  1  0.751890  0.309204  0.610230  1
  P  P27  1  0.751890  0.690796  0.610230  1
  P  P28  1  0.251841  0.000000  0.122941  1
  P  P29  1  0.751841  0.500000  0.877059  1
  P  P30  1  0.251777  0.647453  0.106872  1
  P  P31  1  0.251777  0.352547  0.106872  1
  P  P32  1  0.751777  0.852547  0.893128  1
  P  P33  1  0.751777  0.147453  0.893128  1
  P  P34  1  0.251901  0.000000  0.658133  1
  P  P35  1  0.751901  0.500000  0.341867  1
