# generated using pymatgen
data_Dy3Er2AlSb2
_symmetry_space_group_name_H-M   'P 1'
_cell_length_a   8.86552300
_cell_length_b   8.87209199
_cell_length_c   6.37729700
_cell_angle_alpha   90.00000000
_cell_angle_beta   90.00000000
_cell_angle_gamma   120.02450463
_symmetry_Int_Tables_number   1
_chemical_formula_structural   Dy3Er2AlSb2
_chemical_formula_sum   'Dy6 Er4 Al2 Sb4'
_cell_volume   434.30055125
_cell_formula_units_Z   2
loop_
 _symmetry_equiv_pos_site_id
 _symmetry_equiv_pos_as_xyz
  1  'x, y, z'
loop_
 _atom_site_type_symbol
 _atom_site_label
 _atom_site_symmetry_multiplicity
 _atom_site_fract_x
 _atom_site_fract_y
 _atom_site_fract_z
 _atom_site_occupancy
  Dy  Dy0  1  0.008750  0.765978  0.750000  1
  Dy  Dy1  1  0.008750  0.242772  0.250000  1
  Dy  Dy2  1  0.755345  0.756439  0.250000  1
  Dy  Dy3  1  0.755345  0.998905  0.750000  1
  Dy  Dy4  1  0.241831  0.232411  0.750000  1
  Dy  Dy5  1  0.241831  0.009420  0.250000  1
  Er  Er6  1  0.335828  0.667914  0.500000  1
  Er  Er7  1  0.655788  0.327894  0.000000  1
  Er  Er8  1  0.655788  0.327894  0.500000  1
  Er  Er9  1  0.335828  0.667914  0.000000  1
  Al  Al10  1  0.398200  0.997196  0.750000  1
  Al  Al11  1  0.398200  0.401004  0.250000  1
  Sb  Sb12  1  0.998675  0.606151  0.250000  1
  Sb  Sb13  1  0.998675  0.392524  0.750000  1
  Sb  Sb14  1  0.605584  0.604627  0.750000  1
  Sb  Sb15  1  0.605584  0.000957  0.250000  1
