# generated using pymatgen
data_Th4BrCl15
_symmetry_space_group_name_H-M   'P 1'
_cell_length_a   7.41029784
_cell_length_b   7.42337743
_cell_length_c   12.73857562
_cell_angle_alpha   67.76569945
_cell_angle_beta   89.70369376
_cell_angle_gamma   90.01511613
_symmetry_Int_Tables_number   1
_chemical_formula_structural   Th4BrCl15
_chemical_formula_sum   'Th4 Br1 Cl15'
_cell_volume   648.62713394
_cell_formula_units_Z   1
loop_
 _symmetry_equiv_pos_site_id
 _symmetry_equiv_pos_as_xyz
  1  'x, y, z'
loop_
 _atom_site_type_symbol
 _atom_site_label
 _atom_site_symmetry_multiplicity
 _atom_site_fract_x
 _atom_site_fract_y
 _atom_site_fract_z
 _atom_site_occupancy
  Th  Th0  1  0.513938  0.005298  0.318530  1
  Th  Th1  1  0.011543  0.998608  0.178334  1
  Th  Th2  1  0.488890  0.997831  0.681073  1
  Th  Th3  1  0.987393  0.003684  0.818818  1
  Br  Br4  1  0.182567  0.779383  0.404691  1
  Cl  Cl5  1  0.854021  0.136913  0.343058  1
  Cl  Cl6  1  0.353180  0.872475  0.151995  1
  Cl  Cl7  1  0.148040  0.864333  0.656720  1
  Cl  Cl8  1  0.646859  0.136439  0.844445  1
  Cl  Cl9  1  0.072841  0.230715  0.946279  1
  Cl  Cl10  1  0.579979  0.775772  0.552238  1
  Cl  Cl11  1  0.926231  0.771998  0.051470  1
  Cl  Cl12  1  0.426618  0.228101  0.448316  1
  Cl  Cl13  1  0.746703  0.720905  0.808644  1
  Cl  Cl14  1  0.247859  0.280336  0.691961  1
  Cl  Cl15  1  0.251422  0.278381  0.194333  1
  Cl  Cl16  1  0.748128  0.722285  0.305068  1
  Cl  Cl17  1  0.311927  0.810568  0.894748  1
  Cl  Cl18  1  0.814106  0.191490  0.605158  1
  Cl  Cl19  1  0.687757  0.194486  0.104122  1
