# generated using pymatgen
data_Yb10Si5Bi
_symmetry_space_group_name_H-M   'P 1'
_cell_length_a   7.69658584
_cell_length_b   7.69658640
_cell_length_c   9.16530650
_cell_angle_alpha   114.82676794
_cell_angle_beta   114.82677145
_cell_angle_gamma   89.99999953
_symmetry_Int_Tables_number   1
_chemical_formula_structural   Yb10Si5Bi
_chemical_formula_sum   'Yb10 Si5 Bi1'
_cell_volume   436.84995312
_cell_formula_units_Z   1
loop_
 _symmetry_equiv_pos_site_id
 _symmetry_equiv_pos_as_xyz
  1  'x, y, z'
loop_
 _atom_site_type_symbol
 _atom_site_label
 _atom_site_symmetry_multiplicity
 _atom_site_fract_x
 _atom_site_fract_y
 _atom_site_fract_z
 _atom_site_occupancy
  Yb  Yb0  1  0.506389  0.506389  0.012780  1
  Yb  Yb1  1  0.993611  0.993611  0.987220  1
  Yb  Yb2  1  0.973192  0.825722  0.277878  1
  Yb  Yb3  1  0.304686  0.452156  0.277878  1
  Yb  Yb4  1  0.825722  0.304686  0.277878  1
  Yb  Yb5  1  0.452156  0.973192  0.277878  1
  Yb  Yb6  1  0.047844  0.195314  0.722122  1
  Yb  Yb7  1  0.674278  0.526808  0.722122  1
  Yb  Yb8  1  0.195314  0.674278  0.722122  1
  Yb  Yb9  1  0.526808  0.047844  0.722122  1
  Si  Si10  1  0.250000  0.250000  0.500000  1
  Si  Si11  1  0.613682  0.886318  0.000000  1
  Si  Si12  1  0.386318  0.113682  0.000000  1
  Si  Si13  1  0.886318  0.386318  0.000000  1
  Si  Si14  1  0.113682  0.613682  0.000000  1
  Bi  Bi15  1  0.750000  0.750000  0.500000  1
