# generated using pymatgen
data_Tm6Lu14Bi11Sb
_symmetry_space_group_name_H-M   'P 1'
_cell_length_a   8.11881810
_cell_length_b   9.37490200
_cell_length_c   11.81108112
_cell_angle_alpha   90.00000000
_cell_angle_beta   90.01615293
_cell_angle_gamma   90.00000000
_symmetry_Int_Tables_number   1
_chemical_formula_structural   Tm6Lu14Bi11Sb
_chemical_formula_sum   'Tm6 Lu14 Bi11 Sb1'
_cell_volume   898.97824606
_cell_formula_units_Z   1
loop_
 _symmetry_equiv_pos_site_id
 _symmetry_equiv_pos_as_xyz
  1  'x, y, z'
loop_
 _atom_site_type_symbol
 _atom_site_label
 _atom_site_symmetry_multiplicity
 _atom_site_fract_x
 _atom_site_fract_y
 _atom_site_fract_z
 _atom_site_occupancy
  Tm  Tm0  1  0.145498  0.750000  0.781762  1
  Tm  Tm1  1  0.854392  0.250000  0.217883  1
  Tm  Tm2  1  0.189502  0.250000  0.780178  1
  Tm  Tm3  1  0.812307  0.750000  0.217593  1
  Tm  Tm4  1  0.312927  0.750000  0.282838  1
  Tm  Tm5  1  0.682251  0.250000  0.714263  1
  Lu  Lu6  1  0.027343  0.250000  0.511254  1
  Lu  Lu7  1  0.977244  0.750000  0.489434  1
  Lu  Lu8  1  0.475802  0.750000  0.011032  1
  Lu  Lu9  1  0.524837  0.250000  0.988705  1
  Lu  Lu10  1  0.355362  0.250000  0.285261  1
  Lu  Lu11  1  0.645997  0.750000  0.717788  1
  Lu  Lu12  1  0.193384  0.067287  0.060323  1
  Lu  Lu13  1  0.806786  0.933114  0.940124  1
  Lu  Lu14  1  0.308506  0.937053  0.559175  1
  Lu  Lu15  1  0.806786  0.566886  0.940124  1
  Lu  Lu16  1  0.690050  0.069181  0.442199  1
  Lu  Lu17  1  0.193384  0.432713  0.060323  1
  Lu  Lu18  1  0.690050  0.430819  0.442199  1
  Lu  Lu19  1  0.308506  0.562947  0.559175  1
  Bi  Bi20  1  0.596394  0.750000  0.458069  1
  Bi  Bi21  1  0.095404  0.750000  0.042707  1
  Bi  Bi22  1  0.905501  0.250000  0.956142  1
  Bi  Bi23  1  0.066440  0.003662  0.325986  1
  Bi  Bi24  1  0.932757  0.996753  0.674106  1
  Bi  Bi25  1  0.433578  0.995563  0.825762  1
  Bi  Bi26  1  0.932757  0.503247  0.674106  1
  Bi  Bi27  1  0.566425  0.004512  0.174479  1
  Bi  Bi28  1  0.066440  0.496338  0.325986  1
  Bi  Bi29  1  0.566425  0.495488  0.174479  1
  Bi  Bi30  1  0.433578  0.504437  0.825762  1
  Sb  Sb31  1  0.403390  0.250000  0.540785  1
