# generated using pymatgen
data_Cs2Nd10Re2Br17
_symmetry_space_group_name_H-M   'P 1'
_cell_length_a   9.79867399
_cell_length_b   11.12732368
_cell_length_c   11.12650650
_cell_angle_alpha   106.48520680
_cell_angle_beta   93.47665868
_cell_angle_gamma   93.46948269
_symmetry_Int_Tables_number   1
_chemical_formula_structural   Cs2Nd10Re2Br17
_chemical_formula_sum   'Cs2 Nd10 Re2 Br17'
_cell_volume   1157.31152775
_cell_formula_units_Z   1
loop_
 _symmetry_equiv_pos_site_id
 _symmetry_equiv_pos_as_xyz
  1  'x, y, z'
loop_
 _atom_site_type_symbol
 _atom_site_label
 _atom_site_symmetry_multiplicity
 _atom_site_fract_x
 _atom_site_fract_y
 _atom_site_fract_z
 _atom_site_occupancy
  Cs  Cs0  1  0.999976  0.821903  0.177997  1
  Cs  Cs1  1  0.000020  0.178112  0.821850  1
  Nd  Nd2  1  0.439806  0.162282  0.162598  1
  Nd  Nd3  1  0.573112  0.505678  0.205737  1
  Nd  Nd4  1  0.827580  0.289472  0.288984  1
  Nd  Nd5  1  0.289448  0.426078  0.426290  1
  Nd  Nd6  1  0.426946  0.794283  0.494349  1
  Nd  Nd7  1  0.572954  0.205786  0.505824  1
  Nd  Nd8  1  0.710559  0.573736  0.573942  1
  Nd  Nd9  1  0.172376  0.710981  0.710543  1
  Nd  Nd10  1  0.426977  0.494155  0.794196  1
  Nd  Nd11  1  0.560229  0.837396  0.837714  1
  Re  Re12  1  0.567093  0.364487  0.364551  1
  Re  Re13  1  0.432907  0.635479  0.635539  1
  Br  Br14  1  0.577142  0.685194  0.018885  1
  Br  Br15  1  0.712002  0.068690  0.068755  1
  Br  Br16  1  0.853558  0.452609  0.121058  1
  Br  Br17  1  0.134629  0.204943  0.205100  1
  Br  Br18  1  0.288467  0.603074  0.259158  1
  Br  Br19  1  0.422883  0.981044  0.314767  1
  Br  Br20  1  0.711546  0.740865  0.396880  1
  Br  Br21  1  0.853250  0.121665  0.452255  1
  Br  Br22  1  0.999977  0.500276  0.499681  1
  Br  Br23  1  0.146411  0.878837  0.547427  1
  Br  Br24  1  0.288224  0.258968  0.603296  1
  Br  Br25  1  0.576951  0.018705  0.685451  1
  Br  Br26  1  0.711776  0.396733  0.741021  1
  Br  Br27  1  0.865477  0.794907  0.795118  1
  Br  Br28  1  0.146751  0.547850  0.878413  1
  Br  Br29  1  0.288014  0.931218  0.931288  1
  Br  Br30  1  0.422959  0.314595  0.981333  1
