# generated using pymatgen
data_Ho3TmTh4(ReB6)4
_symmetry_space_group_name_H-M   'P 1'
_cell_length_a   3.76229100
_cell_length_b   9.24583903
_cell_length_c   11.67463304
_cell_angle_alpha   90.00908689
_cell_angle_beta   90.00000000
_cell_angle_gamma   90.00000000
_symmetry_Int_Tables_number   1
_chemical_formula_structural   Ho3TmTh4(ReB6)4
_chemical_formula_sum   'Ho3 Tm1 Th4 Re4 B24'
_cell_volume   406.10837396
_cell_formula_units_Z   1
loop_
 _symmetry_equiv_pos_site_id
 _symmetry_equiv_pos_as_xyz
  1  'x, y, z'
loop_
 _atom_site_type_symbol
 _atom_site_label
 _atom_site_symmetry_multiplicity
 _atom_site_fract_x
 _atom_site_fract_y
 _atom_site_fract_z
 _atom_site_occupancy
  Ho  Ho0  1  0.000000  0.944772  0.372654  1
  Ho  Ho1  1  0.000000  0.055223  0.627405  1
  Ho  Ho2  1  0.000000  0.444870  0.127101  1
  Tm  Tm3  1  0.000000  0.555218  0.872577  1
  Th  Th4  1  0.000000  0.322087  0.414170  1
  Th  Th5  1  0.000000  0.677882  0.585981  1
  Th  Th6  1  0.000000  0.821957  0.085737  1
  Th  Th7  1  0.000000  0.178099  0.914100  1
  Re  Re8  1  0.000000  0.639187  0.319850  1
  Re  Re9  1  0.000000  0.361144  0.680454  1
  Re  Re10  1  0.000000  0.139241  0.180073  1
  Re  Re11  1  0.000000  0.860215  0.819950  1
  B  B12  1  0.500000  0.556318  0.429875  1
  B  B13  1  0.500000  0.443719  0.570208  1
  B  B14  1  0.500000  0.056300  0.070119  1
  B  B15  1  0.500000  0.943604  0.929847  1
  B  B16  1  0.500000  0.749935  0.417052  1
  B  B17  1  0.500000  0.250092  0.582970  1
  B  B18  1  0.500000  0.249974  0.082946  1
  B  B19  1  0.500000  0.749582  0.917033  1
  B  B20  1  0.500000  0.790953  0.266658  1
  B  B21  1  0.500000  0.209172  0.733374  1
  B  B22  1  0.500000  0.290950  0.233325  1
  B  B23  1  0.500000  0.708622  0.766784  1
  B  B24  1  0.500000  0.630350  0.186225  1
  B  B25  1  0.500000  0.370033  0.813976  1
  B  B26  1  0.500000  0.130378  0.313752  1
  B  B27  1  0.500000  0.869553  0.686299  1
  B  B28  1  0.500000  0.985071  0.213974  1
  B  B29  1  0.500000  0.014884  0.786041  1
  B  B30  1  0.500000  0.485070  0.286011  1
  B  B31  1  0.500000  0.515176  0.714304  1
  B  B32  1  0.500000  0.602218  0.027649  1
  B  B33  1  0.500000  0.398163  0.971509  1
  B  B34  1  0.500000  0.102381  0.471841  1
  B  B35  1  0.500000  0.897607  0.528176  1
