# generated using pymatgen
data_Pr3Y7(Er5Sb6)2
_symmetry_space_group_name_H-M   'P 1'
_cell_length_a   8.09738158
_cell_length_b   9.28177846
_cell_length_c   11.85681200
_cell_angle_alpha   90.00445686
_cell_angle_beta   89.95426176
_cell_angle_gamma   89.98244157
_symmetry_Int_Tables_number   1
_chemical_formula_structural   Pr3Y7(Er5Sb6)2
_chemical_formula_sum   'Pr3 Y7 Er10 Sb12'
_cell_volume   891.13515678
_cell_formula_units_Z   1
loop_
 _symmetry_equiv_pos_site_id
 _symmetry_equiv_pos_as_xyz
  1  'x, y, z'
loop_
 _atom_site_type_symbol
 _atom_site_label
 _atom_site_symmetry_multiplicity
 _atom_site_fract_x
 _atom_site_fract_y
 _atom_site_fract_z
 _atom_site_occupancy
  Pr  Pr0  1  0.181336  0.750097  0.721213  1
  Pr  Pr1  1  0.682378  0.750018  0.778039  1
  Pr  Pr2  1  0.817423  0.250020  0.279068  1
  Y  Y3  1  0.315725  0.249983  0.220620  1
  Y  Y4  1  0.306648  0.057363  0.939168  1
  Y  Y5  1  0.808140  0.441590  0.560571  1
  Y  Y6  1  0.352379  0.750332  0.215554  1
  Y  Y7  1  0.853348  0.749580  0.283254  1
  Y  Y8  1  0.646954  0.250213  0.785774  1
  Y  Y9  1  0.147293  0.249890  0.714974  1
  Er  Er10  1  0.027686  0.749660  0.988665  1
  Er  Er11  1  0.525545  0.750306  0.511039  1
  Er  Er12  1  0.972290  0.249968  0.013813  1
  Er  Er13  1  0.473743  0.249916  0.487964  1
  Er  Er14  1  0.306317  0.439548  0.939076  1
  Er  Er15  1  0.808165  0.061494  0.560998  1
  Er  Er16  1  0.693924  0.939597  0.060906  1
  Er  Er17  1  0.192311  0.560968  0.438295  1
  Er  Er18  1  0.694636  0.558934  0.061493  1
  Er  Er19  1  0.192718  0.940275  0.437984  1
  Sb  Sb20  1  0.434235  0.009129  0.669799  1
  Sb  Sb21  1  0.933646  0.490560  0.831175  1
  Sb  Sb22  1  0.562987  0.506772  0.328403  1
  Sb  Sb23  1  0.070056  0.993442  0.171110  1
  Sb  Sb24  1  0.563248  0.993512  0.328676  1
  Sb  Sb25  1  0.070747  0.506261  0.170587  1
  Sb  Sb26  1  0.433362  0.490983  0.669913  1
  Sb  Sb27  1  0.932764  0.009471  0.831056  1
  Sb  Sb28  1  0.411411  0.747310  0.965215  1
  Sb  Sb29  1  0.909061  0.752642  0.534231  1
  Sb  Sb30  1  0.585583  0.249927  0.038770  1
  Sb  Sb31  1  0.093942  0.250238  0.462600  1
