# generated using pymatgen
data_Eu2Al20Os3Pt
_symmetry_space_group_name_H-M   'P 1'
_cell_length_a   6.90143006
_cell_length_b   6.90528126
_cell_length_c   9.20534521
_cell_angle_alpha   90.25027091
_cell_angle_beta   90.06345432
_cell_angle_gamma   96.59431431
_symmetry_Int_Tables_number   1
_chemical_formula_structural   Eu2Al20Os3Pt
_chemical_formula_sum   'Eu2 Al20 Os3 Pt1'
_cell_volume   435.78578876
_cell_formula_units_Z   1
loop_
 _symmetry_equiv_pos_site_id
 _symmetry_equiv_pos_as_xyz
  1  'x, y, z'
loop_
 _atom_site_type_symbol
 _atom_site_label
 _atom_site_symmetry_multiplicity
 _atom_site_fract_x
 _atom_site_fract_y
 _atom_site_fract_z
 _atom_site_occupancy
  Eu  Eu0  1  0.624443  0.377535  0.750430  1
  Eu  Eu1  1  0.375557  0.622465  0.249570  1
  Al  Al2  1  0.276815  0.018325  0.743898  1
  Al  Al3  1  0.018060  0.282179  0.249627  1
  Al  Al4  1  0.723185  0.981675  0.256102  1
  Al  Al5  1  0.981940  0.717821  0.750373  1
  Al  Al6  1  0.882689  0.125145  0.950043  1
  Al  Al7  1  0.117311  0.874855  0.049957  1
  Al  Al8  1  0.877487  0.124350  0.546447  1
  Al  Al9  1  0.122513  0.875650  0.453553  1
  Al  Al10  1  0.647110  0.914629  0.747343  1
  Al  Al11  1  0.913843  0.644159  0.250949  1
  Al  Al12  1  0.352890  0.085371  0.252657  1
  Al  Al13  1  0.086157  0.355841  0.749051  1
  Al  Al14  1  0.337851  0.656403  0.895040  1
  Al  Al15  1  0.662149  0.343597  0.104960  1
  Al  Al16  1  0.342425  0.659097  0.600025  1
  Al  Al17  1  0.657575  0.340903  0.399975  1
  Al  Al18  1  0.725844  0.720973  0.997003  1
  Al  Al19  1  0.722545  0.721364  0.500327  1
  Al  Al20  1  0.274156  0.279027  0.002997  1
  Al  Al21  1  0.277455  0.278636  0.499673  1
  Os  Os22  1  0.000000  0.500000  0.000000  1
  Os  Os23  1  0.500000  0.000000  0.500000  1
  Os  Os24  1  0.000000  0.500000  0.500000  1
  Pt  Pt25  1  0.500000  0.000000  0.000000  1
