# generated using pymatgen
data_EuPa(BiTe)2
_symmetry_space_group_name_H-M   'P 1'
_cell_length_a   4.46678900
_cell_length_b   4.46678900
_cell_length_c   9.33979200
_cell_angle_alpha   90.00000000
_cell_angle_beta   90.00000000
_cell_angle_gamma   90.00000000
_symmetry_Int_Tables_number   1
_chemical_formula_structural   EuPa(BiTe)2
_chemical_formula_sum   'Eu1 Pa1 Bi2 Te2'
_cell_volume   186.34943503
_cell_formula_units_Z   1
loop_
 _symmetry_equiv_pos_site_id
 _symmetry_equiv_pos_as_xyz
  1  'x, y, z'
loop_
 _atom_site_type_symbol
 _atom_site_label
 _atom_site_symmetry_multiplicity
 _atom_site_fract_x
 _atom_site_fract_y
 _atom_site_fract_z
 _atom_site_occupancy
  Eu  Eu0  1  0.500000  0.000000  0.290753  1
  Pa  Pa1  1  0.000000  0.500000  0.711328  1
  Bi  Bi2  1  0.000000  0.000000  0.987797  1
  Bi  Bi3  1  0.500000  0.500000  0.987797  1
  Te  Te4  1  0.000000  0.500000  0.378711  1
  Te  Te5  1  0.500000  0.000000  0.643616  1
