# generated using pymatgen
data_Dy16Ga6NiOs
_symmetry_space_group_name_H-M   'P 1'
_cell_length_a   10.05497805
_cell_length_b   10.05714295
_cell_length_c   6.99981801
_cell_angle_alpha   90.00437248
_cell_angle_beta   90.00115171
_cell_angle_gamma   120.00484686
_symmetry_Int_Tables_number   1
_chemical_formula_structural   Dy16Ga6NiOs
_chemical_formula_sum   'Dy16 Ga6 Ni1 Os1'
_cell_volume   612.98791907
_cell_formula_units_Z   1
loop_
 _symmetry_equiv_pos_site_id
 _symmetry_equiv_pos_as_xyz
  1  'x, y, z'
loop_
 _atom_site_type_symbol
 _atom_site_label
 _atom_site_symmetry_multiplicity
 _atom_site_fract_x
 _atom_site_fract_y
 _atom_site_fract_z
 _atom_site_occupancy
  Dy  Dy0  1  0.172633  0.827449  0.510492  1
  Dy  Dy1  1  0.654809  0.827440  0.510734  1
  Dy  Dy2  1  0.172553  0.345135  0.510653  1
  Dy  Dy3  1  0.829785  0.170239  0.011437  1
  Dy  Dy4  1  0.340536  0.170284  0.011625  1
  Dy  Dy5  1  0.829808  0.659591  0.011467  1
  Dy  Dy6  1  0.333294  0.666641  0.828383  1
  Dy  Dy7  1  0.666724  0.333385  0.340279  1
  Dy  Dy8  1  0.465472  0.534596  0.203926  1
  Dy  Dy9  1  0.069039  0.534512  0.203858  1
  Dy  Dy10  1  0.465514  0.930871  0.203851  1
  Dy  Dy11  1  0.536023  0.464026  0.707222  1
  Dy  Dy12  1  0.928068  0.464074  0.707186  1
  Dy  Dy13  1  0.535982  0.072039  0.707235  1
  Dy  Dy14  1  0.999984  0.000041  0.237900  1
  Dy  Dy15  1  0.000135  0.000054  0.729982  1
  Ga  Ga16  1  0.165274  0.834858  0.956473  1
  Ga  Ga17  1  0.669580  0.834800  0.956462  1
  Ga  Ga18  1  0.165229  0.330413  0.956625  1
  Ga  Ga19  1  0.837777  0.162287  0.458288  1
  Ga  Ga20  1  0.324535  0.162329  0.458333  1
  Ga  Ga21  1  0.837799  0.675606  0.458318  1
  Ni  Ni22  1  0.332725  0.665963  0.444292  1
  Os  Os23  1  0.666721  0.333366  0.949821  1
