# generated using pymatgen
data_Ca2Y3ZnPb3
_symmetry_space_group_name_H-M   'P 1'
_cell_length_a   9.27644900
_cell_length_b   9.27644982
_cell_length_c   6.90190100
_cell_angle_alpha   90.00000000
_cell_angle_beta   90.00000000
_cell_angle_gamma   120.00001489
_symmetry_Int_Tables_number   1
_chemical_formula_structural   Ca2Y3ZnPb3
_chemical_formula_sum   'Ca4 Y6 Zn2 Pb6'
_cell_volume   514.35486650
_cell_formula_units_Z   2
loop_
 _symmetry_equiv_pos_site_id
 _symmetry_equiv_pos_as_xyz
  1  'x, y, z'
loop_
 _atom_site_type_symbol
 _atom_site_label
 _atom_site_symmetry_multiplicity
 _atom_site_fract_x
 _atom_site_fract_y
 _atom_site_fract_z
 _atom_site_occupancy
  Ca  Ca0  1  0.333333  0.666667  0.000000  1
  Ca  Ca1  1  0.666667  0.333333  0.000000  1
  Ca  Ca2  1  0.666667  0.333333  0.500000  1
  Ca  Ca3  1  0.333333  0.666667  0.500000  1
  Y  Y4  1  0.262018  0.000000  0.250000  1
  Y  Y5  1  0.737982  0.000000  0.750000  1
  Y  Y6  1  0.000000  0.262018  0.250000  1
  Y  Y7  1  0.000000  0.737982  0.750000  1
  Y  Y8  1  0.737982  0.737982  0.250000  1
  Y  Y9  1  0.262018  0.262018  0.750000  1
  Zn  Zn10  1  0.000000  0.000000  0.000000  1
  Zn  Zn11  1  0.000000  0.000000  0.500000  1
  Pb  Pb12  1  0.618015  0.000000  0.250000  1
  Pb  Pb13  1  0.381985  0.000000  0.750000  1
  Pb  Pb14  1  0.000000  0.618015  0.250000  1
  Pb  Pb15  1  0.000000  0.381985  0.750000  1
  Pb  Pb16  1  0.381985  0.381985  0.250000  1
  Pb  Pb17  1  0.618015  0.618015  0.750000  1
