# generated using pymatgen
data_Na20TaAl2VAs12
_symmetry_space_group_name_H-M   'P 1'
_cell_length_a   7.51025736
_cell_length_b   8.34087274
_cell_length_c   15.83993318
_cell_angle_alpha   59.08223607
_cell_angle_beta   89.98030089
_cell_angle_gamma   89.93838202
_symmetry_Int_Tables_number   1
_chemical_formula_structural   Na20TaAl2VAs12
_chemical_formula_sum   'Na20 Ta1 Al2 V1 As12'
_cell_volume   851.25352242
_cell_formula_units_Z   1
loop_
 _symmetry_equiv_pos_site_id
 _symmetry_equiv_pos_as_xyz
  1  'x, y, z'
loop_
 _atom_site_type_symbol
 _atom_site_label
 _atom_site_symmetry_multiplicity
 _atom_site_fract_x
 _atom_site_fract_y
 _atom_site_fract_z
 _atom_site_occupancy
  Na  Na0  1  0.737976  0.941778  0.245351  1
  Na  Na1  1  0.260860  0.941285  0.746851  1
  Na  Na2  1  0.771464  0.054269  0.760113  1
  Na  Na3  1  0.230178  0.053940  0.257210  1
  Na  Na4  1  0.264868  0.245565  0.419194  1
  Na  Na5  1  0.733577  0.243525  0.920536  1
  Na  Na6  1  0.218259  0.751812  0.579392  1
  Na  Na7  1  0.781615  0.756246  0.078970  1
  Na  Na8  1  0.089191  0.346488  0.583089  1
  Na  Na9  1  0.910723  0.344860  0.082917  1
  Na  Na10  1  0.405492  0.654816  0.417903  1
  Na  Na11  1  0.592758  0.653369  0.920395  1
  Na  Na12  1  0.594102  0.337500  0.241628  1
  Na  Na13  1  0.404460  0.333798  0.744102  1
  Na  Na14  1  0.908329  0.663879  0.760228  1
  Na  Na15  1  0.092577  0.665871  0.258975  1
  Na  Na16  1  0.771615  0.420784  0.408352  1
  Na  Na17  1  0.230210  0.415476  0.910315  1
  Na  Na18  1  0.740156  0.581645  0.588852  1
  Na  Na19  1  0.260018  0.585422  0.088506  1
  Ta  Ta20  1  0.614852  0.989186  0.578364  1
  Al  Al21  1  0.889070  0.013333  0.415854  1
  Al  Al22  1  0.112700  0.013039  0.917336  1
  V  V23  1  0.384299  0.989176  0.078006  1
  As  As24  1  0.982152  0.318311  0.271282  1
  As  As25  1  0.017104  0.317406  0.771983  1
  As  As26  1  0.518300  0.690795  0.726084  1
  As  As27  1  0.477883  0.702283  0.219945  1
  As  As28  1  0.947970  0.021223  0.573459  1
  As  As29  1  0.063176  0.020951  0.073880  1
  As  As30  1  0.542656  0.978819  0.426976  1
  As  As31  1  0.454745  0.978052  0.932640  1
  As  As32  1  0.003694  0.725907  0.421328  1
  As  As33  1  0.996330  0.726212  0.921687  1
  As  As34  1  0.490402  0.267327  0.579033  1
  As  As35  1  0.506241  0.255657  0.079271  1
