# generated using pymatgen
data_Pr2Nd5ThSe12
_symmetry_space_group_name_H-M   'P 1'
_cell_length_a   11.51026458
_cell_length_b   4.17080100
_cell_length_c   11.25684016
_cell_angle_alpha   90.00000000
_cell_angle_beta   89.78004336
_cell_angle_gamma   90.00000000
_symmetry_Int_Tables_number   1
_chemical_formula_structural   Pr2Nd5ThSe12
_chemical_formula_sum   'Pr2 Nd5 Th1 Se12'
_cell_volume   540.40340239
_cell_formula_units_Z   1
loop_
 _symmetry_equiv_pos_site_id
 _symmetry_equiv_pos_as_xyz
  1  'x, y, z'
loop_
 _atom_site_type_symbol
 _atom_site_label
 _atom_site_symmetry_multiplicity
 _atom_site_fract_x
 _atom_site_fract_y
 _atom_site_fract_z
 _atom_site_occupancy
  Pr  Pr0  1  0.308159  0.250000  0.509565  1
  Pr  Pr1  1  0.804585  0.250000  0.001915  1
  Nd  Nd2  1  0.487357  0.250000  0.188492  1
  Nd  Nd3  1  0.987358  0.250000  0.315985  1
  Nd  Nd4  1  0.516205  0.750000  0.810491  1
  Nd  Nd5  1  0.009755  0.750000  0.684528  1
  Nd  Nd6  1  0.692741  0.750000  0.493834  1
  Th  Th7  1  0.193149  0.750000  0.995748  1
  Se  Se8  1  0.548290  0.250000  0.625950  1
  Se  Se9  1  0.047722  0.250000  0.874540  1
  Se  Se10  1  0.452082  0.750000  0.373893  1
  Se  Se11  1  0.959825  0.750000  0.126098  1
  Se  Se12  1  0.616823  0.750000  0.054058  1
  Se  Se13  1  0.122913  0.750000  0.445209  1
  Se  Se14  1  0.379464  0.250000  0.944830  1
  Se  Se15  1  0.876382  0.250000  0.555381  1
  Se  Se16  1  0.729299  0.250000  0.296691  1
  Se  Se17  1  0.223256  0.250000  0.189550  1
  Se  Se18  1  0.269232  0.750000  0.709056  1
  Se  Se19  1  0.775406  0.750000  0.804186  1
