# generated using pymatgen
data_Dy10Al3ZnRu6
_symmetry_space_group_name_H-M   'P 1'
_cell_length_a   8.35030509
_cell_length_b   8.34990493
_cell_length_c   8.29825901
_cell_angle_alpha   109.34145381
_cell_angle_beta   109.34784141
_cell_angle_gamma   109.59574786
_symmetry_Int_Tables_number   1
_chemical_formula_structural   Dy10Al3ZnRu6
_chemical_formula_sum   'Dy10 Al3 Zn1 Ru6'
_cell_volume   446.10217323
_cell_formula_units_Z   1
loop_
 _symmetry_equiv_pos_site_id
 _symmetry_equiv_pos_as_xyz
  1  'x, y, z'
loop_
 _atom_site_type_symbol
 _atom_site_label
 _atom_site_symmetry_multiplicity
 _atom_site_fract_x
 _atom_site_fract_y
 _atom_site_fract_z
 _atom_site_occupancy
  Dy  Dy0  1  0.250508  0.681347  0.433382  1
  Dy  Dy1  1  0.748974  0.818665  0.066471  1
  Dy  Dy2  1  0.430812  0.249467  0.682884  1
  Dy  Dy3  1  0.681342  0.430299  0.247802  1
  Dy  Dy4  1  0.069686  0.751042  0.817501  1
  Dy  Dy5  1  0.818667  0.069169  0.752066  1
  Dy  Dy6  1  0.215526  0.215871  0.215603  1
  Dy  Dy7  1  0.499977  0.999988  0.282613  1
  Dy  Dy8  1  0.284127  0.499664  0.999703  1
  Dy  Dy9  1  0.000331  0.284476  0.500024  1
  Al  Al10  1  0.590412  0.587944  0.588799  1
  Al  Al11  1  0.912075  0.502467  0.000847  1
  Al  Al12  1  0.997542  0.909598  0.498336  1
  Zn  Zn13  1  0.500010  0.000002  0.914479  1
  Ru  Ru14  1  0.242672  0.124004  0.870606  1
  Ru  Ru15  1  0.749569  0.376857  0.626944  1
  Ru  Ru16  1  0.881361  0.257375  0.127918  1
  Ru  Ru17  1  0.123144  0.872713  0.250072  1
  Ru  Ru18  1  0.627284  0.750409  0.377380  1
  Ru  Ru19  1  0.375983  0.618643  0.746571  1
