# generated using pymatgen
data_Li3Er4ScPt4
_symmetry_space_group_name_H-M   'P 1'
_cell_length_a   4.02836500
_cell_length_b   7.05429061
_cell_length_c   8.57498043
_cell_angle_alpha   88.49133721
_cell_angle_beta   90.00000000
_cell_angle_gamma   90.00000000
_symmetry_Int_Tables_number   1
_chemical_formula_structural   Li3Er4ScPt4
_chemical_formula_sum   'Li3 Er4 Sc1 Pt4'
_cell_volume   243.59295648
_cell_formula_units_Z   1
loop_
 _symmetry_equiv_pos_site_id
 _symmetry_equiv_pos_as_xyz
  1  'x, y, z'
loop_
 _atom_site_type_symbol
 _atom_site_label
 _atom_site_symmetry_multiplicity
 _atom_site_fract_x
 _atom_site_fract_y
 _atom_site_fract_z
 _atom_site_occupancy
  Li  Li0  1  0.250000  0.125692  0.945299  1
  Li  Li1  1  0.750000  0.358507  0.431124  1
  Li  Li2  1  0.750000  0.871419  0.057748  1
  Er  Er3  1  0.250000  0.051974  0.319561  1
  Er  Er4  1  0.250000  0.540536  0.172958  1
  Er  Er5  1  0.750000  0.971690  0.689041  1
  Er  Er6  1  0.750000  0.447546  0.832290  1
  Sc  Sc7  1  0.250000  0.626449  0.555975  1
  Pt  Pt8  1  0.250000  0.253215  0.624679  1
  Pt  Pt9  1  0.250000  0.741807  0.865771  1
  Pt  Pt10  1  0.750000  0.759266  0.379772  1
  Pt  Pt11  1  0.750000  0.251898  0.125784  1
