# generated using pymatgen
data_Tb20Si15Au
_symmetry_space_group_name_H-M   'P 1'
_cell_length_a   7.49435676
_cell_length_b   7.73801829
_cell_length_c   14.72575126
_cell_angle_alpha   90.12757186
_cell_angle_beta   90.46074579
_cell_angle_gamma   90.18828946
_symmetry_Int_Tables_number   1
_chemical_formula_structural   Tb20Si15Au
_chemical_formula_sum   'Tb20 Si15 Au1'
_cell_volume   853.93356827
_cell_formula_units_Z   1
loop_
 _symmetry_equiv_pos_site_id
 _symmetry_equiv_pos_as_xyz
  1  'x, y, z'
loop_
 _atom_site_type_symbol
 _atom_site_label
 _atom_site_symmetry_multiplicity
 _atom_site_fract_x
 _atom_site_fract_y
 _atom_site_fract_z
 _atom_site_occupancy
  Tb  Tb0  1  0.679061  0.175364  0.622735  1
  Tb  Tb1  1  0.181466  0.320773  0.877358  1
  Tb  Tb2  1  0.319465  0.818887  0.121967  1
  Tb  Tb3  1  0.823814  0.677295  0.377333  1
  Tb  Tb4  1  0.319818  0.823432  0.377817  1
  Tb  Tb5  1  0.819085  0.679637  0.122545  1
  Tb  Tb6  1  0.679991  0.180513  0.877498  1
  Tb  Tb7  1  0.177314  0.320941  0.623147  1
  Tb  Tb8  1  0.525367  0.679812  0.600355  1
  Tb  Tb9  1  0.028562  0.816184  0.901439  1
  Tb  Tb10  1  0.470194  0.316870  0.099109  1
  Tb  Tb11  1  0.976508  0.182904  0.399439  1
  Tb  Tb12  1  0.470115  0.321093  0.399776  1
  Tb  Tb13  1  0.970364  0.183854  0.098857  1
  Tb  Tb14  1  0.530379  0.683525  0.900486  1
  Tb  Tb15  1  0.026220  0.817411  0.600323  1
  Tb  Tb16  1  0.850756  0.510123  0.749816  1
  Tb  Tb17  1  0.349191  0.987547  0.748516  1
  Tb  Tb18  1  0.150651  0.487487  0.250401  1
  Tb  Tb19  1  0.652607  0.011671  0.251308  1
  Si  Si20  1  0.145335  0.528152  0.040008  1
  Si  Si21  1  0.353801  0.029298  0.960478  1
  Si  Si22  1  0.851777  0.472388  0.541479  1
  Si  Si23  1  0.341911  0.028068  0.542331  1
  Si  Si24  1  0.854819  0.471563  0.959796  1
  Si  Si25  1  0.644732  0.970798  0.039183  1
  Si  Si26  1  0.147758  0.530436  0.461091  1
  Si  Si27  1  0.476420  0.395992  0.750067  1
  Si  Si28  1  0.974849  0.103566  0.751619  1
  Si  Si29  1  0.524394  0.605870  0.248587  1
  Si  Si30  1  0.026485  0.895901  0.247732  1
  Si  Si31  1  0.734439  0.873114  0.751681  1
  Si  Si32  1  0.233738  0.625346  0.751007  1
  Si  Si33  1  0.267891  0.125129  0.247513  1
  Si  Si34  1  0.766041  0.375392  0.248836  1
  Au  Au35  1  0.654680  0.973665  0.458366  1
