# generated using pymatgen
data_MgNb3Zn2(Co5B2)2
_symmetry_space_group_name_H-M   'P 1'
_cell_length_a   8.67557203
_cell_length_b   8.67557212
_cell_length_c   2.94470700
_cell_angle_alpha   90.00000000
_cell_angle_beta   90.00000000
_cell_angle_gamma   90.25575827
_symmetry_Int_Tables_number   1
_chemical_formula_structural   MgNb3Zn2(Co5B2)2
_chemical_formula_sum   'Mg1 Nb3 Zn2 Co10 B4'
_cell_volume   221.63278639
_cell_formula_units_Z   1
loop_
 _symmetry_equiv_pos_site_id
 _symmetry_equiv_pos_as_xyz
  1  'x, y, z'
loop_
 _atom_site_type_symbol
 _atom_site_label
 _atom_site_symmetry_multiplicity
 _atom_site_fract_x
 _atom_site_fract_y
 _atom_site_fract_z
 _atom_site_occupancy
  Mg  Mg0  1  0.677801  0.177801  0.000000  1
  Nb  Nb1  1  0.324838  0.824838  0.000000  1
  Nb  Nb2  1  0.176005  0.321562  0.000000  1
  Nb  Nb3  1  0.821562  0.676005  0.000000  1
  Zn  Zn4  1  0.000221  0.999703  0.000000  1
  Zn  Zn5  1  0.499703  0.500221  0.000000  1
  Co  Co6  1  0.500304  0.000304  0.500000  1
  Co  Co7  1  0.000534  0.500534  0.500000  1
  Co  Co8  1  0.222254  0.066877  0.500000  1
  Co  Co9  1  0.779441  0.924253  0.500000  1
  Co  Co10  1  0.068835  0.777361  0.500000  1
  Co  Co11  1  0.724439  0.436856  0.500000  1
  Co  Co12  1  0.936856  0.224439  0.500000  1
  Co  Co13  1  0.277361  0.568835  0.500000  1
  Co  Co14  1  0.566877  0.722254  0.500000  1
  Co  Co15  1  0.424253  0.279441  0.500000  1
  B  B16  1  0.121390  0.621390  0.000000  1
  B  B17  1  0.878367  0.378367  0.000000  1
  B  B18  1  0.620122  0.878836  0.000000  1
  B  B19  1  0.378836  0.120122  0.000000  1
