# generated using pymatgen
data_Pr2Mn17BeSi8
_symmetry_space_group_name_H-M   'P 1'
_cell_length_a   8.03711296
_cell_length_b   8.03711262
_cell_length_c   8.05331845
_cell_angle_alpha   121.29586433
_cell_angle_beta   121.29586211
_cell_angle_gamma   87.64965805
_symmetry_Int_Tables_number   1
_chemical_formula_structural   Pr2Mn17BeSi8
_chemical_formula_sum   'Pr2 Mn17 Be1 Si8'
_cell_volume   360.70094536
_cell_formula_units_Z   1
loop_
 _symmetry_equiv_pos_site_id
 _symmetry_equiv_pos_as_xyz
  1  'x, y, z'
loop_
 _atom_site_type_symbol
 _atom_site_label
 _atom_site_symmetry_multiplicity
 _atom_site_fract_x
 _atom_site_fract_y
 _atom_site_fract_z
 _atom_site_occupancy
  Pr  Pr0  1  0.250000  0.250000  0.000000  1
  Pr  Pr1  1  0.750000  0.750000  0.000000  1
  Mn  Mn2  1  0.692254  0.557157  0.249412  1
  Mn  Mn3  1  0.445809  0.945809  0.728032  1
  Mn  Mn4  1  0.704524  0.441288  0.500000  1
  Mn  Mn5  1  0.058712  0.795476  0.500000  1
  Mn  Mn6  1  0.195130  0.939588  0.134719  1
  Mn  Mn7  1  0.554191  0.054191  0.271968  1
  Mn  Mn8  1  0.307746  0.442843  0.750588  1
  Mn  Mn9  1  0.782224  0.282224  0.728032  1
  Mn  Mn10  1  0.942843  0.807746  0.750588  1
  Mn  Mn11  1  0.941288  0.204524  0.500000  1
  Mn  Mn12  1  0.057157  0.192254  0.249412  1
  Mn  Mn13  1  0.804870  0.060412  0.865281  1
  Mn  Mn14  1  0.560412  0.304870  0.865281  1
  Mn  Mn15  1  0.000000  0.500000  0.500000  1
  Mn  Mn16  1  0.217776  0.717776  0.271968  1
  Mn  Mn17  1  0.295476  0.558712  0.500000  1
  Mn  Mn18  1  0.439588  0.695130  0.134719  1
  Be  Be19  1  0.500000  0.000000  0.500000  1
  Si  Si20  1  0.443205  0.298492  0.500000  1
  Si  Si21  1  0.201508  0.056795  0.500000  1
  Si  Si22  1  0.048297  0.548297  0.850824  1
  Si  Si23  1  0.697473  0.197473  0.149176  1
  Si  Si24  1  0.798492  0.943205  0.500000  1
  Si  Si25  1  0.302527  0.802527  0.850824  1
  Si  Si26  1  0.556795  0.701508  0.500000  1
  Si  Si27  1  0.951703  0.451703  0.149176  1
