# generated using pymatgen
data_U3Tl2(AgSe4)2
_symmetry_space_group_name_H-M   'P 1'
_cell_length_a   4.23840178
_cell_length_b   8.24757396
_cell_length_c   14.64520700
_cell_angle_alpha   94.26069133
_cell_angle_beta   98.19178178
_cell_angle_gamma   104.94385563
_symmetry_Int_Tables_number   1
_chemical_formula_structural   U3Tl2(AgSe4)2
_chemical_formula_sum   'U3 Tl2 Ag2 Se8'
_cell_volume   486.27289538
_cell_formula_units_Z   1
loop_
 _symmetry_equiv_pos_site_id
 _symmetry_equiv_pos_as_xyz
  1  'x, y, z'
loop_
 _atom_site_type_symbol
 _atom_site_label
 _atom_site_symmetry_multiplicity
 _atom_site_fract_x
 _atom_site_fract_y
 _atom_site_fract_z
 _atom_site_occupancy
  U  U0  1  0.500000  0.000000  0.000000  1
  U  U1  1  0.717906  0.063134  0.377988  1
  U  U2  1  0.282093  0.936866  0.622011  1
  Tl  Tl3  1  0.870533  0.537814  0.203543  1
  Tl  Tl4  1  0.129467  0.462186  0.796456  1
  Ag  Ag5  1  0.144618  0.095699  0.192389  1
  Ag  Ag6  1  0.855381  0.904302  0.807610  1
  Se  Se7  1  0.139975  0.239559  0.039071  1
  Se  Se8  1  0.537274  0.887537  0.187541  1
  Se  Se9  1  0.320388  0.293659  0.349604  1
  Se  Se10  1  0.130763  0.843000  0.423184  1
  Se  Se11  1  0.869237  0.157001  0.576815  1
  Se  Se12  1  0.679613  0.706342  0.650397  1
  Se  Se13  1  0.462726  0.112463  0.812459  1
  Se  Se14  1  0.860024  0.760440  0.960928  1
