# generated using pymatgen
data_Ta4Ti7B12Ru12W
_symmetry_space_group_name_H-M   'P 1'
_cell_length_a   3.08721800
_cell_length_b   8.92614794
_cell_length_c   15.43806326
_cell_angle_alpha   89.93571483
_cell_angle_beta   90.00000000
_cell_angle_gamma   90.00000000
_symmetry_Int_Tables_number   1
_chemical_formula_structural   Ta4Ti7B12Ru12W
_chemical_formula_sum   'Ta4 Ti7 B12 Ru12 W1'
_cell_volume   425.42589479
_cell_formula_units_Z   1
loop_
 _symmetry_equiv_pos_site_id
 _symmetry_equiv_pos_as_xyz
  1  'x, y, z'
loop_
 _atom_site_type_symbol
 _atom_site_label
 _atom_site_symmetry_multiplicity
 _atom_site_fract_x
 _atom_site_fract_y
 _atom_site_fract_z
 _atom_site_occupancy
  Ta  Ta0  1  0.000000  0.685742  0.206082  1
  Ta  Ta1  1  0.000000  0.315598  0.794720  1
  Ta  Ta2  1  0.000000  0.186095  0.297722  1
  Ta  Ta3  1  0.000000  0.815763  0.703752  1
  Ti  Ti4  1  0.000000  0.799808  0.495731  1
  Ti  Ti5  1  0.000000  0.200121  0.505820  1
  Ti  Ti6  1  0.000000  0.300875  0.005355  1
  Ti  Ti7  1  0.000000  0.697072  0.993325  1
  Ti  Ti8  1  0.000000  0.513497  0.594890  1
  Ti  Ti9  1  0.000000  0.486239  0.405980  1
  Ti  Ti10  1  0.000000  0.014023  0.904296  1
  B  B11  1  0.500000  0.603405  0.496747  1
  B  B12  1  0.500000  0.396842  0.503709  1
  B  B13  1  0.500000  0.103557  0.002711  1
  B  B14  1  0.500000  0.894581  0.994314  1
  B  B15  1  0.000000  0.609985  0.833468  1
  B  B16  1  0.000000  0.393883  0.167014  1
  B  B17  1  0.000000  0.110159  0.665600  1
  B  B18  1  0.000000  0.889735  0.337220  1
  B  B19  1  0.500000  0.711050  0.598437  1
  B  B20  1  0.500000  0.289030  0.402589  1
  B  B21  1  0.500000  0.211489  0.901349  1
  B  B22  1  0.500000  0.786737  0.097872  1
  Ru  Ru23  1  0.500000  0.718525  0.358781  1
  Ru  Ru24  1  0.500000  0.282218  0.641014  1
  Ru  Ru25  1  0.500000  0.217836  0.141801  1
  Ru  Ru26  1  0.500000  0.782358  0.858601  1
  Ru  Ru27  1  0.500000  0.519948  0.094552  1
  Ru  Ru28  1  0.500000  0.479676  0.905821  1
  Ru  Ru29  1  0.500000  0.020008  0.406344  1
  Ru  Ru30  1  0.500000  0.980193  0.594060  1
  Ru  Ru31  1  0.500000  0.566336  0.732105  1
  Ru  Ru32  1  0.500000  0.434270  0.267909  1
  Ru  Ru33  1  0.500000  0.066474  0.767805  1
  Ru  Ru34  1  0.500000  0.935595  0.232647  1
  W  W35  1  0.000000  0.981282  0.089856  1
