# generated using pymatgen
data_Ti8Al15Ir4Os3
_symmetry_space_group_name_H-M   'P 1'
_cell_length_a   8.65652017
_cell_length_b   8.66877596
_cell_length_c   8.65651900
_cell_angle_alpha   120.10266456
_cell_angle_beta   119.78577502
_cell_angle_gamma   90.05609983
_symmetry_Int_Tables_number   1
_chemical_formula_structural   Ti8Al15Ir4Os3
_chemical_formula_sum   'Ti8 Al15 Ir4 Os3'
_cell_volume   459.88058023
_cell_formula_units_Z   1
loop_
 _symmetry_equiv_pos_site_id
 _symmetry_equiv_pos_as_xyz
  1  'x, y, z'
loop_
 _atom_site_type_symbol
 _atom_site_label
 _atom_site_symmetry_multiplicity
 _atom_site_fract_x
 _atom_site_fract_y
 _atom_site_fract_z
 _atom_site_occupancy
  Ti  Ti0  1  0.782672  0.287055  0.069548  1
  Ti  Ti1  1  0.217508  0.287055  0.504384  1
  Ti  Ti2  1  0.210220  0.719167  0.508947  1
  Ti  Ti3  1  0.223752  0.722720  0.929335  1
  Ti  Ti4  1  0.793385  0.722720  0.498968  1
  Ti  Ti5  1  0.779710  0.270712  0.491002  1
  Ti  Ti6  1  0.377639  0.123060  0.745421  1
  Ti  Ti7  1  0.380077  0.635189  0.255112  1
  Al  Al8  1  0.996103  0.495306  0.499204  1
  Al  Al9  1  0.151676  0.347632  0.195955  1
  Al  Al10  1  0.156369  0.972695  0.816325  1
  Al  Al11  1  0.150846  0.346852  0.806225  1
  Al  Al12  1  0.540626  0.346852  0.196007  1
  Al  Al13  1  0.848331  0.648570  0.800238  1
  Al  Al14  1  0.845796  0.035405  0.189609  1
  Al  Al15  1  0.843384  0.653908  0.185790  1
  Al  Al16  1  0.468118  0.653908  0.810524  1
  Al  Al17  1  0.379195  0.123001  0.259609  1
  Al  Al18  1  0.863393  0.123001  0.743807  1
  Al  Al19  1  0.620921  0.874189  0.253267  1
  Al  Al20  1  0.620949  0.364406  0.743456  1
  Al  Al21  1  0.619843  0.877323  0.741679  1
  Al  Al22  1  0.135644  0.877323  0.257481  1
  Ir  Ir23  1  0.498591  0.499551  0.498792  1
  Ir  Ir24  1  0.000758  0.499551  0.000960  1
  Ir  Ir25  1  0.999376  0.998878  0.999503  1
  Ir  Ir26  1  0.499531  0.998888  0.499357  1
  Os  Os27  1  0.999768  0.998895  0.500788  1
  Os  Os28  1  0.498106  0.998895  0.999126  1
  Os  Os29  1  0.497709  0.497286  0.999578  1
