# generated using pymatgen
data_Li4Ac2GdSn4
_symmetry_space_group_name_H-M   'P 1'
_cell_length_a   4.78784871
_cell_length_b   7.16634217
_cell_length_c   8.93725000
_cell_angle_alpha   113.63604595
_cell_angle_beta   105.53693722
_cell_angle_gamma   89.99999724
_symmetry_Int_Tables_number   1
_chemical_formula_structural   Li4Ac2GdSn4
_chemical_formula_sum   'Li4 Ac2 Gd1 Sn4'
_cell_volume   268.64817900
_cell_formula_units_Z   1
loop_
 _symmetry_equiv_pos_site_id
 _symmetry_equiv_pos_as_xyz
  1  'x, y, z'
loop_
 _atom_site_type_symbol
 _atom_site_label
 _atom_site_symmetry_multiplicity
 _atom_site_fract_x
 _atom_site_fract_y
 _atom_site_fract_z
 _atom_site_occupancy
  Li  Li0  1  0.670884  0.982502  0.341769  1
  Li  Li1  1  0.329116  0.017498  0.658231  1
  Li  Li2  1  0.329116  0.640735  0.658231  1
  Li  Li3  1  0.670884  0.359265  0.341769  1
  Ac  Ac4  1  0.132689  0.632689  0.265377  1
  Ac  Ac5  1  0.867311  0.367311  0.734623  1
  Gd  Gd6  1  0.000000  0.000000  0.000000  1
  Sn  Sn7  1  0.500000  0.706174  0.000000  1
  Sn  Sn8  1  0.500000  0.293826  0.000000  1
  Sn  Sn9  1  0.792281  0.792281  0.584561  1
  Sn  Sn10  1  0.207719  0.207719  0.415439  1
