# generated using pymatgen
data_Ho16In6CoAu
_symmetry_space_group_name_H-M   'P 1'
_cell_length_a   10.46326900
_cell_length_b   10.46326946
_cell_length_c   6.93514300
_cell_angle_alpha   90.00000000
_cell_angle_beta   90.00000000
_cell_angle_gamma   120.00000172
_symmetry_Int_Tables_number   1
_chemical_formula_structural   Ho16In6CoAu
_chemical_formula_sum   'Ho16 In6 Co1 Au1'
_cell_volume   657.53798300
_cell_formula_units_Z   1
loop_
 _symmetry_equiv_pos_site_id
 _symmetry_equiv_pos_as_xyz
  1  'x, y, z'
loop_
 _atom_site_type_symbol
 _atom_site_label
 _atom_site_symmetry_multiplicity
 _atom_site_fract_x
 _atom_site_fract_y
 _atom_site_fract_z
 _atom_site_occupancy
  Ho  Ho0  1  0.526462  0.052923  0.511294  1
  Ho  Ho1  1  0.947077  0.473538  0.511294  1
  Ho  Ho2  1  0.526462  0.473538  0.511294  1
  Ho  Ho3  1  0.464807  0.929614  0.006725  1
  Ho  Ho4  1  0.070386  0.535193  0.006725  1
  Ho  Ho5  1  0.464807  0.535193  0.006725  1
  Ho  Ho6  1  0.177699  0.355397  0.717120  1
  Ho  Ho7  1  0.644603  0.822301  0.717120  1
  Ho  Ho8  1  0.177699  0.822301  0.717120  1
  Ho  Ho9  1  0.826952  0.653905  0.214818  1
  Ho  Ho10  1  0.346095  0.173048  0.214818  1
  Ho  Ho11  1  0.826952  0.173048  0.214818  1
  Ho  Ho12  1  0.666667  0.333333  0.870915  1
  Ho  Ho13  1  0.333333  0.666667  0.397689  1
  Ho  Ho14  1  0.000000  0.000000  0.490460  1
  Ho  Ho15  1  0.000000  0.000000  0.990125  1
  In  In16  1  0.837308  0.674616  0.747637  1
  In  In17  1  0.325384  0.162692  0.747637  1
  In  In18  1  0.837308  0.162692  0.747637  1
  In  In19  1  0.163106  0.326211  0.250991  1
  In  In20  1  0.673789  0.836894  0.250991  1
  In  In21  1  0.163106  0.836894  0.250991  1
  Co  Co22  1  0.333333  0.666667  0.782519  1
  Au  Au23  1  0.666667  0.333333  0.280579  1
