# generated using pymatgen
data_AcB2Ir2N
_symmetry_space_group_name_H-M   'P 1'
_cell_length_a   3.97354351
_cell_length_b   3.97354312
_cell_length_c   5.88720700
_cell_angle_alpha   109.72298222
_cell_angle_beta   109.72296489
_cell_angle_gamma   89.99999005
_symmetry_Int_Tables_number   1
_chemical_formula_structural   AcB2Ir2N
_chemical_formula_sum   'Ac1 B2 Ir2 N1'
_cell_volume   81.68399261
_cell_formula_units_Z   1
loop_
 _symmetry_equiv_pos_site_id
 _symmetry_equiv_pos_as_xyz
  1  'x, y, z'
loop_
 _atom_site_type_symbol
 _atom_site_label
 _atom_site_symmetry_multiplicity
 _atom_site_fract_x
 _atom_site_fract_y
 _atom_site_fract_z
 _atom_site_occupancy
  Ac  Ac0  1  0.500000  0.500000  0.000000  1
  B  B1  1  0.145525  0.145525  0.291049  1
  B  B2  1  0.854475  0.854475  0.708951  1
  Ir  Ir3  1  0.750000  0.250000  0.500000  1
  Ir  Ir4  1  0.250000  0.750000  0.500000  1
  N  N5  1  0.000000  0.000000  0.000000  1
