# generated using pymatgen
data_TbEr3(CoOs)4
_symmetry_space_group_name_H-M   'P 1'
_cell_length_a   5.20972737
_cell_length_b   5.08085620
_cell_length_c   9.04360070
_cell_angle_alpha   73.68554471
_cell_angle_beta   89.80294098
_cell_angle_gamma   119.18502043
_symmetry_Int_Tables_number   1
_chemical_formula_structural   TbEr3(CoOs)4
_chemical_formula_sum   'Tb1 Er3 Co4 Os4'
_cell_volume   197.74132204
_cell_formula_units_Z   1
loop_
 _symmetry_equiv_pos_site_id
 _symmetry_equiv_pos_as_xyz
  1  'x, y, z'
loop_
 _atom_site_type_symbol
 _atom_site_label
 _atom_site_symmetry_multiplicity
 _atom_site_fract_x
 _atom_site_fract_y
 _atom_site_fract_z
 _atom_site_occupancy
  Tb  Tb0  1  0.877782  0.751900  0.373980  1
  Er  Er1  1  0.378785  0.752406  0.873973  1
  Er  Er2  1  0.996383  0.997701  0.000980  1
  Er  Er3  1  0.495809  0.997130  0.501548  1
  Co  Co4  1  0.187186  0.374860  0.437465  1
  Co  Co5  1  0.688391  0.375364  0.937662  1
  Co  Co6  1  0.937925  0.376130  0.185665  1
  Co  Co7  1  0.437073  0.374042  0.688989  1
  Os  Os8  1  0.437355  0.375758  0.186287  1
  Os  Os9  1  0.937978  0.374462  0.688581  1
  Os  Os10  1  0.437355  0.875311  0.186287  1
  Os  Os11  1  0.937978  0.874935  0.688581  1
