# generated using pymatgen
data_Th6RuRh2Au5
_symmetry_space_group_name_H-M   'P 1'
_cell_length_a   8.20915312
_cell_length_b   8.23674426
_cell_length_c   8.27975208
_cell_angle_alpha   114.52690237
_cell_angle_beta   113.93877781
_cell_angle_gamma   114.30597861
_symmetry_Int_Tables_number   1
_chemical_formula_structural   Th6RuRh2Au5
_chemical_formula_sum   'Th6 Ru1 Rh2 Au5'
_cell_volume   333.54475632
_cell_formula_units_Z   1
loop_
 _symmetry_equiv_pos_site_id
 _symmetry_equiv_pos_as_xyz
  1  'x, y, z'
loop_
 _atom_site_type_symbol
 _atom_site_label
 _atom_site_symmetry_multiplicity
 _atom_site_fract_x
 _atom_site_fract_y
 _atom_site_fract_z
 _atom_site_occupancy
  Th  Th0  1  0.059085  0.415633  0.303383  1
  Th  Th1  1  0.390955  0.267389  0.022265  1
  Th  Th2  1  0.712443  0.963231  0.624236  1
  Th  Th3  1  0.276278  0.036667  0.387469  1
  Th  Th4  1  0.604942  0.727705  0.948189  1
  Th  Th5  1  0.969963  0.614471  0.725612  1
  Ru  Ru6  1  0.011022  0.005916  0.005378  1
  Rh  Rh7  1  0.505947  0.500350  0.496668  1
  Rh  Rh8  1  0.411948  0.918442  0.760781  1
  Au  Au9  1  0.932136  0.768015  0.428371  1
  Au  Au10  1  0.231686  0.568157  0.065189  1
  Au  Au11  1  0.763070  0.422934  0.932883  1
  Au  Au12  1  0.058207  0.222104  0.568324  1
  Au  Au13  1  0.572316  0.068986  0.231252  1
