# generated using pymatgen
data_Y4Tm4Re3B24Os
_symmetry_space_group_name_H-M   'P 1'
_cell_length_a   3.65533200
_cell_length_b   9.13331531
_cell_length_c   11.52464102
_cell_angle_alpha   90.06891679
_cell_angle_beta   90.00000000
_cell_angle_gamma   90.00000000
_symmetry_Int_Tables_number   1
_chemical_formula_structural   Y4Tm4Re3B24Os
_chemical_formula_sum   'Y4 Tm4 Re3 B24 Os1'
_cell_volume   384.75331627
_cell_formula_units_Z   1
loop_
 _symmetry_equiv_pos_site_id
 _symmetry_equiv_pos_as_xyz
  1  'x, y, z'
loop_
 _atom_site_type_symbol
 _atom_site_label
 _atom_site_symmetry_multiplicity
 _atom_site_fract_x
 _atom_site_fract_y
 _atom_site_fract_z
 _atom_site_occupancy
  Y  Y0  1  0.000000  0.320978  0.414171  1
  Y  Y1  1  0.000000  0.678116  0.587554  1
  Y  Y2  1  0.000000  0.823724  0.084505  1
  Y  Y3  1  0.000000  0.177576  0.913584  1
  Tm  Tm4  1  0.000000  0.942426  0.370119  1
  Tm  Tm5  1  0.000000  0.056681  0.629289  1
  Tm  Tm6  1  0.000000  0.442616  0.129737  1
  Tm  Tm7  1  0.000000  0.557117  0.870929  1
  Re  Re8  1  0.000000  0.361980  0.678736  1
  Re  Re9  1  0.000000  0.138535  0.180254  1
  Re  Re10  1  0.000000  0.861523  0.820195  1
  B  B11  1  0.500000  0.553804  0.432600  1
  B  B12  1  0.500000  0.446999  0.567018  1
  B  B13  1  0.500000  0.053253  0.067097  1
  B  B14  1  0.500000  0.947018  0.932668  1
  B  B15  1  0.500000  0.749267  0.418218  1
  B  B16  1  0.500000  0.249873  0.581423  1
  B  B17  1  0.500000  0.249953  0.081574  1
  B  B18  1  0.500000  0.750585  0.918559  1
  B  B19  1  0.500000  0.791069  0.265604  1
  B  B20  1  0.500000  0.207999  0.734209  1
  B  B21  1  0.500000  0.291913  0.234790  1
  B  B22  1  0.500000  0.707869  0.765901  1
  B  B23  1  0.500000  0.630294  0.185563  1
  B  B24  1  0.500000  0.370387  0.814372  1
  B  B25  1  0.500000  0.129972  0.315165  1
  B  B26  1  0.500000  0.869853  0.685277  1
  B  B27  1  0.500000  0.981687  0.212419  1
  B  B28  1  0.500000  0.018423  0.787206  1
  B  B29  1  0.500000  0.482657  0.287678  1
  B  B30  1  0.500000  0.518747  0.712518  1
  B  B31  1  0.500000  0.600272  0.028416  1
  B  B32  1  0.500000  0.400084  0.972424  1
  B  B33  1  0.500000  0.099129  0.471990  1
  B  B34  1  0.500000  0.899249  0.527696  1
  Os  Os35  1  0.000000  0.638371  0.320538  1
