# generated using pymatgen
data_TbTh(AlNi4)2
_symmetry_space_group_name_H-M   'P 1'
_cell_length_a   4.04633300
_cell_length_b   4.93074440
_cell_length_c   8.67341489
_cell_angle_alpha   87.59561522
_cell_angle_beta   90.00000000
_cell_angle_gamma   90.00000000
_symmetry_Int_Tables_number   1
_chemical_formula_structural   TbTh(AlNi4)2
_chemical_formula_sum   'Tb1 Th1 Al2 Ni8'
_cell_volume   172.89471600
_cell_formula_units_Z   1
loop_
 _symmetry_equiv_pos_site_id
 _symmetry_equiv_pos_as_xyz
  1  'x, y, z'
loop_
 _atom_site_type_symbol
 _atom_site_label
 _atom_site_symmetry_multiplicity
 _atom_site_fract_x
 _atom_site_fract_y
 _atom_site_fract_z
 _atom_site_occupancy
  Tb  Tb0  1  0.000000  0.500000  0.500000  1
  Th  Th1  1  0.000000  0.000000  0.000000  1
  Al  Al2  1  0.500000  0.256935  0.254812  1
  Al  Al3  1  0.500000  0.743065  0.745188  1
  Ni  Ni4  1  0.000000  0.000696  0.334842  1
  Ni  Ni5  1  0.000000  0.497405  0.832999  1
  Ni  Ni6  1  0.000000  0.502595  0.167001  1
  Ni  Ni7  1  0.000000  0.999304  0.665158  1
  Ni  Ni8  1  0.500000  0.000000  0.500000  1
  Ni  Ni9  1  0.500000  0.500000  0.000000  1
  Ni  Ni10  1  0.500000  0.754475  0.250062  1
  Ni  Ni11  1  0.500000  0.245525  0.749938  1
