# generated using pymatgen
data_Ca4GaSi6Rh
_symmetry_space_group_name_H-M   'P 1'
_cell_length_a   8.19317900
_cell_length_b   8.19317862
_cell_length_c   4.36079200
_cell_angle_alpha   90.00000000
_cell_angle_beta   90.00000000
_cell_angle_gamma   119.99999750
_symmetry_Int_Tables_number   1
_chemical_formula_structural   Ca4GaSi6Rh
_chemical_formula_sum   'Ca4 Ga1 Si6 Rh1'
_cell_volume   253.51337736
_cell_formula_units_Z   1
loop_
 _symmetry_equiv_pos_site_id
 _symmetry_equiv_pos_as_xyz
  1  'x, y, z'
loop_
 _atom_site_type_symbol
 _atom_site_label
 _atom_site_symmetry_multiplicity
 _atom_site_fract_x
 _atom_site_fract_y
 _atom_site_fract_z
 _atom_site_occupancy
  Ca  Ca0  1  0.000000  0.000000  0.500000  1
  Ca  Ca1  1  0.011276  0.505638  0.500000  1
  Ca  Ca2  1  0.494362  0.505638  0.500000  1
  Ca  Ca3  1  0.494362  0.988724  0.500000  1
  Ga  Ga4  1  0.666667  0.333333  0.000000  1
  Si  Si5  1  0.317084  0.158543  0.000000  1
  Si  Si6  1  0.841457  0.158543  0.000000  1
  Si  Si7  1  0.841457  0.682916  0.000000  1
  Si  Si8  1  0.171461  0.342923  0.000000  1
  Si  Si9  1  0.171461  0.828539  0.000000  1
  Si  Si10  1  0.657077  0.828539  0.000000  1
  Rh  Rh11  1  0.333333  0.666667  0.000000  1
