# generated using pymatgen
data_Ba8Li3CdSi12
_symmetry_space_group_name_H-M   'P 1'
_cell_length_a   12.46369245
_cell_length_b   10.79950325
_cell_length_c   8.76712412
_cell_angle_alpha   78.37783161
_cell_angle_beta   58.03110062
_cell_angle_gamma   43.55031490
_symmetry_Int_Tables_number   1
_chemical_formula_structural   Ba8Li3CdSi12
_chemical_formula_sum   'Ba8 Li3 Cd1 Si12'
_cell_volume   655.34771287
_cell_formula_units_Z   1
loop_
 _symmetry_equiv_pos_site_id
 _symmetry_equiv_pos_as_xyz
  1  'x, y, z'
loop_
 _atom_site_type_symbol
 _atom_site_label
 _atom_site_symmetry_multiplicity
 _atom_site_fract_x
 _atom_site_fract_y
 _atom_site_fract_z
 _atom_site_occupancy
  Ba  Ba0  1  0.872925  0.874273  0.125317  1
  Ba  Ba1  1  0.125317  0.127484  0.872925  1
  Ba  Ba2  1  0.373331  0.369253  0.127229  1
  Ba  Ba3  1  0.127229  0.130187  0.373331  1
  Ba  Ba4  1  0.625962  0.625717  0.374411  1
  Ba  Ba5  1  0.374411  0.373911  0.625962  1
  Ba  Ba6  1  0.629023  0.624919  0.871692  1
  Ba  Ba7  1  0.871692  0.874366  0.629023  1
  Li  Li8  1  0.832569  0.167431  0.832569  1
  Li  Li9  1  0.082222  0.417778  0.082222  1
  Li  Li10  1  0.417876  0.082124  0.417876  1
  Cd  Cd11  1  0.167571  0.832429  0.167571  1
  Si  Si12  1  0.656974  0.334522  0.182869  1
  Si  Si13  1  0.815003  0.193387  0.340131  1
  Si  Si14  1  0.182869  0.825635  0.656974  1
  Si  Si15  1  0.340131  0.651480  0.815003  1
  Si  Si16  1  0.591366  0.908634  0.591366  1
  Si  Si17  1  0.908701  0.591299  0.908701  1
  Si  Si18  1  0.660985  0.339015  0.660985  1
  Si  Si19  1  0.344204  0.655796  0.344204  1
  Si  Si20  1  0.911819  0.595018  0.429912  1
  Si  Si21  1  0.064156  0.431318  0.593753  1
  Si  Si22  1  0.429912  0.063250  0.911819  1
  Si  Si23  1  0.593753  0.910774  0.064156  1
