# generated using pymatgen
data_CaZr3(Ni4As3)2
_symmetry_space_group_name_H-M   'P 1'
_cell_length_a   12.72570200
_cell_length_b   12.72570132
_cell_length_c   3.88142000
_cell_angle_alpha   90.00000000
_cell_angle_beta   90.00000000
_cell_angle_gamma   119.99999658
_symmetry_Int_Tables_number   1
_chemical_formula_structural   CaZr3(Ni4As3)2
_chemical_formula_sum   'Ca2 Zr6 Ni16 As12'
_cell_volume   544.35818926
_cell_formula_units_Z   2
loop_
 _symmetry_equiv_pos_site_id
 _symmetry_equiv_pos_as_xyz
  1  'x, y, z'
loop_
 _atom_site_type_symbol
 _atom_site_label
 _atom_site_symmetry_multiplicity
 _atom_site_fract_x
 _atom_site_fract_y
 _atom_site_fract_z
 _atom_site_occupancy
  Ca  Ca0  1  0.666667  0.333333  0.000000  1
  Ca  Ca1  1  0.333333  0.666667  0.000000  1
  Zr  Zr2  1  0.000000  0.178593  0.500000  1
  Zr  Zr3  1  0.821407  0.821407  0.500000  1
  Zr  Zr4  1  0.178593  0.000000  0.500000  1
  Zr  Zr5  1  0.000000  0.559789  0.000000  1
  Zr  Zr6  1  0.440211  0.440211  0.000000  1
  Zr  Zr7  1  0.559789  0.000000  0.000000  1
  Ni  Ni8  1  0.000000  0.727805  0.500000  1
  Ni  Ni9  1  0.272195  0.272195  0.500000  1
  Ni  Ni10  1  0.727805  0.000000  0.500000  1
  Ni  Ni11  1  0.810331  0.177902  0.000000  1
  Ni  Ni12  1  0.822098  0.632429  0.000000  1
  Ni  Ni13  1  0.367571  0.189669  0.000000  1
  Ni  Ni14  1  0.177902  0.810331  0.000000  1
  Ni  Ni15  1  0.632429  0.822098  0.000000  1
  Ni  Ni16  1  0.189669  0.367571  0.000000  1
  Ni  Ni17  1  0.880373  0.357849  0.500000  1
  Ni  Ni18  1  0.642151  0.522523  0.500000  1
  Ni  Ni19  1  0.477477  0.119627  0.500000  1
  Ni  Ni20  1  0.357849  0.880373  0.500000  1
  Ni  Ni21  1  0.522523  0.642151  0.500000  1
  Ni  Ni22  1  0.119627  0.477477  0.500000  1
  Ni  Ni23  1  0.000000  0.000000  0.000000  1
  As  As24  1  0.000000  0.825438  0.000000  1
  As  As25  1  0.174562  0.174562  0.000000  1
  As  As26  1  0.825438  0.000000  0.000000  1
  As  As27  1  0.692455  0.170742  0.500000  1
  As  As28  1  0.829258  0.521713  0.500000  1
  As  As29  1  0.478287  0.307545  0.500000  1
  As  As30  1  0.170742  0.692455  0.500000  1
  As  As31  1  0.521713  0.829258  0.500000  1
  As  As32  1  0.307545  0.478287  0.500000  1
  As  As33  1  0.000000  0.350317  0.000000  1
  As  As34  1  0.649683  0.649683  0.000000  1
  As  As35  1  0.350317  0.000000  0.000000  1
