# generated using pymatgen
data_CaYb2Lu(Al3Pd)6
_symmetry_space_group_name_H-M   'P 1'
_cell_length_a   7.64990117
_cell_length_b   7.64769653
_cell_length_c   9.48627100
_cell_angle_alpha   90.00000000
_cell_angle_beta   90.00000000
_cell_angle_gamma   119.54733861
_symmetry_Int_Tables_number   1
_chemical_formula_structural   CaYb2Lu(Al3Pd)6
_chemical_formula_sum   'Ca1 Yb2 Lu1 Al18 Pd6'
_cell_volume   482.80923354
_cell_formula_units_Z   1
loop_
 _symmetry_equiv_pos_site_id
 _symmetry_equiv_pos_as_xyz
  1  'x, y, z'
loop_
 _atom_site_type_symbol
 _atom_site_label
 _atom_site_symmetry_multiplicity
 _atom_site_fract_x
 _atom_site_fract_y
 _atom_site_fract_z
 _atom_site_occupancy
  Ca  Ca0  1  0.671534  0.997417  0.250000  1
  Yb  Yb1  1  0.994978  0.669575  0.250000  1
  Yb  Yb2  1  0.004335  0.330108  0.750000  1
  Lu  Lu3  1  0.329049  0.002645  0.750000  1
  Al  Al4  1  0.132876  0.131940  0.250000  1
  Al  Al5  1  0.872910  0.870263  0.750000  1
  Al  Al6  1  0.001308  0.335068  0.074639  1
  Al  Al7  1  0.000830  0.665851  0.920071  1
  Al  Al8  1  0.000830  0.665851  0.579929  1
  Al  Al9  1  0.334675  0.000042  0.426055  1
  Al  Al10  1  0.001308  0.335068  0.425361  1
  Al  Al11  1  0.664166  0.000421  0.580312  1
  Al  Al12  1  0.664166  0.000421  0.919688  1
  Al  Al13  1  0.334675  0.000042  0.073945  1
  Al  Al14  1  0.332458  0.330682  0.560763  1
  Al  Al15  1  0.666675  0.666764  0.447319  1
  Al  Al16  1  0.666675  0.666764  0.052681  1
  Al  Al17  1  0.332458  0.330682  0.939237  1
  Al  Al18  1  0.339167  0.546630  0.250000  1
  Al  Al19  1  0.655446  0.450393  0.750000  1
  Al  Al20  1  0.544386  0.340564  0.250000  1
  Al  Al21  1  0.454547  0.663680  0.750000  1
  Pd  Pd22  1  0.671565  0.328234  0.999047  1
  Pd  Pd23  1  0.327616  0.671338  0.998364  1
  Pd  Pd24  1  0.327616  0.671338  0.501636  1
  Pd  Pd25  1  0.671565  0.328234  0.500953  1
  Pd  Pd26  1  0.001092  0.999992  0.998614  1
  Pd  Pd27  1  0.001092  0.999992  0.501386  1
