# generated using pymatgen
data_Pr2Nd4PtBr10
_symmetry_space_group_name_H-M   'P 1'
_cell_length_a   7.64383771
_cell_length_b   9.60644081
_cell_length_c   9.67028460
_cell_angle_alpha   108.01516192
_cell_angle_beta   96.51841843
_cell_angle_gamma   105.67708175
_symmetry_Int_Tables_number   1
_chemical_formula_structural   Pr2Nd4PtBr10
_chemical_formula_sum   'Pr2 Nd4 Pt1 Br10'
_cell_volume   634.91520114
_cell_formula_units_Z   1
loop_
 _symmetry_equiv_pos_site_id
 _symmetry_equiv_pos_as_xyz
  1  'x, y, z'
loop_
 _atom_site_type_symbol
 _atom_site_label
 _atom_site_symmetry_multiplicity
 _atom_site_fract_x
 _atom_site_fract_y
 _atom_site_fract_z
 _atom_site_occupancy
  Pr  Pr0  1  0.869438  0.952306  0.251102  1
  Pr  Pr1  1  0.130562  0.047694  0.748898  1
  Nd  Nd2  1  0.365520  0.137803  0.179820  1
  Nd  Nd3  1  0.634480  0.862197  0.820180  1
  Nd  Nd4  1  0.968293  0.302128  0.093555  1
  Nd  Nd5  1  0.031707  0.697872  0.906445  1
  Pt  Pt6  1  0.000000  0.000000  0.000000  1
  Br  Br7  1  0.349596  0.451049  0.266960  1
  Br  Br8  1  0.650404  0.548951  0.733040  1
  Br  Br9  1  0.916688  0.633589  0.173318  1
  Br  Br10  1  0.083312  0.366411  0.826682  1
  Br  Br11  1  0.451530  0.824525  0.083961  1
  Br  Br12  1  0.548470  0.175475  0.916039  1
  Br  Br13  1  0.252233  0.081066  0.449619  1
  Br  Br14  1  0.747767  0.918934  0.550381  1
  Br  Br15  1  0.787125  0.256184  0.344049  1
  Br  Br16  1  0.212875  0.743816  0.655951  1
