# generated using pymatgen
data_Ta5Si(B2Ru5)2
_symmetry_space_group_name_H-M   'P 1'
_cell_length_a   2.99600700
_cell_length_b   9.35877800
_cell_length_c   9.35877800
_cell_angle_alpha   90.00000000
_cell_angle_beta   90.00000000
_cell_angle_gamma   90.00000000
_symmetry_Int_Tables_number   1
_chemical_formula_structural   Ta5Si(B2Ru5)2
_chemical_formula_sum   'Ta5 Si1 B4 Ru10'
_cell_volume   262.41044316
_cell_formula_units_Z   1
loop_
 _symmetry_equiv_pos_site_id
 _symmetry_equiv_pos_as_xyz
  1  'x, y, z'
loop_
 _atom_site_type_symbol
 _atom_site_label
 _atom_site_symmetry_multiplicity
 _atom_site_fract_x
 _atom_site_fract_y
 _atom_site_fract_z
 _atom_site_occupancy
  Ta  Ta0  1  0.000000  0.675165  0.821399  1
  Ta  Ta1  1  0.000000  0.324835  0.178601  1
  Ta  Ta2  1  0.000000  0.821399  0.324835  1
  Ta  Ta3  1  0.000000  0.178601  0.675165  1
  Ta  Ta4  1  0.000000  0.000000  0.000000  1
  Si  Si5  1  0.000000  0.500000  0.500000  1
  B  B6  1  0.000000  0.869883  0.616262  1
  B  B7  1  0.000000  0.130117  0.383738  1
  B  B8  1  0.000000  0.616262  0.130117  1
  B  B9  1  0.000000  0.383738  0.869883  1
  Ru  Ru10  1  0.500000  0.709659  0.566430  1
  Ru  Ru11  1  0.500000  0.290341  0.433570  1
  Ru  Ru12  1  0.500000  0.779750  0.073061  1
  Ru  Ru13  1  0.500000  0.220250  0.926939  1
  Ru  Ru14  1  0.500000  0.566430  0.290341  1
  Ru  Ru15  1  0.500000  0.433570  0.709659  1
  Ru  Ru16  1  0.500000  0.073061  0.220250  1
  Ru  Ru17  1  0.500000  0.926939  0.779750  1
  Ru  Ru18  1  0.500000  0.000000  0.500000  1
  Ru  Ru19  1  0.500000  0.500000  0.000000  1
