# generated using pymatgen
data_Er7Sn23Ir5Os
_symmetry_space_group_name_H-M   'P 1'
_cell_length_a   9.85958414
_cell_length_b   9.85717082
_cell_length_c   10.06072389
_cell_angle_alpha   89.99999897
_cell_angle_beta   90.14619002
_cell_angle_gamma   119.99190526
_symmetry_Int_Tables_number   1
_chemical_formula_structural   Er7Sn23Ir5Os
_chemical_formula_sum   'Er7 Sn23 Ir5 Os1'
_cell_volume   846.84567999
_cell_formula_units_Z   1
loop_
 _symmetry_equiv_pos_site_id
 _symmetry_equiv_pos_as_xyz
  1  'x, y, z'
loop_
 _atom_site_type_symbol
 _atom_site_label
 _atom_site_symmetry_multiplicity
 _atom_site_fract_x
 _atom_site_fract_y
 _atom_site_fract_z
 _atom_site_occupancy
  Er  Er0  1  0.482639  0.517855  0.306189  1
  Er  Er1  1  0.517408  0.483892  0.694900  1
  Er  Er2  1  0.482639  0.964787  0.306189  1
  Er  Er3  1  0.517408  0.033513  0.694900  1
  Er  Er4  1  0.034412  0.517207  0.305965  1
  Er  Er5  1  0.966347  0.483173  0.694389  1
  Er  Er6  1  0.990632  0.995316  0.993919  1
  Sn  Sn7  1  0.118789  0.882456  0.284083  1
  Sn  Sn8  1  0.881414  0.117941  0.715590  1
  Sn  Sn9  1  0.118789  0.236331  0.284083  1
  Sn  Sn10  1  0.881414  0.763475  0.715590  1
  Sn  Sn11  1  0.762206  0.881103  0.284312  1
  Sn  Sn12  1  0.237661  0.118831  0.715650  1
  Sn  Sn13  1  0.777382  0.223217  0.458918  1
  Sn  Sn14  1  0.223366  0.776894  0.541362  1
  Sn  Sn15  1  0.777382  0.554165  0.458918  1
  Sn  Sn16  1  0.223366  0.446471  0.541362  1
  Sn  Sn17  1  0.446879  0.223439  0.459138  1
  Sn  Sn18  1  0.556439  0.778219  0.542448  1
  Sn  Sn19  1  0.351846  0.000135  0.000494  1
  Sn  Sn20  1  0.647159  0.998955  0.000085  1
  Sn  Sn21  1  0.000368  0.352767  0.000224  1
  Sn  Sn22  1  0.000368  0.647601  0.000224  1
  Sn  Sn23  1  0.647159  0.648204  0.000085  1
  Sn  Sn24  1  0.351846  0.351711  0.000494  1
  Sn  Sn25  1  0.332086  0.666043  0.127891  1
  Sn  Sn26  1  0.666661  0.333330  0.873077  1
  Sn  Sn27  1  0.336042  0.668022  0.829111  1
  Sn  Sn28  1  0.666971  0.333485  0.169829  1
  Sn  Sn29  1  0.000074  0.000037  0.499002  1
  Ir  Ir30  1  0.830730  0.169810  0.199289  1
  Ir  Ir31  1  0.168549  0.830082  0.800669  1
  Ir  Ir32  1  0.830730  0.660922  0.199289  1
  Ir  Ir33  1  0.168549  0.338465  0.800669  1
  Ir  Ir34  1  0.340511  0.170256  0.200166  1
  Os  Os35  1  0.663781  0.831889  0.801501  1
