# generated using pymatgen
data_La20CoGe8Ru2Pt
_symmetry_space_group_name_H-M   'P 1'
_cell_length_a   8.12382965
_cell_length_b   8.98400300
_cell_length_c   12.65354998
_cell_angle_alpha   90.00000000
_cell_angle_beta   90.22636720
_cell_angle_gamma   90.00000000
_symmetry_Int_Tables_number   1
_chemical_formula_structural   La20CoGe8Ru2Pt
_chemical_formula_sum   'La20 Co1 Ge8 Ru2 Pt1'
_cell_volume   923.50593638
_cell_formula_units_Z   1
loop_
 _symmetry_equiv_pos_site_id
 _symmetry_equiv_pos_as_xyz
  1  'x, y, z'
loop_
 _atom_site_type_symbol
 _atom_site_label
 _atom_site_symmetry_multiplicity
 _atom_site_fract_x
 _atom_site_fract_y
 _atom_site_fract_z
 _atom_site_occupancy
  La  La0  1  0.832456  0.750000  0.785816  1
  La  La1  1  0.163514  0.250000  0.209615  1
  La  La2  1  0.329006  0.250000  0.722734  1
  La  La3  1  0.664305  0.750000  0.287720  1
  La  La4  1  0.357069  0.750000  0.706500  1
  La  La5  1  0.652140  0.250000  0.290195  1
  La  La6  1  0.857934  0.250000  0.795278  1
  La  La7  1  0.142357  0.750000  0.204316  1
  La  La8  1  0.958603  0.750000  0.499192  1
  La  La9  1  0.039321  0.250000  0.498883  1
  La  La10  1  0.463813  0.250000  0.002133  1
  La  La11  1  0.542106  0.750000  0.001953  1
  La  La12  1  0.680567  0.028056  0.574569  1
  La  La13  1  0.316413  0.960676  0.425149  1
  La  La14  1  0.177380  0.966226  0.930712  1
  La  La15  1  0.316413  0.539324  0.425149  1
  La  La16  1  0.820804  0.022853  0.065842  1
  La  La17  1  0.680567  0.471944  0.574569  1
  La  La18  1  0.820804  0.477147  0.065842  1
  La  La19  1  0.177380  0.533774  0.930712  1
  Co  Co20  1  0.921279  0.750000  0.021503  1
  Ge  Ge21  1  0.565333  0.495184  0.831502  1
  Ge  Ge22  1  0.436314  0.504613  0.170617  1
  Ge  Ge23  1  0.064190  0.505287  0.670717  1
  Ge  Ge24  1  0.436314  0.995387  0.170617  1
  Ge  Ge25  1  0.935795  0.494593  0.327387  1
  Ge  Ge26  1  0.565333  0.004816  0.831502  1
  Ge  Ge27  1  0.935795  0.005407  0.327387  1
  Ge  Ge28  1  0.064190  0.994713  0.670717  1
  Ru  Ru29  1  0.574553  0.750000  0.520090  1
  Ru  Ru30  1  0.079318  0.250000  0.977431  1
  Pt  Pt31  1  0.428630  0.250000  0.483651  1
