# generated using pymatgen
data_Nd12B(CCl4)3
_symmetry_space_group_name_H-M   'P 1'
_cell_length_a   9.63682555
_cell_length_b   9.71863445
_cell_length_c   9.71863339
_cell_angle_alpha   109.64110516
_cell_angle_beta   109.30079030
_cell_angle_gamma   109.30079634
_symmetry_Int_Tables_number   1
_chemical_formula_structural   Nd12B(CCl4)3
_chemical_formula_sum   'Nd12 B1 C3 Cl12'
_cell_volume   702.15291975
_cell_formula_units_Z   1
loop_
 _symmetry_equiv_pos_site_id
 _symmetry_equiv_pos_as_xyz
  1  'x, y, z'
loop_
 _atom_site_type_symbol
 _atom_site_label
 _atom_site_symmetry_multiplicity
 _atom_site_fract_x
 _atom_site_fract_y
 _atom_site_fract_z
 _atom_site_occupancy
  Nd  Nd0  1  0.470658  0.481577  0.238399  1
  Nd  Nd1  1  0.750000  0.233531  0.266469  1
  Nd  Nd2  1  0.750000  0.017740  0.482260  1
  Nd  Nd3  1  0.232260  0.464520  0.482260  1
  Nd  Nd4  1  0.267741  0.756822  0.238399  1
  Nd  Nd5  1  0.029342  0.261601  0.018423  1
  Nd  Nd6  1  0.016469  0.032937  0.266469  1
  Nd  Nd7  1  0.489081  0.756822  0.018423  1
  Nd  Nd8  1  0.483531  0.233531  0.467063  1
  Nd  Nd9  1  0.010919  0.481577  0.743178  1
  Nd  Nd10  1  0.267740  0.017740  0.035480  1
  Nd  Nd11  1  0.232259  0.261601  0.743178  1
  B  B12  1  0.250000  0.500000  0.000000  1
  C  C13  1  0.250000  0.250192  0.249808  1
  C  C14  1  0.499808  0.999616  0.249808  1
  C  C15  1  0.000192  0.250192  0.500384  1
  Cl  Cl16  1  0.250000  0.756286  0.743714  1
  Cl  Cl17  1  0.511801  0.505851  0.754704  1
  Cl  Cl18  1  0.988199  0.745296  0.994149  1
  Cl  Cl19  1  0.742903  0.248853  0.754704  1
  Cl  Cl20  1  0.993714  0.987427  0.743714  1
  Cl  Cl21  1  0.250000  0.993854  0.506146  1
  Cl  Cl22  1  0.756146  0.512293  0.506146  1
  Cl  Cl23  1  0.505950  0.248853  0.994149  1
  Cl  Cl24  1  0.757097  0.745296  0.251147  1
  Cl  Cl25  1  0.743854  0.993854  0.987707  1
  Cl  Cl26  1  0.994050  0.505851  0.251147  1
  Cl  Cl27  1  0.506286  0.756286  0.512573  1
