# generated using pymatgen
data_Cs3MoSe4
_symmetry_space_group_name_H-M   'P 1'
_cell_length_a   10.39274800
_cell_length_b   10.51116500
_cell_length_c   12.19696900
_cell_angle_alpha   90.00000000
_cell_angle_beta   90.00000000
_cell_angle_gamma   90.00000000
_symmetry_Int_Tables_number   1
_chemical_formula_structural   Cs3MoSe4
_chemical_formula_sum   'Cs12 Mo4 Se16'
_cell_volume   1332.39554008
_cell_formula_units_Z   4
loop_
 _symmetry_equiv_pos_site_id
 _symmetry_equiv_pos_as_xyz
  1  'x, y, z'
loop_
 _atom_site_type_symbol
 _atom_site_label
 _atom_site_symmetry_multiplicity
 _atom_site_fract_x
 _atom_site_fract_y
 _atom_site_fract_z
 _atom_site_occupancy
  Cs  Cs0  1  0.949576  0.710463  0.958126  1
  Cs  Cs1  1  0.449576  0.789537  0.958126  1
  Cs  Cs2  1  0.550424  0.210463  0.458126  1
  Cs  Cs3  1  0.050424  0.289537  0.041874  1
  Cs  Cs4  1  0.145229  0.079728  0.750000  1
  Cs  Cs5  1  0.645229  0.420272  0.750000  1
  Cs  Cs6  1  0.354771  0.579728  0.250000  1
  Cs  Cs7  1  0.854771  0.920272  0.250000  1
  Cs  Cs8  1  0.050424  0.289537  0.458126  1
  Cs  Cs9  1  0.449576  0.789537  0.541874  1
  Cs  Cs10  1  0.550424  0.210463  0.041874  1
  Cs  Cs11  1  0.949576  0.710463  0.541874  1
  Mo  Mo12  1  0.778547  0.485316  0.250000  1
  Mo  Mo13  1  0.278547  0.014684  0.250000  1
  Mo  Mo14  1  0.721453  0.985316  0.750000  1
  Mo  Mo15  1  0.221453  0.514684  0.750000  1
  Se  Se16  1  0.204089  0.740697  0.750000  1
  Se  Se17  1  0.704089  0.759303  0.750000  1
  Se  Se18  1  0.295911  0.240697  0.250000  1
  Se  Se19  1  0.795911  0.259303  0.250000  1
  Se  Se20  1  0.010634  0.425178  0.750000  1
  Se  Se21  1  0.510634  0.074822  0.750000  1
  Se  Se22  1  0.489366  0.925178  0.250000  1
  Se  Se23  1  0.989366  0.574822  0.250000  1
  Se  Se24  1  0.666956  0.548987  0.410993  1
  Se  Se25  1  0.166956  0.951013  0.089007  1
  Se  Se26  1  0.833044  0.048987  0.589007  1
  Se  Se27  1  0.333044  0.451013  0.910993  1
  Se  Se28  1  0.333044  0.451013  0.589007  1
  Se  Se29  1  0.666956  0.548987  0.089007  1
  Se  Se30  1  0.166956  0.951013  0.410993  1
  Se  Se31  1  0.833044  0.048987  0.910993  1
