# generated using pymatgen
data_CeDyLu3Ga2Ru3
_symmetry_space_group_name_H-M   'P 1'
_cell_length_a   8.37962032
_cell_length_b   8.29001166
_cell_length_c   8.26011400
_cell_angle_alpha   110.06974823
_cell_angle_beta   109.33756700
_cell_angle_gamma   110.15622658
_symmetry_Int_Tables_number   1
_chemical_formula_structural   CeDyLu3Ga2Ru3
_chemical_formula_sum   'Ce2 Dy2 Lu6 Ga4 Ru6'
_cell_volume   435.31532787
_cell_formula_units_Z   2
loop_
 _symmetry_equiv_pos_site_id
 _symmetry_equiv_pos_as_xyz
  1  'x, y, z'
loop_
 _atom_site_type_symbol
 _atom_site_label
 _atom_site_symmetry_multiplicity
 _atom_site_fract_x
 _atom_site_fract_y
 _atom_site_fract_z
 _atom_site_occupancy
  Ce  Ce0  1  0.944682  0.252325  0.197487  1
  Ce  Ce1  1  0.199803  0.943203  0.252101  1
  Dy  Dy2  1  0.501860  0.992660  0.721519  1
  Dy  Dy3  1  0.253296  0.190660  0.933389  1
  Lu  Lu4  1  0.778609  0.781029  0.775570  1
  Lu  Lu5  1  0.318615  0.568454  0.755091  1
  Lu  Lu6  1  0.750436  0.318054  0.569334  1
  Lu  Lu7  1  0.571088  0.748349  0.314724  1
  Lu  Lu8  1  0.721528  0.505854  0.998796  1
  Lu  Lu9  1  0.997547  0.719698  0.505523  1
  Ga  Ga10  1  0.421580  0.417123  0.414009  1
  Ga  Ga11  1  0.089224  0.491779  0.994513  1
  Ga  Ga12  1  0.997023  0.087720  0.500442  1
  Ga  Ga13  1  0.502599  0.008873  0.095676  1
  Ru  Ru14  1  0.862215  0.110562  0.737059  1
  Ru  Ru15  1  0.750276  0.892486  0.115652  1
  Ru  Ru16  1  0.120935  0.760388  0.898969  1
  Ru  Ru17  1  0.224595  0.595141  0.366786  1
  Ru  Ru18  1  0.363332  0.227252  0.601308  1
  Ru  Ru19  1  0.630755  0.388389  0.252047  1
