# generated using pymatgen
data_RbAc(MoO4)2
_symmetry_space_group_name_H-M   'P 1'
_cell_length_a   6.31507900
_cell_length_b   6.31493261
_cell_length_c   8.20374900
_cell_angle_alpha   90.00006953
_cell_angle_beta   90.00198997
_cell_angle_gamma   119.99942053
_symmetry_Int_Tables_number   1
_chemical_formula_structural   RbAc(MoO4)2
_chemical_formula_sum   'Rb1 Ac1 Mo2 O8'
_cell_volume   283.33031225
_cell_formula_units_Z   1
loop_
 _symmetry_equiv_pos_site_id
 _symmetry_equiv_pos_as_xyz
  1  'x, y, z'
loop_
 _atom_site_type_symbol
 _atom_site_label
 _atom_site_symmetry_multiplicity
 _atom_site_fract_x
 _atom_site_fract_y
 _atom_site_fract_z
 _atom_site_occupancy
  Rb  Rb0  1  0.999999  0.999999  0.500000  1
  Ac  Ac1  1  0.000000  0.000000  0.000001  1
  Mo  Mo2  1  0.333363  0.666681  0.263513  1
  Mo  Mo3  1  0.666638  0.333319  0.736487  1
  O  O4  1  0.647297  0.823648  0.191476  1
  O  O5  1  0.176388  0.352736  0.191470  1
  O  O6  1  0.176388  0.823651  0.191470  1
  O  O7  1  0.333370  0.666684  0.476734  1
  O  O8  1  0.666629  0.333314  0.523268  1
  O  O9  1  0.823613  0.176350  0.808529  1
  O  O10  1  0.823613  0.647264  0.808529  1
  O  O11  1  0.352706  0.176353  0.808525  1
