# generated using pymatgen
data_ThSiGePtAu
_symmetry_space_group_name_H-M   'P 1'
_cell_length_a   4.38181200
_cell_length_b   4.38181200
_cell_length_c   10.11386500
_cell_angle_alpha   90.00000000
_cell_angle_beta   90.00000000
_cell_angle_gamma   90.00000000
_symmetry_Int_Tables_number   1
_chemical_formula_structural   ThSiGePtAu
_chemical_formula_sum   'Th2 Si2 Ge2 Pt2 Au2'
_cell_volume   194.18900351
_cell_formula_units_Z   2
loop_
 _symmetry_equiv_pos_site_id
 _symmetry_equiv_pos_as_xyz
  1  'x, y, z'
loop_
 _atom_site_type_symbol
 _atom_site_label
 _atom_site_symmetry_multiplicity
 _atom_site_fract_x
 _atom_site_fract_y
 _atom_site_fract_z
 _atom_site_occupancy
  Th  Th0  1  0.000000  0.500000  0.262383  1
  Th  Th1  1  0.500000  0.000000  0.737617  1
  Si  Si2  1  0.000000  0.000000  0.500000  1
  Si  Si3  1  0.500000  0.500000  0.500000  1
  Ge  Ge4  1  0.000000  0.500000  0.853953  1
  Ge  Ge5  1  0.500000  0.000000  0.146047  1
  Pt  Pt6  1  0.000000  0.500000  0.607325  1
  Pt  Pt7  1  0.500000  0.000000  0.392675  1
  Au  Au8  1  0.000000  0.000000  0.000000  1
  Au  Au9  1  0.500000  0.500000  0.000000  1
