# generated using pymatgen
data_Ca2Ce2NdRu2
_symmetry_space_group_name_H-M   'P 1'
_cell_length_a   9.18486566
_cell_length_b   9.18486548
_cell_length_c   7.15906600
_cell_angle_alpha   85.81053930
_cell_angle_beta   85.81053313
_cell_angle_gamma   41.79087769
_symmetry_Int_Tables_number   1
_chemical_formula_structural   Ca2Ce2NdRu2
_chemical_formula_sum   'Ca4 Ce4 Nd2 Ru4'
_cell_volume   401.24906607
_cell_formula_units_Z   2
loop_
 _symmetry_equiv_pos_site_id
 _symmetry_equiv_pos_as_xyz
  1  'x, y, z'
loop_
 _atom_site_type_symbol
 _atom_site_label
 _atom_site_symmetry_multiplicity
 _atom_site_fract_x
 _atom_site_fract_y
 _atom_site_fract_z
 _atom_site_occupancy
  Ca  Ca0  1  0.356086  0.218066  0.819013  1
  Ca  Ca1  1  0.781934  0.643914  0.680987  1
  Ca  Ca2  1  0.643914  0.781934  0.180987  1
  Ca  Ca3  1  0.218066  0.356086  0.319013  1
  Ce  Ce4  1  0.003536  0.816453  0.902521  1
  Ce  Ce5  1  0.183547  0.996464  0.597479  1
  Ce  Ce6  1  0.996464  0.183547  0.097479  1
  Ce  Ce7  1  0.816453  0.003536  0.402521  1
  Nd  Nd8  1  0.576584  0.423416  0.750000  1
  Nd  Nd9  1  0.423416  0.576584  0.250000  1
  Ru  Ru10  1  0.135174  0.662251  0.599175  1
  Ru  Ru11  1  0.337749  0.864826  0.900825  1
  Ru  Ru12  1  0.864826  0.337749  0.400825  1
  Ru  Ru13  1  0.662251  0.135174  0.099175  1
