# generated using pymatgen
data_Li4DyHo3Sn3Bi
_symmetry_space_group_name_H-M   'P 1'
_cell_length_a   9.43059553
_cell_length_b   9.43190586
_cell_length_c   7.24468301
_cell_angle_alpha   89.99993288
_cell_angle_beta   90.09789876
_cell_angle_gamma   120.00476730
_symmetry_Int_Tables_number   1
_chemical_formula_structural   Li4DyHo3Sn3Bi
_chemical_formula_sum   'Li8 Dy2 Ho6 Sn6 Bi2'
_cell_volume   558.04199944
_cell_formula_units_Z   2
loop_
 _symmetry_equiv_pos_site_id
 _symmetry_equiv_pos_as_xyz
  1  'x, y, z'
loop_
 _atom_site_type_symbol
 _atom_site_label
 _atom_site_symmetry_multiplicity
 _atom_site_fract_x
 _atom_site_fract_y
 _atom_site_fract_z
 _atom_site_occupancy
  Li  Li0  1  0.167618  0.333983  0.283155  1
  Li  Li1  1  0.167617  0.833635  0.283146  1
  Li  Li2  1  0.665277  0.832641  0.286381  1
  Li  Li3  1  0.829102  0.664416  0.787679  1
  Li  Li4  1  0.829100  0.164689  0.787681  1
  Li  Li5  1  0.338022  0.169009  0.791517  1
  Li  Li6  1  0.337850  0.668925  0.668872  1
  Li  Li7  1  0.665514  0.332756  0.172433  1
  Dy  Dy8  1  0.516849  0.026485  0.490888  1
  Dy  Dy9  1  0.516848  0.490364  0.490889  1
  Ho  Ho10  1  0.972019  0.486010  0.488612  1
  Ho  Ho11  1  0.493093  0.978291  0.997129  1
  Ho  Ho12  1  0.493089  0.514799  0.997131  1
  Ho  Ho13  1  0.017607  0.508803  0.999698  1
  Ho  Ho14  1  0.994676  0.997336  0.494831  1
  Ho  Ho15  1  0.995332  0.997667  0.005456  1
  Sn  Sn16  1  0.667236  0.833618  0.732952  1
  Sn  Sn17  1  0.834008  0.666618  0.231959  1
  Sn  Sn18  1  0.834012  0.167389  0.231958  1
  Sn  Sn19  1  0.332990  0.166493  0.231729  1
  Sn  Sn20  1  0.332094  0.666049  0.259633  1
  Sn  Sn21  1  0.667958  0.333980  0.760181  1
  Bi  Bi22  1  0.166044  0.333361  0.734031  1
  Bi  Bi23  1  0.166045  0.832683  0.734029  1
