# generated using pymatgen
data_TaTi4NbSn2
_symmetry_space_group_name_H-M   'P 1'
_cell_length_a   7.49382251
_cell_length_b   7.49667044
_cell_length_c   6.27973547
_cell_angle_alpha   65.17373090
_cell_angle_beta   65.20974889
_cell_angle_gamma   81.18616604
_symmetry_Int_Tables_number   1
_chemical_formula_structural   TaTi4NbSn2
_chemical_formula_sum   'Ta2 Ti8 Nb2 Sn4'
_cell_volume   290.56770924
_cell_formula_units_Z   2
loop_
 _symmetry_equiv_pos_site_id
 _symmetry_equiv_pos_as_xyz
  1  'x, y, z'
loop_
 _atom_site_type_symbol
 _atom_site_label
 _atom_site_symmetry_multiplicity
 _atom_site_fract_x
 _atom_site_fract_y
 _atom_site_fract_z
 _atom_site_occupancy
  Ta  Ta0  1  0.005714  0.243395  0.125748  1
  Ta  Ta1  1  0.494290  0.256579  0.374332  1
  Ti  Ti2  1  0.227262  0.523117  0.124481  1
  Ti  Ti3  1  0.727099  0.022528  0.123365  1
  Ti  Ti4  1  0.772922  0.477421  0.376615  1
  Ti  Ti5  1  0.272733  0.976950  0.375456  1
  Ti  Ti6  1  0.727428  0.023049  0.626600  1
  Ti  Ti7  1  0.226524  0.522625  0.625572  1
  Ti  Ti8  1  0.273486  0.977399  0.874410  1
  Ti  Ti9  1  0.772530  0.476937  0.873445  1
  Nb  Nb10  1  0.506639  0.744038  0.624529  1
  Nb  Nb11  1  0.993379  0.755937  0.875476  1
  Sn  Sn12  1  0.531523  0.717315  0.125570  1
  Sn  Sn13  1  0.968428  0.782633  0.374477  1
  Sn  Sn14  1  0.032680  0.218415  0.624521  1
  Sn  Sn15  1  0.467363  0.281666  0.875400  1
