# generated using pymatgen
data_Nd12PdRuPt2
_symmetry_space_group_name_H-M   'P 1'
_cell_length_a   6.59540645
_cell_length_b   7.35403164
_cell_length_c   9.98938500
_cell_angle_alpha   90.00000000
_cell_angle_beta   90.00000000
_cell_angle_gamma   89.90186122
_symmetry_Int_Tables_number   1
_chemical_formula_structural   Nd12PdRuPt2
_chemical_formula_sum   'Nd12 Pd1 Ru1 Pt2'
_cell_volume   484.51270858
_cell_formula_units_Z   1
loop_
 _symmetry_equiv_pos_site_id
 _symmetry_equiv_pos_as_xyz
  1  'x, y, z'
loop_
 _atom_site_type_symbol
 _atom_site_label
 _atom_site_symmetry_multiplicity
 _atom_site_fract_x
 _atom_site_fract_y
 _atom_site_fract_z
 _atom_site_occupancy
  Nd  Nd0  1  0.331130  0.679744  0.059090  1
  Nd  Nd1  1  0.167202  0.177788  0.437375  1
  Nd  Nd2  1  0.665261  0.327802  0.566053  1
  Nd  Nd3  1  0.825794  0.817253  0.935529  1
  Nd  Nd4  1  0.665261  0.327802  0.933947  1
  Nd  Nd5  1  0.825794  0.817253  0.564471  1
  Nd  Nd6  1  0.331130  0.679744  0.440910  1
  Nd  Nd7  1  0.167202  0.177788  0.062625  1
  Nd  Nd8  1  0.863153  0.529103  0.250000  1
  Nd  Nd9  1  0.638108  0.031022  0.250000  1
  Nd  Nd10  1  0.146488  0.473360  0.750000  1
  Nd  Nd11  1  0.369471  0.959113  0.750000  1
  Pd  Pd12  1  0.938259  0.115041  0.750000  1
  Ru  Ru13  1  0.567296  0.617955  0.750000  1
  Pt  Pt14  1  0.069397  0.883303  0.250000  1
  Pt  Pt15  1  0.429054  0.385930  0.250000  1
