# generated using pymatgen
data_Ho4Al5CuPt8
_symmetry_space_group_name_H-M   'P 1'
_cell_length_a   8.10545507
_cell_length_b   8.10545575
_cell_length_c   7.57848726
_cell_angle_alpha   89.99004822
_cell_angle_beta   89.99005132
_cell_angle_gamma   139.92603579
_symmetry_Int_Tables_number   1
_chemical_formula_structural   Ho4Al5CuPt8
_chemical_formula_sum   'Ho4 Al5 Cu1 Pt8'
_cell_volume   320.53250413
_cell_formula_units_Z   1
loop_
 _symmetry_equiv_pos_site_id
 _symmetry_equiv_pos_as_xyz
  1  'x, y, z'
loop_
 _atom_site_type_symbol
 _atom_site_label
 _atom_site_symmetry_multiplicity
 _atom_site_fract_x
 _atom_site_fract_y
 _atom_site_fract_z
 _atom_site_occupancy
  Ho  Ho0  1  0.104031  0.885010  0.404971  1
  Ho  Ho1  1  0.895611  0.109884  0.589139  1
  Ho  Ho2  1  0.390116  0.604389  0.910861  1
  Ho  Ho3  1  0.614990  0.395969  0.095029  1
  Al  Al4  1  0.999700  0.998710  0.000460  1
  Al  Al5  1  0.501290  0.500300  0.499540  1
  Al  Al6  1  0.477264  0.022736  0.750000  1
  Al  Al7  1  0.977888  0.522112  0.750000  1
  Al  Al8  1  0.523500  0.976500  0.250000  1
  Cu  Cu9  1  0.019009  0.480991  0.250000  1
  Pt  Pt10  1  0.192303  0.307697  0.250000  1
  Pt  Pt11  1  0.307822  0.192178  0.750000  1
  Pt  Pt12  1  0.810043  0.689957  0.750000  1
  Pt  Pt13  1  0.690567  0.809433  0.250000  1
  Pt  Pt14  1  0.192837  0.833141  0.022733  1
  Pt  Pt15  1  0.812188  0.176018  0.967562  1
  Pt  Pt16  1  0.323982  0.687812  0.532438  1
  Pt  Pt17  1  0.666859  0.307163  0.477267  1
