# generated using pymatgen
data_Tb7Er7Th2(CdIr)4
_symmetry_space_group_name_H-M   'P 1'
_cell_length_a   9.67152003
_cell_length_b   9.67160060
_cell_length_c   9.65770100
_cell_angle_alpha   60.04719704
_cell_angle_beta   60.04697335
_cell_angle_gamma   60.29777537
_symmetry_Int_Tables_number   1
_chemical_formula_structural   Tb7Er7Th2(CdIr)4
_chemical_formula_sum   'Tb7 Er7 Th2 Cd4 Ir4'
_cell_volume   640.66321861
_cell_formula_units_Z   1
loop_
 _symmetry_equiv_pos_site_id
 _symmetry_equiv_pos_as_xyz
  1  'x, y, z'
loop_
 _atom_site_type_symbol
 _atom_site_label
 _atom_site_symmetry_multiplicity
 _atom_site_fract_x
 _atom_site_fract_y
 _atom_site_fract_z
 _atom_site_occupancy
  Tb  Tb0  1  0.061657  0.061657  0.438351  1
  Tb  Tb1  1  0.188725  0.813162  0.813085  1
  Tb  Tb2  1  0.813160  0.188754  0.185006  1
  Tb  Tb3  1  0.813170  0.188730  0.813076  1
  Tb  Tb4  1  0.188720  0.813159  0.185029  1
  Tb  Tb5  1  0.814569  0.814577  0.185417  1
  Tb  Tb6  1  0.191955  0.191956  0.808038  1
  Er  Er7  1  0.601090  0.198876  0.600024  1
  Er  Er8  1  0.198894  0.601072  0.600031  1
  Er  Er9  1  0.062528  0.438881  0.438178  1
  Er  Er10  1  0.438892  0.062536  0.060416  1
  Er  Er11  1  0.438877  0.062549  0.438153  1
  Er  Er12  1  0.062528  0.438880  0.060422  1
  Er  Er13  1  0.435268  0.435299  0.064711  1
  Th  Th14  1  0.596575  0.596565  0.600630  1
  Th  Th15  1  0.596581  0.596584  0.206215  1
  Cd  Cd16  1  0.831431  0.831422  0.829441  1
  Cd  Cd17  1  0.831422  0.831403  0.507727  1
  Cd  Cd18  1  0.832678  0.503949  0.831686  1
  Cd  Cd19  1  0.503955  0.832691  0.831664  1
  Ir  Ir20  1  0.390435  0.390425  0.395804  1
  Ir  Ir21  1  0.390430  0.390424  0.823345  1
  Ir  Ir22  1  0.393708  0.822755  0.391773  1
  Ir  Ir23  1  0.822755  0.393695  0.391779  1
