# generated using pymatgen
data_Tl2Sb2OF10
_symmetry_space_group_name_H-M   'P 1'
_cell_length_a   8.22976900
_cell_length_b   8.60317885
_cell_length_c   15.61737700
_cell_angle_alpha   90.00000000
_cell_angle_beta   90.00000000
_cell_angle_gamma   96.54890362
_symmetry_Int_Tables_number   1
_chemical_formula_structural   Tl2Sb2OF10
_chemical_formula_sum   'Tl8 Sb8 O4 F40'
_cell_volume   1098.52912951
_cell_formula_units_Z   4
loop_
 _symmetry_equiv_pos_site_id
 _symmetry_equiv_pos_as_xyz
  1  'x, y, z'
loop_
 _atom_site_type_symbol
 _atom_site_label
 _atom_site_symmetry_multiplicity
 _atom_site_fract_x
 _atom_site_fract_y
 _atom_site_fract_z
 _atom_site_occupancy
  Tl  Tl0  1  0.244977  0.031892  0.684099  1
  Tl  Tl1  1  0.708017  0.171259  0.042703  1
  Tl  Tl2  1  0.208017  0.671259  0.457297  1
  Tl  Tl3  1  0.791983  0.328741  0.542703  1
  Tl  Tl4  1  0.291983  0.828741  0.957297  1
  Tl  Tl5  1  0.255023  0.468108  0.184099  1
  Tl  Tl6  1  0.755023  0.968108  0.315901  1
  Tl  Tl7  1  0.744977  0.531892  0.815901  1
  Sb  Sb8  1  0.761108  0.692788  0.071852  1
  Sb  Sb9  1  0.282939  0.952754  0.243235  1
  Sb  Sb10  1  0.238892  0.307212  0.928148  1
  Sb  Sb11  1  0.217061  0.547246  0.743235  1
  Sb  Sb12  1  0.717061  0.047246  0.756765  1
  Sb  Sb13  1  0.261108  0.192788  0.428148  1
  Sb  Sb14  1  0.782939  0.452754  0.256765  1
  Sb  Sb15  1  0.738892  0.807212  0.571852  1
  O  O16  1  0.367445  0.073575  0.343052  1
  O  O17  1  0.632555  0.926425  0.656948  1
  O  O18  1  0.867445  0.573575  0.156948  1
  O  O19  1  0.132555  0.426425  0.843052  1
  F  F20  1  0.678813  0.610007  0.630267  1
  F  F21  1  0.989370  0.513869  0.313745  1
  F  F22  1  0.839021  0.686353  0.485465  1
  F  F23  1  0.873231  0.272182  0.209084  1
  F  F24  1  0.010630  0.486131  0.686255  1
  F  F25  1  0.178813  0.110007  0.869733  1
  F  F26  1  0.803682  0.993425  0.503582  1
  F  F27  1  0.696318  0.506575  0.003582  1
  F  F28  1  0.313819  0.377018  0.692016  1
  F  F29  1  0.039929  0.278597  0.994457  1
  F  F30  1  0.949545  0.828409  0.627309  1
  F  F31  1  0.196318  0.006575  0.496418  1
  F  F32  1  0.813819  0.877018  0.807984  1
  F  F33  1  0.050455  0.171591  0.372691  1
  F  F34  1  0.126769  0.727818  0.790916  1
  F  F35  1  0.921042  0.127265  0.701996  1
  F  F36  1  0.686181  0.622982  0.307984  1
  F  F37  1  0.550455  0.671591  0.127309  1
  F  F38  1  0.186181  0.122982  0.192016  1
  F  F39  1  0.626769  0.227818  0.709084  1
  F  F40  1  0.539929  0.778597  0.505543  1
  F  F41  1  0.219141  0.824622  0.144490  1
  F  F42  1  0.321187  0.389993  0.369733  1
  F  F43  1  0.373231  0.772182  0.290916  1
  F  F44  1  0.339021  0.186353  0.014535  1
  F  F45  1  0.449545  0.328409  0.872691  1
  F  F46  1  0.719141  0.324622  0.355510  1
  F  F47  1  0.578958  0.372735  0.201996  1
  F  F48  1  0.510630  0.986131  0.813745  1
  F  F49  1  0.821187  0.889993  0.130267  1
  F  F50  1  0.460071  0.221403  0.494457  1
  F  F51  1  0.421042  0.627265  0.798004  1
  F  F52  1  0.078958  0.872735  0.298004  1
  F  F53  1  0.280859  0.675378  0.644490  1
  F  F54  1  0.160979  0.313647  0.514535  1
  F  F55  1  0.660979  0.813647  0.985465  1
  F  F56  1  0.489370  0.013869  0.186255  1
  F  F57  1  0.960071  0.721403  0.005543  1
  F  F58  1  0.780859  0.175378  0.855510  1
  F  F59  1  0.303682  0.493425  0.996418  1
