# generated using pymatgen
data_Er8MgAlPt2
_symmetry_space_group_name_H-M   'P 1'
_cell_length_a   9.59630218
_cell_length_b   9.59630215
_cell_length_c   9.56373000
_cell_angle_alpha   60.11221717
_cell_angle_beta   60.11221729
_cell_angle_gamma   60.28988359
_symmetry_Int_Tables_number   1
_chemical_formula_structural   Er8MgAlPt2
_chemical_formula_sum   'Er16 Mg2 Al2 Pt4'
_cell_volume   625.17319767
_cell_formula_units_Z   2
loop_
 _symmetry_equiv_pos_site_id
 _symmetry_equiv_pos_as_xyz
  1  'x, y, z'
loop_
 _atom_site_type_symbol
 _atom_site_label
 _atom_site_symmetry_multiplicity
 _atom_site_fract_x
 _atom_site_fract_y
 _atom_site_fract_z
 _atom_site_occupancy
  Er  Er0  1  0.351305  0.351305  0.348638  1
  Er  Er1  1  0.351305  0.351305  0.948751  1
  Er  Er2  1  0.356998  0.939431  0.351785  1
  Er  Er3  1  0.939431  0.356998  0.351785  1
  Er  Er4  1  0.808645  0.192333  0.190269  1
  Er  Er5  1  0.192333  0.808645  0.808755  1
  Er  Er6  1  0.192333  0.808645  0.190269  1
  Er  Er7  1  0.808645  0.192333  0.808755  1
  Er  Er8  1  0.187333  0.187333  0.812667  1
  Er  Er9  1  0.805694  0.805694  0.194306  1
  Er  Er10  1  0.931124  0.565232  0.565603  1
  Er  Er11  1  0.565232  0.931124  0.938041  1
  Er  Er12  1  0.565232  0.931124  0.565603  1
  Er  Er13  1  0.931124  0.565232  0.938041  1
  Er  Er14  1  0.566447  0.566447  0.933553  1
  Er  Er15  1  0.936120  0.936120  0.563880  1
  Mg  Mg16  1  0.579452  0.267281  0.576634  1
  Mg  Mg17  1  0.267281  0.579452  0.576634  1
  Al  Al18  1  0.583220  0.583220  0.577531  1
  Al  Al19  1  0.583220  0.583220  0.256028  1
  Pt  Pt20  1  0.142223  0.142223  0.145948  1
  Pt  Pt21  1  0.142223  0.142223  0.569605  1
  Pt  Pt22  1  0.140279  0.572800  0.143460  1
  Pt  Pt23  1  0.572800  0.140279  0.143460  1
