# generated using pymatgen
data_La4PrSn3Se
_symmetry_space_group_name_H-M   'P 1'
_cell_length_a   9.61065000
_cell_length_b   9.61064996
_cell_length_c   7.08246300
_cell_angle_alpha   90.00000000
_cell_angle_beta   90.00000000
_cell_angle_gamma   120.00000014
_symmetry_Int_Tables_number   1
_chemical_formula_structural   La4PrSn3Se
_chemical_formula_sum   'La8 Pr2 Sn6 Se2'
_cell_volume   566.52680933
_cell_formula_units_Z   2
loop_
 _symmetry_equiv_pos_site_id
 _symmetry_equiv_pos_as_xyz
  1  'x, y, z'
loop_
 _atom_site_type_symbol
 _atom_site_label
 _atom_site_symmetry_multiplicity
 _atom_site_fract_x
 _atom_site_fract_y
 _atom_site_fract_z
 _atom_site_occupancy
  La  La0  1  0.666667  0.333333  0.000000  1
  La  La1  1  0.333333  0.666667  0.000000  1
  La  La2  1  0.746931  0.746931  0.748483  1
  La  La3  1  0.253069  0.000000  0.748483  1
  La  La4  1  0.000000  0.253069  0.748483  1
  La  La5  1  0.253069  0.253069  0.251517  1
  La  La6  1  0.746931  0.000000  0.251517  1
  La  La7  1  0.000000  0.746931  0.251517  1
  Pr  Pr8  1  0.333333  0.666667  0.500000  1
  Pr  Pr9  1  0.666667  0.333333  0.500000  1
  Sn  Sn10  1  0.394834  0.394834  0.745511  1
  Sn  Sn11  1  0.605166  0.000000  0.745511  1
  Sn  Sn12  1  0.000000  0.605166  0.745511  1
  Sn  Sn13  1  0.605166  0.605166  0.254489  1
  Sn  Sn14  1  0.394834  0.000000  0.254489  1
  Sn  Sn15  1  0.000000  0.394834  0.254489  1
  Se  Se16  1  0.000000  0.000000  0.000000  1
  Se  Se17  1  0.000000  0.000000  0.500000  1
