# generated using pymatgen
data_La19Pr(IrPt2)4
_symmetry_space_group_name_H-M   'P 1'
_cell_length_a   11.60508800
_cell_length_b   11.60508800
_cell_length_c   6.63390800
_cell_angle_alpha   90.00000000
_cell_angle_beta   90.00000000
_cell_angle_gamma   90.00000000
_symmetry_Int_Tables_number   1
_chemical_formula_structural   La19Pr(IrPt2)4
_chemical_formula_sum   'La19 Pr1 Ir4 Pt8'
_cell_volume   893.44190933
_cell_formula_units_Z   1
loop_
 _symmetry_equiv_pos_site_id
 _symmetry_equiv_pos_as_xyz
  1  'x, y, z'
loop_
 _atom_site_type_symbol
 _atom_site_label
 _atom_site_symmetry_multiplicity
 _atom_site_fract_x
 _atom_site_fract_y
 _atom_site_fract_z
 _atom_site_occupancy
  La  La0  1  0.295430  0.089503  0.375660  1
  La  La1  1  0.295494  0.910622  0.875731  1
  La  La2  1  0.704506  0.089378  0.875731  1
  La  La3  1  0.704570  0.910497  0.375660  1
  La  La4  1  0.589359  0.795375  0.875728  1
  La  La5  1  0.589389  0.204708  0.375923  1
  La  La6  1  0.410611  0.795292  0.375923  1
  La  La7  1  0.410641  0.204625  0.875728  1
  La  La8  1  0.204708  0.410611  0.624077  1
  La  La9  1  0.204625  0.589359  0.124272  1
  La  La10  1  0.795375  0.410641  0.124272  1
  La  La11  1  0.795292  0.589389  0.624077  1
  La  La12  1  0.910622  0.704506  0.124269  1
  La  La13  1  0.910497  0.295430  0.624340  1
  La  La14  1  0.089503  0.704570  0.624340  1
  La  La15  1  0.089378  0.295494  0.124269  1
  La  La16  1  0.000000  0.000000  0.500000  1
  La  La17  1  0.000000  0.000000  0.000000  1
  La  La18  1  0.500000  0.500000  0.000000  1
  Pr  Pr19  1  0.500000  0.500000  0.500000  1
  Ir  Ir20  1  0.500000  0.000000  0.115011  1
  Ir  Ir21  1  0.500000  0.000000  0.615024  1
  Ir  Ir22  1  0.000000  0.500000  0.884989  1
  Ir  Ir23  1  0.000000  0.500000  0.384976  1
  Pt  Pt24  1  0.845991  0.153951  0.250019  1
  Pt  Pt25  1  0.846049  0.845991  0.749981  1
  Pt  Pt26  1  0.153951  0.154009  0.749981  1
  Pt  Pt27  1  0.154009  0.846049  0.250019  1
  Pt  Pt28  1  0.653976  0.346026  0.750159  1
  Pt  Pt29  1  0.653974  0.653976  0.249841  1
  Pt  Pt30  1  0.346026  0.346024  0.249841  1
  Pt  Pt31  1  0.346024  0.653974  0.750159  1
