# generated using pymatgen
data_Ho8In2OsPt
_symmetry_space_group_name_H-M   'P 1'
_cell_length_a   9.66014243
_cell_length_b   9.68285996
_cell_length_c   9.66014239
_cell_angle_alpha   59.92217753
_cell_angle_beta   59.79680249
_cell_angle_gamma   59.92217771
_symmetry_Int_Tables_number   1
_chemical_formula_structural   Ho8In2OsPt
_chemical_formula_sum   'Ho16 In4 Os2 Pt2'
_cell_volume   637.19747989
_cell_formula_units_Z   2
loop_
 _symmetry_equiv_pos_site_id
 _symmetry_equiv_pos_as_xyz
  1  'x, y, z'
loop_
 _atom_site_type_symbol
 _atom_site_label
 _atom_site_symmetry_multiplicity
 _atom_site_fract_x
 _atom_site_fract_y
 _atom_site_fract_z
 _atom_site_occupancy
  Ho  Ho0  1  0.188930  0.189808  0.806957  1
  Ho  Ho1  1  0.597541  0.600574  0.201313  1
  Ho  Ho2  1  0.439669  0.060331  0.439669  1
  Ho  Ho3  1  0.439081  0.440803  0.064319  1
  Ho  Ho4  1  0.812668  0.187332  0.812668  1
  Ho  Ho5  1  0.192561  0.807439  0.192561  1
  Ho  Ho6  1  0.439081  0.055797  0.064319  1
  Ho  Ho7  1  0.188930  0.814305  0.806957  1
  Ho  Ho8  1  0.058670  0.441330  0.058670  1
  Ho  Ho9  1  0.806957  0.814305  0.188930  1
  Ho  Ho10  1  0.201313  0.600574  0.597541  1
  Ho  Ho11  1  0.064319  0.440803  0.439081  1
  Ho  Ho12  1  0.064319  0.055797  0.439081  1
  Ho  Ho13  1  0.806957  0.189808  0.188930  1
  Ho  Ho14  1  0.598832  0.199045  0.598832  1
  Ho  Ho15  1  0.598832  0.603292  0.598832  1
  In  In16  1  0.832992  0.833715  0.832992  1
  In  In17  1  0.832957  0.833471  0.500101  1
  In  In18  1  0.500101  0.833471  0.832957  1
  In  In19  1  0.832992  0.500301  0.832992  1
  Os  Os20  1  0.392612  0.824439  0.392612  1
  Os  Os21  1  0.392612  0.390338  0.392612  1
  Pt  Pt22  1  0.824262  0.391463  0.392813  1
  Pt  Pt23  1  0.392813  0.391463  0.824262  1
