# generated using pymatgen
data_Nb3VNi2C
_symmetry_space_group_name_H-M   'P 1'
_cell_length_a   8.15177268
_cell_length_b   8.15177185
_cell_length_c   8.15177300
_cell_angle_alpha   60.00000751
_cell_angle_beta   60.00001087
_cell_angle_gamma   59.99999920
_symmetry_Int_Tables_number   1
_chemical_formula_structural   Nb3VNi2C
_chemical_formula_sum   'Nb12 V4 Ni8 C4'
_cell_volume   383.03742935
_cell_formula_units_Z   4
loop_
 _symmetry_equiv_pos_site_id
 _symmetry_equiv_pos_as_xyz
  1  'x, y, z'
loop_
 _atom_site_type_symbol
 _atom_site_label
 _atom_site_symmetry_multiplicity
 _atom_site_fract_x
 _atom_site_fract_y
 _atom_site_fract_z
 _atom_site_occupancy
  Nb  Nb0  1  0.688857  0.311143  0.311143  1
  Nb  Nb1  1  0.938857  0.938857  0.561143  1
  Nb  Nb2  1  0.688857  0.688857  0.311143  1
  Nb  Nb3  1  0.688857  0.311143  0.688857  1
  Nb  Nb4  1  0.311143  0.688857  0.311143  1
  Nb  Nb5  1  0.561143  0.938857  0.561143  1
  Nb  Nb6  1  0.561143  0.938857  0.938857  1
  Nb  Nb7  1  0.938857  0.561143  0.561143  1
  Nb  Nb8  1  0.938857  0.561143  0.938857  1
  Nb  Nb9  1  0.311143  0.311143  0.688857  1
  Nb  Nb10  1  0.561143  0.561143  0.938857  1
  Nb  Nb11  1  0.311143  0.688857  0.688857  1
  V  V12  1  0.125000  0.125000  0.125000  1
  V  V13  1  0.625000  0.125000  0.125000  1
  V  V14  1  0.125000  0.125000  0.625000  1
  V  V15  1  0.125000  0.625000  0.125000  1
  Ni  Ni16  1  0.923025  0.923025  0.230927  1
  Ni  Ni17  1  0.326975  0.326975  0.326975  1
  Ni  Ni18  1  0.230927  0.923025  0.923025  1
  Ni  Ni19  1  0.326975  0.019073  0.326975  1
  Ni  Ni20  1  0.019073  0.326975  0.326975  1
  Ni  Ni21  1  0.326975  0.326975  0.019073  1
  Ni  Ni22  1  0.923025  0.923025  0.923025  1
  Ni  Ni23  1  0.923025  0.230927  0.923025  1
  C  C24  1  0.625000  0.625000  0.625000  1
  C  C25  1  0.625000  0.625000  0.125000  1
  C  C26  1  0.125000  0.625000  0.625000  1
  C  C27  1  0.625000  0.125000  0.625000  1
