# generated using pymatgen
data_YbZr2Sc(B4Ru5)2
_symmetry_space_group_name_H-M   'P 1'
_cell_length_a   2.99867400
_cell_length_b   8.72683061
_cell_length_c   10.08125210
_cell_angle_alpha   90.64342942
_cell_angle_beta   90.00000000
_cell_angle_gamma   90.00000000
_symmetry_Int_Tables_number   1
_chemical_formula_structural   YbZr2Sc(B4Ru5)2
_chemical_formula_sum   'Yb1 Zr2 Sc1 B8 Ru10'
_cell_volume   263.79884515
_cell_formula_units_Z   1
loop_
 _symmetry_equiv_pos_site_id
 _symmetry_equiv_pos_as_xyz
  1  'x, y, z'
loop_
 _atom_site_type_symbol
 _atom_site_label
 _atom_site_symmetry_multiplicity
 _atom_site_fract_x
 _atom_site_fract_y
 _atom_site_fract_z
 _atom_site_occupancy
  Yb  Yb0  1  0.500000  0.660808  0.679482  1
  Zr  Zr1  1  0.500000  0.839332  0.182889  1
  Zr  Zr2  1  0.500000  0.161230  0.819337  1
  Sc  Sc3  1  0.500000  0.340403  0.320374  1
  B  B4  1  0.500000  0.965922  0.585453  1
  B  B5  1  0.500000  0.034616  0.413116  1
  B  B6  1  0.500000  0.853468  0.897081  1
  B  B7  1  0.500000  0.148181  0.103758  1
  B  B8  1  0.500000  0.643038  0.399208  1
  B  B9  1  0.500000  0.353962  0.600823  1
  B  B10  1  0.500000  0.468238  0.913740  1
  B  B11  1  0.500000  0.533040  0.086687  1
  Ru  Ru12  1  0.000000  0.668218  0.954616  1
  Ru  Ru13  1  0.000000  0.332665  0.049185  1
  Ru  Ru14  1  0.000000  0.834749  0.447240  1
  Ru  Ru15  1  0.000000  0.163751  0.548390  1
  Ru  Ru16  1  0.000000  0.000346  0.001061  1
  Ru  Ru17  1  0.000000  0.405737  0.763776  1
  Ru  Ru18  1  0.000000  0.589636  0.236628  1
  Ru  Ru19  1  0.000000  0.493868  0.496520  1
  Ru  Ru20  1  0.000000  0.913568  0.736970  1
  Ru  Ru21  1  0.000000  0.095225  0.263666  1
