# generated using pymatgen
data_RbSc(RhSe2)4
_symmetry_space_group_name_H-M   'P 1'
_cell_length_a   9.64836996
_cell_length_b   9.64837060
_cell_length_c   9.02216156
_cell_angle_alpha   75.23617409
_cell_angle_beta   75.23617282
_cell_angle_gamma   22.51290296
_symmetry_Int_Tables_number   1
_chemical_formula_structural   RbSc(RhSe2)4
_chemical_formula_sum   'Rb1 Sc1 Rh4 Se8'
_cell_volume   310.53853282
_cell_formula_units_Z   1
loop_
 _symmetry_equiv_pos_site_id
 _symmetry_equiv_pos_as_xyz
  1  'x, y, z'
loop_
 _atom_site_type_symbol
 _atom_site_label
 _atom_site_symmetry_multiplicity
 _atom_site_fract_x
 _atom_site_fract_y
 _atom_site_fract_z
 _atom_site_occupancy
  Rb  Rb0  1  0.487370  0.487370  0.504928  1
  Sc  Sc1  1  0.645796  0.645796  0.022489  1
  Rh  Rh2  1  0.008179  0.008179  0.996342  1
  Rh  Rh3  1  0.341782  0.341782  0.979633  1
  Rh  Rh4  1  0.302325  0.302325  0.325871  1
  Rh  Rh5  1  0.706823  0.706823  0.677958  1
  Se  Se6  1  0.430917  0.430917  0.134772  1
  Se  Se7  1  0.915012  0.915012  0.841746  1
  Se  Se8  1  0.827284  0.827284  0.484640  1
  Se  Se9  1  0.764588  0.764588  0.157113  1
  Se  Se10  1  0.239544  0.239544  0.838642  1
  Se  Se11  1  0.180715  0.180715  0.514506  1
  Se  Se12  1  0.080600  0.080600  0.205585  1
  Se  Se13  1  0.569066  0.569066  0.815776  1
