# generated using pymatgen
data_Tm6MnAl18Si6Ru7
_symmetry_space_group_name_H-M   'P 1'
_cell_length_a   8.60239953
_cell_length_b   8.60239984
_cell_length_c   9.50294564
_cell_angle_alpha   90.05845658
_cell_angle_beta   89.94154407
_cell_angle_gamma   119.67474202
_symmetry_Int_Tables_number   1
_chemical_formula_structural   Tm6MnAl18Si6Ru7
_chemical_formula_sum   'Tm6 Mn1 Al18 Si6 Ru7'
_cell_volume   611.00097666
_cell_formula_units_Z   1
loop_
 _symmetry_equiv_pos_site_id
 _symmetry_equiv_pos_as_xyz
  1  'x, y, z'
loop_
 _atom_site_type_symbol
 _atom_site_label
 _atom_site_symmetry_multiplicity
 _atom_site_fract_x
 _atom_site_fract_y
 _atom_site_fract_z
 _atom_site_occupancy
  Tm  Tm0  1  0.805625  0.194375  0.751530  1
  Tm  Tm1  1  0.194375  0.805625  0.248470  1
  Tm  Tm2  1  0.392153  0.200199  0.751222  1
  Tm  Tm3  1  0.607847  0.799801  0.248778  1
  Tm  Tm4  1  0.799801  0.607847  0.751222  1
  Tm  Tm5  1  0.200199  0.392153  0.248778  1
  Mn  Mn6  1  0.500000  0.500000  0.000000  1
  Al  Al7  1  0.835175  0.164825  0.419549  1
  Al  Al8  1  0.164825  0.835175  0.580451  1
  Al  Al9  1  0.330005  0.164676  0.421517  1
  Al  Al10  1  0.165246  0.834754  0.920191  1
  Al  Al11  1  0.669995  0.835324  0.578483  1
  Al  Al12  1  0.834754  0.165246  0.079809  1
  Al  Al13  1  0.835324  0.669995  0.421517  1
  Al  Al14  1  0.667981  0.830599  0.922827  1
  Al  Al15  1  0.164676  0.330005  0.578483  1
  Al  Al16  1  0.332019  0.169401  0.077173  1
  Al  Al17  1  0.169401  0.332019  0.922827  1
  Al  Al18  1  0.830599  0.667981  0.077173  1
  Al  Al19  1  0.126265  0.560231  0.750119  1
  Al  Al20  1  0.873735  0.439769  0.249881  1
  Al  Al21  1  0.439769  0.873735  0.750119  1
  Al  Al22  1  0.560231  0.126265  0.249881  1
  Al  Al23  1  0.000840  0.999160  0.750082  1
  Al  Al24  1  0.999160  0.000840  0.249918  1
  Si  Si25  1  0.664278  0.335722  0.961391  1
  Si  Si26  1  0.335722  0.664278  0.038609  1
  Si  Si27  1  0.331819  0.668181  0.459423  1
  Si  Si28  1  0.668181  0.331819  0.540577  1
  Si  Si29  1  0.438413  0.561587  0.755567  1
  Si  Si30  1  0.561587  0.438413  0.244433  1
  Ru  Ru31  1  0.000000  0.500000  0.000000  1
  Ru  Ru32  1  0.500000  0.500000  0.500000  1
  Ru  Ru33  1  0.500000  0.000000  0.000000  1
  Ru  Ru34  1  0.000000  0.500000  0.500000  1
  Ru  Ru35  1  0.500000  0.000000  0.500000  1
  Ru  Ru36  1  0.000000  0.000000  0.000000  1
  Ru  Ru37  1  0.000000  0.000000  0.500000  1
