# generated using pymatgen
data_RbTb3CCl6
_symmetry_space_group_name_H-M   'P 1'
_cell_length_a   8.44655847
_cell_length_b   8.47865758
_cell_length_c   9.09571700
_cell_angle_alpha   69.22815591
_cell_angle_beta   86.72632137
_cell_angle_gamma   89.65638006
_symmetry_Int_Tables_number   1
_chemical_formula_structural   RbTb3CCl6
_chemical_formula_sum   'Rb2 Tb6 C2 Cl12'
_cell_volume   607.98875344
_cell_formula_units_Z   2
loop_
 _symmetry_equiv_pos_site_id
 _symmetry_equiv_pos_as_xyz
  1  'x, y, z'
loop_
 _atom_site_type_symbol
 _atom_site_label
 _atom_site_symmetry_multiplicity
 _atom_site_fract_x
 _atom_site_fract_y
 _atom_site_fract_z
 _atom_site_occupancy
  Rb  Rb0  1  0.482623  0.324714  0.346628  1
  Rb  Rb1  1  0.517378  0.675286  0.653372  1
  Tb  Tb2  1  0.912333  0.733772  0.004548  1
  Tb  Tb3  1  0.087667  0.266228  0.995451  1
  Tb  Tb4  1  0.733625  0.088579  0.999638  1
  Tb  Tb5  1  0.266374  0.911421  0.000363  1
  Tb  Tb6  1  0.982179  0.865737  0.338864  1
  Tb  Tb7  1  0.017820  0.134263  0.661137  1
  C  C8  1  0.004086  0.031223  0.916677  1
  C  C9  1  0.995913  0.968777  0.083323  1
  Cl  Cl10  1  0.090381  0.184703  0.328180  1
  Cl  Cl11  1  0.909619  0.815297  0.671820  1
  Cl  Cl12  1  0.204410  0.595261  0.999235  1
  Cl  Cl13  1  0.795591  0.404739  0.000765  1
  Cl  Cl14  1  0.403051  0.200102  0.008479  1
  Cl  Cl15  1  0.596948  0.799899  0.991520  1
  Cl  Cl16  1  0.677460  0.991091  0.325886  1
  Cl  Cl17  1  0.322540  0.008909  0.674114  1
  Cl  Cl18  1  0.288602  0.762284  0.324341  1
  Cl  Cl19  1  0.711398  0.237716  0.675659  1
  Cl  Cl20  1  0.854308  0.580114  0.325222  1
  Cl  Cl21  1  0.145691  0.419886  0.674778  1
