# generated using pymatgen
data_Bi3Ir2Rh2PbO14
_symmetry_space_group_name_H-M   'P 1'
_cell_length_a   7.37756625
_cell_length_b   7.37885202
_cell_length_c   7.37756735
_cell_angle_alpha   59.93635872
_cell_angle_beta   59.93013806
_cell_angle_gamma   59.93636457
_symmetry_Int_Tables_number   1
_chemical_formula_structural   Bi3Ir2Rh2PbO14
_chemical_formula_sum   'Bi3 Ir2 Rh2 Pb1 O14'
_cell_volume   283.56479165
_cell_formula_units_Z   1
loop_
 _symmetry_equiv_pos_site_id
 _symmetry_equiv_pos_as_xyz
  1  'x, y, z'
loop_
 _atom_site_type_symbol
 _atom_site_label
 _atom_site_symmetry_multiplicity
 _atom_site_fract_x
 _atom_site_fract_y
 _atom_site_fract_z
 _atom_site_occupancy
  Bi  Bi0  1  0.625000  0.125000  0.125000  1
  Bi  Bi1  1  0.125000  0.625000  0.125000  1
  Bi  Bi2  1  0.125000  0.125000  0.625000  1
  Ir  Ir3  1  0.125000  0.625000  0.625000  1
  Ir  Ir4  1  0.625000  0.625000  0.125000  1
  Rh  Rh5  1  0.625000  0.125000  0.625000  1
  Rh  Rh6  1  0.625000  0.625000  0.625000  1
  Pb  Pb7  1  0.125000  0.125000  0.125000  1
  O  O8  1  0.707636  0.704780  0.290977  1
  O  O9  1  0.291382  0.297954  0.705872  1
  O  O10  1  0.708095  0.292182  0.708095  1
  O  O11  1  0.296041  0.703100  0.296041  1
  O  O12  1  0.290977  0.704780  0.707636  1
  O  O13  1  0.705872  0.297954  0.291382  1
  O  O14  1  0.542364  0.545220  0.959023  1
  O  O15  1  0.958618  0.952046  0.544128  1
  O  O16  1  0.541905  0.957818  0.541905  1
  O  O17  1  0.953959  0.546900  0.953959  1
  O  O18  1  0.959023  0.545220  0.542364  1
  O  O19  1  0.544128  0.952046  0.958618  1
  O  O20  1  0.250134  0.251413  0.250134  1
  O  O21  1  0.999866  0.998587  0.999866  1
