# generated using pymatgen
data_Zr6Ta2Ir3RhN2
_symmetry_space_group_name_H-M   'P 1'
_cell_length_a   8.72906135
_cell_length_b   8.72906145
_cell_length_c   8.73592000
_cell_angle_alpha   59.97401296
_cell_angle_beta   59.97401256
_cell_angle_gamma   59.94879645
_symmetry_Int_Tables_number   1
_chemical_formula_structural   Zr6Ta2Ir3RhN2
_chemical_formula_sum   'Zr12 Ta4 Ir6 Rh2 N4'
_cell_volume   470.31609011
_cell_formula_units_Z   2
loop_
 _symmetry_equiv_pos_site_id
 _symmetry_equiv_pos_as_xyz
  1  'x, y, z'
loop_
 _atom_site_type_symbol
 _atom_site_label
 _atom_site_symmetry_multiplicity
 _atom_site_fract_x
 _atom_site_fract_y
 _atom_site_fract_z
 _atom_site_occupancy
  Zr  Zr0  1  0.813282  0.813282  0.186718  1
  Zr  Zr1  1  0.186817  0.186817  0.813183  1
  Zr  Zr2  1  0.813289  0.187262  0.813230  1
  Zr  Zr3  1  0.187262  0.813289  0.186219  1
  Zr  Zr4  1  0.187262  0.813289  0.813230  1
  Zr  Zr5  1  0.813289  0.187262  0.186219  1
  Zr  Zr6  1  0.436717  0.436717  0.063283  1
  Zr  Zr7  1  0.064070  0.064070  0.435930  1
  Zr  Zr8  1  0.436169  0.063696  0.436532  1
  Zr  Zr9  1  0.063696  0.436169  0.063603  1
  Zr  Zr10  1  0.063696  0.436169  0.436532  1
  Zr  Zr11  1  0.436169  0.063696  0.063603  1
  Ta  Ta12  1  0.124077  0.625213  0.625355  1
  Ta  Ta13  1  0.625213  0.124077  0.625355  1
  Ta  Ta14  1  0.625380  0.625380  0.123867  1
  Ta  Ta15  1  0.625380  0.625380  0.625373  1
  Ir  Ir16  1  0.758005  0.414002  0.413995  1
  Ir  Ir17  1  0.414002  0.758005  0.413995  1
  Ir  Ir18  1  0.414020  0.414020  0.757990  1
  Ir  Ir19  1  0.414020  0.414020  0.413967  1
  Ir  Ir20  1  0.490501  0.836321  0.836590  1
  Ir  Ir21  1  0.836321  0.490501  0.836590  1
  Rh  Rh22  1  0.836042  0.836042  0.491604  1
  Rh  Rh23  1  0.836042  0.836042  0.836315  1
  N  N24  1  0.625261  0.124596  0.125072  1
  N  N25  1  0.124596  0.625261  0.125072  1
  N  N26  1  0.124712  0.124712  0.625381  1
  N  N27  1  0.124712  0.124712  0.125196  1
