# generated using pymatgen
data_Sm2Ho2ErSn4
_symmetry_space_group_name_H-M   'P 1'
_cell_length_a   8.06410700
_cell_length_b   8.21746400
_cell_length_c   15.52432300
_cell_angle_alpha   90.00000000
_cell_angle_beta   90.00000000
_cell_angle_gamma   90.00000000
_symmetry_Int_Tables_number   1
_chemical_formula_structural   Sm2Ho2ErSn4
_chemical_formula_sum   'Sm8 Ho8 Er4 Sn16'
_cell_volume   1028.74268925
_cell_formula_units_Z   4
loop_
 _symmetry_equiv_pos_site_id
 _symmetry_equiv_pos_as_xyz
  1  'x, y, z'
loop_
 _atom_site_type_symbol
 _atom_site_label
 _atom_site_symmetry_multiplicity
 _atom_site_fract_x
 _atom_site_fract_y
 _atom_site_fract_z
 _atom_site_occupancy
  Sm  Sm0  1  0.519271  0.320792  0.902322  1
  Sm  Sm1  1  0.019271  0.179208  0.597678  1
  Sm  Sm2  1  0.480729  0.679208  0.402322  1
  Sm  Sm3  1  0.980729  0.820792  0.097678  1
  Sm  Sm4  1  0.480729  0.679208  0.097678  1
  Sm  Sm5  1  0.980729  0.820792  0.402322  1
  Sm  Sm6  1  0.519271  0.320792  0.597678  1
  Sm  Sm7  1  0.019271  0.179208  0.902322  1
  Ho  Ho8  1  0.366050  0.835512  0.877649  1
  Ho  Ho9  1  0.866050  0.664488  0.622351  1
  Ho  Ho10  1  0.633950  0.164488  0.377649  1
  Ho  Ho11  1  0.133950  0.335512  0.122351  1
  Ho  Ho12  1  0.633950  0.164488  0.122351  1
  Ho  Ho13  1  0.133950  0.335512  0.377649  1
  Ho  Ho14  1  0.366050  0.835512  0.622351  1
  Ho  Ho15  1  0.866050  0.664488  0.877649  1
  Er  Er16  1  0.197801  0.503657  0.750000  1
  Er  Er17  1  0.697801  0.996343  0.750000  1
  Er  Er18  1  0.802199  0.496343  0.250000  1
  Er  Er19  1  0.302199  0.003657  0.250000  1
  Sn  Sn20  1  0.296767  0.037666  0.041906  1
  Sn  Sn21  1  0.796767  0.462334  0.458094  1
  Sn  Sn22  1  0.703233  0.962334  0.541906  1
  Sn  Sn23  1  0.203233  0.537666  0.958094  1
  Sn  Sn24  1  0.703233  0.962334  0.958094  1
  Sn  Sn25  1  0.203233  0.537666  0.541906  1
  Sn  Sn26  1  0.296767  0.037666  0.458094  1
  Sn  Sn27  1  0.796767  0.462334  0.041906  1
  Sn  Sn28  1  0.564294  0.622473  0.750000  1
  Sn  Sn29  1  0.064294  0.877527  0.750000  1
  Sn  Sn30  1  0.435706  0.377527  0.250000  1
  Sn  Sn31  1  0.935706  0.122473  0.250000  1
  Sn  Sn32  1  0.327479  0.144047  0.750000  1
  Sn  Sn33  1  0.827479  0.355953  0.750000  1
  Sn  Sn34  1  0.672521  0.855953  0.250000  1
  Sn  Sn35  1  0.172521  0.644047  0.250000  1
