# generated using pymatgen
data_Cs4SmSbCl12
_symmetry_space_group_name_H-M   'P 1'
_cell_length_a   13.41578717
_cell_length_b   13.41578732
_cell_length_c   13.41578645
_cell_angle_alpha   131.87221462
_cell_angle_beta   131.87221286
_cell_angle_gamma   70.43092910
_symmetry_Int_Tables_number   1
_chemical_formula_structural   Cs4SmSbCl12
_chemical_formula_sum   'Cs8 Sm2 Sb2 Cl24'
_cell_volume   1311.96929971
_cell_formula_units_Z   2
loop_
 _symmetry_equiv_pos_site_id
 _symmetry_equiv_pos_as_xyz
  1  'x, y, z'
loop_
 _atom_site_type_symbol
 _atom_site_label
 _atom_site_symmetry_multiplicity
 _atom_site_fract_x
 _atom_site_fract_y
 _atom_site_fract_z
 _atom_site_occupancy
  Cs  Cs0  1  0.375000  0.845534  0.970534  1
  Cs  Cs1  1  0.595534  0.625000  0.470534  1
  Cs  Cs2  1  0.875000  0.845534  0.470534  1
  Cs  Cs3  1  0.595534  0.125000  0.970534  1
  Cs  Cs4  1  0.875000  0.404466  0.029466  1
  Cs  Cs5  1  0.154466  0.125000  0.529466  1
  Cs  Cs6  1  0.375000  0.404466  0.529466  1
  Cs  Cs7  1  0.154466  0.625000  0.029466  1
  Sm  Sm8  1  0.500000  0.500000  0.000000  1
  Sm  Sm9  1  0.250000  0.750000  0.500000  1
  Sb  Sb10  1  0.000000  0.000000  0.000000  1
  Sb  Sb11  1  0.750000  0.250000  0.500000  1
  Cl  Cl12  1  0.742582  0.495412  0.247170  1
  Cl  Cl13  1  0.504588  0.257418  0.752830  1
  Cl  Cl14  1  0.376428  0.376428  0.000000  1
  Cl  Cl15  1  0.126428  0.626428  0.500000  1
  Cl  Cl16  1  0.373572  0.873572  0.500000  1
  Cl  Cl17  1  0.623572  0.623572  0.000000  1
  Cl  Cl18  1  0.110237  0.110237  0.000000  1
  Cl  Cl19  1  0.860237  0.360237  0.500000  1
  Cl  Cl20  1  0.639763  0.139763  0.500000  1
  Cl  Cl21  1  0.889763  0.889763  0.000000  1
  Cl  Cl22  1  0.221376  0.000457  0.220919  1
  Cl  Cl23  1  0.750457  0.029538  0.279081  1
  Cl  Cl24  1  0.504588  0.751757  0.247170  1
  Cl  Cl25  1  0.528624  0.249543  0.279081  1
  Cl  Cl26  1  0.970462  0.249543  0.720919  1
  Cl  Cl27  1  0.999543  0.220462  0.220919  1
  Cl  Cl28  1  0.999543  0.778624  0.779081  1
  Cl  Cl29  1  0.779538  0.000457  0.779081  1
  Cl  Cl30  1  0.750457  0.471376  0.720919  1
  Cl  Cl31  1  0.245412  0.498243  0.252830  1
  Cl  Cl32  1  0.245412  0.992582  0.747170  1
  Cl  Cl33  1  0.007418  0.754588  0.252830  1
  Cl  Cl34  1  0.501757  0.754588  0.747170  1
  Cl  Cl35  1  0.248243  0.495412  0.752830  1
