# generated using pymatgen
data_SmEr(MoO4)3
_symmetry_space_group_name_H-M   'P 1'
_cell_length_a   7.49158998
_cell_length_b   7.49159024
_cell_length_c   10.73645500
_cell_angle_alpha   90.00000000
_cell_angle_beta   90.00000000
_cell_angle_gamma   89.70937349
_symmetry_Int_Tables_number   1
_chemical_formula_structural   SmEr(MoO4)3
_chemical_formula_sum   'Sm2 Er2 Mo6 O24'
_cell_volume   602.56421540
_cell_formula_units_Z   2
loop_
 _symmetry_equiv_pos_site_id
 _symmetry_equiv_pos_as_xyz
  1  'x, y, z'
loop_
 _atom_site_type_symbol
 _atom_site_label
 _atom_site_symmetry_multiplicity
 _atom_site_fract_x
 _atom_site_fract_y
 _atom_site_fract_z
 _atom_site_occupancy
  Sm  Sm0  1  0.688621  0.188621  0.260703  1
  Sm  Sm1  1  0.311379  0.811379  0.260703  1
  Er  Er2  1  0.187530  0.312470  0.737726  1
  Er  Er3  1  0.812470  0.687530  0.737726  1
  Mo  Mo4  1  0.707586  0.207586  0.647887  1
  Mo  Mo5  1  0.292414  0.792414  0.647887  1
  Mo  Mo6  1  0.208015  0.291985  0.360132  1
  Mo  Mo7  1  0.791985  0.708015  0.360132  1
  Mo  Mo8  1  0.500000  0.500000  0.993446  1
  Mo  Mo9  1  0.000000  0.000000  0.993446  1
  O  O10  1  0.697006  0.197006  0.482273  1
  O  O11  1  0.302994  0.802994  0.482273  1
  O  O12  1  0.194596  0.305404  0.525821  1
  O  O13  1  0.805404  0.694596  0.525821  1
  O  O14  1  0.125436  0.625436  0.693418  1
  O  O15  1  0.874564  0.374564  0.693418  1
  O  O16  1  0.625777  0.874223  0.312633  1
  O  O17  1  0.374223  0.125777  0.312633  1
  O  O18  1  0.275202  0.501923  0.298657  1
  O  O19  1  0.724798  0.498077  0.298657  1
  O  O20  1  0.001923  0.775202  0.298657  1
  O  O21  1  0.998077  0.224798  0.298657  1
  O  O22  1  0.506568  0.726063  0.705361  1
  O  O23  1  0.493432  0.273937  0.705361  1
  O  O24  1  0.226063  0.006568  0.705361  1
  O  O25  1  0.773937  0.993432  0.705361  1
  O  O26  1  0.309307  0.455751  0.897622  1
  O  O27  1  0.690693  0.544249  0.897622  1
  O  O28  1  0.955751  0.809307  0.897622  1
  O  O29  1  0.044249  0.190693  0.897622  1
  O  O30  1  0.456880  0.688757  0.091339  1
  O  O31  1  0.543120  0.311243  0.091339  1
  O  O32  1  0.188757  0.956880  0.091339  1
  O  O33  1  0.811243  0.043120  0.091339  1
