# generated using pymatgen
data_Ba4Zn(OsO6)2
_symmetry_space_group_name_H-M   'P 1'
_cell_length_a   9.94462940
_cell_length_b   9.94462958
_cell_length_c   9.94463018
_cell_angle_alpha   33.82116153
_cell_angle_beta   33.82116005
_cell_angle_gamma   33.82115327
_symmetry_Int_Tables_number   1
_chemical_formula_structural   Ba4Zn(OsO6)2
_chemical_formula_sum   'Ba4 Zn1 Os2 O12'
_cell_volume   271.51143004
_cell_formula_units_Z   1
loop_
 _symmetry_equiv_pos_site_id
 _symmetry_equiv_pos_as_xyz
  1  'x, y, z'
loop_
 _atom_site_type_symbol
 _atom_site_label
 _atom_site_symmetry_multiplicity
 _atom_site_fract_x
 _atom_site_fract_y
 _atom_site_fract_z
 _atom_site_occupancy
  Ba  Ba0  1  0.708272  0.708272  0.708272  1
  Ba  Ba1  1  0.291728  0.291728  0.291728  1
  Ba  Ba2  1  0.869620  0.869620  0.869620  1
  Ba  Ba3  1  0.130380  0.130380  0.130380  1
  Zn  Zn4  1  0.000000  0.000000  0.000000  1
  Os  Os5  1  0.580868  0.580868  0.580868  1
  Os  Os6  1  0.419132  0.419132  0.419132  1
  O  O7  1  0.219417  0.692918  0.219417  1
  O  O8  1  0.219417  0.219417  0.692918  1
  O  O9  1  0.692918  0.219417  0.219417  1
  O  O10  1  0.780583  0.307082  0.780583  1
  O  O11  1  0.780583  0.780583  0.307082  1
  O  O12  1  0.307082  0.780583  0.780583  1
  O  O13  1  0.388306  0.858836  0.388306  1
  O  O14  1  0.388306  0.388306  0.858836  1
  O  O15  1  0.858836  0.388306  0.388306  1
  O  O16  1  0.611694  0.141164  0.611694  1
  O  O17  1  0.611694  0.611694  0.141164  1
  O  O18  1  0.141164  0.611694  0.611694  1
