# generated using pymatgen
data_DyCo6(NiB)6
_symmetry_space_group_name_H-M   'P 1'
_cell_length_a   5.97140171
_cell_length_b   5.97140244
_cell_length_c   5.97140261
_cell_angle_alpha   104.29117501
_cell_angle_beta   104.29118005
_cell_angle_gamma   104.29118761
_symmetry_Int_Tables_number   1
_chemical_formula_structural   DyCo6(NiB)6
_chemical_formula_sum   'Dy1 Co6 Ni6 B6'
_cell_volume   188.90664251
_cell_formula_units_Z   1
loop_
 _symmetry_equiv_pos_site_id
 _symmetry_equiv_pos_as_xyz
  1  'x, y, z'
loop_
 _atom_site_type_symbol
 _atom_site_label
 _atom_site_symmetry_multiplicity
 _atom_site_fract_x
 _atom_site_fract_y
 _atom_site_fract_z
 _atom_site_occupancy
  Dy  Dy0  1  0.000000  0.000000  0.000000  1
  Co  Co1  1  0.866563  0.133437  0.500000  1
  Co  Co2  1  0.133437  0.500000  0.866563  1
  Co  Co3  1  0.500000  0.866563  0.133437  1
  Co  Co4  1  0.866563  0.500000  0.133437  1
  Co  Co5  1  0.500000  0.133437  0.866563  1
  Co  Co6  1  0.133437  0.866563  0.500000  1
  Ni  Ni7  1  0.814602  0.547813  0.547813  1
  Ni  Ni8  1  0.547813  0.547813  0.814602  1
  Ni  Ni9  1  0.547813  0.814602  0.547813  1
  Ni  Ni10  1  0.185398  0.452187  0.452187  1
  Ni  Ni11  1  0.452187  0.452187  0.185398  1
  Ni  Ni12  1  0.452187  0.185398  0.452187  1
  B  B13  1  0.325901  0.771171  0.771171  1
  B  B14  1  0.771171  0.771171  0.325901  1
  B  B15  1  0.771171  0.325901  0.771171  1
  B  B16  1  0.674099  0.228829  0.228829  1
  B  B17  1  0.228829  0.228829  0.674099  1
  B  B18  1  0.228829  0.674099  0.228829  1
