# generated using pymatgen
data_La4MgIn(NiAg)2
_symmetry_space_group_name_H-M   'P 1'
_cell_length_a   7.99895203
_cell_length_b   8.18836472
_cell_length_c   3.88354200
_cell_angle_alpha   90.00000000
_cell_angle_beta   90.00000000
_cell_angle_gamma   87.83344248
_symmetry_Int_Tables_number   1
_chemical_formula_structural   La4MgIn(NiAg)2
_chemical_formula_sum   'La4 Mg1 In1 Ni2 Ag2'
_cell_volume   254.18370852
_cell_formula_units_Z   1
loop_
 _symmetry_equiv_pos_site_id
 _symmetry_equiv_pos_as_xyz
  1  'x, y, z'
loop_
 _atom_site_type_symbol
 _atom_site_label
 _atom_site_symmetry_multiplicity
 _atom_site_fract_x
 _atom_site_fract_y
 _atom_site_fract_z
 _atom_site_occupancy
  La  La0  1  0.661090  0.157352  0.500000  1
  La  La1  1  0.338910  0.842648  0.500000  1
  La  La2  1  0.190541  0.298864  0.500000  1
  La  La3  1  0.809459  0.701136  0.500000  1
  Mg  Mg4  1  0.500000  0.500000  0.000000  1
  In  In5  1  0.000000  0.000000  0.000000  1
  Ni  Ni6  1  0.617332  0.884197  0.000000  1
  Ni  Ni7  1  0.382668  0.115803  0.000000  1
  Ag  Ag8  1  0.130275  0.618865  0.000000  1
  Ag  Ag9  1  0.869725  0.381135  0.000000  1
