# generated using pymatgen
data_Tb19DyCo3Bi8Os
_symmetry_space_group_name_H-M   'P 1'
_cell_length_a   8.05058802
_cell_length_b   8.93551009
_cell_length_c   12.48607312
_cell_angle_alpha   89.99301243
_cell_angle_beta   90.28685209
_cell_angle_gamma   89.98556852
_symmetry_Int_Tables_number   1
_chemical_formula_structural   Tb19DyCo3Bi8Os
_chemical_formula_sum   'Tb19 Dy1 Co3 Bi8 Os1'
_cell_volume   898.18824323
_cell_formula_units_Z   1
loop_
 _symmetry_equiv_pos_site_id
 _symmetry_equiv_pos_as_xyz
  1  'x, y, z'
loop_
 _atom_site_type_symbol
 _atom_site_label
 _atom_site_symmetry_multiplicity
 _atom_site_fract_x
 _atom_site_fract_y
 _atom_site_fract_z
 _atom_site_occupancy
  Tb  Tb0  1  0.847148  0.750028  0.800367  1
  Tb  Tb1  1  0.151804  0.249986  0.197915  1
  Tb  Tb2  1  0.348771  0.249945  0.698539  1
  Tb  Tb3  1  0.653794  0.750025  0.294716  1
  Tb  Tb4  1  0.378466  0.750048  0.695161  1
  Tb  Tb5  1  0.618727  0.249923  0.309650  1
  Tb  Tb6  1  0.880972  0.249978  0.810700  1
  Tb  Tb7  1  0.118404  0.750012  0.187691  1
  Tb  Tb8  1  0.945269  0.750046  0.504197  1
  Tb  Tb9  1  0.049317  0.249981  0.496468  1
  Tb  Tb10  1  0.453348  0.250000  0.997281  1
  Tb  Tb11  1  0.546024  0.749994  0.002431  1
  Tb  Tb12  1  0.323804  0.964677  0.436861  1
  Tb  Tb13  1  0.176478  0.966634  0.936976  1
  Tb  Tb14  1  0.323696  0.535222  0.436812  1
  Tb  Tb15  1  0.822704  0.035211  0.062798  1
  Tb  Tb16  1  0.677655  0.458884  0.564768  1
  Tb  Tb17  1  0.822699  0.464802  0.062787  1
  Tb  Tb18  1  0.176480  0.533362  0.936988  1
  Dy  Dy19  1  0.677397  0.041159  0.564721  1
  Co  Co20  1  0.434718  0.249957  0.490580  1
  Co  Co21  1  0.059114  0.250005  0.991924  1
  Co  Co22  1  0.939137  0.749993  0.007299  1
  Bi  Bi23  1  0.572591  0.491426  0.827380  1
  Bi  Bi24  1  0.426977  0.507385  0.173268  1
  Bi  Bi25  1  0.072171  0.507315  0.674692  1
  Bi  Bi26  1  0.426958  0.992619  0.173260  1
  Bi  Bi27  1  0.929913  0.492134  0.325525  1
  Bi  Bi28  1  0.572636  0.008581  0.827352  1
  Bi  Bi29  1  0.929947  0.007886  0.325521  1
  Bi  Bi30  1  0.072074  0.992678  0.674678  1
  Os  Os31  1  0.570806  0.750106  0.510692  1
