# generated using pymatgen
data_Ta5Si2Ni4WC
_symmetry_space_group_name_H-M   'P 1'
_cell_length_a   7.89747907
_cell_length_b   7.89747996
_cell_length_c   7.89183113
_cell_angle_alpha   60.00697985
_cell_angle_beta   60.00697694
_cell_angle_gamma   60.00174546
_symmetry_Int_Tables_number   1
_chemical_formula_structural   Ta5Si2Ni4WC
_chemical_formula_sum   'Ta10 Si4 Ni8 W2 C2'
_cell_volume   348.08982749
_cell_formula_units_Z   2
loop_
 _symmetry_equiv_pos_site_id
 _symmetry_equiv_pos_as_xyz
  1  'x, y, z'
loop_
 _atom_site_type_symbol
 _atom_site_label
 _atom_site_symmetry_multiplicity
 _atom_site_fract_x
 _atom_site_fract_y
 _atom_site_fract_z
 _atom_site_occupancy
  Ta  Ta0  1  0.051955  0.051955  0.440134  1
  Ta  Ta1  1  0.449361  0.055876  0.442332  1
  Ta  Ta2  1  0.055876  0.449361  0.442332  1
  Ta  Ta3  1  0.447430  0.447430  0.055391  1
  Ta  Ta4  1  0.050282  0.444433  0.053921  1
  Ta  Ta5  1  0.444433  0.050282  0.053921  1
  Ta  Ta6  1  0.196722  0.196722  0.804191  1
  Ta  Ta7  1  0.804079  0.195853  0.805276  1
  Ta  Ta8  1  0.195853  0.804079  0.805276  1
  Ta  Ta9  1  0.803311  0.803311  0.197067  1
  Si  Si10  1  0.622904  0.622904  0.126704  1
  Si  Si11  1  0.626452  0.125871  0.622346  1
  Si  Si12  1  0.125871  0.626452  0.622346  1
  Si  Si13  1  0.624535  0.624535  0.625681  1
  Ni  Ni14  1  0.418239  0.418239  0.746757  1
  Ni  Ni15  1  0.418836  0.744338  0.420315  1
  Ni  Ni16  1  0.744338  0.418836  0.420315  1
  Ni  Ni17  1  0.419192  0.419192  0.420420  1
  Ni  Ni18  1  0.830125  0.830125  0.506660  1
  Ni  Ni19  1  0.832470  0.506139  0.829729  1
  Ni  Ni20  1  0.506139  0.832470  0.829729  1
  Ni  Ni21  1  0.831577  0.831577  0.832242  1
  W  W22  1  0.195519  0.804755  0.196122  1
  W  W23  1  0.804755  0.195519  0.196122  1
  C  C24  1  0.249706  0.249706  0.248901  1
  C  C25  1  0.000041  0.000041  0.005772  1
