# generated using pymatgen
data_Mn2Hg(PO4)2
_symmetry_space_group_name_H-M   'P 1'
_cell_length_a   5.34682956
_cell_length_b   5.47557814
_cell_length_c   6.79438427
_cell_angle_alpha   73.85438099
_cell_angle_beta   84.43136211
_cell_angle_gamma   68.64531708
_symmetry_Int_Tables_number   1
_chemical_formula_structural   Mn2Hg(PO4)2
_chemical_formula_sum   'Mn2 Hg1 P2 O8'
_cell_volume   177.95302836
_cell_formula_units_Z   1
loop_
 _symmetry_equiv_pos_site_id
 _symmetry_equiv_pos_as_xyz
  1  'x, y, z'
loop_
 _atom_site_type_symbol
 _atom_site_label
 _atom_site_symmetry_multiplicity
 _atom_site_fract_x
 _atom_site_fract_y
 _atom_site_fract_z
 _atom_site_occupancy
  Mn  Mn0  1  0.296173  0.246966  0.315381  1
  Mn  Mn1  1  0.703822  0.753029  0.684622  1
  Hg  Hg2  1  0.000001  0.999999  0.000000  1
  P  P3  1  0.660217  0.637874  0.232173  1
  P  P4  1  0.339782  0.362128  0.767826  1
  O  O5  1  0.246030  0.230403  0.990039  1
  O  O6  1  0.398297  0.595323  0.200929  1
  O  O7  1  0.879640  0.368354  0.330916  1
  O  O8  1  0.606688  0.849265  0.359985  1
  O  O9  1  0.393314  0.150737  0.640014  1
  O  O10  1  0.120360  0.631649  0.669083  1
  O  O11  1  0.601704  0.404675  0.799072  1
  O  O12  1  0.753969  0.769598  0.009960  1
