# generated using pymatgen
data_Hf2CoNiP3Ru
_symmetry_space_group_name_H-M   'P 1'
_cell_length_a   3.65942900
_cell_length_b   10.11428200
_cell_length_c   12.29656200
_cell_angle_alpha   90.00000000
_cell_angle_beta   90.00000000
_cell_angle_gamma   90.00000000
_symmetry_Int_Tables_number   1
_chemical_formula_structural   Hf2CoNiP3Ru
_chemical_formula_sum   'Hf8 Co4 Ni4 P12 Ru4'
_cell_volume   455.12646248
_cell_formula_units_Z   4
loop_
 _symmetry_equiv_pos_site_id
 _symmetry_equiv_pos_as_xyz
  1  'x, y, z'
loop_
 _atom_site_type_symbol
 _atom_site_label
 _atom_site_symmetry_multiplicity
 _atom_site_fract_x
 _atom_site_fract_y
 _atom_site_fract_z
 _atom_site_occupancy
  Hf  Hf0  1  0.250000  0.341077  0.994226  1
  Hf  Hf1  1  0.250000  0.158923  0.494226  1
  Hf  Hf2  1  0.750000  0.658923  0.005774  1
  Hf  Hf3  1  0.750000  0.841077  0.505774  1
  Hf  Hf4  1  0.250000  0.426179  0.709394  1
  Hf  Hf5  1  0.250000  0.073821  0.209394  1
  Hf  Hf6  1  0.750000  0.573821  0.290606  1
  Hf  Hf7  1  0.750000  0.926179  0.790606  1
  Co  Co8  1  0.250000  0.134744  0.716386  1
  Co  Co9  1  0.250000  0.365256  0.216386  1
  Co  Co10  1  0.750000  0.865256  0.283614  1
  Co  Co11  1  0.750000  0.634744  0.783614  1
  Ni  Ni12  1  0.250000  0.762989  0.169727  1
  Ni  Ni13  1  0.250000  0.737011  0.669727  1
  Ni  Ni14  1  0.750000  0.237011  0.830273  1
  Ni  Ni15  1  0.750000  0.262989  0.330273  1
  P  P16  1  0.250000  0.103422  0.892809  1
  P  P17  1  0.250000  0.396578  0.392809  1
  P  P18  1  0.750000  0.896578  0.107191  1
  P  P19  1  0.750000  0.603422  0.607191  1
  P  P20  1  0.250000  0.730537  0.851608  1
  P  P21  1  0.250000  0.769463  0.351608  1
  P  P22  1  0.750000  0.269463  0.148392  1
  P  P23  1  0.750000  0.230537  0.648392  1
  P  P24  1  0.250000  0.550000  0.127188  1
  P  P25  1  0.250000  0.950000  0.627188  1
  P  P26  1  0.750000  0.450000  0.872812  1
  P  P27  1  0.750000  0.050000  0.372812  1
  Ru  Ru28  1  0.250000  0.897140  0.982739  1
  Ru  Ru29  1  0.250000  0.602860  0.482739  1
  Ru  Ru30  1  0.750000  0.102860  0.017261  1
  Ru  Ru31  1  0.750000  0.397140  0.517261  1
