# generated using pymatgen
data_Ho16In3Co4Hg
_symmetry_space_group_name_H-M   'P 1'
_cell_length_a   9.47324991
_cell_length_b   9.48375251
_cell_length_c   9.48375200
_cell_angle_alpha   60.00000176
_cell_angle_beta   59.96332085
_cell_angle_gamma   59.96332279
_symmetry_Int_Tables_number   1
_chemical_formula_structural   Ho16In3Co4Hg
_chemical_formula_sum   'Ho16 In3 Co4 Hg1'
_cell_volume   602.14822617
_cell_formula_units_Z   1
loop_
 _symmetry_equiv_pos_site_id
 _symmetry_equiv_pos_as_xyz
  1  'x, y, z'
loop_
 _atom_site_type_symbol
 _atom_site_label
 _atom_site_symmetry_multiplicity
 _atom_site_fract_x
 _atom_site_fract_y
 _atom_site_fract_z
 _atom_site_occupancy
  Ho  Ho0  1  0.348249  0.346933  0.346933  1
  Ho  Ho1  1  0.348249  0.346933  0.957886  1
  Ho  Ho2  1  0.348249  0.957886  0.346933  1
  Ho  Ho3  1  0.958613  0.347129  0.347129  1
  Ho  Ho4  1  0.811504  0.188292  0.188292  1
  Ho  Ho5  1  0.188302  0.812351  0.812351  1
  Ho  Ho6  1  0.188302  0.812351  0.186996  1
  Ho  Ho7  1  0.811504  0.188292  0.811912  1
  Ho  Ho8  1  0.188302  0.186996  0.812351  1
  Ho  Ho9  1  0.811504  0.811912  0.188292  1
  Ho  Ho10  1  0.942075  0.560590  0.560590  1
  Ho  Ho11  1  0.562885  0.937789  0.937789  1
  Ho  Ho12  1  0.562885  0.937789  0.561536  1
  Ho  Ho13  1  0.942075  0.560590  0.936744  1
  Ho  Ho14  1  0.562885  0.561536  0.937789  1
  Ho  Ho15  1  0.942075  0.936744  0.560590  1
  In  In16  1  0.580538  0.582680  0.582680  1
  In  In17  1  0.580538  0.582680  0.254103  1
  In  In18  1  0.580538  0.254103  0.582680  1
  Co  Co19  1  0.140514  0.140794  0.140794  1
  Co  Co20  1  0.140514  0.140794  0.577898  1
  Co  Co21  1  0.140514  0.577898  0.140794  1
  Co  Co22  1  0.576664  0.141112  0.141112  1
  Hg  Hg23  1  0.242524  0.585825  0.585825  1
