# generated using pymatgen
data_HgF8
_symmetry_space_group_name_H-M   'P 1'
_cell_length_a   7.23480600
_cell_length_b   7.11379800
_cell_length_c   14.55128100
_cell_angle_alpha   90.00000000
_cell_angle_beta   90.00000000
_cell_angle_gamma   90.00000000
_symmetry_Int_Tables_number   1
_chemical_formula_structural   HgF8
_chemical_formula_sum   'Hg4 F32'
_cell_volume   748.91002915
_cell_formula_units_Z   4
loop_
 _symmetry_equiv_pos_site_id
 _symmetry_equiv_pos_as_xyz
  1  'x, y, z'
loop_
 _atom_site_type_symbol
 _atom_site_label
 _atom_site_symmetry_multiplicity
 _atom_site_fract_x
 _atom_site_fract_y
 _atom_site_fract_z
 _atom_site_occupancy
  Hg  Hg0  1  0.731643  0.250000  0.148336  1
  Hg  Hg1  1  0.231643  0.250000  0.351664  1
  Hg  Hg2  1  0.268357  0.750000  0.851664  1
  Hg  Hg3  1  0.768357  0.750000  0.648336  1
  F  F4  1  0.891793  0.250000  0.258111  1
  F  F5  1  0.391793  0.250000  0.241889  1
  F  F6  1  0.108207  0.750000  0.741889  1
  F  F7  1  0.608207  0.750000  0.758111  1
  F  F8  1  0.691043  0.250000  0.399060  1
  F  F9  1  0.191043  0.250000  0.100940  1
  F  F10  1  0.308957  0.750000  0.600940  1
  F  F11  1  0.808957  0.750000  0.899060  1
  F  F12  1  0.574184  0.250000  0.478804  1
  F  F13  1  0.074184  0.250000  0.021196  1
  F  F14  1  0.425816  0.750000  0.521196  1
  F  F15  1  0.925816  0.750000  0.978804  1
  F  F16  1  0.576917  0.250000  0.038763  1
  F  F17  1  0.076917  0.250000  0.461237  1
  F  F18  1  0.423083  0.750000  0.961237  1
  F  F19  1  0.923083  0.750000  0.538763  1
  F  F20  1  0.769953  0.250000  0.889908  1
  F  F21  1  0.269953  0.250000  0.610092  1
  F  F22  1  0.230047  0.750000  0.110092  1
  F  F23  1  0.730047  0.750000  0.389908  1
  F  F24  1  0.892173  0.250000  0.812618  1
  F  F25  1  0.392173  0.250000  0.687382  1
  F  F26  1  0.107827  0.750000  0.187382  1
  F  F27  1  0.607827  0.750000  0.312618  1
  F  F28  1  0.734041  0.524545  0.147773  1
  F  F29  1  0.234041  0.975455  0.352227  1
  F  F30  1  0.265959  0.024545  0.852227  1
  F  F31  1  0.765959  0.475455  0.647773  1
  F  F32  1  0.265959  0.475455  0.852227  1
  F  F33  1  0.765959  0.024545  0.647773  1
  F  F34  1  0.734041  0.975455  0.147773  1
  F  F35  1  0.234041  0.524545  0.352227  1
