# generated using pymatgen
data_Tb3Ho7Cd3Re
_symmetry_space_group_name_H-M   'P 1'
_cell_length_a   9.58611400
_cell_length_b   9.58611379
_cell_length_c   9.81650300
_cell_angle_alpha   90.00000000
_cell_angle_beta   90.00000000
_cell_angle_gamma   120.00000074
_symmetry_Int_Tables_number   1
_chemical_formula_structural   Tb3Ho7Cd3Re
_chemical_formula_sum   'Tb6 Ho14 Cd6 Re2'
_cell_volume   781.21864741
_cell_formula_units_Z   2
loop_
 _symmetry_equiv_pos_site_id
 _symmetry_equiv_pos_as_xyz
  1  'x, y, z'
loop_
 _atom_site_type_symbol
 _atom_site_label
 _atom_site_symmetry_multiplicity
 _atom_site_fract_x
 _atom_site_fract_y
 _atom_site_fract_z
 _atom_site_occupancy
  Tb  Tb0  1  0.538629  0.461371  0.250000  1
  Tb  Tb1  1  0.538629  0.077257  0.250000  1
  Tb  Tb2  1  0.922743  0.461371  0.250000  1
  Tb  Tb3  1  0.461371  0.538629  0.750000  1
  Tb  Tb4  1  0.461371  0.922743  0.750000  1
  Tb  Tb5  1  0.077257  0.538629  0.750000  1
  Ho  Ho6  1  0.000000  0.000000  0.500000  1
  Ho  Ho7  1  0.000000  0.000000  0.000000  1
  Ho  Ho8  1  0.209378  0.790622  0.441394  1
  Ho  Ho9  1  0.209378  0.418756  0.441394  1
  Ho  Ho10  1  0.581244  0.790622  0.441394  1
  Ho  Ho11  1  0.790622  0.209378  0.558606  1
  Ho  Ho12  1  0.790622  0.581244  0.558606  1
  Ho  Ho13  1  0.418756  0.209378  0.558606  1
  Ho  Ho14  1  0.790622  0.209378  0.941394  1
  Ho  Ho15  1  0.790622  0.581244  0.941394  1
  Ho  Ho16  1  0.418756  0.209378  0.941394  1
  Ho  Ho17  1  0.209378  0.790622  0.058606  1
  Ho  Ho18  1  0.209378  0.418756  0.058606  1
  Ho  Ho19  1  0.581244  0.790622  0.058606  1
  Cd  Cd20  1  0.885648  0.114352  0.250000  1
  Cd  Cd21  1  0.885648  0.771297  0.250000  1
  Cd  Cd22  1  0.228703  0.114352  0.250000  1
  Cd  Cd23  1  0.114352  0.885648  0.750000  1
  Cd  Cd24  1  0.114352  0.228703  0.750000  1
  Cd  Cd25  1  0.771297  0.885648  0.750000  1
  Re  Re26  1  0.333333  0.666667  0.250000  1
  Re  Re27  1  0.666667  0.333333  0.750000  1
