# generated using pymatgen
data_K5SrTaAs4
_symmetry_space_group_name_H-M   'P 1'
_cell_length_a   10.45973950
_cell_length_b   10.45973962
_cell_length_c   7.99790035
_cell_angle_alpha   88.69783156
_cell_angle_beta   88.69783117
_cell_angle_gamma   120.70566901
_symmetry_Int_Tables_number   1
_chemical_formula_structural   K5SrTaAs4
_chemical_formula_sum   'K10 Sr2 Ta2 As8'
_cell_volume   751.54893283
_cell_formula_units_Z   2
loop_
 _symmetry_equiv_pos_site_id
 _symmetry_equiv_pos_as_xyz
  1  'x, y, z'
loop_
 _atom_site_type_symbol
 _atom_site_label
 _atom_site_symmetry_multiplicity
 _atom_site_fract_x
 _atom_site_fract_y
 _atom_site_fract_z
 _atom_site_occupancy
  K  K0  1  0.466109  0.526926  0.608077  1
  K  K1  1  0.058936  0.528030  0.610218  1
  K  K2  1  0.526926  0.466109  0.108077  1
  K  K3  1  0.528030  0.058936  0.110218  1
  K  K4  1  0.864220  0.144141  0.787578  1
  K  K5  1  0.289261  0.151508  0.814809  1
  K  K6  1  0.854386  0.713772  0.772675  1
  K  K7  1  0.144141  0.864220  0.287578  1
  K  K8  1  0.713772  0.854386  0.272675  1
  K  K9  1  0.151508  0.289261  0.314809  1
  Sr  Sr10  1  0.465757  0.938058  0.605930  1
  Sr  Sr11  1  0.938058  0.465757  0.105930  1
  Ta  Ta12  1  0.669988  0.331617  0.500722  1
  Ta  Ta13  1  0.331617  0.669988  0.000722  1
  As  As14  1  0.682884  0.336590  0.813626  1
  As  As15  1  0.336590  0.682884  0.313626  1
  As  As16  1  0.196706  0.795767  0.893397  1
  As  As17  1  0.591680  0.803024  0.876723  1
  As  As18  1  0.188951  0.401687  0.923445  1
  As  As19  1  0.795767  0.196706  0.393397  1
  As  As20  1  0.401687  0.188951  0.423445  1
  As  As21  1  0.803024  0.591680  0.376723  1
