# generated using pymatgen
data_Dy5Mo2P12Ir13Ru4
_symmetry_space_group_name_H-M   'P 1'
_cell_length_a   12.54190437
_cell_length_b   12.66308900
_cell_length_c   3.99691000
_cell_angle_alpha   90.00000000
_cell_angle_beta   90.00000000
_cell_angle_gamma   119.41034337
_symmetry_Int_Tables_number   1
_chemical_formula_structural   Dy5Mo2P12Ir13Ru4
_chemical_formula_sum   'Dy5 Mo2 P12 Ir13 Ru4'
_cell_volume   552.97828683
_cell_formula_units_Z   1
loop_
 _symmetry_equiv_pos_site_id
 _symmetry_equiv_pos_as_xyz
  1  'x, y, z'
loop_
 _atom_site_type_symbol
 _atom_site_label
 _atom_site_symmetry_multiplicity
 _atom_site_fract_x
 _atom_site_fract_y
 _atom_site_fract_z
 _atom_site_occupancy
  Dy  Dy0  1  0.670813  0.338089  0.000000  1
  Dy  Dy1  1  0.330551  0.661418  0.000000  1
  Dy  Dy2  1  0.813079  0.001170  0.500000  1
  Dy  Dy3  1  0.184949  0.186188  0.500000  1
  Dy  Dy4  1  0.999212  0.814348  0.500000  1
  Mo  Mo5  1  0.549652  0.550997  0.000000  1
  Mo  Mo6  1  0.999393  0.449525  0.000000  1
  P  P7  1  0.645087  0.004163  0.000000  1
  P  P8  1  0.366020  0.363735  0.000000  1
  P  P9  1  0.001204  0.635976  0.000000  1
  P  P10  1  0.685158  0.522488  0.500000  1
  P  P11  1  0.832863  0.311273  0.500000  1
  P  P12  1  0.307192  0.825686  0.500000  1
  P  P13  1  0.518401  0.684643  0.500000  1
  P  P14  1  0.183044  0.000984  0.000000  1
  P  P15  1  0.820555  0.822255  0.000000  1
  P  P16  1  0.996564  0.179491  0.000000  1
  P  P17  1  0.482259  0.173572  0.500000  1
  P  P18  1  0.161803  0.477207  0.500000  1
  Ir  Ir19  1  0.622499  0.806626  0.000000  1
  Ir  Ir20  1  0.181640  0.371698  0.000000  1
  Ir  Ir21  1  0.379232  0.179092  0.000000  1
  Ir  Ir22  1  0.198037  0.820872  0.000000  1
  Ir  Ir23  1  0.808944  0.629288  0.000000  1
  Ir  Ir24  1  0.863986  0.505457  0.500000  1
  Ir  Ir25  1  0.488836  0.361288  0.500000  1
  Ir  Ir26  1  0.637671  0.131724  0.500000  1
  Ir  Ir27  1  0.126700  0.639028  0.500000  1
  Ir  Ir28  1  0.357824  0.493545  0.500000  1
  Ir  Ir29  1  0.503099  0.862981  0.500000  1
  Ir  Ir30  1  0.001870  0.000612  0.000000  1
  Ir  Ir31  1  0.457620  0.996678  0.000000  1
  Ru  Ru32  1  0.715609  0.717951  0.500000  1
  Ru  Ru33  1  0.000497  0.282514  0.500000  1
  Ru  Ru34  1  0.817383  0.197283  0.000000  1
  Ru  Ru35  1  0.290751  0.000155  0.500000  1
