# generated using pymatgen
data_TbEr5(MoO6)2
_symmetry_space_group_name_H-M   'P 1'
_cell_length_a   6.58578507
_cell_length_b   6.58825271
_cell_length_c   6.58636000
_cell_angle_alpha   92.10972061
_cell_angle_beta   92.08212204
_cell_angle_gamma   92.07580508
_symmetry_Int_Tables_number   1
_chemical_formula_structural   TbEr5(MoO6)2
_chemical_formula_sum   'Tb1 Er5 Mo2 O12'
_cell_volume   285.19019831
_cell_formula_units_Z   1
loop_
 _symmetry_equiv_pos_site_id
 _symmetry_equiv_pos_as_xyz
  1  'x, y, z'
loop_
 _atom_site_type_symbol
 _atom_site_label
 _atom_site_symmetry_multiplicity
 _atom_site_fract_x
 _atom_site_fract_y
 _atom_site_fract_z
 _atom_site_occupancy
  Tb  Tb0  1  0.560269  0.253169  0.068744  1
  Er  Er1  1  0.746941  0.930429  0.440442  1
  Er  Er2  1  0.931716  0.440036  0.746428  1
  Er  Er3  1  0.439226  0.746939  0.930567  1
  Er  Er4  1  0.252544  0.068538  0.559967  1
  Er  Er5  1  0.068905  0.561019  0.253189  1
  Mo  Mo6  1  0.499754  0.500775  0.499917  1
  Mo  Mo7  1  0.999751  0.999075  0.999716  1
  O  O8  1  0.598457  0.469541  0.811142  1
  O  O9  1  0.466731  0.812626  0.597312  1
  O  O10  1  0.812479  0.597336  0.466448  1
  O  O11  1  0.401056  0.536345  0.188560  1
  O  O12  1  0.533464  0.187134  0.406294  1
  O  O13  1  0.187508  0.402449  0.533296  1
  O  O14  1  0.070089  0.908897  0.311577  1
  O  O15  1  0.912110  0.311695  0.069411  1
  O  O16  1  0.689023  0.926891  0.092138  1
  O  O17  1  0.091020  0.688013  0.929756  1
  O  O18  1  0.929326  0.091475  0.688532  1
  O  O19  1  0.309626  0.067618  0.906561  1
