# generated using pymatgen
data_Tb4ZnRh
_symmetry_space_group_name_H-M   'P 1'
_cell_length_a   9.52490948
_cell_length_b   9.52490923
_cell_length_c   9.52491000
_cell_angle_alpha   60.00000426
_cell_angle_beta   60.00000512
_cell_angle_gamma   60.00000055
_symmetry_Int_Tables_number   1
_chemical_formula_structural   Tb4ZnRh
_chemical_formula_sum   'Tb16 Zn4 Rh4'
_cell_volume   611.03715349
_cell_formula_units_Z   4
loop_
 _symmetry_equiv_pos_site_id
 _symmetry_equiv_pos_as_xyz
  1  'x, y, z'
loop_
 _atom_site_type_symbol
 _atom_site_label
 _atom_site_symmetry_multiplicity
 _atom_site_fract_x
 _atom_site_fract_y
 _atom_site_fract_z
 _atom_site_occupancy
  Tb  Tb0  1  0.808813  0.808813  0.191187  1
  Tb  Tb1  1  0.808813  0.191187  0.808813  1
  Tb  Tb2  1  0.191187  0.191187  0.808813  1
  Tb  Tb3  1  0.646362  0.060914  0.646362  1
  Tb  Tb4  1  0.064475  0.064475  0.435525  1
  Tb  Tb5  1  0.435525  0.435525  0.064475  1
  Tb  Tb6  1  0.646362  0.646362  0.646362  1
  Tb  Tb7  1  0.808813  0.191187  0.191187  1
  Tb  Tb8  1  0.191187  0.808813  0.808813  1
  Tb  Tb9  1  0.060914  0.646362  0.646362  1
  Tb  Tb10  1  0.435525  0.064475  0.064475  1
  Tb  Tb11  1  0.435525  0.064475  0.435525  1
  Tb  Tb12  1  0.064475  0.435525  0.064475  1
  Tb  Tb13  1  0.646362  0.646362  0.060914  1
  Tb  Tb14  1  0.191187  0.808813  0.191187  1
  Tb  Tb15  1  0.064475  0.435525  0.435525  1
  Zn  Zn16  1  0.420224  0.420224  0.420224  1
  Zn  Zn17  1  0.420224  0.420224  0.739328  1
  Zn  Zn18  1  0.420224  0.739328  0.420224  1
  Zn  Zn19  1  0.739328  0.420224  0.420224  1
  Rh  Rh20  1  0.856865  0.429406  0.856865  1
  Rh  Rh21  1  0.856865  0.856865  0.856865  1
  Rh  Rh22  1  0.856865  0.856865  0.429406  1
  Rh  Rh23  1  0.429406  0.856865  0.856865  1
