# generated using pymatgen
data_CaP12PdRu3
_symmetry_space_group_name_H-M   'P 1'
_cell_length_a   7.04997949
_cell_length_b   7.04997968
_cell_length_c   7.04998000
_cell_angle_alpha   109.46458135
_cell_angle_beta   109.46457329
_cell_angle_gamma   109.46457133
_symmetry_Int_Tables_number   1
_chemical_formula_structural   CaP12PdRu3
_chemical_formula_sum   'Ca1 P12 Pd1 Ru3'
_cell_volume   269.80408385
_cell_formula_units_Z   1
loop_
 _symmetry_equiv_pos_site_id
 _symmetry_equiv_pos_as_xyz
  1  'x, y, z'
loop_
 _atom_site_type_symbol
 _atom_site_label
 _atom_site_symmetry_multiplicity
 _atom_site_fract_x
 _atom_site_fract_y
 _atom_site_fract_z
 _atom_site_occupancy
  Ca  Ca0  1  0.000000  0.000000  0.000000  1
  P  P1  1  0.355114  0.212188  0.856425  1
  P  P2  1  0.644886  0.787812  0.143575  1
  P  P3  1  0.647206  0.500941  0.866024  1
  P  P4  1  0.352794  0.499059  0.133976  1
  P  P5  1  0.212188  0.856425  0.355114  1
  P  P6  1  0.787812  0.143575  0.644886  1
  P  P7  1  0.500941  0.866024  0.647206  1
  P  P8  1  0.499059  0.133976  0.352794  1
  P  P9  1  0.856425  0.355114  0.212188  1
  P  P10  1  0.143575  0.644886  0.787812  1
  P  P11  1  0.866024  0.647206  0.500941  1
  P  P12  1  0.133976  0.352794  0.499059  1
  Pd  Pd13  1  0.500000  0.500000  0.500000  1
  Ru  Ru14  1  0.000000  0.000000  0.500000  1
  Ru  Ru15  1  0.500000  0.000000  0.000000  1
  Ru  Ru16  1  0.000000  0.500000  0.000000  1
