# generated using pymatgen
data_Yb5Sn3F
_symmetry_space_group_name_H-M   'P 1'
_cell_length_a   9.34321292
_cell_length_b   9.34321218
_cell_length_c   9.34321176
_cell_angle_alpha   128.25331463
_cell_angle_beta   128.25332245
_cell_angle_gamma   76.21502332
_symmetry_Int_Tables_number   1
_chemical_formula_structural   Yb5Sn3F
_chemical_formula_sum   'Yb10 Sn6 F2'
_cell_volume   488.85366718
_cell_formula_units_Z   2
loop_
 _symmetry_equiv_pos_site_id
 _symmetry_equiv_pos_as_xyz
  1  'x, y, z'
loop_
 _atom_site_type_symbol
 _atom_site_label
 _atom_site_symmetry_multiplicity
 _atom_site_fract_x
 _atom_site_fract_y
 _atom_site_fract_z
 _atom_site_occupancy
  Yb  Yb0  1  0.500000  0.500000  0.000000  1
  Yb  Yb1  1  0.000000  0.000000  0.000000  1
  Yb  Yb2  1  0.504366  0.004366  0.815201  1
  Yb  Yb3  1  0.189165  0.689165  0.184799  1
  Yb  Yb4  1  0.004366  0.189165  0.500000  1
  Yb  Yb5  1  0.689165  0.504366  0.500000  1
  Yb  Yb6  1  0.495634  0.995634  0.184799  1
  Yb  Yb7  1  0.810835  0.310835  0.815201  1
  Yb  Yb8  1  0.995634  0.810835  0.500000  1
  Yb  Yb9  1  0.310835  0.495634  0.500000  1
  Sn  Sn10  1  0.250000  0.250000  0.000000  1
  Sn  Sn11  1  0.750000  0.750000  0.000000  1
  Sn  Sn12  1  0.870621  0.370621  0.241244  1
  Sn  Sn13  1  0.129379  0.629379  0.758757  1
  Sn  Sn14  1  0.370621  0.129379  0.500000  1
  Sn  Sn15  1  0.629379  0.870621  0.500000  1
  F  F16  1  0.250000  0.750000  0.500000  1
  F  F17  1  0.750000  0.250000  0.500000  1
