# generated using pymatgen
data_Ho10Si5Sb
_symmetry_space_group_name_H-M   'P 1'
_cell_length_a   8.47841800
_cell_length_b   8.51312902
_cell_length_c   6.32322200
_cell_angle_alpha   90.00000000
_cell_angle_beta   90.00000000
_cell_angle_gamma   119.86521372
_symmetry_Int_Tables_number   1
_chemical_formula_structural   Ho10Si5Sb
_chemical_formula_sum   'Ho10 Si5 Sb1'
_cell_volume   395.78684642
_cell_formula_units_Z   1
loop_
 _symmetry_equiv_pos_site_id
 _symmetry_equiv_pos_as_xyz
  1  'x, y, z'
loop_
 _atom_site_type_symbol
 _atom_site_label
 _atom_site_symmetry_multiplicity
 _atom_site_fract_x
 _atom_site_fract_y
 _atom_site_fract_z
 _atom_site_occupancy
  Ho  Ho0  1  0.987022  0.747069  0.750000  1
  Ho  Ho1  1  0.999275  0.243625  0.250000  1
  Ho  Ho2  1  0.755651  0.756375  0.250000  1
  Ho  Ho3  1  0.765394  0.000000  0.750000  1
  Ho  Ho4  1  0.239953  0.252931  0.750000  1
  Ho  Ho5  1  0.241167  0.000000  0.250000  1
  Ho  Ho6  1  0.331506  0.656855  0.496172  1
  Ho  Ho7  1  0.674651  0.343145  0.003828  1
  Ho  Ho8  1  0.674651  0.343145  0.496172  1
  Ho  Ho9  1  0.331506  0.656855  0.003828  1
  Si  Si10  1  0.393508  0.391617  0.250000  1
  Si  Si11  1  0.001891  0.608383  0.250000  1
  Si  Si12  1  0.999153  0.394335  0.750000  1
  Si  Si13  1  0.604818  0.605665  0.750000  1
  Si  Si14  1  0.606981  0.000000  0.250000  1
  Sb  Sb15  1  0.392873  0.000000  0.750000  1
