# generated using pymatgen
data_La3Si4
_symmetry_space_group_name_H-M   'P 1'
_cell_length_a   9.60731620
_cell_length_b   9.60731681
_cell_length_c   9.60731619
_cell_angle_alpha   155.82957185
_cell_angle_beta   152.54965736
_cell_angle_gamma   36.89450618
_symmetry_Int_Tables_number   1
_chemical_formula_structural   La3Si4
_chemical_formula_sum   'La3 Si4'
_cell_volume   167.14624813
_cell_formula_units_Z   1
loop_
 _symmetry_equiv_pos_site_id
 _symmetry_equiv_pos_as_xyz
  1  'x, y, z'
loop_
 _atom_site_type_symbol
 _atom_site_label
 _atom_site_symmetry_multiplicity
 _atom_site_fract_x
 _atom_site_fract_y
 _atom_site_fract_z
 _atom_site_occupancy
  La  La0  1  0.991437  0.000000  0.991437  1
  La  La1  1  0.812914  0.318477  0.494437  1
  La  La2  1  0.175960  0.681523  0.494437  1
  Si  Si3  1  0.636094  0.140973  0.495121  1
  Si  Si4  1  0.354147  0.859027  0.495121  1
  Si  Si5  1  0.427208  0.434484  0.992724  1
  Si  Si6  1  0.558239  0.565516  0.992724  1
