# generated using pymatgen
data_DyU3TaNb3N8
_symmetry_space_group_name_H-M   'P 1'
_cell_length_a   3.26872500
_cell_length_b   5.68886000
_cell_length_c   10.95624961
_cell_angle_alpha   90.07355279
_cell_angle_beta   90.00000000
_cell_angle_gamma   90.00000000
_symmetry_Int_Tables_number   1
_chemical_formula_structural   DyU3TaNb3N8
_chemical_formula_sum   'Dy1 U3 Ta1 Nb3 N8'
_cell_volume   203.73478768
_cell_formula_units_Z   1
loop_
 _symmetry_equiv_pos_site_id
 _symmetry_equiv_pos_as_xyz
  1  'x, y, z'
loop_
 _atom_site_type_symbol
 _atom_site_label
 _atom_site_symmetry_multiplicity
 _atom_site_fract_x
 _atom_site_fract_y
 _atom_site_fract_z
 _atom_site_occupancy
  Dy  Dy0  1  0.250000  0.577734  0.855584  1
  U  U1  1  0.750000  0.424648  0.140295  1
  U  U2  1  0.750000  0.924506  0.356671  1
  U  U3  1  0.250000  0.081302  0.644687  1
  Ta  Ta4  1  0.750000  0.578049  0.601396  1
  Nb  Nb5  1  0.250000  0.922149  0.099657  1
  Nb  Nb6  1  0.750000  0.072492  0.902526  1
  Nb  Nb7  1  0.250000  0.424299  0.399723  1
  N  N8  1  0.250000  0.659958  0.245200  1
  N  N9  1  0.750000  0.334212  0.750048  1
  N  N10  1  0.750000  0.841706  0.741248  1
  N  N11  1  0.250000  0.159195  0.255752  1
  N  N12  1  0.250000  0.764109  0.507068  1
  N  N13  1  0.750000  0.237416  0.497292  1
  N  N14  1  0.750000  0.733045  0.004356  1
  N  N15  1  0.250000  0.265179  0.998500  1
