# generated using pymatgen
data_Hf4PaSnRh10
_symmetry_space_group_name_H-M   'P 1'
_cell_length_a   4.24350200
_cell_length_b   5.68036272
_cell_length_c   11.13531754
_cell_angle_alpha   88.87652460
_cell_angle_beta   90.00000000
_cell_angle_gamma   90.00000000
_symmetry_Int_Tables_number   1
_chemical_formula_structural   Hf4PaSnRh10
_chemical_formula_sum   'Hf4 Pa1 Sn1 Rh10'
_cell_volume   268.36111654
_cell_formula_units_Z   1
loop_
 _symmetry_equiv_pos_site_id
 _symmetry_equiv_pos_as_xyz
  1  'x, y, z'
loop_
 _atom_site_type_symbol
 _atom_site_label
 _atom_site_symmetry_multiplicity
 _atom_site_fract_x
 _atom_site_fract_y
 _atom_site_fract_z
 _atom_site_occupancy
  Hf  Hf0  1  0.500000  0.828017  0.350458  1
  Hf  Hf1  1  0.500000  0.663364  0.860622  1
  Hf  Hf2  1  0.500000  0.336067  0.144598  1
  Hf  Hf3  1  0.000000  0.000206  0.004162  1
  Pa  Pa4  1  0.500000  0.170754  0.643854  1
  Sn  Sn5  1  0.000000  0.509432  0.493966  1
  Rh  Rh6  1  0.500000  0.185524  0.892974  1
  Rh  Rh7  1  0.500000  0.810575  0.109001  1
  Rh  Rh8  1  0.500000  0.695102  0.614235  1
  Rh  Rh9  1  0.500000  0.300011  0.385725  1
  Rh  Rh10  1  0.000000  0.423647  0.747779  1
  Rh  Rh11  1  0.000000  0.577832  0.251957  1
  Rh  Rh12  1  0.000000  0.999895  0.498204  1
  Rh  Rh13  1  0.000000  0.500777  0.000837  1
  Rh  Rh14  1  0.000000  0.081709  0.243126  1
  Rh  Rh15  1  0.000000  0.917088  0.758501  1
