# generated using pymatgen
data_DyEr3Lu4Ga3Co
_symmetry_space_group_name_H-M   'P 1'
_cell_length_a   9.82461600
_cell_length_b   9.82461597
_cell_length_c   6.90708200
_cell_angle_alpha   90.00000000
_cell_angle_beta   90.00000000
_cell_angle_gamma   120.00000011
_symmetry_Int_Tables_number   1
_chemical_formula_structural   DyEr3Lu4Ga3Co
_chemical_formula_sum   'Dy2 Er6 Lu8 Ga6 Co2'
_cell_volume   577.37292065
_cell_formula_units_Z   2
loop_
 _symmetry_equiv_pos_site_id
 _symmetry_equiv_pos_as_xyz
  1  'x, y, z'
loop_
 _atom_site_type_symbol
 _atom_site_label
 _atom_site_symmetry_multiplicity
 _atom_site_fract_x
 _atom_site_fract_y
 _atom_site_fract_z
 _atom_site_occupancy
  Dy  Dy0  1  0.000000  0.000000  0.231644  1
  Dy  Dy1  1  0.000000  0.000000  0.731644  1
  Er  Er2  1  0.464102  0.535898  0.208338  1
  Er  Er3  1  0.071796  0.535898  0.208338  1
  Er  Er4  1  0.464102  0.928204  0.208338  1
  Er  Er5  1  0.535898  0.464102  0.708338  1
  Er  Er6  1  0.928204  0.464102  0.708338  1
  Er  Er7  1  0.535898  0.071796  0.708338  1
  Lu  Lu8  1  0.173927  0.826073  0.512533  1
  Lu  Lu9  1  0.652146  0.826073  0.512533  1
  Lu  Lu10  1  0.173927  0.347854  0.512533  1
  Lu  Lu11  1  0.826073  0.173927  0.012533  1
  Lu  Lu12  1  0.347854  0.173927  0.012533  1
  Lu  Lu13  1  0.826073  0.652146  0.012533  1
  Lu  Lu14  1  0.333333  0.666667  0.825660  1
  Lu  Lu15  1  0.666667  0.333333  0.325660  1
  Ga  Ga16  1  0.163768  0.836232  0.956809  1
  Ga  Ga17  1  0.672464  0.836232  0.956809  1
  Ga  Ga18  1  0.163768  0.327536  0.956809  1
  Ga  Ga19  1  0.836232  0.163768  0.456809  1
  Ga  Ga20  1  0.327536  0.163768  0.456809  1
  Ga  Ga21  1  0.836232  0.672464  0.456809  1
  Co  Co22  1  0.333333  0.666667  0.447072  1
  Co  Co23  1  0.666667  0.333333  0.947072  1
