# generated using pymatgen
data_Pr4Ga7Si3(Pt2Rh)2
_symmetry_space_group_name_H-M   'P 1'
_cell_length_a   8.51764473
_cell_length_b   8.57176178
_cell_length_c   8.57176252
_cell_angle_alpha   138.91162766
_cell_angle_beta   106.10918529
_cell_angle_gamma   88.30376879
_symmetry_Int_Tables_number   1
_chemical_formula_structural   Pr4Ga7Si3(Pt2Rh)2
_chemical_formula_sum   'Pr4 Ga7 Si3 Pt4 Rh2'
_cell_volume   378.85327301
_cell_formula_units_Z   1
loop_
 _symmetry_equiv_pos_site_id
 _symmetry_equiv_pos_as_xyz
  1  'x, y, z'
loop_
 _atom_site_type_symbol
 _atom_site_label
 _atom_site_symmetry_multiplicity
 _atom_site_fract_x
 _atom_site_fract_y
 _atom_site_fract_z
 _atom_site_occupancy
  Pr  Pr0  1  0.867716  0.628840  0.238877  1
  Pr  Pr1  1  0.137231  0.370132  0.767098  1
  Pr  Pr2  1  0.393984  0.129953  0.264031  1
  Pr  Pr3  1  0.606842  0.870173  0.736668  1
  Ga  Ga4  1  0.502289  0.751318  0.248906  1
  Ga  Ga5  1  0.502289  0.253383  0.750970  1
  Ga  Ga6  1  0.229901  0.979265  0.752970  1
  Ga  Ga7  1  0.766376  0.512006  0.739813  1
  Ga  Ga8  1  0.766376  0.026564  0.254371  1
  Ga  Ga9  1  0.229901  0.476932  0.250636  1
  Ga  Ga10  1  0.038310  0.894884  0.143427  1
  Si  Si11  1  0.960608  0.103178  0.857431  1
  Si  Si12  1  0.749750  0.394943  0.354808  1
  Si  Si13  1  0.245253  0.602545  0.642709  1
  Pt  Pt14  1  0.245766  0.862612  0.383155  1
  Pt  Pt15  1  0.765430  0.135995  0.629434  1
  Pt  Pt16  1  0.490137  0.364940  0.125198  1
  Pt  Pt17  1  0.508452  0.636950  0.871502  1
  Rh  Rh18  1  0.996694  0.747347  0.738653  1
  Rh  Rh19  1  0.996694  0.258041  0.249347  1
