# generated using pymatgen
data_K3Mo(PO4)2
_symmetry_space_group_name_H-M   'P 1'
_cell_length_a   5.43226856
_cell_length_b   5.43238054
_cell_length_c   7.91954662
_cell_angle_alpha   89.89198121
_cell_angle_beta   90.11016818
_cell_angle_gamma   118.46846617
_symmetry_Int_Tables_number   1
_chemical_formula_structural   K3Mo(PO4)2
_chemical_formula_sum   'K3 Mo1 P2 O8'
_cell_volume   205.44655770
_cell_formula_units_Z   1
loop_
 _symmetry_equiv_pos_site_id
 _symmetry_equiv_pos_as_xyz
  1  'x, y, z'
loop_
 _atom_site_type_symbol
 _atom_site_label
 _atom_site_symmetry_multiplicity
 _atom_site_fract_x
 _atom_site_fract_y
 _atom_site_fract_z
 _atom_site_occupancy
  K  K0  1  0.192886  0.315544  0.272556  1
  K  K1  1  0.503273  0.005352  0.499640  1
  K  K2  1  0.813117  0.694531  0.726960  1
  Mo  Mo3  1  0.502427  0.004473  0.999801  1
  P  P4  1  0.158655  0.348202  0.791989  1
  P  P5  1  0.846262  0.660789  0.207619  1
  O  O6  1  0.783780  0.722377  0.386517  1
  O  O7  1  0.726001  0.780897  0.072548  1
  O  O8  1  0.290254  0.675035  0.813212  1
  O  O9  1  0.831755  0.216587  0.813104  1
  O  O10  1  0.173188  0.792714  0.186606  1
  O  O11  1  0.714938  0.333994  0.186296  1
  O  O12  1  0.278736  0.227923  0.927067  1
  O  O13  1  0.220687  0.286142  0.613095  1
