# generated using pymatgen
data_LuZr(NiH3)2
_symmetry_space_group_name_H-M   'P 1'
_cell_length_a   5.63667199
_cell_length_b   5.63667295
_cell_length_c   4.42592200
_cell_angle_alpha   90.00000000
_cell_angle_beta   90.00000000
_cell_angle_gamma   143.67931805
_symmetry_Int_Tables_number   1
_chemical_formula_structural   LuZr(NiH3)2
_chemical_formula_sum   'Lu1 Zr1 Ni2 H6'
_cell_volume   83.29023005
_cell_formula_units_Z   1
loop_
 _symmetry_equiv_pos_site_id
 _symmetry_equiv_pos_as_xyz
  1  'x, y, z'
loop_
 _atom_site_type_symbol
 _atom_site_label
 _atom_site_symmetry_multiplicity
 _atom_site_fract_x
 _atom_site_fract_y
 _atom_site_fract_z
 _atom_site_occupancy
  Lu  Lu0  1  0.861980  0.138020  0.500000  1
  Zr  Zr1  1  0.138828  0.861172  0.000000  1
  Ni  Ni2  1  0.575198  0.424802  0.500000  1
  Ni  Ni3  1  0.428005  0.571995  0.000000  1
  H  H4  1  0.683452  0.316548  0.763768  1
  H  H5  1  0.308944  0.691056  0.760626  1
  H  H6  1  0.683452  0.316548  0.236232  1
  H  H7  1  0.308944  0.691056  0.239374  1
  H  H8  1  0.074965  0.925035  0.500000  1
  H  H9  1  0.936231  0.063769  0.000000  1
