# generated using pymatgen
data_Ce4Tc7Os
_symmetry_space_group_name_H-M   'P 1'
_cell_length_a   5.21482600
_cell_length_b   5.21482618
_cell_length_c   9.55161200
_cell_angle_alpha   90.00000000
_cell_angle_beta   90.00000000
_cell_angle_gamma   119.99999886
_symmetry_Int_Tables_number   1
_chemical_formula_structural   Ce4Tc7Os
_chemical_formula_sum   'Ce4 Tc7 Os1'
_cell_volume   224.95050293
_cell_formula_units_Z   1
loop_
 _symmetry_equiv_pos_site_id
 _symmetry_equiv_pos_as_xyz
  1  'x, y, z'
loop_
 _atom_site_type_symbol
 _atom_site_label
 _atom_site_symmetry_multiplicity
 _atom_site_fract_x
 _atom_site_fract_y
 _atom_site_fract_z
 _atom_site_occupancy
  Ce  Ce0  1  0.333333  0.666667  0.438269  1
  Ce  Ce1  1  0.666667  0.333333  0.561731  1
  Ce  Ce2  1  0.666667  0.333333  0.938814  1
  Ce  Ce3  1  0.333333  0.666667  0.061186  1
  Tc  Tc4  1  0.000000  0.000000  0.500000  1
  Tc  Tc5  1  0.830754  0.169246  0.248716  1
  Tc  Tc6  1  0.830754  0.661509  0.248716  1
  Tc  Tc7  1  0.338491  0.169246  0.248716  1
  Tc  Tc8  1  0.169246  0.830754  0.751284  1
  Tc  Tc9  1  0.169246  0.338491  0.751284  1
  Tc  Tc10  1  0.661509  0.830754  0.751284  1
  Os  Os11  1  0.000000  0.000000  0.000000  1
