# generated using pymatgen
data_La10Cu3SiRu6
_symmetry_space_group_name_H-M   'P 1'
_cell_length_a   8.56001249
_cell_length_b   8.49396337
_cell_length_c   8.49396200
_cell_angle_alpha   109.31316452
_cell_angle_beta   109.62882357
_cell_angle_gamma   109.62881962
_symmetry_Int_Tables_number   1
_chemical_formula_structural   La10Cu3SiRu6
_chemical_formula_sum   'La10 Cu3 Si1 Ru6'
_cell_volume   474.48750520
_cell_formula_units_Z   1
loop_
 _symmetry_equiv_pos_site_id
 _symmetry_equiv_pos_as_xyz
  1  'x, y, z'
loop_
 _atom_site_type_symbol
 _atom_site_label
 _atom_site_symmetry_multiplicity
 _atom_site_fract_x
 _atom_site_fract_y
 _atom_site_fract_z
 _atom_site_occupancy
  La  La0  1  0.774152  0.000000  0.000000  1
  La  La1  1  0.241525  0.300912  0.049576  1
  La  La2  1  0.727244  0.722809  0.222855  1
  La  La3  1  0.191949  0.950424  0.251336  1
  La  La4  1  0.004435  0.500047  0.277192  1
  La  La5  1  0.749692  0.194371  0.444789  1
  La  La6  1  0.504390  0.777147  0.499955  1
  La  La7  1  0.940613  0.748664  0.699088  1
  La  La8  1  0.304903  0.555211  0.749582  1
  La  La9  1  0.555321  0.250418  0.805628  1
  Cu  Cu10  1  0.501687  0.418489  0.498802  1
  Cu  Cu11  1  0.083197  0.080313  0.581511  1
  Cu  Cu12  1  0.002884  0.501198  0.919687  1
  Si  Si13  1  0.410034  0.000000  0.000000  1
  Ru  Ru14  1  0.380064  0.765859  0.114577  1
  Ru  Ru15  1  0.614204  0.348718  0.234141  1
  Ru  Ru16  1  0.125671  0.256217  0.372571  1
  Ru  Ru17  1  0.265486  0.885423  0.651283  1
  Ru  Ru18  1  0.869453  0.116353  0.743783  1
  Ru  Ru19  1  0.753101  0.627429  0.883647  1
