# generated using pymatgen
data_SmDySi2(Tc2C)2
_symmetry_space_group_name_H-M   'P 1'
_cell_length_a   5.83040223
_cell_length_b   5.83040282
_cell_length_c   7.28474500
_cell_angle_alpha   90.00000000
_cell_angle_beta   90.00000000
_cell_angle_gamma   140.52026197
_symmetry_Int_Tables_number   1
_chemical_formula_structural   SmDySi2(Tc2C)2
_chemical_formula_sum   'Sm1 Dy1 Si2 Tc4 C2'
_cell_volume   157.44743123
_cell_formula_units_Z   1
loop_
 _symmetry_equiv_pos_site_id
 _symmetry_equiv_pos_as_xyz
  1  'x, y, z'
loop_
 _atom_site_type_symbol
 _atom_site_label
 _atom_site_symmetry_multiplicity
 _atom_site_fract_x
 _atom_site_fract_y
 _atom_site_fract_z
 _atom_site_occupancy
  Sm  Sm0  1  0.455526  0.544474  0.750000  1
  Dy  Dy1  1  0.544249  0.455751  0.250000  1
  Si  Si2  1  0.267529  0.732471  0.250000  1
  Si  Si3  1  0.731995  0.268005  0.750000  1
  Tc  Tc4  1  0.828347  0.171653  0.061930  1
  Tc  Tc5  1  0.171541  0.828459  0.940906  1
  Tc  Tc6  1  0.171541  0.828459  0.559094  1
  Tc  Tc7  1  0.828347  0.171653  0.438070  1
  C  C8  1  0.000462  0.999538  0.004086  1
  C  C9  1  0.000462  0.999538  0.495914  1
