# generated using pymatgen
data_Sr4Tb2NbSbO12
_symmetry_space_group_name_H-M   'P 1'
_cell_length_a   5.87116621
_cell_length_b   5.96468005
_cell_length_c   8.35509359
_cell_angle_alpha   89.99643925
_cell_angle_beta   90.22069659
_cell_angle_gamma   90.01431338
_symmetry_Int_Tables_number   1
_chemical_formula_structural   Sr4Tb2NbSbO12
_chemical_formula_sum   'Sr4 Tb2 Nb1 Sb1 O12'
_cell_volume   292.59008897
_cell_formula_units_Z   1
loop_
 _symmetry_equiv_pos_site_id
 _symmetry_equiv_pos_as_xyz
  1  'x, y, z'
loop_
 _atom_site_type_symbol
 _atom_site_label
 _atom_site_symmetry_multiplicity
 _atom_site_fract_x
 _atom_site_fract_y
 _atom_site_fract_z
 _atom_site_occupancy
  Sr  Sr0  1  0.489438  0.461092  0.250592  1
  Sr  Sr1  1  0.006945  0.962849  0.251138  1
  Sr  Sr2  1  0.993054  0.037160  0.748866  1
  Sr  Sr3  1  0.510563  0.538906  0.749409  1
  Tb  Tb4  1  0.500001  0.000001  0.000003  1
  Tb  Tb5  1  0.999998  0.499995  0.500000  1
  Nb  Nb6  1  0.500001  0.999985  0.500003  1
  Sb  Sb7  1  0.000001  0.500003  0.000000  1
  O  O8  1  0.271913  0.699525  0.041943  1
  O  O9  1  0.196380  0.227520  0.045490  1
  O  O10  1  0.918699  0.524524  0.234711  1
  O  O11  1  0.579343  0.026413  0.264865  1
  O  O12  1  0.307914  0.722584  0.455972  1
  O  O13  1  0.222472  0.194559  0.460530  1
  O  O14  1  0.777528  0.805438  0.539472  1
  O  O15  1  0.692082  0.277415  0.544022  1
  O  O16  1  0.420654  0.973593  0.735136  1
  O  O17  1  0.081300  0.475475  0.765289  1
  O  O18  1  0.803624  0.772485  0.954509  1
  O  O19  1  0.728092  0.300475  0.958056  1
