# generated using pymatgen
data_Ho8Si16MoW11
_symmetry_space_group_name_H-M   'P 1'
_cell_length_a   6.86807596
_cell_length_b   6.86807539
_cell_length_c   12.73751959
_cell_angle_alpha   90.02387055
_cell_angle_beta   89.97612789
_cell_angle_gamma   89.90494083
_symmetry_Int_Tables_number   1
_chemical_formula_structural   Ho8Si16MoW11
_chemical_formula_sum   'Ho8 Si16 Mo1 W11'
_cell_volume   600.83377159
_cell_formula_units_Z   1
loop_
 _symmetry_equiv_pos_site_id
 _symmetry_equiv_pos_as_xyz
  1  'x, y, z'
loop_
 _atom_site_type_symbol
 _atom_site_label
 _atom_site_symmetry_multiplicity
 _atom_site_fract_x
 _atom_site_fract_y
 _atom_site_fract_z
 _atom_site_occupancy
  Ho  Ho0  1  0.337171  0.997608  0.468906  1
  Ho  Ho1  1  0.502210  0.836869  0.719006  1
  Ho  Ho2  1  0.497371  0.162704  0.219045  1
  Ho  Ho3  1  0.836869  0.502210  0.280994  1
  Ho  Ho4  1  0.162704  0.497371  0.780955  1
  Ho  Ho5  1  0.663031  0.002690  0.969202  1
  Ho  Ho6  1  0.997608  0.337171  0.531094  1
  Ho  Ho7  1  0.002690  0.663031  0.030798  1
  Si  Si8  1  0.202295  0.125585  0.683021  1
  Si  Si9  1  0.374796  0.702199  0.933079  1
  Si  Si10  1  0.625759  0.297935  0.433723  1
  Si  Si11  1  0.702199  0.374796  0.066921  1
  Si  Si12  1  0.297935  0.625759  0.566277  1
  Si  Si13  1  0.797410  0.874221  0.183669  1
  Si  Si14  1  0.125585  0.202295  0.316979  1
  Si  Si15  1  0.874221  0.797410  0.816331  1
  Si  Si16  1  0.288090  0.964825  0.063355  1
  Si  Si17  1  0.536394  0.788053  0.314462  1
  Si  Si18  1  0.463807  0.211398  0.813924  1
  Si  Si19  1  0.788053  0.536394  0.685538  1
  Si  Si20  1  0.211398  0.463807  0.186076  1
  Si  Si21  1  0.711253  0.036476  0.564008  1
  Si  Si22  1  0.964825  0.288090  0.936645  1
  Si  Si23  1  0.036476  0.711253  0.435992  1
  Mo  Mo24  1  0.666464  0.666464  0.500000  1
  W  W25  1  0.333677  0.333677  0.000000  1
  W  W26  1  0.166891  0.833452  0.249453  1
  W  W27  1  0.833452  0.166891  0.750547  1
  W  W28  1  0.164551  0.998624  0.872895  1
  W  W29  1  0.500424  0.665633  0.123751  1
  W  W30  1  0.498023  0.334539  0.623991  1
  W  W31  1  0.665633  0.500424  0.876249  1
  W  W32  1  0.334539  0.498023  0.376009  1
  W  W33  1  0.836389  0.001178  0.373944  1
  W  W34  1  0.998624  0.164551  0.127105  1
  W  W35  1  0.001178  0.836389  0.626056  1
