# generated using pymatgen
data_Er12Cd2Tc3
_symmetry_space_group_name_H-M   'P 1'
_cell_length_a   8.32651632
_cell_length_b   8.32651575
_cell_length_c   8.32651700
_cell_angle_alpha   109.69304954
_cell_angle_beta   109.69305544
_cell_angle_gamma   109.02845255
_symmetry_Int_Tables_number   1
_chemical_formula_structural   Er12Cd2Tc3
_chemical_formula_sum   'Er12 Cd2 Tc3'
_cell_volume   444.37410701
_cell_formula_units_Z   1
loop_
 _symmetry_equiv_pos_site_id
 _symmetry_equiv_pos_as_xyz
  1  'x, y, z'
loop_
 _atom_site_type_symbol
 _atom_site_label
 _atom_site_symmetry_multiplicity
 _atom_site_fract_x
 _atom_site_fract_y
 _atom_site_fract_z
 _atom_site_occupancy
  Er  Er0  1  0.186910  0.431582  0.244671  1
  Er  Er1  1  0.813090  0.568418  0.755329  1
  Er  Er2  1  0.186916  0.942245  0.755328  1
  Er  Er3  1  0.942261  0.186908  0.755340  1
  Er  Er4  1  0.813084  0.057755  0.244672  1
  Er  Er5  1  0.057739  0.813092  0.244660  1
  Er  Er6  1  0.431568  0.186908  0.244648  1
  Er  Er7  1  0.568432  0.813092  0.755352  1
  Er  Er8  1  0.318863  0.318870  0.637711  1
  Er  Er9  1  0.681137  0.681130  0.362289  1
  Er  Er10  1  0.681160  0.318870  0.000007  1
  Er  Er11  1  0.318840  0.681130  0.999993  1
  Cd  Cd12  1  0.000000  0.500000  0.500000  1
  Cd  Cd13  1  0.500000  0.000000  0.500000  1
  Tc  Tc14  1  0.338837  0.338838  0.000001  1
  Tc  Tc15  1  0.661163  0.661162  0.999999  1
  Tc  Tc16  1  0.000000  0.000000  0.000000  1
