# generated using pymatgen
data_Sc10CoPd3
_symmetry_space_group_name_H-M   'P 1'
_cell_length_a   8.86449800
_cell_length_b   8.86449847
_cell_length_c   8.60603000
_cell_angle_alpha   90.00000000
_cell_angle_beta   90.00000000
_cell_angle_gamma   119.99999825
_symmetry_Int_Tables_number   1
_chemical_formula_structural   Sc10CoPd3
_chemical_formula_sum   'Sc20 Co2 Pd6'
_cell_volume   585.65493966
_cell_formula_units_Z   2
loop_
 _symmetry_equiv_pos_site_id
 _symmetry_equiv_pos_as_xyz
  1  'x, y, z'
loop_
 _atom_site_type_symbol
 _atom_site_label
 _atom_site_symmetry_multiplicity
 _atom_site_fract_x
 _atom_site_fract_y
 _atom_site_fract_z
 _atom_site_occupancy
  Sc  Sc0  1  0.000000  0.000000  0.500000  1
  Sc  Sc1  1  0.000000  0.000000  0.000000  1
  Sc  Sc2  1  0.541832  0.458168  0.250000  1
  Sc  Sc3  1  0.541832  0.083665  0.250000  1
  Sc  Sc4  1  0.916335  0.458168  0.250000  1
  Sc  Sc5  1  0.458168  0.541832  0.750000  1
  Sc  Sc6  1  0.458168  0.916335  0.750000  1
  Sc  Sc7  1  0.083665  0.541832  0.750000  1
  Sc  Sc8  1  0.207904  0.792096  0.439256  1
  Sc  Sc9  1  0.207904  0.415809  0.439256  1
  Sc  Sc10  1  0.584191  0.792096  0.439256  1
  Sc  Sc11  1  0.792096  0.207904  0.560744  1
  Sc  Sc12  1  0.792096  0.584191  0.560744  1
  Sc  Sc13  1  0.415809  0.207904  0.560744  1
  Sc  Sc14  1  0.792096  0.207904  0.939256  1
  Sc  Sc15  1  0.792096  0.584191  0.939256  1
  Sc  Sc16  1  0.415809  0.207904  0.939256  1
  Sc  Sc17  1  0.207904  0.792096  0.060744  1
  Sc  Sc18  1  0.207904  0.415809  0.060744  1
  Sc  Sc19  1  0.584191  0.792096  0.060744  1
  Co  Co20  1  0.333333  0.666667  0.250000  1
  Co  Co21  1  0.666667  0.333333  0.750000  1
  Pd  Pd22  1  0.879521  0.120479  0.250000  1
  Pd  Pd23  1  0.879521  0.759042  0.250000  1
  Pd  Pd24  1  0.240958  0.120479  0.250000  1
  Pd  Pd25  1  0.120479  0.879521  0.750000  1
  Pd  Pd26  1  0.120479  0.240958  0.750000  1
  Pd  Pd27  1  0.759042  0.879521  0.750000  1
