# generated using pymatgen
data_Pr7Ho13Sn16
_symmetry_space_group_name_H-M   'P 1'
_cell_length_a   8.13601406
_cell_length_b   8.28068881
_cell_length_c   15.58905039
_cell_angle_alpha   90.03893272
_cell_angle_beta   90.28758357
_cell_angle_gamma   89.69011237
_symmetry_Int_Tables_number   1
_chemical_formula_structural   Pr7Ho13Sn16
_chemical_formula_sum   'Pr7 Ho13 Sn16'
_cell_volume   1050.23357944
_cell_formula_units_Z   1
loop_
 _symmetry_equiv_pos_site_id
 _symmetry_equiv_pos_as_xyz
  1  'x, y, z'
loop_
 _atom_site_type_symbol
 _atom_site_label
 _atom_site_symmetry_multiplicity
 _atom_site_fract_x
 _atom_site_fract_y
 _atom_site_fract_z
 _atom_site_occupancy
  Pr  Pr0  1  0.016691  0.179837  0.598617  1
  Pr  Pr1  1  0.483647  0.679102  0.402917  1
  Pr  Pr2  1  0.982885  0.820620  0.096596  1
  Pr  Pr3  1  0.482550  0.677885  0.096648  1
  Pr  Pr4  1  0.983650  0.820882  0.402983  1
  Pr  Pr5  1  0.515522  0.321297  0.596706  1
  Pr  Pr6  1  0.016841  0.180278  0.902695  1
  Ho  Ho7  1  0.364333  0.835769  0.877415  1
  Ho  Ho8  1  0.863047  0.663440  0.623031  1
  Ho  Ho9  1  0.636308  0.164006  0.377476  1
  Ho  Ho10  1  0.134145  0.336603  0.121453  1
  Ho  Ho11  1  0.634521  0.164499  0.121889  1
  Ho  Ho12  1  0.136494  0.336069  0.377671  1
  Ho  Ho13  1  0.363857  0.836705  0.623708  1
  Ho  Ho14  1  0.865041  0.663257  0.878183  1
  Ho  Ho15  1  0.520514  0.321163  0.901271  1
  Ho  Ho16  1  0.198192  0.502645  0.751049  1
  Ho  Ho17  1  0.696951  0.996593  0.750757  1
  Ho  Ho18  1  0.802055  0.496413  0.249577  1
  Ho  Ho19  1  0.302570  0.003770  0.249679  1
  Sn  Sn20  1  0.300866  0.040480  0.041868  1
  Sn  Sn21  1  0.801236  0.459310  0.457867  1
  Sn  Sn22  1  0.698938  0.959839  0.542581  1
  Sn  Sn23  1  0.206400  0.535220  0.956172  1
  Sn  Sn24  1  0.697593  0.963427  0.956950  1
  Sn  Sn25  1  0.198343  0.541742  0.542465  1
  Sn  Sn26  1  0.301203  0.040137  0.458146  1
  Sn  Sn27  1  0.795386  0.457209  0.039981  1
  Sn  Sn28  1  0.563397  0.622451  0.750575  1
  Sn  Sn29  1  0.063389  0.875315  0.750391  1
  Sn  Sn30  1  0.435973  0.375927  0.249744  1
  Sn  Sn31  1  0.936323  0.125249  0.249613  1
  Sn  Sn32  1  0.329128  0.144353  0.752414  1
  Sn  Sn33  1  0.822409  0.358863  0.751100  1
  Sn  Sn34  1  0.674676  0.858798  0.249860  1
  Sn  Sn35  1  0.174927  0.640848  0.249952  1
