# generated using pymatgen
data_Ho5Er3Sc12(GaSi3)4
_symmetry_space_group_name_H-M   'P 1'
_cell_length_a   7.10663244
_cell_length_b   7.38976299
_cell_length_c   14.11804701
_cell_angle_alpha   89.98742799
_cell_angle_beta   89.82615323
_cell_angle_gamma   90.14634973
_symmetry_Int_Tables_number   1
_chemical_formula_structural   Ho5Er3Sc12(GaSi3)4
_chemical_formula_sum   'Ho5 Er3 Sc12 Ga4 Si12'
_cell_volume   741.42215701
_cell_formula_units_Z   1
loop_
 _symmetry_equiv_pos_site_id
 _symmetry_equiv_pos_as_xyz
  1  'x, y, z'
loop_
 _atom_site_type_symbol
 _atom_site_label
 _atom_site_symmetry_multiplicity
 _atom_site_fract_x
 _atom_site_fract_y
 _atom_site_fract_z
 _atom_site_occupancy
  Ho  Ho0  1  0.013161  0.175201  0.096666  1
  Ho  Ho1  1  0.988586  0.824748  0.902032  1
  Ho  Ho2  1  0.487468  0.677523  0.901763  1
  Ho  Ho3  1  0.988676  0.827566  0.600656  1
  Ho  Ho4  1  0.510375  0.320724  0.096866  1
  Er  Er5  1  0.008744  0.174981  0.400021  1
  Er  Er6  1  0.510286  0.323854  0.400075  1
  Er  Er7  1  0.491326  0.676177  0.601110  1
  Sc  Sc8  1  0.163643  0.500937  0.751815  1
  Sc  Sc9  1  0.835897  0.498523  0.249802  1
  Sc  Sc10  1  0.335528  0.001785  0.248218  1
  Sc  Sc11  1  0.664084  0.998456  0.750212  1
  Sc  Sc12  1  0.334774  0.174404  0.628456  1
  Sc  Sc13  1  0.668136  0.826902  0.373283  1
  Sc  Sc14  1  0.169328  0.673018  0.372496  1
  Sc  Sc15  1  0.668132  0.826613  0.125416  1
  Sc  Sc16  1  0.829662  0.325037  0.627089  1
  Sc  Sc17  1  0.331010  0.175534  0.874609  1
  Sc  Sc18  1  0.829489  0.323699  0.874533  1
  Sc  Sc19  1  0.172716  0.674887  0.124242  1
  Ga  Ga20  1  0.163213  0.460779  0.539670  1
  Ga  Ga21  1  0.838143  0.538884  0.461961  1
  Ga  Ga22  1  0.337791  0.960719  0.462262  1
  Ga  Ga23  1  0.838492  0.538710  0.038299  1
  Si  Si24  1  0.033702  0.115510  0.751642  1
  Si  Si25  1  0.966666  0.884686  0.248636  1
  Si  Si26  1  0.467018  0.613223  0.248060  1
  Si  Si27  1  0.533982  0.386743  0.751700  1
  Si  Si28  1  0.286685  0.870965  0.751536  1
  Si  Si29  1  0.713953  0.129067  0.248181  1
  Si  Si30  1  0.213017  0.370349  0.248207  1
  Si  Si31  1  0.787551  0.629960  0.751960  1
  Si  Si32  1  0.659146  0.036653  0.538980  1
  Si  Si33  1  0.158790  0.463556  0.960821  1
  Si  Si34  1  0.657405  0.035927  0.961288  1
  Si  Si35  1  0.343424  0.963699  0.037440  1
