# generated using pymatgen
data_Er5Lu5Si5Ge
_symmetry_space_group_name_H-M   'P 1'
_cell_length_a   8.31144474
_cell_length_b   8.32041845
_cell_length_c   6.21608600
_cell_angle_alpha   90.00000000
_cell_angle_beta   90.00000000
_cell_angle_gamma   120.01262231
_symmetry_Int_Tables_number   1
_chemical_formula_structural   Er5Lu5Si5Ge
_chemical_formula_sum   'Er5 Lu5 Si5 Ge1'
_cell_volume   372.23232418
_cell_formula_units_Z   1
loop_
 _symmetry_equiv_pos_site_id
 _symmetry_equiv_pos_as_xyz
  1  'x, y, z'
loop_
 _atom_site_type_symbol
 _atom_site_label
 _atom_site_symmetry_multiplicity
 _atom_site_fract_x
 _atom_site_fract_y
 _atom_site_fract_z
 _atom_site_occupancy
  Er  Er0  1  0.998656  0.755676  0.750000  1
  Er  Er1  1  0.757045  0.757349  0.250000  1
  Er  Er2  1  0.758309  0.000229  0.750000  1
  Er  Er3  1  0.242419  0.244048  0.750000  1
  Er  Er4  1  0.242475  0.000151  0.250000  1
  Lu  Lu5  1  0.999895  0.243024  0.250000  1
  Lu  Lu6  1  0.332994  0.665333  0.499198  1
  Lu  Lu7  1  0.667797  0.334423  0.000814  1
  Lu  Lu8  1  0.667797  0.334423  0.499186  1
  Lu  Lu9  1  0.332994  0.665333  0.000802  1
  Si  Si10  1  0.394067  0.394463  0.250000  1
  Si  Si11  1  0.000101  0.604859  0.250000  1
  Si  Si12  1  0.999962  0.394975  0.750000  1
  Si  Si13  1  0.605090  0.605247  0.750000  1
  Si  Si14  1  0.606069  0.000443  0.250000  1
  Ge  Ge15  1  0.394332  0.000022  0.750000  1
