# generated using pymatgen
data_CrGa3(Ni2Pt)4
_symmetry_space_group_name_H-M   'P 1'
_cell_length_a   3.71146400
_cell_length_b   3.69329200
_cell_length_c   14.77379000
_cell_angle_alpha   90.00000000
_cell_angle_beta   90.00000000
_cell_angle_gamma   90.00000000
_symmetry_Int_Tables_number   1
_chemical_formula_structural   CrGa3(Ni2Pt)4
_chemical_formula_sum   'Cr1 Ga3 Ni8 Pt4'
_cell_volume   202.51202633
_cell_formula_units_Z   1
loop_
 _symmetry_equiv_pos_site_id
 _symmetry_equiv_pos_as_xyz
  1  'x, y, z'
loop_
 _atom_site_type_symbol
 _atom_site_label
 _atom_site_symmetry_multiplicity
 _atom_site_fract_x
 _atom_site_fract_y
 _atom_site_fract_z
 _atom_site_occupancy
  Cr  Cr0  1  0.000000  0.000000  0.000000  1
  Ga  Ga1  1  0.000000  0.000000  0.250817  1
  Ga  Ga2  1  0.000000  0.000000  0.500000  1
  Ga  Ga3  1  0.000000  0.000000  0.749183  1
  Ni  Ni4  1  0.500000  0.500000  0.000000  1
  Ni  Ni5  1  0.500000  0.500000  0.248063  1
  Ni  Ni6  1  0.500000  0.500000  0.500000  1
  Ni  Ni7  1  0.500000  0.500000  0.751937  1
  Ni  Ni8  1  0.000000  0.500000  0.120303  1
  Ni  Ni9  1  0.000000  0.500000  0.375082  1
  Ni  Ni10  1  0.000000  0.500000  0.624918  1
  Ni  Ni11  1  0.000000  0.500000  0.879697  1
  Pt  Pt12  1  0.500000  0.000000  0.122619  1
  Pt  Pt13  1  0.500000  0.000000  0.374326  1
  Pt  Pt14  1  0.500000  0.000000  0.625674  1
  Pt  Pt15  1  0.500000  0.000000  0.877381  1
