# generated using pymatgen
data_Ho4NpTc7
_symmetry_space_group_name_H-M   'P 1'
_cell_length_a   5.28699497
_cell_length_b   5.28699508
_cell_length_c   8.99388100
_cell_angle_alpha   90.00000000
_cell_angle_beta   90.00000000
_cell_angle_gamma   115.56849139
_symmetry_Int_Tables_number   1
_chemical_formula_structural   Ho4NpTc7
_chemical_formula_sum   'Ho4 Np1 Tc7'
_cell_volume   226.78022576
_cell_formula_units_Z   1
loop_
 _symmetry_equiv_pos_site_id
 _symmetry_equiv_pos_as_xyz
  1  'x, y, z'
loop_
 _atom_site_type_symbol
 _atom_site_label
 _atom_site_symmetry_multiplicity
 _atom_site_fract_x
 _atom_site_fract_y
 _atom_site_fract_z
 _atom_site_occupancy
  Ho  Ho0  1  0.329573  0.670427  0.445943  1
  Ho  Ho1  1  0.661556  0.338444  0.570674  1
  Ho  Ho2  1  0.661556  0.338444  0.929326  1
  Ho  Ho3  1  0.329573  0.670427  0.054057  1
  Np  Np4  1  0.848001  0.151999  0.250000  1
  Tc  Tc5  1  0.988945  0.011055  0.487150  1
  Tc  Tc6  1  0.988945  0.011055  0.012850  1
  Tc  Tc7  1  0.839476  0.622137  0.250000  1
  Tc  Tc8  1  0.377863  0.160524  0.250000  1
  Tc  Tc9  1  0.161657  0.838343  0.750000  1
  Tc  Tc10  1  0.161832  0.348975  0.750000  1
  Tc  Tc11  1  0.651025  0.838168  0.750000  1
