# generated using pymatgen
data_Dy2Ho2SiBr6
_symmetry_space_group_name_H-M   'P 1'
_cell_length_a   4.04431800
_cell_length_b   13.23611300
_cell_length_c   14.02770600
_cell_angle_alpha   90.00000000
_cell_angle_beta   90.00000000
_cell_angle_gamma   90.00000000
_symmetry_Int_Tables_number   1
_chemical_formula_structural   Dy2Ho2SiBr6
_chemical_formula_sum   'Dy4 Ho4 Si2 Br12'
_cell_volume   750.91783206
_cell_formula_units_Z   2
loop_
 _symmetry_equiv_pos_site_id
 _symmetry_equiv_pos_as_xyz
  1  'x, y, z'
loop_
 _atom_site_type_symbol
 _atom_site_label
 _atom_site_symmetry_multiplicity
 _atom_site_fract_x
 _atom_site_fract_y
 _atom_site_fract_z
 _atom_site_occupancy
  Dy  Dy0  1  0.000000  0.118148  0.578502  1
  Dy  Dy1  1  0.000000  0.881852  0.421498  1
  Dy  Dy2  1  0.000000  0.618148  0.921498  1
  Dy  Dy3  1  0.000000  0.381852  0.078502  1
  Ho  Ho4  1  0.500000  0.117898  0.341510  1
  Ho  Ho5  1  0.500000  0.882102  0.658490  1
  Ho  Ho6  1  0.500000  0.617898  0.158490  1
  Ho  Ho7  1  0.500000  0.382102  0.841510  1
  Si  Si8  1  0.500000  0.000000  0.500000  1
  Si  Si9  1  0.500000  0.500000  0.000000  1
  Br  Br10  1  0.500000  0.243688  0.163592  1
  Br  Br11  1  0.500000  0.756312  0.836408  1
  Br  Br12  1  0.500000  0.743688  0.336408  1
  Br  Br13  1  0.500000  0.256312  0.663592  1
  Br  Br14  1  0.000000  0.255076  0.410409  1
  Br  Br15  1  0.000000  0.744924  0.589591  1
  Br  Br16  1  0.000000  0.755076  0.089591  1
  Br  Br17  1  0.000000  0.244924  0.910409  1
  Br  Br18  1  0.000000  0.002939  0.243008  1
  Br  Br19  1  0.000000  0.997061  0.756992  1
  Br  Br20  1  0.000000  0.502939  0.256992  1
  Br  Br21  1  0.000000  0.497061  0.743008  1
