# generated using pymatgen
data_Sm3Ga2B4Rh9
_symmetry_space_group_name_H-M   'P 1'
_cell_length_a   5.54603800
_cell_length_b   5.54603767
_cell_length_c   10.05150200
_cell_angle_alpha   90.00000000
_cell_angle_beta   90.00000000
_cell_angle_gamma   119.99999001
_symmetry_Int_Tables_number   1
_chemical_formula_structural   Sm3Ga2B4Rh9
_chemical_formula_sum   'Sm3 Ga2 B4 Rh9'
_cell_volume   267.74865333
_cell_formula_units_Z   1
loop_
 _symmetry_equiv_pos_site_id
 _symmetry_equiv_pos_as_xyz
  1  'x, y, z'
loop_
 _atom_site_type_symbol
 _atom_site_label
 _atom_site_symmetry_multiplicity
 _atom_site_fract_x
 _atom_site_fract_y
 _atom_site_fract_z
 _atom_site_occupancy
  Sm  Sm0  1  0.000000  0.000000  0.000000  1
  Sm  Sm1  1  0.000000  0.000000  0.660785  1
  Sm  Sm2  1  0.000000  0.000000  0.339215  1
  Ga  Ga3  1  0.666667  0.333333  0.000000  1
  Ga  Ga4  1  0.333333  0.666667  0.000000  1
  B  B5  1  0.666667  0.333333  0.653490  1
  B  B6  1  0.333333  0.666667  0.653490  1
  B  B7  1  0.333333  0.666667  0.346510  1
  B  B8  1  0.666667  0.333333  0.346510  1
  Rh  Rh9  1  0.500000  0.500000  0.500000  1
  Rh  Rh10  1  0.500000  0.000000  0.500000  1
  Rh  Rh11  1  0.000000  0.500000  0.500000  1
  Rh  Rh12  1  0.500000  0.500000  0.795507  1
  Rh  Rh13  1  0.500000  0.000000  0.795507  1
  Rh  Rh14  1  0.000000  0.500000  0.795507  1
  Rh  Rh15  1  0.500000  0.500000  0.204493  1
  Rh  Rh16  1  0.500000  0.000000  0.204493  1
  Rh  Rh17  1  0.000000  0.500000  0.204493  1
