# generated using pymatgen
data_Hf4Si4Pt
_symmetry_space_group_name_H-M   'P 1'
_cell_length_a   5.24891157
_cell_length_b   5.24891220
_cell_length_c   8.74003300
_cell_angle_alpha   71.51398000
_cell_angle_beta   71.51397809
_cell_angle_gamma   42.18262167
_symmetry_Int_Tables_number   1
_chemical_formula_structural   Hf4Si4Pt
_chemical_formula_sum   'Hf4 Si4 Pt1'
_cell_volume   152.07089084
_cell_formula_units_Z   1
loop_
 _symmetry_equiv_pos_site_id
 _symmetry_equiv_pos_as_xyz
  1  'x, y, z'
loop_
 _atom_site_type_symbol
 _atom_site_label
 _atom_site_symmetry_multiplicity
 _atom_site_fract_x
 _atom_site_fract_y
 _atom_site_fract_z
 _atom_site_occupancy
  Hf  Hf0  1  0.108535  0.108535  0.617153  1
  Hf  Hf1  1  0.891465  0.891465  0.382847  1
  Hf  Hf2  1  0.754791  0.754791  0.841837  1
  Hf  Hf3  1  0.245209  0.245209  0.158163  1
  Si  Si4  1  0.385461  0.385461  0.613157  1
  Si  Si5  1  0.614539  0.614539  0.386843  1
  Si  Si6  1  0.461874  0.461874  0.844880  1
  Si  Si7  1  0.538126  0.538126  0.155120  1
  Pt  Pt8  1  0.000000  0.000000  0.000000  1
