# generated using pymatgen
data_KDyTa6Cl18
_symmetry_space_group_name_H-M   'P 1'
_cell_length_a   10.18822842
_cell_length_b   10.18822906
_cell_length_c   10.18822919
_cell_angle_alpha   55.73899796
_cell_angle_beta   55.73899719
_cell_angle_gamma   55.73900084
_symmetry_Int_Tables_number   1
_chemical_formula_structural   KDyTa6Cl18
_chemical_formula_sum   'K1 Dy1 Ta6 Cl18'
_cell_volume   673.88821295
_cell_formula_units_Z   1
loop_
 _symmetry_equiv_pos_site_id
 _symmetry_equiv_pos_as_xyz
  1  'x, y, z'
loop_
 _atom_site_type_symbol
 _atom_site_label
 _atom_site_symmetry_multiplicity
 _atom_site_fract_x
 _atom_site_fract_y
 _atom_site_fract_z
 _atom_site_occupancy
  K  K0  1  0.221263  0.221263  0.221263  1
  Dy  Dy1  1  0.498852  0.498852  0.498852  1
  Ta  Ta2  1  0.804547  0.146800  0.911647  1
  Ta  Ta3  1  0.911647  0.804547  0.146800  1
  Ta  Ta4  1  0.146800  0.911647  0.804547  1
  Ta  Ta5  1  0.196491  0.853338  0.087627  1
  Ta  Ta6  1  0.087627  0.196491  0.853338  1
  Ta  Ta7  1  0.853338  0.087627  0.196491  1
  Cl  Cl8  1  0.867432  0.410543  0.725417  1
  Cl  Cl9  1  0.725417  0.867432  0.410543  1
  Cl  Cl10  1  0.410543  0.725417  0.867432  1
  Cl  Cl11  1  0.132569  0.588422  0.275681  1
  Cl  Cl12  1  0.275681  0.132569  0.588422  1
  Cl  Cl13  1  0.588422  0.275681  0.132569  1
  Cl  Cl14  1  0.541529  0.338190  0.799232  1
  Cl  Cl15  1  0.799232  0.541529  0.338190  1
  Cl  Cl16  1  0.338190  0.799232  0.541529  1
  Cl  Cl17  1  0.453039  0.663183  0.205124  1
  Cl  Cl18  1  0.205124  0.453039  0.663183  1
  Cl  Cl19  1  0.663183  0.205124  0.453039  1
  Cl  Cl20  1  0.660660  0.940965  0.070077  1
  Cl  Cl21  1  0.070077  0.660660  0.940965  1
  Cl  Cl22  1  0.940965  0.070077  0.660660  1
  Cl  Cl23  1  0.339406  0.059073  0.930032  1
  Cl  Cl24  1  0.930032  0.339406  0.059073  1
  Cl  Cl25  1  0.059073  0.930032  0.339406  1
