# generated using pymatgen
data_SrLi4(Ni2P3)2
_symmetry_space_group_name_H-M   'P 1'
_cell_length_a   7.96430715
_cell_length_b   7.96430894
_cell_length_c   7.96430758
_cell_angle_alpha   151.66330483
_cell_angle_beta   115.97212666
_cell_angle_gamma   71.45148543
_symmetry_Int_Tables_number   1
_chemical_formula_structural   SrLi4(Ni2P3)2
_chemical_formula_sum   'Sr1 Li4 Ni4 P6'
_cell_volume   212.86517529
_cell_formula_units_Z   1
loop_
 _symmetry_equiv_pos_site_id
 _symmetry_equiv_pos_as_xyz
  1  'x, y, z'
loop_
 _atom_site_type_symbol
 _atom_site_label
 _atom_site_symmetry_multiplicity
 _atom_site_fract_x
 _atom_site_fract_y
 _atom_site_fract_z
 _atom_site_occupancy
  Sr  Sr0  1  0.000000  0.000000  0.000000  1
  Li  Li1  1  0.716973  0.716973  0.000000  1
  Li  Li2  1  0.668667  0.500000  0.168667  1
  Li  Li3  1  0.331333  0.500000  0.831333  1
  Li  Li4  1  0.283027  0.283027  0.000000  1
  Ni  Ni5  1  0.907176  0.176541  0.730636  1
  Ni  Ni6  1  0.554096  0.823459  0.730636  1
  Ni  Ni7  1  0.445904  0.176541  0.269364  1
  Ni  Ni8  1  0.092824  0.823459  0.269364  1
  P  P9  1  0.974173  0.339043  0.635130  1
  P  P10  1  0.703912  0.339043  0.364870  1
  P  P11  1  0.585021  0.085021  0.500000  1
  P  P12  1  0.414979  0.914979  0.500000  1
  P  P13  1  0.296088  0.660957  0.635130  1
  P  P14  1  0.025827  0.660957  0.364870  1
