# generated using pymatgen
data_YHo3Ir4F28
_symmetry_space_group_name_H-M   'P 1'
_cell_length_a   5.58280103
_cell_length_b   8.91905090
_cell_length_c   11.93440713
_cell_angle_alpha   62.56569267
_cell_angle_beta   90.01282697
_cell_angle_gamma   90.00567269
_symmetry_Int_Tables_number   1
_chemical_formula_structural   YHo3Ir4F28
_chemical_formula_sum   'Y1 Ho3 Ir4 F28'
_cell_volume   527.42341280
_cell_formula_units_Z   1
loop_
 _symmetry_equiv_pos_site_id
 _symmetry_equiv_pos_as_xyz
  1  'x, y, z'
loop_
 _atom_site_type_symbol
 _atom_site_label
 _atom_site_symmetry_multiplicity
 _atom_site_fract_x
 _atom_site_fract_y
 _atom_site_fract_z
 _atom_site_occupancy
  Y  Y0  1  0.739938  0.814202  0.266276  1
  Ho  Ho1  1  0.760104  0.814326  0.766047  1
  Ho  Ho2  1  0.260065  0.186069  0.733715  1
  Ho  Ho3  1  0.239947  0.187032  0.233635  1
  Ir  Ir4  1  0.757245  0.274167  0.954895  1
  Ir  Ir5  1  0.256962  0.726152  0.545435  1
  Ir  Ir6  1  0.243078  0.726176  0.044084  1
  Ir  Ir7  1  0.742980  0.273036  0.455600  1
  F  F8  1  0.448819  0.705767  0.918174  1
  F  F9  1  0.949260  0.293954  0.581554  1
  F  F10  1  0.551292  0.294435  0.081141  1
  F  F11  1  0.052588  0.705039  0.419321  1
  F  F12  1  0.449991  0.282223  0.546046  1
  F  F13  1  0.949893  0.717517  0.953952  1
  F  F14  1  0.549808  0.716397  0.455642  1
  F  F15  1  0.050198  0.282998  0.045626  1
  F  F16  1  0.766531  0.519637  0.858208  1
  F  F17  1  0.266284  0.480862  0.641978  1
  F  F18  1  0.233467  0.481217  0.141147  1
  F  F19  1  0.733211  0.518239  0.358546  1
  F  F20  1  0.757379  0.028780  0.048771  1
  F  F21  1  0.257476  0.971375  0.450707  1
  F  F22  1  0.242690  0.971314  0.950081  1
  F  F23  1  0.742564  0.027487  0.550117  1
  F  F24  1  0.971777  0.730387  0.641470  1
  F  F25  1  0.472195  0.269777  0.858539  1
  F  F26  1  0.027975  0.269665  0.359062  1
  F  F27  1  0.527792  0.729602  0.140130  1
  F  F28  1  0.043029  0.744801  0.173119  1
  F  F29  1  0.540983  0.254128  0.326730  1
  F  F30  1  0.959030  0.254644  0.826405  1
  F  F31  1  0.458556  0.745617  0.673843  1
  F  F32  1  0.418061  0.973140  0.232488  1
  F  F33  1  0.921230  0.029702  0.267514  1
  F  F34  1  0.578725  0.027609  0.767196  1
  F  F35  1  0.078876  0.972527  0.732807  1
