# generated using pymatgen
data_Pu3(CoGe2)2
_symmetry_space_group_name_H-M   'P 1'
_cell_length_a   4.13708400
_cell_length_b   5.82920492
_cell_length_c   8.05167127
_cell_angle_alpha   108.19264396
_cell_angle_beta   90.00000000
_cell_angle_gamma   110.78476283
_symmetry_Int_Tables_number   1
_chemical_formula_structural   Pu3(CoGe2)2
_chemical_formula_sum   'Pu3 Co2 Ge4'
_cell_volume   171.11497035
_cell_formula_units_Z   1
loop_
 _symmetry_equiv_pos_site_id
 _symmetry_equiv_pos_as_xyz
  1  'x, y, z'
loop_
 _atom_site_type_symbol
 _atom_site_label
 _atom_site_symmetry_multiplicity
 _atom_site_fract_x
 _atom_site_fract_y
 _atom_site_fract_z
 _atom_site_occupancy
  Pu  Pu0  1  0.000000  0.000000  0.000000  1
  Pu  Pu1  1  0.391243  0.782486  0.317882  1
  Pu  Pu2  1  0.608756  0.217514  0.682119  1
  Co  Co3  1  0.697942  0.395888  0.366873  1
  Co  Co4  1  0.302057  0.604112  0.633127  1
  Ge  Ge5  1  0.717108  0.434219  0.080569  1
  Ge  Ge6  1  0.103498  0.206997  0.392683  1
  Ge  Ge7  1  0.896501  0.793003  0.607317  1
  Ge  Ge8  1  0.282891  0.565781  0.919432  1
