# generated using pymatgen
data_Ba8CePuSe12
_symmetry_space_group_name_H-M   'P 1'
_cell_length_a   9.07149782
_cell_length_b   9.07149665
_cell_length_c   9.07149786
_cell_angle_alpha   89.41222892
_cell_angle_beta   89.41223665
_cell_angle_gamma   89.41223787
_symmetry_Int_Tables_number   1
_chemical_formula_structural   Ba8CePuSe12
_chemical_formula_sum   'Ba8 Ce1 Pu1 Se12'
_cell_volume   746.39522686
_cell_formula_units_Z   1
loop_
 _symmetry_equiv_pos_site_id
 _symmetry_equiv_pos_as_xyz
  1  'x, y, z'
loop_
 _atom_site_type_symbol
 _atom_site_label
 _atom_site_symmetry_multiplicity
 _atom_site_fract_x
 _atom_site_fract_y
 _atom_site_fract_z
 _atom_site_occupancy
  Ba  Ba0  1  0.873836  0.626076  0.248629  1
  Ba  Ba1  1  0.248629  0.873836  0.626076  1
  Ba  Ba2  1  0.626076  0.248629  0.873836  1
  Ba  Ba3  1  0.751371  0.126164  0.373924  1
  Ba  Ba4  1  0.373924  0.751371  0.126164  1
  Ba  Ba5  1  0.126164  0.373924  0.751371  1
  Ba  Ba6  1  0.249773  0.249773  0.249773  1
  Ba  Ba7  1  0.750227  0.750227  0.750227  1
  Ce  Ce8  1  0.500000  0.500000  0.500000  1
  Pu  Pu9  1  0.000000  0.000000  0.000000  1
  Se  Se10  1  0.199657  0.562022  0.422704  1
  Se  Se11  1  0.422704  0.199657  0.562022  1
  Se  Se12  1  0.562022  0.422704  0.199657  1
  Se  Se13  1  0.925208  0.061439  0.701551  1
  Se  Se14  1  0.701551  0.925208  0.061439  1
  Se  Se15  1  0.061439  0.701551  0.925208  1
  Se  Se16  1  0.800343  0.437978  0.577296  1
  Se  Se17  1  0.577296  0.800343  0.437978  1
  Se  Se18  1  0.437978  0.577296  0.800343  1
  Se  Se19  1  0.074792  0.938561  0.298449  1
  Se  Se20  1  0.298449  0.074792  0.938561  1
  Se  Se21  1  0.938561  0.298449  0.074792  1
