# generated using pymatgen
data_Ho8ZnCdCo2
_symmetry_space_group_name_H-M   'P 1'
_cell_length_a   9.37136080
_cell_length_b   9.39262208
_cell_length_c   9.37136106
_cell_angle_alpha   59.92492476
_cell_angle_beta   59.94432590
_cell_angle_gamma   59.92492714
_symmetry_Int_Tables_number   1
_chemical_formula_structural   Ho8ZnCdCo2
_chemical_formula_sum   'Ho16 Zn2 Cd2 Co4'
_cell_volume   582.37239913
_cell_formula_units_Z   2
loop_
 _symmetry_equiv_pos_site_id
 _symmetry_equiv_pos_as_xyz
  1  'x, y, z'
loop_
 _atom_site_type_symbol
 _atom_site_label
 _atom_site_symmetry_multiplicity
 _atom_site_fract_x
 _atom_site_fract_y
 _atom_site_fract_z
 _atom_site_occupancy
  Ho  Ho0  1  0.942041  0.933843  0.562465  1
  Ho  Ho1  1  0.810573  0.190366  0.188705  1
  Ho  Ho2  1  0.942041  0.561651  0.562465  1
  Ho  Ho3  1  0.937762  0.562238  0.937762  1
  Ho  Ho4  1  0.810573  0.810357  0.188705  1
  Ho  Ho5  1  0.347948  0.349607  0.347948  1
  Ho  Ho6  1  0.562465  0.933843  0.942041  1
  Ho  Ho7  1  0.561902  0.938098  0.561902  1
  Ho  Ho8  1  0.188705  0.810357  0.810573  1
  Ho  Ho9  1  0.188705  0.190366  0.810573  1
  Ho  Ho10  1  0.346776  0.348159  0.956906  1
  Ho  Ho11  1  0.347948  0.954498  0.347948  1
  Ho  Ho12  1  0.811285  0.188715  0.811285  1
  Ho  Ho13  1  0.562465  0.561651  0.942041  1
  Ho  Ho14  1  0.190714  0.809286  0.190714  1
  Ho  Ho15  1  0.956906  0.348159  0.346776  1
  Zn  Zn16  1  0.578361  0.581453  0.258735  1
  Zn  Zn17  1  0.258735  0.581453  0.578361  1
  Cd  Cd18  1  0.576796  0.581413  0.576796  1
  Cd  Cd19  1  0.576796  0.264995  0.576796  1
  Co  Co20  1  0.575610  0.141210  0.141970  1
  Co  Co21  1  0.141463  0.140792  0.141463  1
  Co  Co22  1  0.141463  0.576284  0.141463  1
  Co  Co23  1  0.141970  0.141210  0.575610  1
