# generated using pymatgen
data_Th2(Al3Rh)3
_symmetry_space_group_name_H-M   'P 1'
_cell_length_a   7.68204290
_cell_length_b   7.68204252
_cell_length_c   9.54407500
_cell_angle_alpha   90.00000000
_cell_angle_beta   90.00000000
_cell_angle_gamma   119.46947853
_symmetry_Int_Tables_number   1
_chemical_formula_structural   Th2(Al3Rh)3
_chemical_formula_sum   'Th4 Al18 Rh6'
_cell_volume   490.35980507
_cell_formula_units_Z   2
loop_
 _symmetry_equiv_pos_site_id
 _symmetry_equiv_pos_as_xyz
  1  'x, y, z'
loop_
 _atom_site_type_symbol
 _atom_site_label
 _atom_site_symmetry_multiplicity
 _atom_site_fract_x
 _atom_site_fract_y
 _atom_site_fract_z
 _atom_site_occupancy
  Th  Th0  1  0.994296  0.670214  0.250000  1
  Th  Th1  1  0.005704  0.329786  0.750000  1
  Th  Th2  1  0.670214  0.994296  0.250000  1
  Th  Th3  1  0.329786  0.005704  0.750000  1
  Al  Al4  1  0.131500  0.131500  0.250000  1
  Al  Al5  1  0.868500  0.868500  0.750000  1
  Al  Al6  1  0.004498  0.335021  0.073794  1
  Al  Al7  1  0.995502  0.664979  0.926206  1
  Al  Al8  1  0.995502  0.664979  0.573794  1
  Al  Al9  1  0.335021  0.004498  0.426206  1
  Al  Al10  1  0.004498  0.335021  0.426206  1
  Al  Al11  1  0.664979  0.995502  0.573794  1
  Al  Al12  1  0.664979  0.995502  0.926206  1
  Al  Al13  1  0.335021  0.004498  0.073794  1
  Al  Al14  1  0.336749  0.336749  0.547869  1
  Al  Al15  1  0.663251  0.663251  0.452131  1
  Al  Al16  1  0.663251  0.663251  0.047869  1
  Al  Al17  1  0.336749  0.336749  0.952131  1
  Al  Al18  1  0.339718  0.545307  0.250000  1
  Al  Al19  1  0.660282  0.454693  0.750000  1
  Al  Al20  1  0.545307  0.339718  0.250000  1
  Al  Al21  1  0.454693  0.660282  0.750000  1
  Rh  Rh22  1  0.672615  0.327385  0.000000  1
  Rh  Rh23  1  0.327385  0.672615  0.000000  1
  Rh  Rh24  1  0.327385  0.672615  0.500000  1
  Rh  Rh25  1  0.672615  0.327385  0.500000  1
  Rh  Rh26  1  0.000000  0.000000  0.000000  1
  Rh  Rh27  1  0.000000  0.000000  0.500000  1
