# generated using pymatgen
data_Tb8AlCuPd23
_symmetry_space_group_name_H-M   'P 1'
_cell_length_a   8.34920500
_cell_length_b   8.40001000
_cell_length_c   8.33143900
_cell_angle_alpha   90.00000000
_cell_angle_beta   90.00000000
_cell_angle_gamma   90.00000000
_symmetry_Int_Tables_number   1
_chemical_formula_structural   Tb8AlCuPd23
_chemical_formula_sum   'Tb8 Al1 Cu1 Pd23'
_cell_volume   584.31218972
_cell_formula_units_Z   1
loop_
 _symmetry_equiv_pos_site_id
 _symmetry_equiv_pos_as_xyz
  1  'x, y, z'
loop_
 _atom_site_type_symbol
 _atom_site_label
 _atom_site_symmetry_multiplicity
 _atom_site_fract_x
 _atom_site_fract_y
 _atom_site_fract_z
 _atom_site_occupancy
  Tb  Tb0  1  0.252409  0.250168  0.255876  1
  Tb  Tb1  1  0.747543  0.747096  0.748723  1
  Tb  Tb2  1  0.747543  0.747096  0.251277  1
  Tb  Tb3  1  0.747543  0.252904  0.748723  1
  Tb  Tb4  1  0.252409  0.250168  0.744124  1
  Tb  Tb5  1  0.252409  0.749832  0.255876  1
  Tb  Tb6  1  0.252409  0.749832  0.744124  1
  Tb  Tb7  1  0.747543  0.252904  0.251277  1
  Al  Al8  1  0.996393  0.000000  0.000000  1
  Cu  Cu9  1  0.265000  0.500000  0.000000  1
  Pd  Pd10  1  0.743404  0.500000  0.000000  1
  Pd  Pd11  1  0.998536  0.260004  0.500000  1
  Pd  Pd12  1  0.493929  0.262832  0.000000  1
  Pd  Pd13  1  0.998536  0.739996  0.500000  1
  Pd  Pd14  1  0.493929  0.737168  0.000000  1
  Pd  Pd15  1  0.499813  0.000000  0.259704  1
  Pd  Pd16  1  0.259659  0.000000  0.500000  1
  Pd  Pd17  1  0.499813  0.000000  0.740296  1
  Pd  Pd18  1  0.739591  0.000000  0.500000  1
  Pd  Pd19  1  0.002647  0.500000  0.259309  1
  Pd  Pd20  1  0.002647  0.500000  0.740691  1
  Pd  Pd21  1  0.252429  0.500000  0.500000  1
  Pd  Pd22  1  0.747044  0.500000  0.500000  1
  Pd  Pd23  1  0.500992  0.253267  0.500000  1
  Pd  Pd24  1  0.500992  0.746733  0.500000  1
  Pd  Pd25  1  0.495731  0.500000  0.250086  1
  Pd  Pd26  1  0.495731  0.500000  0.749914  1
  Pd  Pd27  1  0.286163  0.000000  0.000000  1
  Pd  Pd28  1  0.707522  0.000000  0.000000  1
  Pd  Pd29  1  0.010647  0.291465  0.000000  1
  Pd  Pd30  1  0.010647  0.708535  0.000000  1
  Pd  Pd31  1  0.999199  0.000000  0.289372  1
  Pd  Pd32  1  0.999199  0.000000  0.710628  1
