# generated using pymatgen
data_Tb6Lu10InAg3Rh4
_symmetry_space_group_name_H-M   'P 1'
_cell_length_a   9.45459797
_cell_length_b   9.48224542
_cell_length_c   9.47796120
_cell_angle_alpha   59.66619188
_cell_angle_beta   59.74760565
_cell_angle_gamma   59.76709775
_symmetry_Int_Tables_number   1
_chemical_formula_structural   Tb6Lu10InAg3Rh4
_chemical_formula_sum   'Tb6 Lu10 In1 Ag3 Rh4'
_cell_volume   597.10678994
_cell_formula_units_Z   1
loop_
 _symmetry_equiv_pos_site_id
 _symmetry_equiv_pos_as_xyz
  1  'x, y, z'
loop_
 _atom_site_type_symbol
 _atom_site_label
 _atom_site_symmetry_multiplicity
 _atom_site_fract_x
 _atom_site_fract_y
 _atom_site_fract_z
 _atom_site_occupancy
  Tb  Tb0  1  0.438651  0.065060  0.062354  1
  Tb  Tb1  1  0.438775  0.060017  0.437820  1
  Tb  Tb2  1  0.069307  0.435144  0.060784  1
  Tb  Tb3  1  0.650404  0.647633  0.051249  1
  Tb  Tb4  1  0.186172  0.815186  0.188640  1
  Tb  Tb5  1  0.065286  0.434418  0.437637  1
  Lu  Lu6  1  0.812806  0.811491  0.189083  1
  Lu  Lu7  1  0.812624  0.189186  0.810638  1
  Lu  Lu8  1  0.186398  0.188401  0.813477  1
  Lu  Lu9  1  0.649306  0.053141  0.648112  1
  Lu  Lu10  1  0.064627  0.059251  0.439201  1
  Lu  Lu11  1  0.440231  0.436174  0.060941  1
  Lu  Lu12  1  0.649252  0.647516  0.649722  1
  Lu  Lu13  1  0.811044  0.189832  0.189222  1
  Lu  Lu14  1  0.187935  0.812827  0.811100  1
  Lu  Lu15  1  0.052804  0.647582  0.649862  1
  In  In16  1  0.737321  0.420085  0.422749  1
  Ag  Ag17  1  0.416705  0.417555  0.418343  1
  Ag  Ag18  1  0.416733  0.418711  0.747281  1
  Ag  Ag19  1  0.413324  0.748710  0.420243  1
  Rh  Rh20  1  0.857610  0.426796  0.854832  1
  Rh  Rh21  1  0.859357  0.859992  0.853977  1
  Rh  Rh22  1  0.854453  0.857298  0.431312  1
  Rh  Rh23  1  0.428876  0.857991  0.851420  1
