# generated using pymatgen
data_Na3Sr(InAu)4
_symmetry_space_group_name_H-M   'P 1'
_cell_length_a   4.49234900
_cell_length_b   7.70930538
_cell_length_c   8.71854489
_cell_angle_alpha   89.10753976
_cell_angle_beta   90.00000000
_cell_angle_gamma   90.00000000
_symmetry_Int_Tables_number   1
_chemical_formula_structural   Na3Sr(InAu)4
_chemical_formula_sum   'Na3 Sr1 In4 Au4'
_cell_volume   301.91177983
_cell_formula_units_Z   1
loop_
 _symmetry_equiv_pos_site_id
 _symmetry_equiv_pos_as_xyz
  1  'x, y, z'
loop_
 _atom_site_type_symbol
 _atom_site_label
 _atom_site_symmetry_multiplicity
 _atom_site_fract_x
 _atom_site_fract_y
 _atom_site_fract_z
 _atom_site_occupancy
  Na  Na0  1  0.750000  0.979997  0.677335  1
  Na  Na1  1  0.250000  0.020573  0.324543  1
  Na  Na2  1  0.750000  0.477507  0.814068  1
  Sr  Sr3  1  0.250000  0.523022  0.176487  1
  In  In4  1  0.750000  0.333814  0.435497  1
  In  In5  1  0.250000  0.152751  0.926846  1
  In  In6  1  0.250000  0.659538  0.576596  1
  In  In7  1  0.750000  0.852831  0.067641  1
  Au  Au8  1  0.250000  0.779679  0.875560  1
  Au  Au9  1  0.250000  0.279257  0.621566  1
  Au  Au10  1  0.750000  0.719893  0.379776  1
  Au  Au11  1  0.750000  0.221139  0.124084  1
