# generated using pymatgen
data_Ca20SiGe3Bi8
_symmetry_space_group_name_H-M   'P 1'
_cell_length_a   8.15527517
_cell_length_b   9.60165500
_cell_length_c   12.97692928
_cell_angle_alpha   90.00000000
_cell_angle_beta   89.97630622
_cell_angle_gamma   90.00000000
_symmetry_Int_Tables_number   1
_chemical_formula_structural   Ca20SiGe3Bi8
_chemical_formula_sum   'Ca20 Si1 Ge3 Bi8'
_cell_volume   1016.14718255
_cell_formula_units_Z   1
loop_
 _symmetry_equiv_pos_site_id
 _symmetry_equiv_pos_as_xyz
  1  'x, y, z'
loop_
 _atom_site_type_symbol
 _atom_site_label
 _atom_site_symmetry_multiplicity
 _atom_site_fract_x
 _atom_site_fract_y
 _atom_site_fract_z
 _atom_site_occupancy
  Ca  Ca0  1  0.326571  0.971513  0.075381  1
  Ca  Ca1  1  0.826971  0.027519  0.424862  1
  Ca  Ca2  1  0.673422  0.471536  0.924625  1
  Ca  Ca3  1  0.172664  0.529186  0.575102  1
  Ca  Ca4  1  0.673422  0.028464  0.924625  1
  Ca  Ca5  1  0.172664  0.970814  0.575102  1
  Ca  Ca6  1  0.326571  0.528487  0.075381  1
  Ca  Ca7  1  0.826971  0.472481  0.424862  1
  Ca  Ca8  1  0.671118  0.750000  0.215958  1
  Ca  Ca9  1  0.171067  0.250000  0.284136  1
  Ca  Ca10  1  0.328944  0.250000  0.784094  1
  Ca  Ca11  1  0.829302  0.750000  0.715140  1
  Ca  Ca12  1  0.143043  0.750000  0.306200  1
  Ca  Ca13  1  0.643803  0.250000  0.194543  1
  Ca  Ca14  1  0.856185  0.250000  0.694527  1
  Ca  Ca15  1  0.356208  0.750000  0.805520  1
  Ca  Ca16  1  0.558715  0.750000  0.500114  1
  Ca  Ca17  1  0.057552  0.250000  0.999851  1
  Ca  Ca18  1  0.442394  0.250000  0.499847  1
  Ca  Ca19  1  0.942459  0.750000  0.000150  1
  Si  Si20  1  0.940589  0.750000  0.492378  1
  Ge  Ge21  1  0.559279  0.750000  0.992454  1
  Ge  Ge22  1  0.059299  0.250000  0.507589  1
  Ge  Ge23  1  0.440733  0.250000  0.007581  1
  Bi  Bi24  1  0.943714  0.007720  0.168962  1
  Bi  Bi25  1  0.443714  0.992206  0.331047  1
  Bi  Bi26  1  0.056284  0.507780  0.831041  1
  Bi  Bi27  1  0.556315  0.492303  0.668939  1
  Bi  Bi28  1  0.056284  0.992220  0.831041  1
  Bi  Bi29  1  0.556315  0.007697  0.668939  1
  Bi  Bi30  1  0.943714  0.492280  0.168962  1
  Bi  Bi31  1  0.443714  0.507794  0.331047  1
