# generated using pymatgen
data_TiNb3CrB2P
_symmetry_space_group_name_H-M   'P 1'
_cell_length_a   6.01777725
_cell_length_b   6.01777776
_cell_length_c   7.14567816
_cell_angle_alpha   115.03158309
_cell_angle_beta   115.03159466
_cell_angle_gamma   89.72244341
_symmetry_Int_Tables_number   1
_chemical_formula_structural   TiNb3CrB2P
_chemical_formula_sum   'Ti2 Nb6 Cr2 B4 P2'
_cell_volume   207.60690885
_cell_formula_units_Z   2
loop_
 _symmetry_equiv_pos_site_id
 _symmetry_equiv_pos_as_xyz
  1  'x, y, z'
loop_
 _atom_site_type_symbol
 _atom_site_label
 _atom_site_symmetry_multiplicity
 _atom_site_fract_x
 _atom_site_fract_y
 _atom_site_fract_z
 _atom_site_occupancy
  Ti  Ti0  1  0.033500  0.533500  0.726342  1
  Ti  Ti1  1  0.692842  0.192842  0.726342  1
  Nb  Nb2  1  0.192278  0.034282  0.726560  1
  Nb  Nb3  1  0.534282  0.692278  0.726560  1
  Nb  Nb4  1  0.964554  0.464554  0.275030  1
  Nb  Nb5  1  0.310475  0.810475  0.275030  1
  Nb  Nb6  1  0.809199  0.965692  0.274891  1
  Nb  Nb7  1  0.465692  0.309199  0.274891  1
  Cr  Cr8  1  0.497365  0.497365  0.994731  1
  Cr  Cr9  1  0.997365  0.997365  0.994731  1
  B  B10  1  0.378331  0.878331  0.998275  1
  B  B11  1  0.619943  0.119943  0.998275  1
  B  B12  1  0.111418  0.384174  0.995592  1
  B  B13  1  0.884174  0.611418  0.995592  1
  P  P14  1  0.254290  0.254290  0.508580  1
  P  P15  1  0.754290  0.754290  0.508580  1
