# generated using pymatgen
data_Ho3Er7BiPb5
_symmetry_space_group_name_H-M   'P 1'
_cell_length_a   9.02196107
_cell_length_b   9.02196185
_cell_length_c   6.51677900
_cell_angle_alpha   90.00000000
_cell_angle_beta   90.00000000
_cell_angle_gamma   119.94414210
_symmetry_Int_Tables_number   1
_chemical_formula_structural   Ho3Er7BiPb5
_chemical_formula_sum   'Ho3 Er7 Bi1 Pb5'
_cell_volume   459.63144494
_cell_formula_units_Z   1
loop_
 _symmetry_equiv_pos_site_id
 _symmetry_equiv_pos_as_xyz
  1  'x, y, z'
loop_
 _atom_site_type_symbol
 _atom_site_label
 _atom_site_symmetry_multiplicity
 _atom_site_fract_x
 _atom_site_fract_y
 _atom_site_fract_z
 _atom_site_occupancy
  Ho  Ho0  1  0.764144  0.764144  0.750000  1
  Ho  Ho1  1  0.235987  0.996266  0.750000  1
  Ho  Ho2  1  0.996266  0.235987  0.750000  1
  Er  Er3  1  0.668602  0.332990  0.000818  1
  Er  Er4  1  0.332990  0.668602  0.000818  1
  Er  Er5  1  0.332990  0.668602  0.499182  1
  Er  Er6  1  0.668602  0.332990  0.499182  1
  Er  Er7  1  0.237430  0.237430  0.250000  1
  Er  Er8  1  0.762824  0.000473  0.250000  1
  Er  Er9  1  0.000473  0.762824  0.250000  1
  Bi  Bi10  1  0.393375  0.393375  0.750000  1
  Pb  Pb11  1  0.604699  0.999784  0.750000  1
  Pb  Pb12  1  0.999784  0.604699  0.750000  1
  Pb  Pb13  1  0.606380  0.606380  0.250000  1
  Pb  Pb14  1  0.394332  0.001123  0.250000  1
  Pb  Pb15  1  0.001123  0.394332  0.250000  1
