# generated using pymatgen
data_Hf8Tc4PdRu3
_symmetry_space_group_name_H-M   'P 1'
_cell_length_a   6.50158800
_cell_length_b   6.49823300
_cell_length_c   6.55843000
_cell_angle_alpha   90.00008777
_cell_angle_beta   89.99868384
_cell_angle_gamma   89.99973555
_symmetry_Int_Tables_number   1
_chemical_formula_structural   Hf8Tc4PdRu3
_chemical_formula_sum   'Hf8 Tc4 Pd1 Ru3'
_cell_volume   277.08601833
_cell_formula_units_Z   1
loop_
 _symmetry_equiv_pos_site_id
 _symmetry_equiv_pos_as_xyz
  1  'x, y, z'
loop_
 _atom_site_type_symbol
 _atom_site_label
 _atom_site_symmetry_multiplicity
 _atom_site_fract_x
 _atom_site_fract_y
 _atom_site_fract_z
 _atom_site_occupancy
  Hf  Hf0  1  0.501776  0.998066  0.252954  1
  Hf  Hf1  1  0.501774  0.501897  0.252954  1
  Hf  Hf2  1  0.997994  0.998095  0.252961  1
  Hf  Hf3  1  0.997991  0.501942  0.252960  1
  Hf  Hf4  1  0.998220  0.998057  0.747030  1
  Hf  Hf5  1  0.998220  0.501907  0.747030  1
  Hf  Hf6  1  0.502013  0.998090  0.747057  1
  Hf  Hf7  1  0.502013  0.501947  0.747059  1
  Tc  Tc8  1  0.749987  0.250000  0.000140  1
  Tc  Tc9  1  0.249981  0.750000  0.499856  1
  Tc  Tc10  1  0.750020  0.250001  0.500145  1
  Tc  Tc11  1  0.250020  0.750000  0.999857  1
  Pd  Pd12  1  0.249954  0.249999  0.000001  1
  Ru  Ru13  1  0.750029  0.750000  0.999995  1
  Ru  Ru14  1  0.749970  0.749999  0.499955  1
  Ru  Ru15  1  0.250038  0.249999  0.500048  1
