# generated using pymatgen
data_Al11ReTc2Pd
_symmetry_space_group_name_H-M   'P 1'
_cell_length_a   5.19045183
_cell_length_b   5.20120278
_cell_length_c   9.03207062
_cell_angle_alpha   105.19978149
_cell_angle_beta   88.51022818
_cell_angle_gamma   100.05510968
_symmetry_Int_Tables_number   1
_chemical_formula_structural   Al11ReTc2Pd
_chemical_formula_sum   'Al11 Re1 Tc2 Pd1'
_cell_volume   231.64074820
_cell_formula_units_Z   1
loop_
 _symmetry_equiv_pos_site_id
 _symmetry_equiv_pos_as_xyz
  1  'x, y, z'
loop_
 _atom_site_type_symbol
 _atom_site_label
 _atom_site_symmetry_multiplicity
 _atom_site_fract_x
 _atom_site_fract_y
 _atom_site_fract_z
 _atom_site_occupancy
  Al  Al0  1  0.829619  0.275923  0.627005  1
  Al  Al1  1  0.171069  0.714603  0.378224  1
  Al  Al2  1  0.155919  0.477471  0.879642  1
  Al  Al3  1  0.849274  0.546612  0.132192  1
  Al  Al4  1  0.003964  0.000570  0.987355  1
  Al  Al5  1  0.525447  0.105607  0.880094  1
  Al  Al6  1  0.488140  0.900945  0.131051  1
  Al  Al7  1  0.571288  0.329292  0.373250  1
  Al  Al8  1  0.420700  0.673031  0.628421  1
  Al  Al9  1  0.932767  0.805776  0.657634  1
  Al  Al10  1  0.046849  0.159960  0.314188  1
  Re  Re11  1  0.331008  0.386502  0.133230  1
  Tc  Tc12  1  0.689356  0.853286  0.398512  1
  Tc  Tc13  1  0.670382  0.612845  0.867527  1
  Pd  Pd14  1  0.314218  0.157578  0.611676  1
