# generated using pymatgen
data_Ho2ErMg3Pb2Au
_symmetry_space_group_name_H-M   'P 1'
_cell_length_a   7.55042801
_cell_length_b   7.55042871
_cell_length_c   4.48818600
_cell_angle_alpha   90.00000000
_cell_angle_beta   90.00000000
_cell_angle_gamma   119.99360395
_symmetry_Int_Tables_number   1
_chemical_formula_structural   Ho2ErMg3Pb2Au
_chemical_formula_sum   'Ho2 Er1 Mg3 Pb2 Au1'
_cell_volume   221.60147574
_cell_formula_units_Z   1
loop_
 _symmetry_equiv_pos_site_id
 _symmetry_equiv_pos_as_xyz
  1  'x, y, z'
loop_
 _atom_site_type_symbol
 _atom_site_label
 _atom_site_symmetry_multiplicity
 _atom_site_fract_x
 _atom_site_fract_y
 _atom_site_fract_z
 _atom_site_occupancy
  Ho  Ho0  1  0.596822  0.999967  0.000000  1
  Ho  Ho1  1  0.999967  0.596822  0.000000  1
  Er  Er2  1  0.403119  0.403119  0.000000  1
  Mg  Mg3  1  0.233490  0.000033  0.500000  1
  Mg  Mg4  1  0.000033  0.233490  0.500000  1
  Mg  Mg5  1  0.766486  0.766486  0.500000  1
  Pb  Pb6  1  0.333383  0.666578  0.500000  1
  Pb  Pb7  1  0.666578  0.333383  0.500000  1
  Au  Au8  1  0.000123  0.000123  0.000000  1
