# generated using pymatgen
data_DyHo3Al8
_symmetry_space_group_name_H-M   'P 1'
_cell_length_a   9.62715697
_cell_length_b   9.62715665
_cell_length_c   9.62715663
_cell_angle_alpha   33.52138801
_cell_angle_beta   33.52139402
_cell_angle_gamma   33.52139470
_symmetry_Int_Tables_number   1
_chemical_formula_structural   DyHo3Al8
_chemical_formula_sum   'Dy1 Ho3 Al8'
_cell_volume   242.37073617
_cell_formula_units_Z   1
loop_
 _symmetry_equiv_pos_site_id
 _symmetry_equiv_pos_as_xyz
  1  'x, y, z'
loop_
 _atom_site_type_symbol
 _atom_site_label
 _atom_site_symmetry_multiplicity
 _atom_site_fract_x
 _atom_site_fract_y
 _atom_site_fract_z
 _atom_site_occupancy
  Dy  Dy0  1  0.687428  0.687428  0.687428  1
  Ho  Ho1  1  0.187449  0.187449  0.187449  1
  Ho  Ho2  1  0.812611  0.812611  0.812611  1
  Ho  Ho3  1  0.312505  0.312505  0.312505  1
  Al  Al4  1  0.000011  0.000011  0.000011  1
  Al  Al5  1  0.500008  0.500008  0.500008  1
  Al  Al6  1  0.750022  0.249944  0.249944  1
  Al  Al7  1  0.250100  0.749988  0.749988  1
  Al  Al8  1  0.249944  0.750022  0.249944  1
  Al  Al9  1  0.749988  0.250100  0.749988  1
  Al  Al10  1  0.249944  0.249944  0.750022  1
  Al  Al11  1  0.749988  0.749988  0.250100  1
