# generated using pymatgen
data_Dy7Ho3Er10(CoBi2)4
_symmetry_space_group_name_H-M   'P 1'
_cell_length_a   7.94398293
_cell_length_b   8.86795300
_cell_length_c   12.35763627
_cell_angle_alpha   90.00000000
_cell_angle_beta   90.06887522
_cell_angle_gamma   90.00000000
_symmetry_Int_Tables_number   1
_chemical_formula_structural   Dy7Ho3Er10(CoBi2)4
_chemical_formula_sum   'Dy7 Ho3 Er10 Co4 Bi8'
_cell_volume   870.55613228
_cell_formula_units_Z   1
loop_
 _symmetry_equiv_pos_site_id
 _symmetry_equiv_pos_as_xyz
  1  'x, y, z'
loop_
 _atom_site_type_symbol
 _atom_site_label
 _atom_site_symmetry_multiplicity
 _atom_site_fract_x
 _atom_site_fract_y
 _atom_site_fract_z
 _atom_site_occupancy
  Dy  Dy0  1  0.847431  0.250000  0.799910  1
  Dy  Dy1  1  0.152649  0.750000  0.199981  1
  Dy  Dy2  1  0.884745  0.750000  0.811250  1
  Dy  Dy3  1  0.115220  0.250000  0.188777  1
  Dy  Dy4  1  0.384245  0.250000  0.688806  1
  Dy  Dy5  1  0.615743  0.750000  0.311148  1
  Dy  Dy6  1  0.053337  0.750000  0.497907  1
  Ho  Ho7  1  0.946462  0.250000  0.502049  1
  Ho  Ho8  1  0.553056  0.250000  0.002342  1
  Ho  Ho9  1  0.446952  0.750000  0.997668  1
  Er  Er10  1  0.347973  0.750000  0.699558  1
  Er  Er11  1  0.652164  0.250000  0.300698  1
  Er  Er12  1  0.674552  0.538071  0.563056  1
  Er  Er13  1  0.325510  0.461722  0.436881  1
  Er  Er14  1  0.174820  0.462232  0.937044  1
  Er  Er15  1  0.325510  0.038278  0.436881  1
  Er  Er16  1  0.825200  0.537964  0.062974  1
  Er  Er17  1  0.674552  0.961929  0.563056  1
  Er  Er18  1  0.825200  0.962036  0.062974  1
  Er  Er19  1  0.174820  0.037768  0.937044  1
  Co  Co20  1  0.065376  0.750000  0.992316  1
  Co  Co21  1  0.934648  0.250000  0.007667  1
  Co  Co22  1  0.565292  0.250000  0.507509  1
  Co  Co23  1  0.434845  0.750000  0.492486  1
  Bi  Bi24  1  0.570624  0.509807  0.826825  1
  Bi  Bi25  1  0.429374  0.490174  0.173155  1
  Bi  Bi26  1  0.072003  0.490815  0.673245  1
  Bi  Bi27  1  0.429374  0.009826  0.173155  1
  Bi  Bi28  1  0.927847  0.508734  0.326783  1
  Bi  Bi29  1  0.570624  0.990193  0.826825  1
  Bi  Bi30  1  0.927847  0.991266  0.326783  1
  Bi  Bi31  1  0.072003  0.009185  0.673245  1
