# generated using pymatgen
data_CsSc2(H6Ir)2
_symmetry_space_group_name_H-M   'P 1'
_cell_length_a   4.77772600
_cell_length_b   4.77772816
_cell_length_c   9.51836300
_cell_angle_alpha   90.00000000
_cell_angle_beta   90.00000000
_cell_angle_gamma   119.99999892
_symmetry_Int_Tables_number   1
_chemical_formula_structural   CsSc2(H6Ir)2
_chemical_formula_sum   'Cs1 Sc2 H12 Ir2'
_cell_volume   188.16358326
_cell_formula_units_Z   1
loop_
 _symmetry_equiv_pos_site_id
 _symmetry_equiv_pos_as_xyz
  1  'x, y, z'
loop_
 _atom_site_type_symbol
 _atom_site_label
 _atom_site_symmetry_multiplicity
 _atom_site_fract_x
 _atom_site_fract_y
 _atom_site_fract_z
 _atom_site_occupancy
  Cs  Cs0  1  0.000000  0.000000  0.000000  1
  Sc  Sc1  1  0.666667  0.333333  0.382484  1
  Sc  Sc2  1  0.333333  0.666667  0.617516  1
  H  H3  1  0.160167  0.839833  0.403270  1
  H  H4  1  0.679666  0.839833  0.403270  1
  H  H5  1  0.160167  0.320334  0.403270  1
  H  H6  1  0.839833  0.160167  0.596730  1
  H  H7  1  0.320334  0.160167  0.596730  1
  H  H8  1  0.839833  0.679666  0.596730  1
  H  H9  1  0.501800  0.003599  0.795200  1
  H  H10  1  0.501800  0.498200  0.795200  1
  H  H11  1  0.996401  0.498200  0.795200  1
  H  H12  1  0.498200  0.996401  0.204800  1
  H  H13  1  0.498200  0.501800  0.204800  1
  H  H14  1  0.003599  0.501800  0.204800  1
  Ir  Ir15  1  0.666667  0.333333  0.690346  1
  Ir  Ir16  1  0.333333  0.666667  0.309654  1
