# generated using pymatgen
data_Ta16Mn2BeNiTe16
_symmetry_space_group_name_H-M   'P 1'
_cell_length_a   4.84379300
_cell_length_b   11.02324684
_cell_length_c   19.26879414
_cell_angle_alpha   89.92935596
_cell_angle_beta   90.00000000
_cell_angle_gamma   90.00000000
_symmetry_Int_Tables_number   1
_chemical_formula_structural   Ta16Mn2BeNiTe16
_chemical_formula_sum   'Ta16 Mn2 Be1 Ni1 Te16'
_cell_volume   1028.84349169
_cell_formula_units_Z   1
loop_
 _symmetry_equiv_pos_site_id
 _symmetry_equiv_pos_as_xyz
  1  'x, y, z'
loop_
 _atom_site_type_symbol
 _atom_site_label
 _atom_site_symmetry_multiplicity
 _atom_site_fract_x
 _atom_site_fract_y
 _atom_site_fract_z
 _atom_site_occupancy
  Ta  Ta0  1  0.494447  0.561299  0.388110  1
  Ta  Ta1  1  0.494447  0.438701  0.611890  1
  Ta  Ta2  1  0.498286  0.062876  0.114454  1
  Ta  Ta3  1  0.498286  0.937124  0.885546  1
  Ta  Ta4  1  0.494480  0.695791  0.534935  1
  Ta  Ta5  1  0.494480  0.304209  0.465065  1
  Ta  Ta6  1  0.497681  0.200632  0.963996  1
  Ta  Ta7  1  0.497681  0.799368  0.036004  1
  Ta  Ta8  1  0.005781  0.681859  0.445374  1
  Ta  Ta9  1  0.005781  0.318141  0.554626  1
  Ta  Ta10  1  0.002214  0.186412  0.055595  1
  Ta  Ta11  1  0.002214  0.813588  0.944405  1
  Ta  Ta12  1  0.005526  0.405185  0.396189  1
  Ta  Ta13  1  0.005526  0.594815  0.603811  1
  Ta  Ta14  1  0.001536  0.902688  0.106408  1
  Ta  Ta15  1  0.001536  0.097312  0.893592  1
  Mn  Mn16  1  0.749934  0.000000  0.000000  1
  Mn  Mn17  1  0.749870  0.500000  0.500000  1
  Be  Be18  1  0.250033  0.500000  0.500000  1
  Ni  Ni19  1  0.249720  0.000000  0.000000  1
  Te  Te20  1  0.998299  0.843462  0.561395  1
  Te  Te21  1  0.998299  0.156538  0.438605  1
  Te  Te22  1  0.000865  0.345343  0.937781  1
  Te  Te23  1  0.000865  0.654657  0.062219  1
  Te  Te24  1  0.502430  0.333280  0.317735  1
  Te  Te25  1  0.502430  0.666720  0.682265  1
  Te  Te26  1  0.498347  0.832595  0.183192  1
  Te  Te27  1  0.498347  0.167405  0.816808  1
  Te  Te28  1  0.502034  0.819288  0.404449  1
  Te  Te29  1  0.502034  0.180712  0.595551  1
  Te  Te30  1  0.499033  0.320947  0.095582  1
  Te  Te31  1  0.499033  0.679053  0.904418  1
  Te  Te32  1  0.997698  0.607649  0.303333  1
  Te  Te33  1  0.997698  0.392351  0.696667  1
  Te  Te34  1  0.001565  0.108070  0.197229  1
  Te  Te35  1  0.001565  0.891930  0.802771  1
