# generated using pymatgen
data_Zr6TaTi3Al12Ir3Ru4
_symmetry_space_group_name_H-M   'P 1'
_cell_length_a   8.82616510
_cell_length_b   8.82616668
_cell_length_c   8.83289300
_cell_angle_alpha   60.02519283
_cell_angle_beta   60.02519442
_cell_angle_gamma   60.00000268
_symmetry_Int_Tables_number   1
_chemical_formula_structural   Zr6TaTi3Al12Ir3Ru4
_chemical_formula_sum   'Zr6 Ta1 Ti3 Al12 Ir3 Ru4'
_cell_volume   486.74043621
_cell_formula_units_Z   1
loop_
 _symmetry_equiv_pos_site_id
 _symmetry_equiv_pos_as_xyz
  1  'x, y, z'
loop_
 _atom_site_type_symbol
 _atom_site_label
 _atom_site_symmetry_multiplicity
 _atom_site_fract_x
 _atom_site_fract_y
 _atom_site_fract_z
 _atom_site_occupancy
  Zr  Zr0  1  0.698549  0.698549  0.303867  1
  Zr  Zr1  1  0.299235  0.699694  0.302620  1
  Zr  Zr2  1  0.699694  0.299235  0.302620  1
  Zr  Zr3  1  0.301571  0.301571  0.697645  1
  Zr  Zr4  1  0.698893  0.303271  0.696335  1
  Zr  Zr5  1  0.303271  0.698893  0.696335  1
  Ta  Ta6  1  0.880805  0.880805  0.878257  1
  Ti  Ti7  1  0.880357  0.880357  0.359779  1
  Ti  Ti8  1  0.881549  0.359027  0.878970  1
  Ti  Ti9  1  0.359027  0.881549  0.878970  1
  Al  Al10  1  0.120581  0.120581  0.641740  1
  Al  Al11  1  0.120163  0.641722  0.121773  1
  Al  Al12  1  0.641722  0.120163  0.121773  1
  Al  Al13  1  0.119068  0.119068  0.120695  1
  Al  Al14  1  0.660278  0.660278  0.014486  1
  Al  Al15  1  0.662080  0.010483  0.660529  1
  Al  Al16  1  0.010483  0.662080  0.660529  1
  Al  Al17  1  0.665078  0.665078  0.663324  1
  Al  Al18  1  0.334814  0.334814  0.994503  1
  Al  Al19  1  0.333580  0.997298  0.334772  1
  Al  Al20  1  0.997298  0.333580  0.334772  1
  Al  Al21  1  0.334046  0.334046  0.335452  1
  Ir  Ir22  1  0.501114  0.501114  0.997657  1
  Ir  Ir23  1  0.997960  0.502904  0.997531  1
  Ir  Ir24  1  0.502904  0.997960  0.997531  1
  Ru  Ru25  1  0.000184  0.000184  0.999384  1
  Ru  Ru26  1  0.997516  0.997516  0.503947  1
  Ru  Ru27  1  0.500570  0.997614  0.502104  1
  Ru  Ru28  1  0.997614  0.500570  0.502104  1
