# generated using pymatgen
data_YInSn5Rh4
_symmetry_space_group_name_H-M   'P 1'
_cell_length_a   6.93382104
_cell_length_b   7.02318874
_cell_length_c   6.95020000
_cell_angle_alpha   120.25127077
_cell_angle_beta   119.82452276
_cell_angle_gamma   90.16743665
_symmetry_Int_Tables_number   1
_chemical_formula_structural   YInSn5Rh4
_chemical_formula_sum   'Y1 In1 Sn5 Rh4'
_cell_volume   238.69472141
_cell_formula_units_Z   1
loop_
 _symmetry_equiv_pos_site_id
 _symmetry_equiv_pos_as_xyz
  1  'x, y, z'
loop_
 _atom_site_type_symbol
 _atom_site_label
 _atom_site_symmetry_multiplicity
 _atom_site_fract_x
 _atom_site_fract_y
 _atom_site_fract_z
 _atom_site_occupancy
  Y  Y0  1  0.000038  0.999847  0.000000  1
  In  In1  1  0.462857  0.123406  0.000000  1
  Sn  Sn2  1  0.130793  0.458674  0.000000  1
  Sn  Sn3  1  0.871371  0.872369  0.333458  1
  Sn  Sn4  1  0.500202  0.002382  0.501792  1
  Sn  Sn5  1  0.998411  0.500588  0.498206  1
  Sn  Sn6  1  0.537912  0.538910  0.666541  1
  Rh  Rh7  1  0.760493  0.396458  0.000000  1
  Rh  Rh8  1  0.390588  0.752964  0.000000  1
  Rh  Rh9  1  0.609389  0.612923  0.371443  1
  Rh  Rh10  1  0.237945  0.241478  0.628556  1
