# generated using pymatgen
data_Tb3Y9Co4SnRh
_symmetry_space_group_name_H-M   'P 1'
_cell_length_a   8.34008148
_cell_length_b   8.34146934
_cell_length_c   8.34146888
_cell_angle_alpha   110.91816267
_cell_angle_beta   110.55209857
_cell_angle_gamma   106.97856880
_symmetry_Int_Tables_number   1
_chemical_formula_structural   Tb3Y9Co4SnRh
_chemical_formula_sum   'Tb3 Y9 Co4 Sn1 Rh1'
_cell_volume   446.04564868
_cell_formula_units_Z   1
loop_
 _symmetry_equiv_pos_site_id
 _symmetry_equiv_pos_as_xyz
  1  'x, y, z'
loop_
 _atom_site_type_symbol
 _atom_site_label
 _atom_site_symmetry_multiplicity
 _atom_site_fract_x
 _atom_site_fract_y
 _atom_site_fract_z
 _atom_site_occupancy
  Tb  Tb0  1  0.405826  0.210075  0.195751  1
  Tb  Tb1  1  0.594057  0.789736  0.804321  1
  Tb  Tb2  1  0.014539  0.210419  0.804118  1
  Y  Y3  1  0.984270  0.788477  0.195794  1
  Y  Y4  1  0.186633  0.292168  0.478693  1
  Y  Y5  1  0.813309  0.707740  0.521239  1
  Y  Y6  1  0.186633  0.707940  0.894465  1
  Y  Y7  1  0.813309  0.292070  0.105569  1
  Y  Y8  1  0.313326  0.618633  0.305078  1
  Y  Y9  1  0.686576  0.381477  0.694840  1
  Y  Y10  1  0.313326  0.008248  0.694693  1
  Y  Y11  1  0.686576  0.991736  0.305099  1
  Co  Co12  1  0.380689  0.000465  0.380224  1
  Co  Co13  1  0.620483  0.000053  0.620431  1
  Co  Co14  1  0.110461  0.610923  0.499538  1
  Co  Co15  1  0.889386  0.389268  0.500119  1
  Sn  Sn16  1  0.500586  0.500336  0.000249  1
  Rh  Rh17  1  0.000015  0.000235  0.999780  1
