# generated using pymatgen
data_Dy2Y4VB14Mo
_symmetry_space_group_name_H-M   'P 1'
_cell_length_a   8.17529007
_cell_length_b   8.17529012
_cell_length_c   9.46754007
_cell_angle_alpha   90.01354193
_cell_angle_beta   89.98645782
_cell_angle_gamma   155.59048198
_symmetry_Int_Tables_number   1
_chemical_formula_structural   Dy2Y4VB14Mo
_chemical_formula_sum   'Dy2 Y4 V1 B14 Mo1'
_cell_volume   261.49437068
_cell_formula_units_Z   1
loop_
 _symmetry_equiv_pos_site_id
 _symmetry_equiv_pos_as_xyz
  1  'x, y, z'
loop_
 _atom_site_type_symbol
 _atom_site_label
 _atom_site_symmetry_multiplicity
 _atom_site_fract_x
 _atom_site_fract_y
 _atom_site_fract_z
 _atom_site_occupancy
  Dy  Dy0  1  0.393397  0.606603  0.558365  1
  Dy  Dy1  1  0.606049  0.393951  0.438260  1
  Y  Y2  1  0.258278  0.741722  0.250025  1
  Y  Y3  1  0.744361  0.255639  0.749971  1
  Y  Y4  1  0.606058  0.393942  0.061851  1
  Y  Y5  1  0.393378  0.606622  0.941569  1
  V  V6  1  0.447246  0.552754  0.250048  1
  B  B7  1  0.978731  0.021269  0.095314  1
  B  B8  1  0.019707  0.980293  0.908854  1
  B  B9  1  0.019705  0.980295  0.591105  1
  B  B10  1  0.978731  0.021269  0.404714  1
  B  B11  1  0.772783  0.227217  0.032795  1
  B  B12  1  0.227289  0.772711  0.968258  1
  B  B13  1  0.227289  0.772711  0.531728  1
  B  B14  1  0.772783  0.227217  0.467212  1
  B  B15  1  0.867596  0.132404  0.150222  1
  B  B16  1  0.134604  0.865396  0.853335  1
  B  B17  1  0.134598  0.865402  0.646609  1
  B  B18  1  0.867601  0.132399  0.349823  1
  B  B19  1  0.040451  0.959549  0.250044  1
  B  B20  1  0.956183  0.043817  0.749949  1
  Mo  Mo21  1  0.553181  0.446819  0.749950  1
