# generated using pymatgen
data_AcNd(Cd2Pd)2
_symmetry_space_group_name_H-M   'P 1'
_cell_length_a   5.65612773
_cell_length_b   5.65612793
_cell_length_c   8.48774000
_cell_angle_alpha   90.00000000
_cell_angle_beta   90.00000000
_cell_angle_gamma   134.52441712
_symmetry_Int_Tables_number   1
_chemical_formula_structural   AcNd(Cd2Pd)2
_chemical_formula_sum   'Ac1 Nd1 Cd4 Pd2'
_cell_volume   193.59342355
_cell_formula_units_Z   1
loop_
 _symmetry_equiv_pos_site_id
 _symmetry_equiv_pos_as_xyz
  1  'x, y, z'
loop_
 _atom_site_type_symbol
 _atom_site_label
 _atom_site_symmetry_multiplicity
 _atom_site_fract_x
 _atom_site_fract_y
 _atom_site_fract_z
 _atom_site_occupancy
  Ac  Ac0  1  0.935529  0.064471  0.250000  1
  Nd  Nd1  1  0.064946  0.935054  0.750000  1
  Cd  Cd2  1  0.644699  0.355301  0.455059  1
  Cd  Cd3  1  0.355077  0.644923  0.558120  1
  Cd  Cd4  1  0.644699  0.355301  0.044941  1
  Cd  Cd5  1  0.355077  0.644923  0.941880  1
  Pd  Pd6  1  0.222606  0.777394  0.250000  1
  Pd  Pd7  1  0.777365  0.222635  0.750000  1
