# generated using pymatgen
data_Ho4U2SiGePt10
_symmetry_space_group_name_H-M   'P 1'
_cell_length_a   8.27250461
_cell_length_b   8.27250358
_cell_length_c   8.28012946
_cell_angle_alpha   129.04657397
_cell_angle_beta   125.75050741
_cell_angle_gamma   77.56523427
_symmetry_Int_Tables_number   1
_chemical_formula_structural   Ho4U2SiGePt10
_chemical_formula_sum   'Ho4 U2 Si1 Ge1 Pt10'
_cell_volume   346.50838907
_cell_formula_units_Z   1
loop_
 _symmetry_equiv_pos_site_id
 _symmetry_equiv_pos_as_xyz
  1  'x, y, z'
loop_
 _atom_site_type_symbol
 _atom_site_label
 _atom_site_symmetry_multiplicity
 _atom_site_fract_x
 _atom_site_fract_y
 _atom_site_fract_z
 _atom_site_occupancy
  Ho  Ho0  1  0.275077  0.554016  0.724843  1
  Ho  Ho1  1  0.727452  0.451970  0.280777  1
  Ho  Ho2  1  0.328807  0.053326  0.280777  1
  Ho  Ho3  1  0.670827  0.949765  0.724843  1
  U  U4  1  0.115539  0.749235  0.364775  1
  U  U5  1  0.884503  0.251307  0.635810  1
  Si  Si6  1  0.279474  0.246821  0.026295  1
  Ge  Ge7  1  0.720371  0.746111  0.966481  1
  Pt  Pt8  1  0.044810  0.893304  0.722452  1
  Pt  Pt9  1  0.962571  0.678155  0.843733  1
  Pt  Pt10  1  0.665579  0.381162  0.843733  1
  Pt  Pt11  1  0.329149  0.177644  0.722452  1
  Pt  Pt12  1  0.968587  0.117467  0.289450  1
  Pt  Pt13  1  0.035261  0.315704  0.139063  1
  Pt  Pt14  1  0.323358  0.603802  0.139063  1
  Pt  Pt15  1  0.671983  0.820862  0.289450  1
  Pt  Pt16  1  0.463441  0.531738  0.495178  1
  Pt  Pt17  1  0.533212  0.048015  0.081226  1
