# generated using pymatgen
data_Y3Sc2AlSi2Ru
_symmetry_space_group_name_H-M   'P 1'
_cell_length_a   7.28930701
_cell_length_b   7.28872251
_cell_length_c   4.23246100
_cell_angle_alpha   90.00000000
_cell_angle_beta   90.00000000
_cell_angle_gamma   119.99734879
_symmetry_Int_Tables_number   1
_chemical_formula_structural   Y3Sc2AlSi2Ru
_chemical_formula_sum   'Y3 Sc2 Al1 Si2 Ru1'
_cell_volume   194.74793296
_cell_formula_units_Z   1
loop_
 _symmetry_equiv_pos_site_id
 _symmetry_equiv_pos_as_xyz
  1  'x, y, z'
loop_
 _atom_site_type_symbol
 _atom_site_label
 _atom_site_symmetry_multiplicity
 _atom_site_fract_x
 _atom_site_fract_y
 _atom_site_fract_z
 _atom_site_occupancy
  Y  Y0  1  0.409689  0.993930  0.000000  1
  Y  Y1  1  0.000000  0.425347  0.000000  1
  Y  Y2  1  0.590310  0.584240  0.000000  1
  Sc  Sc3  1  0.762405  0.996768  0.500000  1
  Sc  Sc4  1  0.237595  0.234362  0.500000  1
  Al  Al5  1  0.000000  0.758865  0.500000  1
  Si  Si6  1  0.671660  0.339822  0.500000  1
  Si  Si7  1  0.328340  0.668162  0.500000  1
  Ru  Ru8  1  0.000000  0.998502  0.000000  1
