# generated using pymatgen
data_Tb20Co4Pd7Au
_symmetry_space_group_name_H-M   'P 1'
_cell_length_a   8.03787864
_cell_length_b   8.23542964
_cell_length_c   11.78197341
_cell_angle_alpha   89.83505364
_cell_angle_beta   90.23869388
_cell_angle_gamma   90.20158269
_symmetry_Int_Tables_number   1
_chemical_formula_structural   Tb20Co4Pd7Au
_chemical_formula_sum   'Tb20 Co4 Pd7 Au1'
_cell_volume   779.89745996
_cell_formula_units_Z   1
loop_
 _symmetry_equiv_pos_site_id
 _symmetry_equiv_pos_as_xyz
  1  'x, y, z'
loop_
 _atom_site_type_symbol
 _atom_site_label
 _atom_site_symmetry_multiplicity
 _atom_site_fract_x
 _atom_site_fract_y
 _atom_site_fract_z
 _atom_site_occupancy
  Tb  Tb0  1  0.156587  0.754253  0.218596  1
  Tb  Tb1  1  0.662078  0.244717  0.283624  1
  Tb  Tb2  1  0.841262  0.249573  0.781690  1
  Tb  Tb3  1  0.340572  0.750140  0.716708  1
  Tb  Tb4  1  0.453631  0.755255  0.007808  1
  Tb  Tb5  1  0.957872  0.250096  0.492261  1
  Tb  Tb6  1  0.548520  0.245293  0.988854  1
  Tb  Tb7  1  0.042655  0.750387  0.508966  1
  Tb  Tb8  1  0.619729  0.753328  0.305309  1
  Tb  Tb9  1  0.113579  0.248576  0.197266  1
  Tb  Tb10  1  0.382642  0.249165  0.696281  1
  Tb  Tb11  1  0.882773  0.749517  0.803595  1
  Tb  Tb12  1  0.826931  0.960931  0.077839  1
  Tb  Tb13  1  0.327086  0.037670  0.421042  1
  Tb  Tb14  1  0.175357  0.462131  0.920063  1
  Tb  Tb15  1  0.673910  0.536870  0.580152  1
  Tb  Tb16  1  0.171846  0.038436  0.920279  1
  Tb  Tb17  1  0.673714  0.963075  0.579563  1
  Tb  Tb18  1  0.827564  0.537297  0.078062  1
  Tb  Tb19  1  0.325993  0.463895  0.423257  1
  Co  Co20  1  0.431127  0.750328  0.495637  1
  Co  Co21  1  0.929240  0.249732  0.004522  1
  Co  Co22  1  0.569754  0.250103  0.505322  1
  Co  Co23  1  0.071016  0.750064  0.994667  1
  Pd  Pd24  1  0.925291  0.977420  0.332506  1
  Pd  Pd25  1  0.426492  0.023010  0.168770  1
  Pd  Pd26  1  0.073446  0.476627  0.668505  1
  Pd  Pd27  1  0.573128  0.523212  0.830966  1
  Pd  Pd28  1  0.072898  0.023333  0.668293  1
  Pd  Pd29  1  0.574104  0.975682  0.829534  1
  Pd  Pd30  1  0.925082  0.523210  0.331897  1
  Au  Au31  1  0.424120  0.476673  0.168166  1
