# generated using pymatgen
data_Yb3Er5(B6Ru)4
_symmetry_space_group_name_H-M   'P 1'
_cell_length_a   3.63748300
_cell_length_b   9.10892552
_cell_length_c   11.49535492
_cell_angle_alpha   89.93375113
_cell_angle_beta   90.00000000
_cell_angle_gamma   90.00000000
_symmetry_Int_Tables_number   1
_chemical_formula_structural   Yb3Er5(B6Ru)4
_chemical_formula_sum   'Yb3 Er5 B24 Ru4'
_cell_volume   380.88179734
_cell_formula_units_Z   1
loop_
 _symmetry_equiv_pos_site_id
 _symmetry_equiv_pos_as_xyz
  1  'x, y, z'
loop_
 _atom_site_type_symbol
 _atom_site_label
 _atom_site_symmetry_multiplicity
 _atom_site_fract_x
 _atom_site_fract_y
 _atom_site_fract_z
 _atom_site_occupancy
  Yb  Yb0  1  0.000000  0.325168  0.414599  1
  Yb  Yb1  1  0.000000  0.674868  0.584765  1
  Yb  Yb2  1  0.000000  0.823744  0.086004  1
  Er  Er3  1  0.000000  0.175438  0.915164  1
  Er  Er4  1  0.000000  0.941284  0.366643  1
  Er  Er5  1  0.000000  0.057889  0.631436  1
  Er  Er6  1  0.000000  0.443084  0.132700  1
  Er  Er7  1  0.000000  0.558406  0.868031  1
  B  B8  1  0.500000  0.553698  0.432912  1
  B  B9  1  0.500000  0.445609  0.567844  1
  B  B10  1  0.500000  0.054187  0.066614  1
  B  B11  1  0.500000  0.945936  0.933321  1
  B  B12  1  0.500000  0.748822  0.417573  1
  B  B13  1  0.500000  0.251005  0.582586  1
  B  B14  1  0.500000  0.249246  0.081533  1
  B  B15  1  0.500000  0.751477  0.917964  1
  B  B16  1  0.500000  0.790885  0.264247  1
  B  B17  1  0.500000  0.208399  0.736304  1
  B  B18  1  0.500000  0.291005  0.234823  1
  B  B19  1  0.500000  0.710027  0.764876  1
  B  B20  1  0.500000  0.631048  0.185740  1
  B  B21  1  0.500000  0.368630  0.815411  1
  B  B22  1  0.500000  0.131174  0.313651  1
  B  B23  1  0.500000  0.869382  0.685338  1
  B  B24  1  0.500000  0.983505  0.210500  1
  B  B25  1  0.500000  0.016976  0.788955  1
  B  B26  1  0.500000  0.484055  0.289102  1
  B  B27  1  0.500000  0.515712  0.711627  1
  B  B28  1  0.500000  0.598970  0.027319  1
  B  B29  1  0.500000  0.400091  0.972631  1
  B  B30  1  0.500000  0.096778  0.472825  1
  B  B31  1  0.500000  0.903031  0.526256  1
  Ru  Ru32  1  0.000000  0.639366  0.320342  1
  Ru  Ru33  1  0.000000  0.359506  0.681172  1
  Ru  Ru34  1  0.000000  0.138755  0.178788  1
  Ru  Ru35  1  0.000000  0.862844  0.820403  1
