# generated using pymatgen
data_Yb3Dy2Sn3Ge
_symmetry_space_group_name_H-M   'P 1'
_cell_length_a   7.59818000
_cell_length_b   8.40468100
_cell_length_c   15.95159000
_cell_angle_alpha   90.00000000
_cell_angle_beta   90.00000000
_cell_angle_gamma   90.00000000
_symmetry_Int_Tables_number   1
_chemical_formula_structural   Yb3Dy2Sn3Ge
_chemical_formula_sum   'Yb12 Dy8 Sn12 Ge4'
_cell_volume   1018.67298918
_cell_formula_units_Z   4
loop_
 _symmetry_equiv_pos_site_id
 _symmetry_equiv_pos_as_xyz
  1  'x, y, z'
loop_
 _atom_site_type_symbol
 _atom_site_label
 _atom_site_symmetry_multiplicity
 _atom_site_fract_x
 _atom_site_fract_y
 _atom_site_fract_z
 _atom_site_occupancy
  Yb  Yb0  1  0.503208  0.688070  0.592555  1
  Yb  Yb1  1  0.003208  0.811930  0.907445  1
  Yb  Yb2  1  0.496792  0.311930  0.092555  1
  Yb  Yb3  1  0.996792  0.188070  0.407445  1
  Yb  Yb4  1  0.496792  0.311930  0.407445  1
  Yb  Yb5  1  0.996792  0.188070  0.092555  1
  Yb  Yb6  1  0.503208  0.688070  0.907445  1
  Yb  Yb7  1  0.003208  0.811930  0.592555  1
  Yb  Yb8  1  0.824125  0.508084  0.750000  1
  Yb  Yb9  1  0.324125  0.991916  0.750000  1
  Yb  Yb10  1  0.175875  0.491916  0.250000  1
  Yb  Yb11  1  0.675875  0.008084  0.250000  1
  Dy  Dy12  1  0.675572  0.171675  0.627085  1
  Dy  Dy13  1  0.175572  0.328325  0.872915  1
  Dy  Dy14  1  0.324428  0.828325  0.127085  1
  Dy  Dy15  1  0.824428  0.671675  0.372915  1
  Dy  Dy16  1  0.324428  0.828325  0.372915  1
  Dy  Dy17  1  0.824428  0.671675  0.127085  1
  Dy  Dy18  1  0.675572  0.171675  0.872915  1
  Dy  Dy19  1  0.175572  0.328325  0.627085  1
  Sn  Sn20  1  0.672159  0.964202  0.460983  1
  Sn  Sn21  1  0.172159  0.535798  0.039017  1
  Sn  Sn22  1  0.327841  0.035798  0.960983  1
  Sn  Sn23  1  0.827841  0.464202  0.539017  1
  Sn  Sn24  1  0.327841  0.035798  0.539017  1
  Sn  Sn25  1  0.827841  0.464202  0.960983  1
  Sn  Sn26  1  0.672159  0.964202  0.039017  1
  Sn  Sn27  1  0.172159  0.535798  0.460983  1
  Sn  Sn28  1  0.729758  0.878325  0.750000  1
  Sn  Sn29  1  0.229758  0.621675  0.750000  1
  Sn  Sn30  1  0.270242  0.121675  0.250000  1
  Sn  Sn31  1  0.770242  0.378325  0.250000  1
  Ge  Ge32  1  0.467767  0.364931  0.750000  1
  Ge  Ge33  1  0.967767  0.135069  0.750000  1
  Ge  Ge34  1  0.532233  0.635069  0.250000  1
  Ge  Ge35  1  0.032233  0.864931  0.250000  1
