# generated using pymatgen
data_TiPd5Au2
_symmetry_space_group_name_H-M   'P 1'
_cell_length_a   8.35157149
_cell_length_b   8.35157135
_cell_length_c   8.35157307
_cell_angle_alpha   152.00801874
_cell_angle_beta   152.00801974
_cell_angle_gamma   40.00159374
_symmetry_Int_Tables_number   1
_chemical_formula_structural   TiPd5Au2
_chemical_formula_sum   'Ti1 Pd5 Au2'
_cell_volume   128.07218421
_cell_formula_units_Z   1
loop_
 _symmetry_equiv_pos_site_id
 _symmetry_equiv_pos_as_xyz
  1  'x, y, z'
loop_
 _atom_site_type_symbol
 _atom_site_label
 _atom_site_symmetry_multiplicity
 _atom_site_fract_x
 _atom_site_fract_y
 _atom_site_fract_z
 _atom_site_occupancy
  Ti  Ti0  1  0.000000  0.000000  0.000000  1
  Pd  Pd1  1  0.500000  0.500000  0.000000  1
  Pd  Pd2  1  0.882252  0.382252  0.500000  1
  Pd  Pd3  1  0.382252  0.882252  0.500000  1
  Pd  Pd4  1  0.117748  0.617748  0.500000  1
  Pd  Pd5  1  0.617748  0.117748  0.500000  1
  Au  Au6  1  0.748697  0.748697  0.000000  1
  Au  Au7  1  0.251303  0.251303  0.000000  1
