# generated using pymatgen
data_Mn3Fe4Co5(MoP)12
_symmetry_space_group_name_H-M   'P 1'
_cell_length_a   3.71035500
_cell_length_b   5.87240136
_cell_length_c   20.25128707
_cell_angle_alpha   89.42408063
_cell_angle_beta   90.00000000
_cell_angle_gamma   90.00000000
_symmetry_Int_Tables_number   1
_chemical_formula_structural   Mn3Fe4Co5(MoP)12
_chemical_formula_sum   'Mn3 Fe4 Co5 Mo12 P12'
_cell_volume   441.22680095
_cell_formula_units_Z   1
loop_
 _symmetry_equiv_pos_site_id
 _symmetry_equiv_pos_as_xyz
  1  'x, y, z'
loop_
 _atom_site_type_symbol
 _atom_site_label
 _atom_site_symmetry_multiplicity
 _atom_site_fract_x
 _atom_site_fract_y
 _atom_site_fract_z
 _atom_site_occupancy
  Mn  Mn0  1  0.000000  0.639701  0.853616  1
  Mn  Mn1  1  0.000000  0.643132  0.520176  1
  Mn  Mn2  1  0.000000  0.641166  0.186939  1
  Fe  Fe3  1  0.500000  0.357129  0.812162  1
  Fe  Fe4  1  0.500000  0.358585  0.479108  1
  Fe  Fe5  1  0.500000  0.356846  0.145604  1
  Fe  Fe6  1  0.500000  0.863535  0.687434  1
  Co  Co7  1  0.500000  0.861907  0.355451  1
  Co  Co8  1  0.500000  0.861290  0.022251  1
  Co  Co9  1  0.000000  0.138245  0.978705  1
  Co  Co10  1  0.000000  0.140034  0.645052  1
  Co  Co11  1  0.000000  0.138904  0.312135  1
  Mo  Mo12  1  0.500000  0.476363  0.941059  1
  Mo  Mo13  1  0.500000  0.476820  0.608013  1
  Mo  Mo14  1  0.500000  0.476238  0.274653  1
  Mo  Mo15  1  0.500000  0.967058  0.889577  1
  Mo  Mo16  1  0.500000  0.967274  0.556425  1
  Mo  Mo17  1  0.500000  0.967445  0.222708  1
  Mo  Mo18  1  0.000000  0.525706  0.725480  1
  Mo  Mo19  1  0.000000  0.526425  0.392208  1
  Mo  Mo20  1  0.000000  0.525510  0.058775  1
  Mo  Mo21  1  0.000000  0.028724  0.776526  1
  Mo  Mo22  1  0.000000  0.033550  0.444310  1
  Mo  Mo23  1  0.000000  0.032264  0.111267  1
  P  P24  1  0.500000  0.728606  0.791817  1
  P  P25  1  0.500000  0.728644  0.458953  1
  P  P26  1  0.500000  0.727423  0.125825  1
  P  P27  1  0.500000  0.234856  0.706628  1
  P  P28  1  0.500000  0.236374  0.373425  1
  P  P29  1  0.500000  0.235794  0.039881  1
  P  P30  1  0.000000  0.267895  0.873816  1
  P  P31  1  0.000000  0.271317  0.540752  1
  P  P32  1  0.000000  0.270118  0.207738  1
  P  P33  1  0.000000  0.763867  0.960371  1
  P  P34  1  0.000000  0.766555  0.627354  1
  P  P35  1  0.000000  0.764698  0.293801  1
