# generated using pymatgen
data_DyTm7Re3B24Ir
_symmetry_space_group_name_H-M   'P 1'
_cell_length_a   3.64123100
_cell_length_b   9.10475734
_cell_length_c   11.48073706
_cell_angle_alpha   90.11817409
_cell_angle_beta   90.00000000
_cell_angle_gamma   90.00000000
_symmetry_Int_Tables_number   1
_chemical_formula_structural   DyTm7Re3B24Ir
_chemical_formula_sum   'Dy1 Tm7 Re3 B24 Ir1'
_cell_volume   380.61460913
_cell_formula_units_Z   1
loop_
 _symmetry_equiv_pos_site_id
 _symmetry_equiv_pos_as_xyz
  1  'x, y, z'
loop_
 _atom_site_type_symbol
 _atom_site_label
 _atom_site_symmetry_multiplicity
 _atom_site_fract_x
 _atom_site_fract_y
 _atom_site_fract_z
 _atom_site_occupancy
  Dy  Dy0  1  0.000000  0.317838  0.415439  1
  Tm  Tm1  1  0.000000  0.679075  0.591697  1
  Tm  Tm2  1  0.000000  0.827050  0.080913  1
  Tm  Tm3  1  0.000000  0.177597  0.912529  1
  Tm  Tm4  1  0.000000  0.944165  0.370660  1
  Tm  Tm5  1  0.000000  0.055643  0.628990  1
  Tm  Tm6  1  0.000000  0.441052  0.127808  1
  Tm  Tm7  1  0.000000  0.556664  0.871815  1
  Re  Re8  1  0.000000  0.362639  0.678099  1
  Re  Re9  1  0.000000  0.137997  0.179682  1
  Re  Re10  1  0.000000  0.861756  0.820981  1
  B  B11  1  0.500000  0.554193  0.434078  1
  B  B12  1  0.500000  0.447144  0.566736  1
  B  B13  1  0.500000  0.053039  0.066179  1
  B  B14  1  0.500000  0.947295  0.933109  1
  B  B15  1  0.500000  0.749734  0.420564  1
  B  B16  1  0.500000  0.249723  0.581251  1
  B  B17  1  0.500000  0.249556  0.080640  1
  B  B18  1  0.500000  0.751062  0.919335  1
  B  B19  1  0.500000  0.791849  0.264847  1
  B  B20  1  0.500000  0.207767  0.734603  1
  B  B21  1  0.500000  0.292063  0.234796  1
  B  B22  1  0.500000  0.707552  0.765668  1
  B  B23  1  0.500000  0.631708  0.183700  1
  B  B24  1  0.500000  0.369504  0.814853  1
  B  B25  1  0.500000  0.130242  0.314987  1
  B  B26  1  0.500000  0.868586  0.684950  1
  B  B27  1  0.500000  0.981868  0.212110  1
  B  B28  1  0.500000  0.018168  0.787020  1
  B  B29  1  0.500000  0.482754  0.287436  1
  B  B30  1  0.500000  0.519043  0.712645  1
  B  B31  1  0.500000  0.603340  0.029129  1
  B  B32  1  0.500000  0.397648  0.971968  1
  B  B33  1  0.500000  0.100664  0.471586  1
  B  B34  1  0.500000  0.895687  0.528209  1
  Ir  Ir35  1  0.000000  0.638336  0.320986  1
