# generated using pymatgen
data_Cs2Hf(TeO4)3
_symmetry_space_group_name_H-M   'P 1'
_cell_length_a   7.35168075
_cell_length_b   7.35190918
_cell_length_c   7.43427842
_cell_angle_alpha   89.99999979
_cell_angle_beta   60.36915156
_cell_angle_gamma   120.00102390
_symmetry_Int_Tables_number   1
_chemical_formula_structural   Cs2Hf(TeO4)3
_chemical_formula_sum   'Cs2 Hf1 Te3 O12'
_cell_volume   285.69641428
_cell_formula_units_Z   1
loop_
 _symmetry_equiv_pos_site_id
 _symmetry_equiv_pos_as_xyz
  1  'x, y, z'
loop_
 _atom_site_type_symbol
 _atom_site_label
 _atom_site_symmetry_multiplicity
 _atom_site_fract_x
 _atom_site_fract_y
 _atom_site_fract_z
 _atom_site_occupancy
  Cs  Cs0  1  0.254092  0.130946  0.118676  1
  Cs  Cs1  1  0.745908  0.876853  0.881324  1
  Hf  Hf2  1  0.000000  0.503763  0.000000  1
  Te  Te3  1  0.500001  0.003768  0.500000  1
  Te  Te4  1  0.499999  0.503766  0.500000  1
  Te  Te5  1  0.000000  0.503766  0.500000  1
  O  O6  1  0.641667  0.824632  0.431952  1
  O  O7  1  0.866313  0.436889  0.803068  1
  O  O8  1  0.263791  0.834356  0.803067  1
  O  O9  1  0.247176  0.430123  0.431945  1
  O  O10  1  0.263755  0.436893  0.803071  1
  O  O11  1  0.247204  0.824629  0.431956  1
  O  O12  1  0.358333  0.182965  0.568048  1
  O  O13  1  0.133687  0.570577  0.196932  1
  O  O14  1  0.736245  0.173137  0.196929  1
  O  O15  1  0.752796  0.577425  0.568044  1
  O  O16  1  0.736209  0.570565  0.196933  1
  O  O17  1  0.752824  0.182946  0.568055  1
