# generated using pymatgen
data_CsAlAu4
_symmetry_space_group_name_H-M   'P 1'
_cell_length_a   5.75882400
_cell_length_b   7.29214700
_cell_length_c   14.02218200
_cell_angle_alpha   90.00000000
_cell_angle_beta   90.00000000
_cell_angle_gamma   90.00000000
_symmetry_Int_Tables_number   1
_chemical_formula_structural   CsAlAu4
_chemical_formula_sum   'Cs4 Al4 Au16'
_cell_volume   588.85019132
_cell_formula_units_Z   4
loop_
 _symmetry_equiv_pos_site_id
 _symmetry_equiv_pos_as_xyz
  1  'x, y, z'
loop_
 _atom_site_type_symbol
 _atom_site_label
 _atom_site_symmetry_multiplicity
 _atom_site_fract_x
 _atom_site_fract_y
 _atom_site_fract_z
 _atom_site_occupancy
  Cs  Cs0  1  0.237309  0.100077  0.075626  1
  Cs  Cs1  1  0.262691  0.399923  0.575626  1
  Cs  Cs2  1  0.737309  0.899923  0.924374  1
  Cs  Cs3  1  0.762691  0.600077  0.424374  1
  Al  Al4  1  0.999022  0.898525  0.653829  1
  Al  Al5  1  0.500978  0.601475  0.153829  1
  Al  Al6  1  0.499022  0.101475  0.346171  1
  Al  Al7  1  0.000978  0.398525  0.846171  1
  Au  Au8  1  0.993186  0.111700  0.342726  1
  Au  Au9  1  0.506814  0.388300  0.842726  1
  Au  Au10  1  0.493186  0.888300  0.657274  1
  Au  Au11  1  0.006814  0.611700  0.157274  1
  Au  Au12  1  0.216785  0.102355  0.786901  1
  Au  Au13  1  0.283215  0.397645  0.286901  1
  Au  Au14  1  0.716785  0.897645  0.213099  1
  Au  Au15  1  0.783215  0.602355  0.713099  1
  Au  Au16  1  0.227072  0.700285  0.793709  1
  Au  Au17  1  0.272928  0.799715  0.293709  1
  Au  Au18  1  0.727072  0.299715  0.206291  1
  Au  Au19  1  0.772928  0.200285  0.706291  1
  Au  Au20  1  0.275276  0.570540  0.992054  1
  Au  Au21  1  0.224724  0.929460  0.492054  1
  Au  Au22  1  0.775276  0.429460  0.007946  1
  Au  Au23  1  0.724724  0.070540  0.507946  1
