# generated using pymatgen
data_Ba2Cd3InGa4
_symmetry_space_group_name_H-M   'P 1'
_cell_length_a   4.70086200
_cell_length_b   4.70086200
_cell_length_c   11.89986900
_cell_angle_alpha   90.00000000
_cell_angle_beta   90.00000000
_cell_angle_gamma   90.00000000
_symmetry_Int_Tables_number   1
_chemical_formula_structural   Ba2Cd3InGa4
_chemical_formula_sum   'Ba2 Cd3 In1 Ga4'
_cell_volume   262.96453731
_cell_formula_units_Z   1
loop_
 _symmetry_equiv_pos_site_id
 _symmetry_equiv_pos_as_xyz
  1  'x, y, z'
loop_
 _atom_site_type_symbol
 _atom_site_label
 _atom_site_symmetry_multiplicity
 _atom_site_fract_x
 _atom_site_fract_y
 _atom_site_fract_z
 _atom_site_occupancy
  Ba  Ba0  1  0.500000  0.000000  0.749177  1
  Ba  Ba1  1  0.000000  0.500000  0.250823  1
  Cd  Cd2  1  0.000000  0.000000  0.500000  1
  Cd  Cd3  1  0.000000  0.000000  0.000000  1
  Cd  Cd4  1  0.500000  0.500000  0.500000  1
  In  In5  1  0.500000  0.500000  0.000000  1
  Ga  Ga6  1  0.500000  0.000000  0.140950  1
  Ga  Ga7  1  0.000000  0.500000  0.635666  1
  Ga  Ga8  1  0.000000  0.500000  0.859050  1
  Ga  Ga9  1  0.500000  0.000000  0.364334  1
