# generated using pymatgen
data_LuSc2Co8P6Ru
_symmetry_space_group_name_H-M   'P 1'
_cell_length_a   3.63240800
_cell_length_b   10.40051100
_cell_length_c   12.04316000
_cell_angle_alpha   90.00000000
_cell_angle_beta   90.00000000
_cell_angle_gamma   90.00000000
_symmetry_Int_Tables_number   1
_chemical_formula_structural   LuSc2Co8P6Ru
_chemical_formula_sum   'Lu2 Sc4 Co16 P12 Ru2'
_cell_volume   454.97732962
_cell_formula_units_Z   2
loop_
 _symmetry_equiv_pos_site_id
 _symmetry_equiv_pos_as_xyz
  1  'x, y, z'
loop_
 _atom_site_type_symbol
 _atom_site_label
 _atom_site_symmetry_multiplicity
 _atom_site_fract_x
 _atom_site_fract_y
 _atom_site_fract_z
 _atom_site_occupancy
  Lu  Lu0  1  0.000000  0.500000  0.527746  1
  Lu  Lu1  1  0.500000  0.000000  0.472254  1
  Sc  Sc2  1  0.500000  0.819073  0.207051  1
  Sc  Sc3  1  0.500000  0.180927  0.207051  1
  Sc  Sc4  1  0.000000  0.680927  0.792949  1
  Sc  Sc5  1  0.000000  0.319073  0.792949  1
  Co  Co6  1  0.500000  0.500000  0.705057  1
  Co  Co7  1  0.000000  0.000000  0.294943  1
  Co  Co8  1  0.000000  0.500000  0.986903  1
  Co  Co9  1  0.500000  0.000000  0.013097  1
  Co  Co10  1  0.500000  0.332130  0.989864  1
  Co  Co11  1  0.500000  0.667870  0.989864  1
  Co  Co12  1  0.000000  0.167870  0.010136  1
  Co  Co13  1  0.000000  0.832130  0.010136  1
  Co  Co14  1  0.500000  0.297475  0.431702  1
  Co  Co15  1  0.500000  0.702525  0.431702  1
  Co  Co16  1  0.000000  0.202525  0.568298  1
  Co  Co17  1  0.000000  0.797475  0.568298  1
  Co  Co18  1  0.500000  0.876461  0.707279  1
  Co  Co19  1  0.500000  0.123539  0.707279  1
  Co  Co20  1  0.000000  0.623539  0.292721  1
  Co  Co21  1  0.000000  0.376461  0.292721  1
  P  P22  1  0.500000  0.500000  0.879882  1
  P  P23  1  0.000000  0.000000  0.120118  1
  P  P24  1  0.500000  0.500000  0.353606  1
  P  P25  1  0.000000  0.000000  0.646394  1
  P  P26  1  0.500000  0.314292  0.619360  1
  P  P27  1  0.500000  0.685708  0.619360  1
  P  P28  1  0.000000  0.185708  0.380640  1
  P  P29  1  0.000000  0.814292  0.380640  1
  P  P30  1  0.500000  0.843332  0.890409  1
  P  P31  1  0.500000  0.156668  0.890409  1
  P  P32  1  0.000000  0.656668  0.109591  1
  P  P33  1  0.000000  0.343332  0.109591  1
  Ru  Ru34  1  0.500000  0.500000  0.160328  1
  Ru  Ru35  1  0.000000  0.000000  0.839672  1
