# generated using pymatgen
data_Tb9Ho5(Lu3Pb8)2
_symmetry_space_group_name_H-M   'P 1'
_cell_length_a   8.15674306
_cell_length_b   8.24089742
_cell_length_c   15.56478900
_cell_angle_alpha   90.00221788
_cell_angle_beta   89.99313721
_cell_angle_gamma   90.01814659
_symmetry_Int_Tables_number   1
_chemical_formula_structural   Tb9Ho5(Lu3Pb8)2
_chemical_formula_sum   'Tb9 Ho5 Lu6 Pb16'
_cell_volume   1046.24766718
_cell_formula_units_Z   1
loop_
 _symmetry_equiv_pos_site_id
 _symmetry_equiv_pos_as_xyz
  1  'x, y, z'
loop_
 _atom_site_type_symbol
 _atom_site_label
 _atom_site_symmetry_multiplicity
 _atom_site_fract_x
 _atom_site_fract_y
 _atom_site_fract_z
 _atom_site_occupancy
  Tb  Tb0  1  0.875043  0.657508  0.878629  1
  Tb  Tb1  1  0.533738  0.323188  0.901251  1
  Tb  Tb2  1  0.033890  0.176657  0.598721  1
  Tb  Tb3  1  0.465961  0.676901  0.401859  1
  Tb  Tb4  1  0.965989  0.823257  0.098401  1
  Tb  Tb5  1  0.468548  0.678609  0.096886  1
  Tb  Tb6  1  0.968387  0.821340  0.403097  1
  Tb  Tb7  1  0.532977  0.324678  0.599501  1
  Tb  Tb8  1  0.033033  0.175144  0.900421  1
  Ho  Ho9  1  0.627141  0.157047  0.379837  1
  Ho  Ho10  1  0.126996  0.342942  0.120185  1
  Ho  Ho11  1  0.625101  0.158641  0.121871  1
  Ho  Ho12  1  0.125164  0.341222  0.378285  1
  Ho  Ho13  1  0.374947  0.842804  0.621479  1
  Lu  Lu14  1  0.372339  0.843789  0.876275  1
  Lu  Lu15  1  0.872321  0.656067  0.623634  1
  Lu  Lu16  1  0.206153  0.505652  0.749816  1
  Lu  Lu17  1  0.705780  0.994407  0.749893  1
  Lu  Lu18  1  0.794077  0.494577  0.250776  1
  Lu  Lu19  1  0.294052  0.005341  0.249328  1
  Pb  Pb20  1  0.284710  0.034299  0.041819  1
  Pb  Pb21  1  0.784822  0.465777  0.458134  1
  Pb  Pb22  1  0.717689  0.961888  0.544391  1
  Pb  Pb23  1  0.218797  0.537674  0.955727  1
  Pb  Pb24  1  0.711458  0.964468  0.956207  1
  Pb  Pb25  1  0.211889  0.536530  0.543903  1
  Pb  Pb26  1  0.284842  0.035230  0.456232  1
  Pb  Pb27  1  0.784765  0.464365  0.044336  1
  Pb  Pb28  1  0.567645  0.626702  0.750160  1
  Pb  Pb29  1  0.068698  0.873701  0.749087  1
  Pb  Pb30  1  0.431221  0.374879  0.250654  1
  Pb  Pb31  1  0.931221  0.125201  0.249409  1
  Pb  Pb32  1  0.345883  0.155874  0.750081  1
  Pb  Pb33  1  0.845875  0.343656  0.749681  1
  Pb  Pb34  1  0.654419  0.844560  0.250213  1
  Pb  Pb35  1  0.154422  0.655427  0.249816  1
