# generated using pymatgen
data_Er6GaCuOs
_symmetry_space_group_name_H-M   'P 1'
_cell_length_a   8.33819760
_cell_length_b   8.33819959
_cell_length_c   8.33819856
_cell_angle_alpha   112.86470395
_cell_angle_beta   110.35339355
_cell_angle_gamma   105.28580747
_symmetry_Int_Tables_number   1
_chemical_formula_structural   Er6GaCuOs
_chemical_formula_sum   'Er12 Ga2 Cu2 Os2'
_cell_volume   444.26690604
_cell_formula_units_Z   2
loop_
 _symmetry_equiv_pos_site_id
 _symmetry_equiv_pos_as_xyz
  1  'x, y, z'
loop_
 _atom_site_type_symbol
 _atom_site_label
 _atom_site_symmetry_multiplicity
 _atom_site_fract_x
 _atom_site_fract_y
 _atom_site_fract_z
 _atom_site_occupancy
  Er  Er0  1  0.049756  0.741893  0.307863  1
  Er  Er1  1  0.950244  0.258107  0.692137  1
  Er  Er2  1  0.565970  0.258107  0.307863  1
  Er  Er3  1  0.434030  0.741893  0.692137  1
  Er  Er4  1  0.665698  0.856035  0.190336  1
  Er  Er5  1  0.334302  0.524638  0.190336  1
  Er  Er6  1  0.334302  0.143965  0.809664  1
  Er  Er7  1  0.665698  0.475362  0.809664  1
  Er  Er8  1  0.182373  0.227635  0.410009  1
  Er  Er9  1  0.817627  0.227635  0.045262  1
  Er  Er10  1  0.182373  0.772365  0.954738  1
  Er  Er11  1  0.817627  0.772365  0.589991  1
  Ga  Ga12  1  0.000000  0.500000  0.500000  1
  Ga  Ga13  1  0.500000  0.000000  0.500000  1
  Cu  Cu14  1  0.880904  0.880904  0.000000  1
  Cu  Cu15  1  0.119096  0.119096  0.000000  1
  Os  Os16  1  0.668518  0.500000  0.168518  1
  Os  Os17  1  0.331482  0.500000  0.831482  1
