# generated using pymatgen
data_Ac4Pr2Sn9Hg
_symmetry_space_group_name_H-M   'P 1'
_cell_length_a   6.79694433
_cell_length_b   6.79694394
_cell_length_c   10.90618481
_cell_angle_alpha   89.89142291
_cell_angle_beta   89.89142386
_cell_angle_gamma   102.77268686
_symmetry_Int_Tables_number   1
_chemical_formula_structural   Ac4Pr2Sn9Hg
_chemical_formula_sum   'Ac4 Pr2 Sn9 Hg1'
_cell_volume   491.37875192
_cell_formula_units_Z   1
loop_
 _symmetry_equiv_pos_site_id
 _symmetry_equiv_pos_as_xyz
  1  'x, y, z'
loop_
 _atom_site_type_symbol
 _atom_site_label
 _atom_site_symmetry_multiplicity
 _atom_site_fract_x
 _atom_site_fract_y
 _atom_site_fract_z
 _atom_site_occupancy
  Ac  Ac0  1  0.201090  0.798978  0.500047  1
  Ac  Ac1  1  0.204146  0.800248  0.000860  1
  Ac  Ac2  1  0.798978  0.201090  0.500047  1
  Ac  Ac3  1  0.800248  0.204146  0.000860  1
  Pr  Pr4  1  0.636982  0.636982  0.249331  1
  Pr  Pr5  1  0.364928  0.364928  0.752229  1
  Sn  Sn6  1  0.027105  0.027105  0.250307  1
  Sn  Sn7  1  0.973839  0.973839  0.751037  1
  Sn  Sn8  1  0.679391  0.679391  0.953592  1
  Sn  Sn9  1  0.324384  0.324384  0.454346  1
  Sn  Sn10  1  0.673015  0.673015  0.548486  1
  Sn  Sn11  1  0.487633  0.079159  0.249443  1
  Sn  Sn12  1  0.923340  0.511557  0.750499  1
  Sn  Sn13  1  0.511557  0.923340  0.750499  1
  Sn  Sn14  1  0.079159  0.487633  0.249443  1
  Hg  Hg15  1  0.314205  0.314205  0.038973  1
