# generated using pymatgen
data_Nd4CuSi2Pd27
_symmetry_space_group_name_H-M   'P 1'
_cell_length_a   8.95457927
_cell_length_b   8.95457927
_cell_length_c   7.16149716
_cell_angle_alpha   90.16813137
_cell_angle_beta   90.16813137
_cell_angle_gamma   89.31360912
_symmetry_Int_Tables_number   1
_chemical_formula_structural   Nd4CuSi2Pd27
_chemical_formula_sum   'Nd4 Cu1 Si2 Pd27'
_cell_volume   574.19490484
_cell_formula_units_Z   1
loop_
 _symmetry_equiv_pos_site_id
 _symmetry_equiv_pos_as_xyz
  1  'x, y, z'
loop_
 _atom_site_type_symbol
 _atom_site_label
 _atom_site_symmetry_multiplicity
 _atom_site_fract_x
 _atom_site_fract_y
 _atom_site_fract_z
 _atom_site_occupancy
  Nd  Nd0  1  0.502955  0.002955  0.935157  1
  Nd  Nd1  1  0.997045  0.497045  0.064843  1
  Nd  Nd2  1  0.001171  0.998829  0.500000  1
  Nd  Nd3  1  0.498829  0.501171  0.500000  1
  Cu  Cu4  1  0.250000  0.750000  0.000000  1
  Si  Si5  1  0.500385  0.000385  0.447670  1
  Si  Si6  1  0.999615  0.499615  0.552330  1
  Pd  Pd7  1  0.334742  0.834742  0.612726  1
  Pd  Pd8  1  0.333267  0.165375  0.617050  1
  Pd  Pd9  1  0.665375  0.833267  0.617050  1
  Pd  Pd10  1  0.665564  0.165564  0.614258  1
  Pd  Pd11  1  0.165258  0.665258  0.387274  1
  Pd  Pd12  1  0.166733  0.334625  0.382950  1
  Pd  Pd13  1  0.834625  0.666733  0.382950  1
  Pd  Pd14  1  0.834436  0.334436  0.385742  1
  Pd  Pd15  1  0.498480  0.770710  0.254649  1
  Pd  Pd16  1  0.497761  0.230296  0.256812  1
  Pd  Pd17  1  0.270710  0.998480  0.254649  1
  Pd  Pd18  1  0.730296  0.997761  0.256812  1
  Pd  Pd19  1  0.001520  0.729290  0.745351  1
  Pd  Pd20  1  0.002239  0.269704  0.743188  1
  Pd  Pd21  1  0.229290  0.501520  0.745351  1
  Pd  Pd22  1  0.769704  0.502239  0.743188  1
  Pd  Pd23  1  0.498799  0.351378  0.855362  1
  Pd  Pd24  1  0.493276  0.657665  0.861319  1
  Pd  Pd25  1  0.851378  0.998799  0.855362  1
  Pd  Pd26  1  0.157665  0.993276  0.861319  1
  Pd  Pd27  1  0.001201  0.148622  0.144638  1
  Pd  Pd28  1  0.006724  0.842335  0.138681  1
  Pd  Pd29  1  0.648622  0.501201  0.144638  1
  Pd  Pd30  1  0.342335  0.506724  0.138681  1
  Pd  Pd31  1  0.250000  0.250000  0.000000  1
  Pd  Pd32  1  0.750000  0.750000  0.000000  1
  Pd  Pd33  1  0.750000  0.250000  0.000000  1
