# generated using pymatgen
data_LaPrTh2(As2Au)4
_symmetry_space_group_name_H-M   'P 1'
_cell_length_a   5.92786700
_cell_length_b   5.92717117
_cell_length_c   20.29057660
_cell_angle_alpha   89.97218301
_cell_angle_beta   90.00000000
_cell_angle_gamma   90.00000000
_symmetry_Int_Tables_number   1
_chemical_formula_structural   LaPrTh2(As2Au)4
_chemical_formula_sum   'La2 Pr2 Th4 As16 Au8'
_cell_volume   712.91911311
_cell_formula_units_Z   2
loop_
 _symmetry_equiv_pos_site_id
 _symmetry_equiv_pos_as_xyz
  1  'x, y, z'
loop_
 _atom_site_type_symbol
 _atom_site_label
 _atom_site_symmetry_multiplicity
 _atom_site_fract_x
 _atom_site_fract_y
 _atom_site_fract_z
 _atom_site_occupancy
  La  La0  1  0.750000  0.491905  0.613484  1
  La  La1  1  0.250000  0.508095  0.386516  1
  Pr  Pr2  1  0.250000  0.491549  0.886837  1
  Pr  Pr3  1  0.750000  0.508451  0.113163  1
  Th  Th4  1  0.250000  0.991487  0.616462  1
  Th  Th5  1  0.750000  0.008513  0.383538  1
  Th  Th6  1  0.750000  0.991318  0.883764  1
  Th  Th7  1  0.250000  0.008682  0.116236  1
  As  As8  1  0.750000  0.991530  0.656278  1
  As  As9  1  0.250000  0.008470  0.343722  1
  As  As10  1  0.250000  0.991491  0.844444  1
  As  As11  1  0.750000  0.008509  0.155556  1
  As  As12  1  0.250000  0.491594  0.657214  1
  As  As13  1  0.750000  0.508406  0.342786  1
  As  As14  1  0.750000  0.491603  0.843611  1
  As  As15  1  0.250000  0.508397  0.156389  1
  As  As16  1  0.003749  0.228559  0.500097  1
  As  As17  1  0.503749  0.771441  0.499903  1
  As  As18  1  0.996739  0.233333  0.999890  1
  As  As19  1  0.496739  0.766667  0.000110  1
  As  As20  1  0.996251  0.771441  0.499903  1
  As  As21  1  0.496251  0.228559  0.500097  1
  As  As22  1  0.003261  0.766667  0.000110  1
  As  As23  1  0.503261  0.233333  0.999890  1
  Au  Au24  1  0.499969  0.733569  0.750100  1
  Au  Au25  1  0.999969  0.266431  0.249900  1
  Au  Au26  1  0.500031  0.266431  0.249900  1
  Au  Au27  1  0.000031  0.733569  0.750100  1
  Au  Au28  1  0.499953  0.233330  0.750083  1
  Au  Au29  1  0.999953  0.766670  0.249917  1
  Au  Au30  1  0.500047  0.766670  0.249917  1
  Au  Au31  1  0.000047  0.233330  0.750083  1
