# generated using pymatgen
data_CeSc4Si7Pt8Rh
_symmetry_space_group_name_H-M   'P 1'
_cell_length_a   10.04131657
_cell_length_b   10.05479974
_cell_length_c   3.94858100
_cell_angle_alpha   90.00000000
_cell_angle_beta   90.00000000
_cell_angle_gamma   119.84638475
_symmetry_Int_Tables_number   1
_chemical_formula_structural   CeSc4Si7Pt8Rh
_chemical_formula_sum   'Ce1 Sc4 Si7 Pt8 Rh1'
_cell_volume   345.78483722
_cell_formula_units_Z   1
loop_
 _symmetry_equiv_pos_site_id
 _symmetry_equiv_pos_as_xyz
  1  'x, y, z'
loop_
 _atom_site_type_symbol
 _atom_site_label
 _atom_site_symmetry_multiplicity
 _atom_site_fract_x
 _atom_site_fract_y
 _atom_site_fract_z
 _atom_site_occupancy
  Ce  Ce0  1  0.332885  0.668942  0.500000  1
  Sc  Sc1  1  0.001439  0.998643  0.000000  1
  Sc  Sc2  1  0.893719  0.457981  0.500000  1
  Sc  Sc3  1  0.561348  0.104897  0.500000  1
  Sc  Sc4  1  0.541134  0.435683  0.500000  1
  Si  Si5  1  0.238413  0.184016  0.500000  1
  Si  Si6  1  0.810802  0.049841  0.500000  1
  Si  Si7  1  0.956044  0.762378  0.500000  1
  Si  Si8  1  0.561223  0.648148  0.000000  1
  Si  Si9  1  0.349080  0.914284  0.000000  1
  Si  Si10  1  0.086572  0.439981  0.000000  1
  Si  Si11  1  0.665948  0.332751  0.000000  1
  Pt  Pt12  1  0.064253  0.279897  0.500000  1
  Pt  Pt13  1  0.721402  0.783536  0.500000  1
  Pt  Pt14  1  0.315469  0.416052  0.000000  1
  Pt  Pt15  1  0.585380  0.900985  0.000000  1
  Pt  Pt16  1  0.098331  0.686566  0.000000  1
  Pt  Pt17  1  0.382096  0.174158  0.000000  1
  Pt  Pt18  1  0.826160  0.209015  0.000000  1
  Pt  Pt19  1  0.788915  0.615258  0.000000  1
  Rh  Rh20  1  0.219385  0.936989  0.500000  1
