# generated using pymatgen
data_Tb7YMo2(OsC4)2
_symmetry_space_group_name_H-M   'P 1'
_cell_length_a   5.13785000
_cell_length_b   6.61526176
_cell_length_c   9.95435420
_cell_angle_alpha   89.29460440
_cell_angle_beta   90.00000000
_cell_angle_gamma   90.00000000
_symmetry_Int_Tables_number   1
_chemical_formula_structural   Tb7YMo2(OsC4)2
_chemical_formula_sum   'Tb7 Y1 Mo2 Os2 C8'
_cell_volume   338.30516632
_cell_formula_units_Z   1
loop_
 _symmetry_equiv_pos_site_id
 _symmetry_equiv_pos_as_xyz
  1  'x, y, z'
loop_
 _atom_site_type_symbol
 _atom_site_label
 _atom_site_symmetry_multiplicity
 _atom_site_fract_x
 _atom_site_fract_y
 _atom_site_fract_z
 _atom_site_occupancy
  Tb  Tb0  1  0.250000  0.679127  0.556647  1
  Tb  Tb1  1  0.750000  0.320436  0.443205  1
  Tb  Tb2  1  0.750000  0.823221  0.057133  1
  Tb  Tb3  1  0.250000  0.176880  0.942983  1
  Tb  Tb4  1  0.250000  0.537414  0.218040  1
  Tb  Tb5  1  0.750000  0.462476  0.782125  1
  Tb  Tb6  1  0.750000  0.969360  0.715970  1
  Y  Y7  1  0.250000  0.031134  0.283773  1
  Mo  Mo8  1  0.250000  0.717492  0.866119  1
  Mo  Mo9  1  0.750000  0.282668  0.133959  1
  Os  Os10  1  0.750000  0.779535  0.365392  1
  Os  Os11  1  0.250000  0.220441  0.634670  1
  C  C12  1  0.250000  0.449903  0.756656  1
  C  C13  1  0.750000  0.550175  0.243266  1
  C  C14  1  0.750000  0.044928  0.260347  1
  C  C15  1  0.250000  0.955061  0.739809  1
  C  C16  1  0.250000  0.822360  0.049923  1
  C  C17  1  0.750000  0.177711  0.950143  1
  C  C18  1  0.750000  0.679030  0.546669  1
  C  C19  1  0.250000  0.320648  0.453170  1
