# generated using pymatgen
data_Ho4Tm12MgCd3Ni4
_symmetry_space_group_name_H-M   'P 1'
_cell_length_a   9.43090012
_cell_length_b   9.41845751
_cell_length_c   9.41845800
_cell_angle_alpha   59.99999828
_cell_angle_beta   60.04363228
_cell_angle_gamma   60.04363278
_symmetry_Int_Tables_number   1
_chemical_formula_structural   Ho4Tm12MgCd3Ni4
_chemical_formula_sum   'Ho4 Tm12 Mg1 Cd3 Ni4'
_cell_volume   591.94837860
_cell_formula_units_Z   1
loop_
 _symmetry_equiv_pos_site_id
 _symmetry_equiv_pos_as_xyz
  1  'x, y, z'
loop_
 _atom_site_type_symbol
 _atom_site_label
 _atom_site_symmetry_multiplicity
 _atom_site_fract_x
 _atom_site_fract_y
 _atom_site_fract_z
 _atom_site_occupancy
  Ho  Ho0  1  0.598502  0.597304  0.597304  1
  Ho  Ho1  1  0.598502  0.597304  0.206891  1
  Ho  Ho2  1  0.598502  0.206891  0.597304  1
  Ho  Ho3  1  0.201848  0.599385  0.599385  1
  Tm  Tm4  1  0.060507  0.439016  0.439016  1
  Tm  Tm5  1  0.437104  0.062413  0.062413  1
  Tm  Tm6  1  0.437104  0.062413  0.438070  1
  Tm  Tm7  1  0.060507  0.439016  0.061460  1
  Tm  Tm8  1  0.437104  0.438070  0.062413  1
  Tm  Tm9  1  0.060507  0.061460  0.439016  1
  Tm  Tm10  1  0.184882  0.814622  0.814622  1
  Tm  Tm11  1  0.814770  0.185423  0.185423  1
  Tm  Tm12  1  0.814770  0.185423  0.814384  1
  Tm  Tm13  1  0.184882  0.814622  0.185876  1
  Tm  Tm14  1  0.814770  0.814384  0.185423  1
  Tm  Tm15  1  0.184882  0.185876  0.814622  1
  Mg  Mg16  1  0.521361  0.826213  0.826213  1
  Cd  Cd17  1  0.832324  0.832157  0.832157  1
  Cd  Cd18  1  0.832324  0.832157  0.503361  1
  Cd  Cd19  1  0.832324  0.503361  0.832157  1
  Ni  Ni20  1  0.389076  0.393037  0.393037  1
  Ni  Ni21  1  0.389076  0.393037  0.824852  1
  Ni  Ni22  1  0.389076  0.824852  0.393037  1
  Ni  Ni23  1  0.825295  0.391568  0.391568  1
