# generated using pymatgen
data_Ba3TmNiO6
_symmetry_space_group_name_H-M   'P 1'
_cell_length_a   7.10427969
_cell_length_b   7.10427948
_cell_length_c   7.10427970
_cell_angle_alpha   93.82400150
_cell_angle_beta   93.82401025
_cell_angle_gamma   93.82398988
_symmetry_Int_Tables_number   1
_chemical_formula_structural   Ba3TmNiO6
_chemical_formula_sum   'Ba6 Tm2 Ni2 O12'
_cell_volume   356.05127294
_cell_formula_units_Z   2
loop_
 _symmetry_equiv_pos_site_id
 _symmetry_equiv_pos_as_xyz
  1  'x, y, z'
loop_
 _atom_site_type_symbol
 _atom_site_label
 _atom_site_symmetry_multiplicity
 _atom_site_fract_x
 _atom_site_fract_y
 _atom_site_fract_z
 _atom_site_occupancy
  Ba  Ba0  1  0.380196  0.119803  0.750000  1
  Ba  Ba1  1  0.750000  0.380197  0.119804  1
  Ba  Ba2  1  0.249999  0.619804  0.880197  1
  Ba  Ba3  1  0.619803  0.880196  0.250001  1
  Ba  Ba4  1  0.119804  0.750000  0.380197  1
  Ba  Ba5  1  0.880196  0.250000  0.619804  1
  Tm  Tm6  1  0.750000  0.750001  0.750000  1
  Tm  Tm7  1  0.250001  0.250000  0.250000  1
  Ni  Ni8  1  0.500000  0.500000  0.500000  1
  Ni  Ni9  1  0.000000  0.000000  0.000000  1
  O  O10  1  0.782670  0.594621  0.468874  1
  O  O11  1  0.594622  0.468873  0.782670  1
  O  O12  1  0.468873  0.782670  0.594622  1
  O  O13  1  0.031126  0.905379  0.717331  1
  O  O14  1  0.905378  0.717330  0.031126  1
  O  O15  1  0.717331  0.031126  0.905378  1
  O  O16  1  0.217331  0.405378  0.531127  1
  O  O17  1  0.405378  0.531126  0.217331  1
  O  O18  1  0.531126  0.217331  0.405377  1
  O  O19  1  0.968874  0.094622  0.282670  1
  O  O20  1  0.282670  0.968873  0.094621  1
  O  O21  1  0.094621  0.282669  0.968873  1
