# generated using pymatgen
data_Tm6Al24Ru2PtRh5
_symmetry_space_group_name_H-M   'P 1'
_cell_length_a   8.79134475
_cell_length_b   8.79134439
_cell_length_c   9.45284950
_cell_angle_alpha   89.96783071
_cell_angle_beta   90.03217080
_cell_angle_gamma   119.91527384
_symmetry_Int_Tables_number   1
_chemical_formula_structural   Tm6Al24Ru2PtRh5
_chemical_formula_sum   'Tm6 Al24 Ru2 Pt1 Rh5'
_cell_volume   633.24830727
_cell_formula_units_Z   1
loop_
 _symmetry_equiv_pos_site_id
 _symmetry_equiv_pos_as_xyz
  1  'x, y, z'
loop_
 _atom_site_type_symbol
 _atom_site_label
 _atom_site_symmetry_multiplicity
 _atom_site_fract_x
 _atom_site_fract_y
 _atom_site_fract_z
 _atom_site_occupancy
  Tm  Tm0  1  0.807338  0.192662  0.749964  1
  Tm  Tm1  1  0.192662  0.807338  0.250036  1
  Tm  Tm2  1  0.384731  0.191723  0.750122  1
  Tm  Tm3  1  0.615269  0.808277  0.249878  1
  Tm  Tm4  1  0.808277  0.615269  0.750122  1
  Tm  Tm5  1  0.191723  0.384731  0.249878  1
  Al  Al6  1  0.668448  0.331552  0.968913  1
  Al  Al7  1  0.331552  0.668448  0.031087  1
  Al  Al8  1  0.333194  0.666806  0.469744  1
  Al  Al9  1  0.666806  0.333194  0.530256  1
  Al  Al10  1  0.836832  0.163168  0.423214  1
  Al  Al11  1  0.163168  0.836832  0.576786  1
  Al  Al12  1  0.325898  0.163074  0.423305  1
  Al  Al13  1  0.163087  0.836913  0.922854  1
  Al  Al14  1  0.674102  0.836926  0.576695  1
  Al  Al15  1  0.836913  0.163087  0.077146  1
  Al  Al16  1  0.836926  0.674102  0.423305  1
  Al  Al17  1  0.674875  0.839923  0.922763  1
  Al  Al18  1  0.163074  0.325898  0.576695  1
  Al  Al19  1  0.325125  0.160077  0.077237  1
  Al  Al20  1  0.160077  0.325125  0.922763  1
  Al  Al21  1  0.839923  0.674875  0.077237  1
  Al  Al22  1  0.437522  0.562478  0.747485  1
  Al  Al23  1  0.562478  0.437522  0.252515  1
  Al  Al24  1  0.123227  0.561544  0.750350  1
  Al  Al25  1  0.876773  0.438456  0.249650  1
  Al  Al26  1  0.438456  0.876773  0.750350  1
  Al  Al27  1  0.561544  0.123227  0.249650  1
  Al  Al28  1  0.000301  0.999699  0.749904  1
  Al  Al29  1  0.999699  0.000301  0.250096  1
  Ru  Ru30  1  0.000000  0.000000  0.000000  1
  Ru  Ru31  1  0.000000  0.000000  0.500000  1
  Pt  Pt32  1  0.500000  0.500000  0.000000  1
  Rh  Rh33  1  0.000000  0.500000  0.000000  1
  Rh  Rh34  1  0.500000  0.500000  0.500000  1
  Rh  Rh35  1  0.500000  0.000000  0.000000  1
  Rh  Rh36  1  0.000000  0.500000  0.500000  1
  Rh  Rh37  1  0.500000  0.000000  0.500000  1
