# generated using pymatgen
data_Th6Pa(P3Rh5)4
_symmetry_space_group_name_H-M   'P 1'
_cell_length_a   13.53011200
_cell_length_b   13.53011175
_cell_length_c   4.06717100
_cell_angle_alpha   90.00000000
_cell_angle_beta   90.00000000
_cell_angle_gamma   119.99999571
_symmetry_Int_Tables_number   1
_chemical_formula_structural   Th6Pa(P3Rh5)4
_chemical_formula_sum   'Th6 Pa1 P12 Rh20'
_cell_volume   644.80123116
_cell_formula_units_Z   1
loop_
 _symmetry_equiv_pos_site_id
 _symmetry_equiv_pos_as_xyz
  1  'x, y, z'
loop_
 _atom_site_type_symbol
 _atom_site_label
 _atom_site_symmetry_multiplicity
 _atom_site_fract_x
 _atom_site_fract_y
 _atom_site_fract_z
 _atom_site_occupancy
  Th  Th0  1  0.526952  0.716188  0.262556  1
  Th  Th1  1  0.283812  0.810763  0.262556  1
  Th  Th2  1  0.189237  0.473048  0.262556  1
  Th  Th3  1  0.473048  0.283812  0.737444  1
  Th  Th4  1  0.716188  0.189237  0.737444  1
  Th  Th5  1  0.810763  0.526952  0.737444  1
  Pa  Pa6  1  0.000000  0.000000  0.000000  1
  P  P7  1  0.523969  0.136260  0.242015  1
  P  P8  1  0.863740  0.387711  0.242015  1
  P  P9  1  0.612289  0.476031  0.242015  1
  P  P10  1  0.949334  0.718379  0.229152  1
  P  P11  1  0.281621  0.230955  0.229152  1
  P  P12  1  0.769045  0.050666  0.229152  1
  P  P13  1  0.387711  0.523969  0.757985  1
  P  P14  1  0.476031  0.863740  0.757985  1
  P  P15  1  0.136260  0.612289  0.757985  1
  P  P16  1  0.718379  0.769045  0.770848  1
  P  P17  1  0.230955  0.949334  0.770848  1
  P  P18  1  0.050666  0.281621  0.770848  1
  Rh  Rh19  1  0.333333  0.666667  0.743764  1
  Rh  Rh20  1  0.920121  0.251307  0.216807  1
  Rh  Rh21  1  0.748693  0.668814  0.216807  1
  Rh  Rh22  1  0.331186  0.079879  0.216807  1
  Rh  Rh23  1  0.437172  0.019430  0.739492  1
  Rh  Rh24  1  0.980570  0.417743  0.739492  1
  Rh  Rh25  1  0.582257  0.562828  0.739492  1
  Rh  Rh26  1  0.666667  0.333333  0.256236  1
  Rh  Rh27  1  0.098311  0.206549  0.295157  1
  Rh  Rh28  1  0.793451  0.891762  0.295157  1
  Rh  Rh29  1  0.108238  0.901689  0.295157  1
  Rh  Rh30  1  0.019430  0.582257  0.260508  1
  Rh  Rh31  1  0.417743  0.437172  0.260508  1
  Rh  Rh32  1  0.562828  0.980570  0.260508  1
  Rh  Rh33  1  0.668814  0.920121  0.783193  1
  Rh  Rh34  1  0.079879  0.748693  0.783193  1
  Rh  Rh35  1  0.251307  0.331186  0.783193  1
  Rh  Rh36  1  0.901689  0.793451  0.704843  1
  Rh  Rh37  1  0.206549  0.108238  0.704843  1
  Rh  Rh38  1  0.891762  0.098311  0.704843  1
