# generated using pymatgen
data_Pr4YSi2Sn
_symmetry_space_group_name_H-M   'P 1'
_cell_length_a   7.83980800
_cell_length_b   9.28613267
_cell_length_c   7.83980800
_cell_angle_alpha   114.96878813
_cell_angle_beta   90.00000000
_cell_angle_gamma   114.96878813
_symmetry_Int_Tables_number   1
_chemical_formula_structural   Pr4YSi2Sn
_chemical_formula_sum   'Pr8 Y2 Si4 Sn2'
_cell_volume   457.88996096
_cell_formula_units_Z   2
loop_
 _symmetry_equiv_pos_site_id
 _symmetry_equiv_pos_as_xyz
  1  'x, y, z'
loop_
 _atom_site_type_symbol
 _atom_site_label
 _atom_site_symmetry_multiplicity
 _atom_site_fract_x
 _atom_site_fract_y
 _atom_site_fract_z
 _atom_site_occupancy
  Pr  Pr0  1  0.535965  0.722722  0.686759  1
  Pr  Pr1  1  0.186759  0.722722  0.035965  1
  Pr  Pr2  1  0.686759  0.722722  0.186759  1
  Pr  Pr3  1  0.035965  0.722722  0.535965  1
  Pr  Pr4  1  0.464035  0.277278  0.313241  1
  Pr  Pr5  1  0.813241  0.277278  0.964035  1
  Pr  Pr6  1  0.313241  0.277278  0.813241  1
  Pr  Pr7  1  0.964035  0.277278  0.464035  1
  Y  Y8  1  0.000000  0.000000  0.000000  1
  Y  Y9  1  0.500000  0.000000  0.500000  1
  Si  Si10  1  0.879932  0.000000  0.620068  1
  Si  Si11  1  0.120068  0.000000  0.379932  1
  Si  Si12  1  0.620068  0.000000  0.120068  1
  Si  Si13  1  0.379932  0.000000  0.879932  1
  Sn  Sn14  1  0.750000  0.500000  0.750000  1
  Sn  Sn15  1  0.250000  0.500000  0.250000  1
