# generated using pymatgen
data_Pr8Lu12In7Pb9
_symmetry_space_group_name_H-M   'P 1'
_cell_length_a   8.14501600
_cell_length_b   8.39247505
_cell_length_c   15.94379300
_cell_angle_alpha   90.00000000
_cell_angle_beta   90.00000000
_cell_angle_gamma   90.00645155
_symmetry_Int_Tables_number   1
_chemical_formula_structural   Pr8Lu12In7Pb9
_chemical_formula_sum   'Pr8 Lu12 In7 Pb9'
_cell_volume   1089.86735739
_cell_formula_units_Z   1
loop_
 _symmetry_equiv_pos_site_id
 _symmetry_equiv_pos_as_xyz
  1  'x, y, z'
loop_
 _atom_site_type_symbol
 _atom_site_label
 _atom_site_symmetry_multiplicity
 _atom_site_fract_x
 _atom_site_fract_y
 _atom_site_fract_z
 _atom_site_occupancy
  Pr  Pr0  1  0.485207  0.685639  0.596392  1
  Pr  Pr1  1  0.985164  0.814577  0.902527  1
  Pr  Pr2  1  0.512089  0.315833  0.097376  1
  Pr  Pr3  1  0.016655  0.181866  0.404910  1
  Pr  Pr4  1  0.512089  0.315833  0.402624  1
  Pr  Pr5  1  0.016655  0.181866  0.095090  1
  Pr  Pr6  1  0.485207  0.685639  0.903608  1
  Pr  Pr7  1  0.985164  0.814577  0.597473  1
  Lu  Lu8  1  0.640054  0.161062  0.624205  1
  Lu  Lu9  1  0.139329  0.338859  0.875528  1
  Lu  Lu10  1  0.359748  0.840256  0.123039  1
  Lu  Lu11  1  0.858780  0.663757  0.376559  1
  Lu  Lu12  1  0.359748  0.840256  0.376961  1
  Lu  Lu13  1  0.858780  0.663757  0.123441  1
  Lu  Lu14  1  0.640054  0.161062  0.875795  1
  Lu  Lu15  1  0.139329  0.338859  0.624472  1
  Lu  Lu16  1  0.804024  0.493664  0.750000  1
  Lu  Lu17  1  0.304407  0.005650  0.750000  1
  Lu  Lu18  1  0.197608  0.507969  0.250000  1
  Lu  Lu19  1  0.694321  0.989914  0.250000  1
  In  In20  1  0.440326  0.378929  0.750000  1
  In  In21  1  0.940756  0.119892  0.750000  1
  In  In22  1  0.557755  0.623048  0.250000  1
  In  In23  1  0.059073  0.878940  0.250000  1
  In  In24  1  0.685237  0.862776  0.750000  1
  In  In25  1  0.186562  0.637542  0.750000  1
  In  In26  1  0.315122  0.136685  0.250000  1
  Pb  Pb27  1  0.701873  0.959657  0.457932  1
  Pb  Pb28  1  0.199416  0.541836  0.042305  1
  Pb  Pb29  1  0.299353  0.042185  0.957361  1
  Pb  Pb30  1  0.799434  0.457710  0.541545  1
  Pb  Pb31  1  0.299353  0.042185  0.542639  1
  Pb  Pb32  1  0.799434  0.457710  0.958455  1
  Pb  Pb33  1  0.701873  0.959657  0.042068  1
  Pb  Pb34  1  0.199416  0.541836  0.457695  1
  Pb  Pb35  1  0.820608  0.358519  0.250000  1
