# generated using pymatgen
data_ErPa5(AlPt)6
_symmetry_space_group_name_H-M   'P 1'
_cell_length_a   7.05083258
_cell_length_b   7.04577192
_cell_length_c   8.35569300
_cell_angle_alpha   90.00000000
_cell_angle_beta   90.00000000
_cell_angle_gamma   120.19136666
_symmetry_Int_Tables_number   1
_chemical_formula_structural   ErPa5(AlPt)6
_chemical_formula_sum   'Er1 Pa5 Al6 Pt6'
_cell_volume   358.79087509
_cell_formula_units_Z   1
loop_
 _symmetry_equiv_pos_site_id
 _symmetry_equiv_pos_as_xyz
  1  'x, y, z'
loop_
 _atom_site_type_symbol
 _atom_site_label
 _atom_site_symmetry_multiplicity
 _atom_site_fract_x
 _atom_site_fract_y
 _atom_site_fract_z
 _atom_site_occupancy
  Er  Er0  1  0.413219  0.413543  0.250000  1
  Pa  Pa1  1  0.998669  0.579955  0.750000  1
  Pa  Pa2  1  0.001187  0.577020  0.250000  1
  Pa  Pa3  1  0.577821  0.002082  0.250000  1
  Pa  Pa4  1  0.580204  0.998130  0.750000  1
  Pa  Pa5  1  0.427526  0.428285  0.750000  1
  Al  Al6  1  0.003079  0.238646  0.498980  1
  Al  Al7  1  0.758349  0.758527  0.003092  1
  Al  Al8  1  0.003079  0.238646  0.001020  1
  Al  Al9  1  0.239586  0.003562  0.498900  1
  Al  Al10  1  0.239586  0.003562  0.001100  1
  Al  Al11  1  0.758349  0.758527  0.496908  1
  Pt  Pt12  1  0.330989  0.671448  0.500491  1
  Pt  Pt13  1  0.671441  0.331763  0.501101  1
  Pt  Pt14  1  0.671441  0.331763  0.998899  1
  Pt  Pt15  1  0.992487  0.991860  0.250000  1
  Pt  Pt16  1  0.002003  0.001232  0.750000  1
  Pt  Pt17  1  0.330989  0.671448  0.999509  1
