# generated using pymatgen
data_Li2AcNdSi2Pb
_symmetry_space_group_name_H-M   'P 1'
_cell_length_a   10.11019339
_cell_length_b   10.11019325
_cell_length_c   7.03312200
_cell_angle_alpha   90.00000000
_cell_angle_beta   90.00000000
_cell_angle_gamma   153.28024948
_symmetry_Int_Tables_number   1
_chemical_formula_structural   Li2AcNdSi2Pb
_chemical_formula_sum   'Li4 Ac2 Nd2 Si4 Pb2'
_cell_volume   323.23574649
_cell_formula_units_Z   2
loop_
 _symmetry_equiv_pos_site_id
 _symmetry_equiv_pos_as_xyz
  1  'x, y, z'
loop_
 _atom_site_type_symbol
 _atom_site_label
 _atom_site_symmetry_multiplicity
 _atom_site_fract_x
 _atom_site_fract_y
 _atom_site_fract_z
 _atom_site_occupancy
  Li  Li0  1  0.180532  0.819468  0.058497  1
  Li  Li1  1  0.180532  0.819468  0.441503  1
  Li  Li2  1  0.819468  0.180532  0.941503  1
  Li  Li3  1  0.819468  0.180532  0.558497  1
  Ac  Ac4  1  0.348323  0.651677  0.250000  1
  Ac  Ac5  1  0.651677  0.348323  0.750000  1
  Nd  Nd6  1  0.545741  0.454259  0.250000  1
  Nd  Nd7  1  0.454259  0.545741  0.750000  1
  Si  Si8  1  0.054454  0.945546  0.924622  1
  Si  Si9  1  0.945546  0.054454  0.075378  1
  Si  Si10  1  0.945546  0.054454  0.424622  1
  Si  Si11  1  0.054454  0.945546  0.575378  1
  Pb  Pb12  1  0.715721  0.284279  0.250000  1
  Pb  Pb13  1  0.284279  0.715721  0.750000  1
