# generated using pymatgen
data_Al2V12Ga3Ni3N4
_symmetry_space_group_name_H-M   'P 1'
_cell_length_a   6.53314872
_cell_length_b   6.53263200
_cell_length_c   6.52872192
_cell_angle_alpha   90.19832505
_cell_angle_beta   90.21983840
_cell_angle_gamma   90.16015328
_symmetry_Int_Tables_number   1
_chemical_formula_structural   Al2V12Ga3Ni3N4
_chemical_formula_sum   'Al2 V12 Ga3 Ni3 N4'
_cell_volume   278.63226084
_cell_formula_units_Z   1
loop_
 _symmetry_equiv_pos_site_id
 _symmetry_equiv_pos_as_xyz
  1  'x, y, z'
loop_
 _atom_site_type_symbol
 _atom_site_label
 _atom_site_symmetry_multiplicity
 _atom_site_fract_x
 _atom_site_fract_y
 _atom_site_fract_z
 _atom_site_occupancy
  Al  Al0  1  0.569664  0.415370  0.934823  1
  Al  Al1  1  0.416291  0.935588  0.570743  1
  V  V2  1  0.791239  0.962139  0.375771  1
  V  V3  1  0.710973  0.040972  0.873615  1
  V  V4  1  0.209003  0.460012  0.124386  1
  V  V5  1  0.288788  0.539110  0.626434  1
  V  V6  1  0.962552  0.374179  0.790585  1
  V  V7  1  0.041526  0.874257  0.709713  1
  V  V8  1  0.459626  0.124342  0.210388  1
  V  V9  1  0.538884  0.625444  0.288373  1
  V  V10  1  0.375247  0.790560  0.963037  1
  V  V11  1  0.873348  0.709201  0.041665  1
  V  V12  1  0.125523  0.210324  0.459580  1
  V  V13  1  0.625358  0.288793  0.538247  1
  Ga  Ga14  1  0.676819  0.677606  0.678492  1
  Ga  Ga15  1  0.935427  0.569816  0.416909  1
  Ga  Ga16  1  0.074066  0.073561  0.073602  1
  Ni  Ni17  1  0.178301  0.824364  0.321127  1
  Ni  Ni18  1  0.320868  0.176929  0.822669  1
  Ni  Ni19  1  0.821674  0.320155  0.175119  1
  N  N20  1  0.879158  0.125957  0.624809  1
  N  N21  1  0.626191  0.878801  0.125863  1
  N  N22  1  0.124512  0.626087  0.878750  1
  N  N23  1  0.374965  0.376432  0.375299  1
