# generated using pymatgen
data_Tl3MoF6
_symmetry_space_group_name_H-M   'P 1'
_cell_length_a   6.70719000
_cell_length_b   6.70719000
_cell_length_c   9.68835000
_cell_angle_alpha   90.00000000
_cell_angle_beta   90.00000000
_cell_angle_gamma   90.00000000
_symmetry_Int_Tables_number   1
_chemical_formula_structural   Tl3MoF6
_chemical_formula_sum   'Tl6 Mo2 F12'
_cell_volume   435.84396612
_cell_formula_units_Z   2
loop_
 _symmetry_equiv_pos_site_id
 _symmetry_equiv_pos_as_xyz
  1  'x, y, z'
loop_
 _atom_site_type_symbol
 _atom_site_label
 _atom_site_symmetry_multiplicity
 _atom_site_fract_x
 _atom_site_fract_y
 _atom_site_fract_z
 _atom_site_occupancy
  Tl  Tl0  1  0.000000  0.500000  0.250000  1
  Tl  Tl1  1  0.000000  0.500000  0.750000  1
  Tl  Tl2  1  0.500000  0.000000  0.250000  1
  Tl  Tl3  1  0.500000  0.000000  0.750000  1
  Tl  Tl4  1  0.000000  0.000000  0.500000  1
  Tl  Tl5  1  0.500000  0.500000  0.000000  1
  Mo  Mo6  1  0.000000  0.000000  0.000000  1
  Mo  Mo7  1  0.500000  0.500000  0.500000  1
  F  F8  1  0.131766  0.288003  0.000000  1
  F  F9  1  0.868234  0.711997  0.000000  1
  F  F10  1  0.711997  0.131766  0.000000  1
  F  F11  1  0.368234  0.788003  0.500000  1
  F  F12  1  0.288003  0.868234  0.000000  1
  F  F13  1  0.631766  0.211997  0.500000  1
  F  F14  1  0.788003  0.631766  0.500000  1
  F  F15  1  0.211997  0.368234  0.500000  1
  F  F16  1  0.000000  0.000000  0.218103  1
  F  F17  1  0.000000  0.000000  0.781897  1
  F  F18  1  0.500000  0.500000  0.281897  1
  F  F19  1  0.500000  0.500000  0.718103  1
