# generated using pymatgen
data_AcAg(TeO4)2
_symmetry_space_group_name_H-M   'P 1'
_cell_length_a   7.89231512
_cell_length_b   7.89231461
_cell_length_c   7.58035200
_cell_angle_alpha   64.49425717
_cell_angle_beta   64.49425894
_cell_angle_gamma   94.69605787
_symmetry_Int_Tables_number   1
_chemical_formula_structural   AcAg(TeO4)2
_chemical_formula_sum   'Ac2 Ag2 Te4 O16'
_cell_volume   363.32586663
_cell_formula_units_Z   2
loop_
 _symmetry_equiv_pos_site_id
 _symmetry_equiv_pos_as_xyz
  1  'x, y, z'
loop_
 _atom_site_type_symbol
 _atom_site_label
 _atom_site_symmetry_multiplicity
 _atom_site_fract_x
 _atom_site_fract_y
 _atom_site_fract_z
 _atom_site_occupancy
  Ac  Ac0  1  0.722522  0.277478  0.000000  1
  Ac  Ac1  1  0.277478  0.722522  0.000000  1
  Ag  Ag2  1  0.656545  0.656545  0.471718  1
  Ag  Ag3  1  0.343455  0.343455  0.528282  1
  Te  Te4  1  0.147619  0.852381  0.500000  1
  Te  Te5  1  0.852381  0.147619  0.500000  1
  Te  Te6  1  0.770854  0.770854  0.976932  1
  Te  Te7  1  0.229146  0.229146  0.023068  1
  O  O8  1  0.891292  0.656962  0.771562  1
  O  O9  1  0.656962  0.891292  0.771562  1
  O  O10  1  0.108708  0.343038  0.228438  1
  O  O11  1  0.343038  0.108708  0.228438  1
  O  O12  1  0.814288  0.301184  0.631303  1
  O  O13  1  0.301184  0.814288  0.631303  1
  O  O14  1  0.185712  0.698816  0.368697  1
  O  O15  1  0.698816  0.185712  0.368697  1
  O  O16  1  0.456624  0.456624  0.851828  1
  O  O17  1  0.543376  0.543376  0.148172  1
  O  O18  1  0.079734  0.315748  0.886270  1
  O  O19  1  0.315748  0.079734  0.886270  1
  O  O20  1  0.920266  0.684252  0.113730  1
  O  O21  1  0.684252  0.920266  0.113730  1
  O  O22  1  0.018809  0.018809  0.655255  1
  O  O23  1  0.981191  0.981191  0.344745  1
