# generated using pymatgen
data_Er12Si12Tc3Ir
_symmetry_space_group_name_H-M   'P 1'
_cell_length_a   4.15489500
_cell_length_b   10.76851581
_cell_length_c   12.31743602
_cell_angle_alpha   90.12129131
_cell_angle_beta   90.00000000
_cell_angle_gamma   90.00000000
_symmetry_Int_Tables_number   1
_chemical_formula_structural   Er12Si12Tc3Ir
_chemical_formula_sum   'Er12 Si12 Tc3 Ir1'
_cell_volume   551.10613428
_cell_formula_units_Z   1
loop_
 _symmetry_equiv_pos_site_id
 _symmetry_equiv_pos_as_xyz
  1  'x, y, z'
loop_
 _atom_site_type_symbol
 _atom_site_label
 _atom_site_symmetry_multiplicity
 _atom_site_fract_x
 _atom_site_fract_y
 _atom_site_fract_z
 _atom_site_occupancy
  Er  Er0  1  0.250000  0.878988  0.020402  1
  Er  Er1  1  0.250000  0.623030  0.521159  1
  Er  Er2  1  0.750000  0.120789  0.980316  1
  Er  Er3  1  0.750000  0.379418  0.480137  1
  Er  Er4  1  0.250000  0.922075  0.605873  1
  Er  Er5  1  0.250000  0.577561  0.104476  1
  Er  Er6  1  0.750000  0.077778  0.394821  1
  Er  Er7  1  0.750000  0.421799  0.893235  1
  Er  Er8  1  0.250000  0.664664  0.799343  1
  Er  Er9  1  0.250000  0.834962  0.299160  1
  Er  Er10  1  0.750000  0.335986  0.200461  1
  Er  Er11  1  0.750000  0.159065  0.699982  1
  Si  Si12  1  0.250000  0.011375  0.822698  1
  Si  Si13  1  0.250000  0.488313  0.322014  1
  Si  Si14  1  0.750000  0.987028  0.178472  1
  Si  Si15  1  0.750000  0.514446  0.678547  1
  Si  Si16  1  0.250000  0.248269  0.842511  1
  Si  Si17  1  0.250000  0.248919  0.344026  1
  Si  Si18  1  0.750000  0.749370  0.155109  1
  Si  Si19  1  0.750000  0.751571  0.658241  1
  Si  Si20  1  0.250000  0.199084  0.542563  1
  Si  Si21  1  0.250000  0.300558  0.041795  1
  Si  Si22  1  0.750000  0.803094  0.458403  1
  Si  Si23  1  0.750000  0.699991  0.955792  1
  Tc  Tc24  1  0.250000  0.391041  0.680995  1
  Tc  Tc25  1  0.250000  0.110155  0.179333  1
  Tc  Tc26  1  0.750000  0.611477  0.319467  1
  Ir  Ir27  1  0.750000  0.889196  0.820667  1
