# generated using pymatgen
data_Dy5Ho(ErAu2)2
_symmetry_space_group_name_H-M   'P 1'
_cell_length_a   4.93662800
_cell_length_b   7.12774350
_cell_length_c   8.95373204
_cell_angle_alpha   90.05347799
_cell_angle_beta   90.00000000
_cell_angle_gamma   90.00000000
_symmetry_Int_Tables_number   1
_chemical_formula_structural   Dy5Ho(ErAu2)2
_chemical_formula_sum   'Dy5 Ho1 Er2 Au4'
_cell_volume   315.05499435
_cell_formula_units_Z   1
loop_
 _symmetry_equiv_pos_site_id
 _symmetry_equiv_pos_as_xyz
  1  'x, y, z'
loop_
 _atom_site_type_symbol
 _atom_site_label
 _atom_site_symmetry_multiplicity
 _atom_site_fract_x
 _atom_site_fract_y
 _atom_site_fract_z
 _atom_site_occupancy
  Dy  Dy0  1  0.250000  0.486767  0.176698  1
  Dy  Dy1  1  0.750000  0.513384  0.823346  1
  Dy  Dy2  1  0.250000  0.987335  0.323257  1
  Dy  Dy3  1  0.750000  0.013608  0.676877  1
  Dy  Dy4  1  0.750000  0.648519  0.419552  1
  Ho  Ho5  1  0.750000  0.148564  0.080062  1
  Er  Er6  1  0.250000  0.351508  0.580763  1
  Er  Er7  1  0.250000  0.851540  0.919608  1
  Au  Au8  1  0.250000  0.256151  0.900243  1
  Au  Au9  1  0.750000  0.743563  0.098128  1
  Au  Au10  1  0.250000  0.756477  0.600320  1
  Au  Au11  1  0.750000  0.242584  0.401144  1
