# generated using pymatgen
data_Nd4ZnCd2Cu2Ir
_symmetry_space_group_name_H-M   'P 1'
_cell_length_a   7.82871868
_cell_length_b   7.82871867
_cell_length_c   3.87436900
_cell_angle_alpha   90.00000000
_cell_angle_beta   90.00000000
_cell_angle_gamma   89.13104108
_symmetry_Int_Tables_number   1
_chemical_formula_structural   Nd4ZnCd2Cu2Ir
_chemical_formula_sum   'Nd4 Zn1 Cd2 Cu2 Ir1'
_cell_volume   237.42825796
_cell_formula_units_Z   1
loop_
 _symmetry_equiv_pos_site_id
 _symmetry_equiv_pos_as_xyz
  1  'x, y, z'
loop_
 _atom_site_type_symbol
 _atom_site_label
 _atom_site_symmetry_multiplicity
 _atom_site_fract_x
 _atom_site_fract_y
 _atom_site_fract_z
 _atom_site_occupancy
  Nd  Nd0  1  0.686226  0.186226  0.000000  1
  Nd  Nd1  1  0.333307  0.833307  0.000000  1
  Nd  Nd2  1  0.160571  0.311807  0.000000  1
  Nd  Nd3  1  0.811807  0.660571  0.000000  1
  Zn  Zn4  1  0.122232  0.622232  0.500000  1
  Cd  Cd5  1  0.493759  0.499982  0.500000  1
  Cd  Cd6  1  0.999982  0.993759  0.500000  1
  Cu  Cu7  1  0.387284  0.119107  0.500000  1
  Cu  Cu8  1  0.619107  0.887284  0.500000  1
  Ir  Ir9  1  0.885724  0.385724  0.500000  1
