# generated using pymatgen
data_Lu4Zr2Ni20P13
_symmetry_space_group_name_H-M   'P 1'
_cell_length_a   12.51515247
_cell_length_b   12.51378840
_cell_length_c   3.66466000
_cell_angle_alpha   90.00000000
_cell_angle_beta   90.00000000
_cell_angle_gamma   119.97219498
_symmetry_Int_Tables_number   1
_chemical_formula_structural   Lu4Zr2Ni20P13
_chemical_formula_sum   'Lu4 Zr2 Ni20 P13'
_cell_volume   497.17683437
_cell_formula_units_Z   1
loop_
 _symmetry_equiv_pos_site_id
 _symmetry_equiv_pos_as_xyz
  1  'x, y, z'
loop_
 _atom_site_type_symbol
 _atom_site_label
 _atom_site_symmetry_multiplicity
 _atom_site_fract_x
 _atom_site_fract_y
 _atom_site_fract_z
 _atom_site_occupancy
  Lu  Lu0  1  0.809834  0.282174  0.500000  1
  Lu  Lu1  1  0.718436  0.527816  0.500000  1
  Lu  Lu2  1  0.472283  0.190430  0.500000  1
  Lu  Lu3  1  0.192100  0.717842  0.000000  1
  Zr  Zr4  1  0.281907  0.472785  0.000000  1
  Zr  Zr5  1  0.527304  0.809057  0.000000  1
  Ni  Ni6  1  0.418140  0.978887  0.000000  1
  Ni  Ni7  1  0.021459  0.438016  0.000000  1
  Ni  Ni8  1  0.584698  0.018897  0.500000  1
  Ni  Ni9  1  0.560593  0.582897  0.000000  1
  Ni  Ni10  1  0.980938  0.565230  0.500000  1
  Ni  Ni11  1  0.922437  0.081113  0.500000  1
  Ni  Ni12  1  0.159136  0.077436  0.500000  1
  Ni  Ni13  1  0.918110  0.841443  0.500000  1
  Ni  Ni14  1  0.093133  0.895766  0.000000  1
  Ni  Ni15  1  0.801750  0.906453  0.000000  1
  Ni  Ni16  1  0.104710  0.198075  0.000000  1
  Ni  Ni17  1  0.333842  0.666478  0.500000  1
  Ni  Ni18  1  0.666687  0.333390  0.000000  1
  Ni  Ni19  1  0.677292  0.749891  0.500000  1
  Ni  Ni20  1  0.250293  0.928575  0.500000  1
  Ni  Ni21  1  0.921726  0.677557  0.000000  1
  Ni  Ni22  1  0.322513  0.245433  0.000000  1
  Ni  Ni23  1  0.754697  0.076935  0.000000  1
  Ni  Ni24  1  0.434098  0.415749  0.500000  1
  Ni  Ni25  1  0.072272  0.321843  0.500000  1
  P  P26  1  0.999792  0.000140  0.000000  1
  P  P27  1  0.232975  0.285851  0.500000  1
  P  P28  1  0.714089  0.947021  0.500000  1
  P  P29  1  0.051265  0.767229  0.500000  1
  P  P30  1  0.765748  0.714315  0.000000  1
  P  P31  1  0.285577  0.051981  0.000000  1
  P  P32  1  0.473017  0.613289  0.500000  1
  P  P33  1  0.388341  0.860292  0.500000  1
  P  P34  1  0.861324  0.475169  0.000000  1
  P  P35  1  0.524887  0.386329  0.000000  1
  P  P36  1  0.614166  0.139021  0.000000  1
  P  P37  1  0.947948  0.233353  0.000000  1
  P  P38  1  0.140480  0.525840  0.500000  1
