# generated using pymatgen
data_CaSmHo8(In2Pd)4
_symmetry_space_group_name_H-M   'P 1'
_cell_length_a   3.61705000
_cell_length_b   8.19044614
_cell_length_c   18.34821203
_cell_angle_alpha   90.02322024
_cell_angle_beta   90.00000000
_cell_angle_gamma   90.00000000
_symmetry_Int_Tables_number   1
_chemical_formula_structural   CaSmHo8(In2Pd)4
_chemical_formula_sum   'Ca1 Sm1 Ho8 In8 Pd4'
_cell_volume   543.57038245
_cell_formula_units_Z   1
loop_
 _symmetry_equiv_pos_site_id
 _symmetry_equiv_pos_as_xyz
  1  'x, y, z'
loop_
 _atom_site_type_symbol
 _atom_site_label
 _atom_site_symmetry_multiplicity
 _atom_site_fract_x
 _atom_site_fract_y
 _atom_site_fract_z
 _atom_site_occupancy
  Ca  Ca0  1  0.000000  0.000000  0.000000  1
  Sm  Sm1  1  0.000000  0.500000  0.500000  1
  Ho  Ho2  1  0.000000  0.739140  0.280725  1
  Ho  Ho3  1  0.000000  0.260860  0.719275  1
  Ho  Ho4  1  0.000000  0.760664  0.780622  1
  Ho  Ho5  1  0.000000  0.239336  0.219378  1
  Ho  Ho6  1  0.000000  0.618019  0.084222  1
  Ho  Ho7  1  0.000000  0.381981  0.915778  1
  Ho  Ho8  1  0.000000  0.881228  0.584024  1
  Ho  Ho9  1  0.000000  0.118772  0.415976  1
  In  In10  1  0.500000  0.706122  0.931908  1
  In  In11  1  0.500000  0.293878  0.068092  1
  In  In12  1  0.500000  0.795169  0.431858  1
  In  In13  1  0.500000  0.204831  0.568142  1
  In  In14  1  0.500000  0.580564  0.651489  1
  In  In15  1  0.500000  0.419436  0.348511  1
  In  In16  1  0.500000  0.919717  0.151026  1
  In  In17  1  0.500000  0.080283  0.848974  1
  Pd  Pd18  1  0.500000  0.522120  0.195648  1
  Pd  Pd19  1  0.500000  0.477880  0.804352  1
  Pd  Pd20  1  0.500000  0.976513  0.696159  1
  Pd  Pd21  1  0.500000  0.023487  0.303841  1
