# generated using pymatgen
data_YHo7VOs3C8
_symmetry_space_group_name_H-M   'P 1'
_cell_length_a   5.07767800
_cell_length_b   6.50746545
_cell_length_c   9.78970223
_cell_angle_alpha   89.78062169
_cell_angle_beta   90.00000000
_cell_angle_gamma   90.00000000
_symmetry_Int_Tables_number   1
_chemical_formula_structural   YHo7VOs3C8
_chemical_formula_sum   'Y1 Ho7 V1 Os3 C8'
_cell_volume   323.47694025
_cell_formula_units_Z   1
loop_
 _symmetry_equiv_pos_site_id
 _symmetry_equiv_pos_as_xyz
  1  'x, y, z'
loop_
 _atom_site_type_symbol
 _atom_site_label
 _atom_site_symmetry_multiplicity
 _atom_site_fract_x
 _atom_site_fract_y
 _atom_site_fract_z
 _atom_site_occupancy
  Y  Y0  1  0.750000  0.972789  0.716412  1
  Ho  Ho1  1  0.250000  0.683430  0.557693  1
  Ho  Ho2  1  0.750000  0.320932  0.444317  1
  Ho  Ho3  1  0.750000  0.819129  0.054826  1
  Ho  Ho4  1  0.250000  0.176361  0.942704  1
  Ho  Ho5  1  0.250000  0.532975  0.213540  1
  Ho  Ho6  1  0.750000  0.468641  0.779696  1
  Ho  Ho7  1  0.250000  0.029214  0.283137  1
  V  V8  1  0.250000  0.723216  0.866388  1
  Os  Os9  1  0.750000  0.277518  0.134771  1
  Os  Os10  1  0.750000  0.776602  0.364243  1
  Os  Os11  1  0.250000  0.226154  0.635030  1
  C  C12  1  0.250000  0.459477  0.762409  1
  C  C13  1  0.750000  0.541673  0.242325  1
  C  C14  1  0.750000  0.042400  0.258983  1
  C  C15  1  0.250000  0.957056  0.741560  1
  C  C16  1  0.250000  0.819134  0.051113  1
  C  C17  1  0.750000  0.175643  0.951543  1
  C  C18  1  0.750000  0.675148  0.550305  1
  C  C19  1  0.250000  0.322509  0.449006  1
