# generated using pymatgen
data_NaPaSnSe4
_symmetry_space_group_name_H-M   'P 1'
_cell_length_a   8.45289026
_cell_length_b   8.45289112
_cell_length_c   8.45289100
_cell_angle_alpha   119.48051081
_cell_angle_beta   121.01204163
_cell_angle_gamma   89.57912483
_symmetry_Int_Tables_number   1
_chemical_formula_structural   NaPaSnSe4
_chemical_formula_sum   'Na2 Pa2 Sn2 Se8'
_cell_volume   425.37359079
_cell_formula_units_Z   2
loop_
 _symmetry_equiv_pos_site_id
 _symmetry_equiv_pos_as_xyz
  1  'x, y, z'
loop_
 _atom_site_type_symbol
 _atom_site_label
 _atom_site_symmetry_multiplicity
 _atom_site_fract_x
 _atom_site_fract_y
 _atom_site_fract_z
 _atom_site_occupancy
  Na  Na0  1  0.868189  0.618189  0.250000  1
  Na  Na1  1  0.131811  0.381811  0.750000  1
  Pa  Pa2  1  0.500000  0.000000  0.000000  1
  Pa  Pa3  1  0.500000  0.500000  0.500000  1
  Sn  Sn4  1  0.500000  0.000000  0.500000  1
  Sn  Sn5  1  0.000000  0.000000  0.000000  1
  Se  Se6  1  0.725335  0.735301  0.509967  1
  Se  Se7  1  0.725335  0.215369  0.990033  1
  Se  Se8  1  0.726573  0.754893  0.971681  1
  Se  Se9  1  0.283212  0.754893  0.528319  1
  Se  Se10  1  0.274665  0.264699  0.490033  1
  Se  Se11  1  0.274665  0.784631  0.009967  1
  Se  Se12  1  0.273427  0.245107  0.028319  1
  Se  Se13  1  0.716788  0.245107  0.471681  1
