# generated using pymatgen
data_Li2CeAu2
_symmetry_space_group_name_H-M   'P 1'
_cell_length_a   7.23983260
_cell_length_b   7.23983245
_cell_length_c   7.23983206
_cell_angle_alpha   148.54545380
_cell_angle_beta   148.54545266
_cell_angle_gamma   45.08080450
_symmetry_Int_Tables_number   1
_chemical_formula_structural   Li2CeAu2
_chemical_formula_sum   'Li2 Ce1 Au2'
_cell_volume   103.00551741
_cell_formula_units_Z   1
loop_
 _symmetry_equiv_pos_site_id
 _symmetry_equiv_pos_as_xyz
  1  'x, y, z'
loop_
 _atom_site_type_symbol
 _atom_site_label
 _atom_site_symmetry_multiplicity
 _atom_site_fract_x
 _atom_site_fract_y
 _atom_site_fract_z
 _atom_site_occupancy
  Li  Li0  1  0.750000  0.249999  0.500001  1
  Li  Li1  1  0.249999  0.750000  0.500001  1
  Ce  Ce2  1  0.000000  0.000000  0.000000  1
  Au  Au3  1  0.390630  0.390630  0.000000  1
  Au  Au4  1  0.609370  0.609370  0.000000  1
