# generated using pymatgen
data_Nd3Al12RePd2Ru
_symmetry_space_group_name_H-M   'P 1'
_cell_length_a   8.94420400
_cell_length_b   9.00420785
_cell_length_c   9.70307000
_cell_angle_alpha   90.00000000
_cell_angle_beta   90.00000000
_cell_angle_gamma   119.77980845
_symmetry_Int_Tables_number   1
_chemical_formula_structural   Nd3Al12RePd2Ru
_chemical_formula_sum   'Nd6 Al24 Re2 Pd4 Ru2'
_cell_volume   678.24460010
_cell_formula_units_Z   2
loop_
 _symmetry_equiv_pos_site_id
 _symmetry_equiv_pos_as_xyz
  1  'x, y, z'
loop_
 _atom_site_type_symbol
 _atom_site_label
 _atom_site_symmetry_multiplicity
 _atom_site_fract_x
 _atom_site_fract_y
 _atom_site_fract_z
 _atom_site_occupancy
  Nd  Nd0  1  0.189372  0.378743  0.250000  1
  Nd  Nd1  1  0.810628  0.621257  0.750000  1
  Nd  Nd2  1  0.619584  0.812101  0.250000  1
  Nd  Nd3  1  0.380416  0.187899  0.750000  1
  Nd  Nd4  1  0.192519  0.812101  0.250000  1
  Nd  Nd5  1  0.807481  0.187899  0.750000  1
  Al  Al6  1  0.336308  0.672617  0.022465  1
  Al  Al7  1  0.663692  0.327383  0.977535  1
  Al  Al8  1  0.663692  0.327383  0.522465  1
  Al  Al9  1  0.336308  0.672617  0.477535  1
  Al  Al10  1  0.161681  0.323362  0.575351  1
  Al  Al11  1  0.838319  0.676638  0.424649  1
  Al  Al12  1  0.674017  0.842358  0.576580  1
  Al  Al13  1  0.838319  0.676638  0.075351  1
  Al  Al14  1  0.325983  0.157642  0.423420  1
  Al  Al15  1  0.161681  0.323362  0.924649  1
  Al  Al16  1  0.168342  0.842358  0.576580  1
  Al  Al17  1  0.325983  0.157642  0.076580  1
  Al  Al18  1  0.831658  0.157642  0.423420  1
  Al  Al19  1  0.674017  0.842358  0.923420  1
  Al  Al20  1  0.831658  0.157642  0.076580  1
  Al  Al21  1  0.168342  0.842358  0.923420  1
  Al  Al22  1  0.562757  0.125514  0.250000  1
  Al  Al23  1  0.437243  0.874486  0.750000  1
  Al  Al24  1  0.871476  0.435302  0.250000  1
  Al  Al25  1  0.128524  0.564698  0.750000  1
  Al  Al26  1  0.563824  0.435302  0.250000  1
  Al  Al27  1  0.436176  0.564698  0.750000  1
  Al  Al28  1  0.002032  0.004064  0.250000  1
  Al  Al29  1  0.997968  0.995936  0.750000  1
  Re  Re30  1  0.000000  0.000000  0.000000  1
  Re  Re31  1  0.000000  0.000000  0.500000  1
  Pd  Pd32  1  0.000000  0.500000  0.000000  1
  Pd  Pd33  1  0.500000  0.500000  0.000000  1
  Pd  Pd34  1  0.000000  0.500000  0.500000  1
  Pd  Pd35  1  0.500000  0.500000  0.500000  1
  Ru  Ru36  1  0.500000  0.000000  0.000000  1
  Ru  Ru37  1  0.500000  0.000000  0.500000  1
