# generated using pymatgen
data_Hf5Fe7Co10(P6Ru)2
_symmetry_space_group_name_H-M   'P 1'
_cell_length_a   11.73925300
_cell_length_b   11.70081792
_cell_length_c   3.60867300
_cell_angle_alpha   90.00000000
_cell_angle_beta   90.00000000
_cell_angle_gamma   119.89175749
_symmetry_Int_Tables_number   1
_chemical_formula_structural   Hf5Fe7Co10(P6Ru)2
_chemical_formula_sum   'Hf5 Fe7 Co10 P12 Ru2'
_cell_volume   429.74171061
_cell_formula_units_Z   1
loop_
 _symmetry_equiv_pos_site_id
 _symmetry_equiv_pos_as_xyz
  1  'x, y, z'
loop_
 _atom_site_type_symbol
 _atom_site_label
 _atom_site_symmetry_multiplicity
 _atom_site_fract_x
 _atom_site_fract_y
 _atom_site_fract_z
 _atom_site_occupancy
  Hf  Hf0  1  0.332263  0.667286  0.500000  1
  Hf  Hf1  1  0.667737  0.335021  0.500000  1
  Hf  Hf2  1  0.000000  0.185164  0.000000  1
  Hf  Hf3  1  0.819397  0.818290  0.000000  1
  Hf  Hf4  1  0.180603  0.998894  0.000000  1
  Fe  Fe5  1  0.625147  0.820725  0.500000  1
  Fe  Fe6  1  0.178755  0.801883  0.500000  1
  Fe  Fe7  1  0.195902  0.374309  0.500000  1
  Fe  Fe8  1  0.374853  0.195580  0.500000  1
  Fe  Fe9  1  0.821245  0.623129  0.500000  1
  Fe  Fe10  1  0.804098  0.178409  0.500000  1
  Fe  Fe11  1  0.000000  0.551817  0.500000  1
  Co  Co12  1  0.513763  0.641937  0.000000  1
  Co  Co13  1  0.357261  0.872365  0.000000  1
  Co  Co14  1  0.127222  0.485175  0.000000  1
  Co  Co15  1  0.486237  0.128173  0.000000  1
  Co  Co16  1  0.642739  0.515104  0.000000  1
  Co  Co17  1  0.872778  0.357953  0.000000  1
  Co  Co18  1  0.000000  0.717396  0.000000  1
  Co  Co19  1  0.282692  0.281940  0.000000  1
  Co  Co20  1  0.717308  0.999248  0.000000  1
  Co  Co21  1  0.000000  0.999412  0.500000  1
  P  P22  1  0.000000  0.362624  0.500000  1
  P  P23  1  0.645215  0.644045  0.500000  1
  P  P24  1  0.354785  0.998831  0.500000  1
  P  P25  1  0.518155  0.830965  0.000000  1
  P  P26  1  0.165991  0.684533  0.000000  1
  P  P27  1  0.311009  0.481255  0.000000  1
  P  P28  1  0.481845  0.312809  0.000000  1
  P  P29  1  0.834009  0.518542  0.000000  1
  P  P30  1  0.688991  0.170246  0.000000  1
  P  P31  1  0.000000  0.821766  0.500000  1
  P  P32  1  0.175942  0.176044  0.500000  1
  P  P33  1  0.824058  0.000103  0.500000  1
  Ru  Ru34  1  0.449617  0.449323  0.500000  1
  Ru  Ru35  1  0.550383  0.999706  0.500000  1
