# generated using pymatgen
data_Sm3Tc(Ni4P3)2
_symmetry_space_group_name_H-M   'P 1'
_cell_length_a   3.83427900
_cell_length_b   10.60737200
_cell_length_c   12.46632600
_cell_angle_alpha   90.00000000
_cell_angle_beta   90.00000000
_cell_angle_gamma   90.00000000
_symmetry_Int_Tables_number   1
_chemical_formula_structural   Sm3Tc(Ni4P3)2
_chemical_formula_sum   'Sm6 Tc2 Ni16 P12'
_cell_volume   507.02572005
_cell_formula_units_Z   2
loop_
 _symmetry_equiv_pos_site_id
 _symmetry_equiv_pos_as_xyz
  1  'x, y, z'
loop_
 _atom_site_type_symbol
 _atom_site_label
 _atom_site_symmetry_multiplicity
 _atom_site_fract_x
 _atom_site_fract_y
 _atom_site_fract_z
 _atom_site_occupancy
  Sm  Sm0  1  0.000000  0.500000  0.521822  1
  Sm  Sm1  1  0.500000  0.000000  0.478178  1
  Sm  Sm2  1  0.500000  0.814064  0.207300  1
  Sm  Sm3  1  0.500000  0.185936  0.207300  1
  Sm  Sm4  1  0.000000  0.685936  0.792700  1
  Sm  Sm5  1  0.000000  0.314064  0.792700  1
  Tc  Tc6  1  0.500000  0.500000  0.152602  1
  Tc  Tc7  1  0.000000  0.000000  0.847398  1
  Ni  Ni8  1  0.500000  0.500000  0.700863  1
  Ni  Ni9  1  0.000000  0.000000  0.299137  1
  Ni  Ni10  1  0.000000  0.500000  0.982602  1
  Ni  Ni11  1  0.500000  0.000000  0.017398  1
  Ni  Ni12  1  0.500000  0.331400  0.986923  1
  Ni  Ni13  1  0.500000  0.668600  0.986923  1
  Ni  Ni14  1  0.000000  0.168600  0.013077  1
  Ni  Ni15  1  0.000000  0.831400  0.013077  1
  Ni  Ni16  1  0.500000  0.302939  0.427339  1
  Ni  Ni17  1  0.500000  0.697061  0.427339  1
  Ni  Ni18  1  0.000000  0.197061  0.572661  1
  Ni  Ni19  1  0.000000  0.802939  0.572661  1
  Ni  Ni20  1  0.500000  0.881779  0.711684  1
  Ni  Ni21  1  0.500000  0.118221  0.711684  1
  Ni  Ni22  1  0.000000  0.618221  0.288316  1
  Ni  Ni23  1  0.000000  0.381779  0.288316  1
  P  P24  1  0.500000  0.500000  0.877971  1
  P  P25  1  0.000000  0.000000  0.122029  1
  P  P26  1  0.500000  0.500000  0.343682  1
  P  P27  1  0.000000  0.000000  0.656318  1
  P  P28  1  0.500000  0.311285  0.613252  1
  P  P29  1  0.500000  0.688715  0.613252  1
  P  P30  1  0.000000  0.188715  0.386748  1
  P  P31  1  0.000000  0.811285  0.386748  1
  P  P32  1  0.500000  0.850391  0.894672  1
  P  P33  1  0.500000  0.149609  0.894672  1
  P  P34  1  0.000000  0.649609  0.105328  1
  P  P35  1  0.000000  0.350391  0.105328  1
