# generated using pymatgen
data_ErSe23
_symmetry_space_group_name_H-M   'P 1'
_cell_length_a   5.59404733
_cell_length_b   11.01381249
_cell_length_c   16.64893700
_cell_angle_alpha   89.20965011
_cell_angle_beta   81.18780113
_cell_angle_gamma   83.25466655
_symmetry_Int_Tables_number   1
_chemical_formula_structural   ErSe23
_chemical_formula_sum   'Er1 Se23'
_cell_volume   1006.63660184
_cell_formula_units_Z   1
loop_
 _symmetry_equiv_pos_site_id
 _symmetry_equiv_pos_as_xyz
  1  'x, y, z'
loop_
 _atom_site_type_symbol
 _atom_site_label
 _atom_site_symmetry_multiplicity
 _atom_site_fract_x
 _atom_site_fract_y
 _atom_site_fract_z
 _atom_site_occupancy
  Er  Er0  1  0.698069  0.262612  0.393952  1
  Se  Se1  1  0.590455  0.820107  0.376269  1
  Se  Se2  1  0.933322  0.313987  0.162534  1
  Se  Se3  1  0.132551  0.104313  0.408615  1
  Se  Se4  1  0.265901  0.792405  0.481699  1
  Se  Se5  1  0.130448  0.245915  0.033086  1
  Se  Se6  1  0.718997  0.756055  0.011921  1
  Se  Se7  1  0.192973  0.306003  0.363687  1
  Se  Se8  1  0.838358  0.628634  0.365884  1
  Se  Se9  1  0.737220  0.145247  0.227032  1
  Se  Se10  1  0.175281  0.865770  0.125165  1
  Se  Se11  1  0.652083  0.636953  0.627204  1
  Se  Se12  1  0.345578  0.388877  0.537657  1
  Se  Se13  1  0.196505  0.876564  0.855473  1
  Se  Se14  1  0.689107  0.137281  0.903624  1
  Se  Se15  1  0.944024  0.699844  0.117966  1
  Se  Se16  1  0.403788  0.822496  0.606051  1
  Se  Se17  1  0.522304  0.187210  0.549397  1
  Se  Se18  1  0.975506  0.707351  0.886658  1
  Se  Se19  1  0.879189  0.307276  0.933898  1
  Se  Se20  1  0.584084  0.495051  0.323942  1
  Se  Se21  1  0.057973  0.983744  0.247073  1
  Se  Se22  1  0.393113  0.489651  0.665659  1
  Se  Se23  1  0.943171  0.026650  0.795555  1
