# generated using pymatgen
data_Ac3Sn3Hg2
_symmetry_space_group_name_H-M   'P 1'
_cell_length_a   6.90147434
_cell_length_b   6.90147346
_cell_length_c   10.93473000
_cell_angle_alpha   90.00000000
_cell_angle_beta   90.00000000
_cell_angle_gamma   103.02258827
_symmetry_Int_Tables_number   1
_chemical_formula_structural   Ac3Sn3Hg2
_chemical_formula_sum   'Ac6 Sn6 Hg4'
_cell_volume   507.42999197
_cell_formula_units_Z   2
loop_
 _symmetry_equiv_pos_site_id
 _symmetry_equiv_pos_as_xyz
  1  'x, y, z'
loop_
 _atom_site_type_symbol
 _atom_site_label
 _atom_site_symmetry_multiplicity
 _atom_site_fract_x
 _atom_site_fract_y
 _atom_site_fract_z
 _atom_site_occupancy
  Ac  Ac0  1  0.794751  0.205249  0.000000  1
  Ac  Ac1  1  0.205249  0.794751  0.000000  1
  Ac  Ac2  1  0.205249  0.794751  0.500000  1
  Ac  Ac3  1  0.794751  0.205249  0.500000  1
  Ac  Ac4  1  0.629404  0.629404  0.250000  1
  Ac  Ac5  1  0.370596  0.370596  0.750000  1
  Sn  Sn6  1  0.073000  0.485550  0.250000  1
  Sn  Sn7  1  0.927001  0.514450  0.750000  1
  Sn  Sn8  1  0.485550  0.072999  0.250000  1
  Sn  Sn9  1  0.514450  0.927001  0.750000  1
  Sn  Sn10  1  0.029031  0.029031  0.250000  1
  Sn  Sn11  1  0.970969  0.970969  0.750000  1
  Hg  Hg12  1  0.311229  0.311229  0.048855  1
  Hg  Hg13  1  0.688771  0.688771  0.951145  1
  Hg  Hg14  1  0.688771  0.688771  0.548855  1
  Hg  Hg15  1  0.311229  0.311229  0.451145  1
