# generated using pymatgen
data_Sm3Mg3Sn2Pt
_symmetry_space_group_name_H-M   'P 1'
_cell_length_a   7.53886500
_cell_length_b   7.53886559
_cell_length_c   4.56472200
_cell_angle_alpha   90.00000000
_cell_angle_beta   90.00000000
_cell_angle_gamma   120.00000179
_symmetry_Int_Tables_number   1
_chemical_formula_structural   Sm3Mg3Sn2Pt
_chemical_formula_sum   'Sm3 Mg3 Sn2 Pt1'
_cell_volume   224.67612451
_cell_formula_units_Z   1
loop_
 _symmetry_equiv_pos_site_id
 _symmetry_equiv_pos_as_xyz
  1  'x, y, z'
loop_
 _atom_site_type_symbol
 _atom_site_label
 _atom_site_symmetry_multiplicity
 _atom_site_fract_x
 _atom_site_fract_y
 _atom_site_fract_z
 _atom_site_occupancy
  Sm  Sm0  1  0.601307  0.601307  0.000000  1
  Sm  Sm1  1  0.398693  0.000000  0.000000  1
  Sm  Sm2  1  0.000000  0.398693  0.000000  1
  Mg  Mg3  1  0.000000  0.770543  0.500000  1
  Mg  Mg4  1  0.229457  0.229457  0.500000  1
  Mg  Mg5  1  0.770543  0.000000  0.500000  1
  Sn  Sn6  1  0.333333  0.666667  0.500000  1
  Sn  Sn7  1  0.666667  0.333333  0.500000  1
  Pt  Pt8  1  0.000000  0.000000  0.000000  1
