# generated using pymatgen
data_Dy3Y7AlSb5
_symmetry_space_group_name_H-M   'P 1'
_cell_length_a   6.38459700
_cell_length_b   8.97169534
_cell_length_c   8.94571804
_cell_angle_alpha   119.99408487
_cell_angle_beta   90.00028574
_cell_angle_gamma   89.99876318
_symmetry_Int_Tables_number   1
_chemical_formula_structural   Dy3Y7AlSb5
_chemical_formula_sum   'Dy3 Y7 Al1 Sb5'
_cell_volume   443.79226319
_cell_formula_units_Z   1
loop_
 _symmetry_equiv_pos_site_id
 _symmetry_equiv_pos_as_xyz
  1  'x, y, z'
loop_
 _atom_site_type_symbol
 _atom_site_label
 _atom_site_symmetry_multiplicity
 _atom_site_fract_x
 _atom_site_fract_y
 _atom_site_fract_z
 _atom_site_occupancy
  Dy  Dy0  1  0.500594  0.338596  0.673281  1
  Dy  Dy1  1  0.500724  0.665438  0.327014  1
  Dy  Dy2  1  0.999226  0.665411  0.327017  1
  Y  Y3  1  0.999580  0.338244  0.672836  1
  Y  Y4  1  0.749933  0.248170  0.999877  1
  Y  Y5  1  0.749882  0.751801  0.760666  1
  Y  Y6  1  0.749950  0.990823  0.237880  1
  Y  Y7  1  0.250044  0.756741  0.000498  1
  Y  Y8  1  0.250034  0.246945  0.245722  1
  Y  Y9  1  0.249958  0.001202  0.754506  1
  Al  Al10  1  0.749858  0.604885  0.000723  1
  Sb  Sb11  1  0.749828  0.386727  0.388585  1
  Sb  Sb12  1  0.749836  0.998060  0.610094  1
  Sb  Sb13  1  0.250205  0.391698  0.000178  1
  Sb  Sb14  1  0.250155  0.612165  0.609759  1
  Sb  Sb15  1  0.250194  0.003096  0.391362  1
