# generated using pymatgen
data_Ba3Sm(H6Pd)2
_symmetry_space_group_name_H-M   'P 1'
_cell_length_a   7.87119301
_cell_length_b   7.87119895
_cell_length_c   5.63156200
_cell_angle_alpha   89.99990537
_cell_angle_beta   89.99772890
_cell_angle_gamma   137.98727610
_symmetry_Int_Tables_number   1
_chemical_formula_structural   Ba3Sm(H6Pd)2
_chemical_formula_sum   'Ba3 Sm1 H12 Pd2'
_cell_volume   233.52227083
_cell_formula_units_Z   1
loop_
 _symmetry_equiv_pos_site_id
 _symmetry_equiv_pos_as_xyz
  1  'x, y, z'
loop_
 _atom_site_type_symbol
 _atom_site_label
 _atom_site_symmetry_multiplicity
 _atom_site_fract_x
 _atom_site_fract_y
 _atom_site_fract_z
 _atom_site_occupancy
  Ba  Ba0  1  0.640774  0.359222  0.000002  1
  Ba  Ba1  1  0.857008  0.142987  0.499999  1
  Ba  Ba2  1  0.355621  0.644383  0.000002  1
  Sm  Sm3  1  0.141211  0.858791  0.500011  1
  H  H4  1  0.014303  0.541062  0.723029  1
  H  H5  1  0.458938  0.985704  0.276976  1
  H  H6  1  0.014333  0.541070  0.276990  1
  H  H7  1  0.458930  0.985661  0.723016  1
  H  H8  1  0.390261  0.609738  0.500002  1
  H  H9  1  0.885778  0.114222  0.000003  1
  H  H10  1  0.622097  0.377902  0.500004  1
  H  H11  1  0.120575  0.879427  0.999974  1
  H  H12  1  0.249449  0.235311  0.740484  1
  H  H13  1  0.764692  0.750550  0.259515  1
  H  H14  1  0.245059  0.231006  0.254829  1
  H  H15  1  0.768993  0.754942  0.745169  1
  Pd  Pd16  1  0.507046  0.492956  0.499998  1
  Pd  Pd17  1  0.004933  0.995067  0.999994  1
