# generated using pymatgen
data_Nd2NiIrI2
_symmetry_space_group_name_H-M   'P 1'
_cell_length_a   4.21021900
_cell_length_b   4.21021262
_cell_length_c   12.40080400
_cell_angle_alpha   89.99967136
_cell_angle_beta   90.00027470
_cell_angle_gamma   119.99983908
_symmetry_Int_Tables_number   1
_chemical_formula_structural   Nd2NiIrI2
_chemical_formula_sum   'Nd2 Ni1 Ir1 I2'
_cell_volume   190.36622383
_cell_formula_units_Z   1
loop_
 _symmetry_equiv_pos_site_id
 _symmetry_equiv_pos_as_xyz
  1  'x, y, z'
loop_
 _atom_site_type_symbol
 _atom_site_label
 _atom_site_symmetry_multiplicity
 _atom_site_fract_x
 _atom_site_fract_y
 _atom_site_fract_z
 _atom_site_occupancy
  Nd  Nd0  1  0.999999  0.000000  0.345310  1
  Nd  Nd1  1  0.999999  0.000000  0.654432  1
  Ni  Ni2  1  0.666667  0.333334  0.501656  1
  Ir  Ir3  1  0.333332  0.666667  0.498770  1
  I  I4  1  0.666667  0.333335  0.167843  1
  I  I5  1  0.333333  0.666666  0.831988  1
