# generated using pymatgen
data_SnMo2(PO4)3
_symmetry_space_group_name_H-M   'P 1'
_cell_length_a   8.79272798
_cell_length_b   8.79272830
_cell_length_c   9.30205111
_cell_angle_alpha   61.77445152
_cell_angle_beta   61.77444913
_cell_angle_gamma   60.33496623
_symmetry_Int_Tables_number   1
_chemical_formula_structural   SnMo2(PO4)3
_chemical_formula_sum   'Sn2 Mo4 P6 O24'
_cell_volume   523.11289367
_cell_formula_units_Z   2
loop_
 _symmetry_equiv_pos_site_id
 _symmetry_equiv_pos_as_xyz
  1  'x, y, z'
loop_
 _atom_site_type_symbol
 _atom_site_label
 _atom_site_symmetry_multiplicity
 _atom_site_fract_x
 _atom_site_fract_y
 _atom_site_fract_z
 _atom_site_occupancy
  Sn  Sn0  1  0.007305  0.476906  0.769920  1
  Sn  Sn1  1  0.523094  0.992695  0.230080  1
  Mo  Mo2  1  0.651581  0.143987  0.804210  1
  Mo  Mo3  1  0.856013  0.348419  0.195790  1
  Mo  Mo4  1  0.150387  0.643356  0.309340  1
  Mo  Mo5  1  0.356644  0.849613  0.690660  1
  P  P6  1  0.257304  0.455886  0.001320  1
  P  P7  1  0.459288  0.245477  0.503780  1
  P  P8  1  0.045480  0.954520  0.500000  1
  P  P9  1  0.965518  0.034482  0.000000  1
  P  P10  1  0.544114  0.742696  0.998680  1
  P  P11  1  0.754523  0.540712  0.496220  1
  O  O12  1  0.029042  0.120033  0.338385  1
  O  O13  1  0.775883  0.525269  0.330177  1
  O  O14  1  0.424325  0.272871  0.997706  1
  O  O15  1  0.305478  0.610824  0.835774  1
  O  O16  1  0.225509  0.916221  0.527273  1
  O  O17  1  0.624232  0.265878  0.342853  1
  O  O18  1  0.474731  0.224117  0.669823  1
  O  O19  1  0.088794  0.438535  0.002395  1
  O  O20  1  0.431876  0.071660  0.524392  1
  O  O21  1  0.278665  0.410633  0.482825  1
  O  O22  1  0.879967  0.970958  0.661615  1
  O  O23  1  0.083779  0.774491  0.472727  1
  O  O24  1  0.944654  0.219868  0.004226  1
  O  O25  1  0.118620  0.004882  0.834203  1
  O  O26  1  0.561465  0.911206  0.997605  1
  O  O27  1  0.727129  0.575675  0.002294  1
  O  O28  1  0.928340  0.568124  0.475608  1
  O  O29  1  0.510010  0.788388  0.832875  1
  O  O30  1  0.389176  0.694522  0.164226  1
  O  O31  1  0.780132  0.055346  0.995774  1
  O  O32  1  0.734122  0.375768  0.657147  1
  O  O33  1  0.589367  0.721335  0.517175  1
  O  O34  1  0.211612  0.489990  0.167125  1
  O  O35  1  0.995118  0.881380  0.165797  1
