# generated using pymatgen
data_Rb6Te4Pb
_symmetry_space_group_name_H-M   'P 1'
_cell_length_a   11.84387100
_cell_length_b   11.84387111
_cell_length_c   8.92414000
_cell_angle_alpha   90.00000000
_cell_angle_beta   90.00000000
_cell_angle_gamma   120.00000249
_symmetry_Int_Tables_number   1
_chemical_formula_structural   Rb6Te4Pb
_chemical_formula_sum   'Rb12 Te8 Pb2'
_cell_volume   1084.13742450
_cell_formula_units_Z   2
loop_
 _symmetry_equiv_pos_site_id
 _symmetry_equiv_pos_as_xyz
  1  'x, y, z'
loop_
 _atom_site_type_symbol
 _atom_site_label
 _atom_site_symmetry_multiplicity
 _atom_site_fract_x
 _atom_site_fract_y
 _atom_site_fract_z
 _atom_site_occupancy
  Rb  Rb0  1  0.473199  0.946399  0.974877  1
  Rb  Rb1  1  0.526801  0.473199  0.474877  1
  Rb  Rb2  1  0.946399  0.473199  0.474877  1
  Rb  Rb3  1  0.053601  0.526801  0.974877  1
  Rb  Rb4  1  0.473199  0.526801  0.974877  1
  Rb  Rb5  1  0.526801  0.053601  0.474877  1
  Rb  Rb6  1  0.701982  0.850991  0.298728  1
  Rb  Rb7  1  0.850991  0.701982  0.798728  1
  Rb  Rb8  1  0.850991  0.149009  0.798728  1
  Rb  Rb9  1  0.149009  0.850991  0.298728  1
  Rb  Rb10  1  0.149009  0.298018  0.298728  1
  Rb  Rb11  1  0.298018  0.149009  0.798728  1
  Te  Te12  1  0.626860  0.813431  0.702119  1
  Te  Te13  1  0.813431  0.626860  0.202119  1
  Te  Te14  1  0.813431  0.186569  0.202119  1
  Te  Te15  1  0.186569  0.813431  0.702119  1
  Te  Te16  1  0.186569  0.373140  0.702119  1
  Te  Te17  1  0.373140  0.186569  0.202119  1
  Te  Te18  1  0.333333  0.666667  0.242167  1
  Te  Te19  1  0.666667  0.333333  0.742167  1
  Pb  Pb20  1  0.333333  0.666667  0.596179  1
  Pb  Pb21  1  0.666667  0.333333  0.096179  1
