# generated using pymatgen
data_Tb4Ga4PdRu2Pt
_symmetry_space_group_name_H-M   'P 1'
_cell_length_a   4.38267500
_cell_length_b   6.94380274
_cell_length_c   7.75482224
_cell_angle_alpha   89.98780482
_cell_angle_beta   90.00000000
_cell_angle_gamma   90.00000000
_symmetry_Int_Tables_number   1
_chemical_formula_structural   Tb4Ga4PdRu2Pt
_chemical_formula_sum   'Tb4 Ga4 Pd1 Ru2 Pt1'
_cell_volume   235.99808474
_cell_formula_units_Z   1
loop_
 _symmetry_equiv_pos_site_id
 _symmetry_equiv_pos_as_xyz
  1  'x, y, z'
loop_
 _atom_site_type_symbol
 _atom_site_label
 _atom_site_symmetry_multiplicity
 _atom_site_fract_x
 _atom_site_fract_y
 _atom_site_fract_z
 _atom_site_occupancy
  Tb  Tb0  1  0.250000  0.485179  0.198911  1
  Tb  Tb1  1  0.750000  0.520236  0.813771  1
  Tb  Tb2  1  0.250000  0.986388  0.298517  1
  Tb  Tb3  1  0.750000  0.025920  0.688317  1
  Ga  Ga4  1  0.250000  0.829807  0.927250  1
  Ga  Ga5  1  0.750000  0.164841  0.079705  1
  Ga  Ga6  1  0.250000  0.325642  0.571309  1
  Ga  Ga7  1  0.750000  0.666013  0.421947  1
  Pd  Pd8  1  0.250000  0.715644  0.599724  1
  Ru  Ru9  1  0.750000  0.777885  0.101279  1
  Ru  Ru10  1  0.750000  0.280257  0.400338  1
  Pt  Pt11  1  0.250000  0.222189  0.898931  1
