# generated using pymatgen
data_KGd7(Si3Au)4
_symmetry_space_group_name_H-M   'P 1'
_cell_length_a   8.25680500
_cell_length_b   8.19864792
_cell_length_c   8.25659200
_cell_angle_alpha   90.00000000
_cell_angle_beta   90.00000000
_cell_angle_gamma   120.23493375
_symmetry_Int_Tables_number   1
_chemical_formula_structural   KGd7(Si3Au)4
_chemical_formula_sum   'K1 Gd7 Si12 Au4'
_cell_volume   482.89501144
_cell_formula_units_Z   1
loop_
 _symmetry_equiv_pos_site_id
 _symmetry_equiv_pos_as_xyz
  1  'x, y, z'
loop_
 _atom_site_type_symbol
 _atom_site_label
 _atom_site_symmetry_multiplicity
 _atom_site_fract_x
 _atom_site_fract_y
 _atom_site_fract_z
 _atom_site_occupancy
  K  K0  1  0.500647  0.001293  0.250000  1
  Gd  Gd1  1  0.499696  0.999393  0.750000  1
  Gd  Gd2  1  0.999633  0.499649  0.250000  1
  Gd  Gd3  1  0.000281  0.500101  0.750000  1
  Gd  Gd4  1  0.500018  0.499649  0.250000  1
  Gd  Gd5  1  0.499819  0.500101  0.750000  1
  Gd  Gd6  1  0.999962  0.999924  0.250000  1
  Gd  Gd7  1  0.999832  0.999664  0.750000  1
  Si  Si8  1  0.162926  0.325853  0.997891  1
  Si  Si9  1  0.837079  0.674158  0.999453  1
  Si  Si10  1  0.674499  0.835425  0.996508  1
  Si  Si11  1  0.837079  0.674158  0.500547  1
  Si  Si12  1  0.325461  0.164624  0.997399  1
  Si  Si13  1  0.162926  0.325853  0.502109  1
  Si  Si14  1  0.160927  0.835425  0.996508  1
  Si  Si15  1  0.325461  0.164624  0.502601  1
  Si  Si16  1  0.839163  0.164624  0.997399  1
  Si  Si17  1  0.674499  0.835425  0.503492  1
  Si  Si18  1  0.839163  0.164624  0.502601  1
  Si  Si19  1  0.160927  0.835425  0.503492  1
  Au  Au20  1  0.333139  0.666280  0.994323  1
  Au  Au21  1  0.666862  0.333723  0.992573  1
  Au  Au22  1  0.666862  0.333723  0.507427  1
  Au  Au23  1  0.333139  0.666280  0.505677  1
