# generated using pymatgen
data_NaTl(CuO2)4
_symmetry_space_group_name_H-M   'P 1'
_cell_length_a   6.27810034
_cell_length_b   6.27809927
_cell_length_c   6.27810000
_cell_angle_alpha   125.66492619
_cell_angle_beta   125.66491919
_cell_angle_gamma   80.43956013
_symmetry_Int_Tables_number   1
_chemical_formula_structural   NaTl(CuO2)4
_chemical_formula_sum   'Na1 Tl1 Cu4 O8'
_cell_volume   157.56349449
_cell_formula_units_Z   1
loop_
 _symmetry_equiv_pos_site_id
 _symmetry_equiv_pos_as_xyz
  1  'x, y, z'
loop_
 _atom_site_type_symbol
 _atom_site_label
 _atom_site_symmetry_multiplicity
 _atom_site_fract_x
 _atom_site_fract_y
 _atom_site_fract_z
 _atom_site_occupancy
  Na  Na0  1  0.750000  0.250000  0.500000  1
  Tl  Tl1  1  0.000000  0.000000  0.000000  1
  Cu  Cu2  1  0.875630  0.617821  0.242743  1
  Cu  Cu3  1  0.375078  0.632887  0.757257  1
  Cu  Cu4  1  0.367113  0.124370  0.742191  1
  Cu  Cu5  1  0.382179  0.624922  0.257809  1
  O  O6  1  0.337887  0.981139  0.916451  1
  O  O7  1  0.064688  0.421436  0.083549  1
  O  O8  1  0.701330  0.819857  0.427983  1
  O  O9  1  0.391875  0.273349  0.572017  1
  O  O10  1  0.180143  0.608125  0.881474  1
  O  O11  1  0.726651  0.298670  0.118526  1
  O  O12  1  0.578564  0.662113  0.643252  1
  O  O13  1  0.018861  0.935312  0.356748  1
