# generated using pymatgen
data_Sm2In(PRh2)6
_symmetry_space_group_name_H-M   'P 1'
_cell_length_a   9.81036600
_cell_length_b   9.81036671
_cell_length_c   3.89726900
_cell_angle_alpha   90.00000000
_cell_angle_beta   90.00000000
_cell_angle_gamma   119.99999760
_symmetry_Int_Tables_number   1
_chemical_formula_structural   Sm2In(PRh2)6
_chemical_formula_sum   'Sm2 In1 P6 Rh12'
_cell_volume   324.83399774
_cell_formula_units_Z   1
loop_
 _symmetry_equiv_pos_site_id
 _symmetry_equiv_pos_as_xyz
  1  'x, y, z'
loop_
 _atom_site_type_symbol
 _atom_site_label
 _atom_site_symmetry_multiplicity
 _atom_site_fract_x
 _atom_site_fract_y
 _atom_site_fract_z
 _atom_site_occupancy
  Sm  Sm0  1  0.333333  0.666667  0.244898  1
  Sm  Sm1  1  0.666667  0.333333  0.755102  1
  In  In2  1  0.000000  0.000000  0.500000  1
  P  P3  1  0.402271  0.114536  0.254817  1
  P  P4  1  0.712265  0.597729  0.254817  1
  P  P5  1  0.885464  0.287735  0.254817  1
  P  P6  1  0.597729  0.885464  0.745183  1
  P  P7  1  0.287735  0.402271  0.745183  1
  P  P8  1  0.114536  0.712265  0.745183  1
  Rh  Rh9  1  0.451685  0.386925  0.252845  1
  Rh  Rh10  1  0.935240  0.548315  0.252845  1
  Rh  Rh11  1  0.613075  0.064760  0.252845  1
  Rh  Rh12  1  0.548315  0.613075  0.747155  1
  Rh  Rh13  1  0.064760  0.451685  0.747155  1
  Rh  Rh14  1  0.386925  0.935240  0.747155  1
  Rh  Rh15  1  0.162221  0.871762  0.240010  1
  Rh  Rh16  1  0.709541  0.837779  0.240010  1
  Rh  Rh17  1  0.128238  0.290459  0.240010  1
  Rh  Rh18  1  0.837779  0.128238  0.759990  1
  Rh  Rh19  1  0.290459  0.162221  0.759990  1
  Rh  Rh20  1  0.871762  0.709541  0.759990  1
