# generated using pymatgen
data_Sm3Dy(Sc3Ga4)2
_symmetry_space_group_name_H-M   'P 1'
_cell_length_a   7.34947859
_cell_length_b   7.60053397
_cell_length_c   14.56275728
_cell_angle_alpha   89.92128949
_cell_angle_beta   90.03855125
_cell_angle_gamma   90.02514639
_symmetry_Int_Tables_number   1
_chemical_formula_structural   Sm3Dy(Sc3Ga4)2
_chemical_formula_sum   'Sm6 Dy2 Sc12 Ga16'
_cell_volume   813.47403363
_cell_formula_units_Z   2
loop_
 _symmetry_equiv_pos_site_id
 _symmetry_equiv_pos_as_xyz
  1  'x, y, z'
loop_
 _atom_site_type_symbol
 _atom_site_label
 _atom_site_symmetry_multiplicity
 _atom_site_fract_x
 _atom_site_fract_y
 _atom_site_fract_z
 _atom_site_occupancy
  Sm  Sm0  1  0.011735  0.177140  0.095300  1
  Sm  Sm1  1  0.988265  0.822860  0.904700  1
  Sm  Sm2  1  0.488088  0.677236  0.904948  1
  Sm  Sm3  1  0.988269  0.822353  0.595182  1
  Sm  Sm4  1  0.511912  0.322764  0.095052  1
  Sm  Sm5  1  0.011731  0.177647  0.404818  1
  Dy  Dy6  1  0.511848  0.321980  0.404700  1
  Dy  Dy7  1  0.488152  0.678020  0.595300  1
  Sc  Sc8  1  0.162153  0.501542  0.749660  1
  Sc  Sc9  1  0.837847  0.498458  0.250340  1
  Sc  Sc10  1  0.338921  0.001513  0.250357  1
  Sc  Sc11  1  0.661079  0.998487  0.749643  1
  Sc  Sc12  1  0.331118  0.174077  0.624375  1
  Sc  Sc13  1  0.668882  0.825923  0.375625  1
  Sc  Sc14  1  0.170921  0.673390  0.375579  1
  Sc  Sc15  1  0.669524  0.826421  0.125052  1
  Sc  Sc16  1  0.829079  0.326610  0.624421  1
  Sc  Sc17  1  0.330476  0.173579  0.874948  1
  Sc  Sc18  1  0.830320  0.326160  0.875024  1
  Sc  Sc19  1  0.169680  0.673840  0.124976  1
  Ga  Ga20  1  0.031788  0.119355  0.749927  1
  Ga  Ga21  1  0.968212  0.880645  0.250073  1
  Ga  Ga22  1  0.468534  0.618626  0.250538  1
  Ga  Ga23  1  0.531466  0.381374  0.749462  1
  Ga  Ga24  1  0.285740  0.874560  0.749415  1
  Ga  Ga25  1  0.714260  0.125440  0.250585  1
  Ga  Ga26  1  0.216151  0.375078  0.250897  1
  Ga  Ga27  1  0.783849  0.624922  0.749103  1
  Ga  Ga28  1  0.161881  0.465258  0.540389  1
  Ga  Ga29  1  0.838119  0.534742  0.459611  1
  Ga  Ga30  1  0.341708  0.964721  0.459907  1
  Ga  Ga31  1  0.840769  0.535789  0.040176  1
  Ga  Ga32  1  0.658292  0.035279  0.540093  1
  Ga  Ga33  1  0.159231  0.464211  0.959824  1
  Ga  Ga34  1  0.659155  0.036152  0.959761  1
  Ga  Ga35  1  0.340845  0.963848  0.040239  1
