# generated using pymatgen
data_Tb9Th(In2Ni)4
_symmetry_space_group_name_H-M   'P 1'
_cell_length_a   3.64007200
_cell_length_b   8.07357939
_cell_length_c   18.09684865
_cell_angle_alpha   90.13666734
_cell_angle_beta   90.00000000
_cell_angle_gamma   90.00000000
_symmetry_Int_Tables_number   1
_chemical_formula_structural   Tb9Th(In2Ni)4
_chemical_formula_sum   'Tb9 Th1 In8 Ni4'
_cell_volume   531.83609958
_cell_formula_units_Z   1
loop_
 _symmetry_equiv_pos_site_id
 _symmetry_equiv_pos_as_xyz
  1  'x, y, z'
loop_
 _atom_site_type_symbol
 _atom_site_label
 _atom_site_symmetry_multiplicity
 _atom_site_fract_x
 _atom_site_fract_y
 _atom_site_fract_z
 _atom_site_occupancy
  Tb  Tb0  1  0.000000  0.500434  0.499704  1
  Tb  Tb1  1  0.000000  0.998648  0.998879  1
  Tb  Tb2  1  0.000000  0.253642  0.721045  1
  Tb  Tb3  1  0.000000  0.754792  0.778796  1
  Tb  Tb4  1  0.000000  0.243671  0.222099  1
  Tb  Tb5  1  0.000000  0.616709  0.087076  1
  Tb  Tb6  1  0.000000  0.383325  0.911069  1
  Tb  Tb7  1  0.000000  0.883883  0.589243  1
  Tb  Tb8  1  0.000000  0.118294  0.412794  1
  Th  Th9  1  0.000000  0.743976  0.276852  1
  In  In10  1  0.500000  0.704616  0.930872  1
  In  In11  1  0.500000  0.293977  0.068600  1
  In  In12  1  0.500000  0.797371  0.435271  1
  In  In13  1  0.500000  0.205882  0.568680  1
  In  In14  1  0.500000  0.572934  0.652093  1
  In  In15  1  0.500000  0.421731  0.349359  1
  In  In16  1  0.500000  0.934977  0.147772  1
  In  In17  1  0.500000  0.072320  0.847848  1
  Ni  Ni18  1  0.500000  0.531208  0.199103  1
  Ni  Ni19  1  0.500000  0.476806  0.803320  1
  Ni  Ni20  1  0.500000  0.976863  0.696295  1
  Ni  Ni21  1  0.500000  0.013942  0.303230  1
