# generated using pymatgen
data_Th8Zr11Si16W
_symmetry_space_group_name_H-M   'P 1'
_cell_length_a   7.36634003
_cell_length_b   7.36652019
_cell_length_c   13.73498000
_cell_angle_alpha   89.89293766
_cell_angle_beta   89.92671517
_cell_angle_gamma   89.98269733
_symmetry_Int_Tables_number   1
_chemical_formula_structural   Th8Zr11Si16W
_chemical_formula_sum   'Th8 Zr11 Si16 W1'
_cell_volume   745.31702836
_cell_formula_units_Z   1
loop_
 _symmetry_equiv_pos_site_id
 _symmetry_equiv_pos_as_xyz
  1  'x, y, z'
loop_
 _atom_site_type_symbol
 _atom_site_label
 _atom_site_symmetry_multiplicity
 _atom_site_fract_x
 _atom_site_fract_y
 _atom_site_fract_z
 _atom_site_occupancy
  Th  Th0  1  0.997727  0.338810  0.219329  1
  Th  Th1  1  0.004289  0.661603  0.714149  1
  Th  Th2  1  0.159424  0.496028  0.465745  1
  Th  Th3  1  0.499118  0.842639  0.035943  1
  Th  Th4  1  0.839619  0.502654  0.966666  1
  Th  Th5  1  0.499371  0.159847  0.531389  1
  Th  Th6  1  0.340433  0.998439  0.783465  1
  Th  Th7  1  0.661078  0.000663  0.283682  1
  Zr  Zr8  1  0.170467  0.171258  0.001860  1
  Zr  Zr9  1  0.832823  0.831660  0.497565  1
  Zr  Zr10  1  0.325623  0.673595  0.252220  1
  Zr  Zr11  1  0.672342  0.329519  0.750004  1
  Zr  Zr12  1  0.843430  0.003446  0.875549  1
  Zr  Zr13  1  0.501265  0.659309  0.623040  1
  Zr  Zr14  1  0.343518  0.496842  0.874098  1
  Zr  Zr15  1  0.493557  0.340180  0.128476  1
  Zr  Zr16  1  0.656631  0.503618  0.374514  1
  Zr  Zr17  1  0.996881  0.157893  0.623889  1
  Zr  Zr18  1  0.001684  0.844004  0.124862  1
  Si  Si19  1  0.289251  0.041444  0.192608  1
  Si  Si20  1  0.706545  0.957575  0.685263  1
  Si  Si21  1  0.448714  0.796012  0.434545  1
  Si  Si22  1  0.206188  0.543258  0.064726  1
  Si  Si23  1  0.542230  0.206902  0.936800  1
  Si  Si24  1  0.792645  0.457189  0.564046  1
  Si  Si25  1  0.043388  0.294699  0.813849  1
  Si  Si26  1  0.962740  0.714086  0.315333  1
  Si  Si27  1  0.366845  0.284562  0.319880  1
  Si  Si28  1  0.632959  0.704668  0.815300  1
  Si  Si29  1  0.201964  0.871173  0.558307  1
  Si  Si30  1  0.132360  0.796236  0.934792  1
  Si  Si31  1  0.796218  0.133051  0.066231  1
  Si  Si32  1  0.879782  0.196516  0.430685  1
  Si  Si33  1  0.298324  0.368056  0.683232  1
  Si  Si34  1  0.703327  0.630270  0.183696  1
  W  W35  1  0.157241  0.992297  0.374263  1
