# generated using pymatgen
data_Ta12Cr5Ga7N4
_symmetry_space_group_name_H-M   'P 1'
_cell_length_a   8.20295137
_cell_length_b   8.20295114
_cell_length_c   8.20295127
_cell_angle_alpha   60.05198893
_cell_angle_beta   60.05198887
_cell_angle_gamma   60.05198740
_symmetry_Int_Tables_number   1
_chemical_formula_structural   Ta12Cr5Ga7N4
_chemical_formula_sum   'Ta12 Cr5 Ga7 N4'
_cell_volume   390.75705819
_cell_formula_units_Z   1
loop_
 _symmetry_equiv_pos_site_id
 _symmetry_equiv_pos_as_xyz
  1  'x, y, z'
loop_
 _atom_site_type_symbol
 _atom_site_label
 _atom_site_symmetry_multiplicity
 _atom_site_fract_x
 _atom_site_fract_y
 _atom_site_fract_z
 _atom_site_occupancy
  Ta  Ta0  1  0.806432  0.806432  0.189471  1
  Ta  Ta1  1  0.196255  0.196255  0.804777  1
  Ta  Ta2  1  0.806432  0.189471  0.806432  1
  Ta  Ta3  1  0.196255  0.804777  0.196255  1
  Ta  Ta4  1  0.189471  0.806432  0.806432  1
  Ta  Ta5  1  0.804777  0.196255  0.196255  1
  Ta  Ta6  1  0.446382  0.446382  0.053536  1
  Ta  Ta7  1  0.056372  0.056372  0.443351  1
  Ta  Ta8  1  0.446382  0.053536  0.446382  1
  Ta  Ta9  1  0.056372  0.443351  0.056372  1
  Ta  Ta10  1  0.053536  0.446382  0.446382  1
  Ta  Ta11  1  0.443351  0.056372  0.056372  1
  Cr  Cr12  1  0.116145  0.634773  0.634773  1
  Cr  Cr13  1  0.634773  0.116145  0.634773  1
  Cr  Cr14  1  0.634773  0.634773  0.116145  1
  Cr  Cr15  1  0.624416  0.624416  0.624416  1
  Cr  Cr16  1  0.824237  0.824237  0.824237  1
  Ga  Ga17  1  0.758442  0.413647  0.413647  1
  Ga  Ga18  1  0.413647  0.758442  0.413647  1
  Ga  Ga19  1  0.413647  0.413647  0.758442  1
  Ga  Ga20  1  0.414597  0.414597  0.414597  1
  Ga  Ga21  1  0.490809  0.836225  0.836225  1
  Ga  Ga22  1  0.836225  0.490809  0.836225  1
  Ga  Ga23  1  0.836225  0.836225  0.490809  1
  N  N24  1  0.625522  0.124894  0.124894  1
  N  N25  1  0.124894  0.625522  0.124894  1
  N  N26  1  0.124894  0.124894  0.625522  1
  N  N27  1  0.124733  0.124733  0.124733  1
