# generated using pymatgen
data_Tb2Y2TmSn3
_symmetry_space_group_name_H-M   'P 1'
_cell_length_a   6.53944101
_cell_length_b   8.97275264
_cell_length_c   8.96838387
_cell_angle_alpha   120.01605861
_cell_angle_beta   90.00225930
_cell_angle_gamma   89.99537784
_symmetry_Int_Tables_number   1
_chemical_formula_structural   Tb2Y2TmSn3
_chemical_formula_sum   'Tb4 Y4 Tm2 Sn6'
_cell_volume   455.65993285
_cell_formula_units_Z   2
loop_
 _symmetry_equiv_pos_site_id
 _symmetry_equiv_pos_as_xyz
  1  'x, y, z'
loop_
 _atom_site_type_symbol
 _atom_site_label
 _atom_site_symmetry_multiplicity
 _atom_site_fract_x
 _atom_site_fract_y
 _atom_site_fract_z
 _atom_site_occupancy
  Tb  Tb0  1  0.499996  0.333391  0.666751  1
  Tb  Tb1  1  0.499996  0.666639  0.333249  1
  Tb  Tb2  1  0.249538  0.239554  0.239545  1
  Tb  Tb3  1  0.249537  0.000008  0.760454  1
  Y  Y4  1  0.750462  0.239490  0.000000  1
  Y  Y5  1  0.750445  0.760285  0.760196  1
  Y  Y6  1  0.750448  0.000094  0.239808  1
  Y  Y7  1  0.249551  0.760615  0.000001  1
  Tm  Tm8  1  0.000009  0.666652  0.333291  1
  Tm  Tm9  1  0.000005  0.333364  0.666708  1
  Sn  Sn10  1  0.751437  0.604693  0.999999  1
  Sn  Sn11  1  0.751432  0.395216  0.395231  1
  Sn  Sn12  1  0.751426  0.999986  0.604770  1
  Sn  Sn13  1  0.248574  0.395149  0.000000  1
  Sn  Sn14  1  0.248570  0.604762  0.604660  1
  Sn  Sn15  1  0.248572  0.000101  0.395338  1
