# generated using pymatgen
data_Li2ErTm2Si3Ag
_symmetry_space_group_name_H-M   'P 1'
_cell_length_a   6.93583369
_cell_length_b   6.90658775
_cell_length_c   4.19272000
_cell_angle_alpha   90.00000000
_cell_angle_beta   90.00000000
_cell_angle_gamma   120.05130497
_symmetry_Int_Tables_number   1
_chemical_formula_structural   Li2ErTm2Si3Ag
_chemical_formula_sum   'Li2 Er1 Tm2 Si3 Ag1'
_cell_volume   173.84569547
_cell_formula_units_Z   1
loop_
 _symmetry_equiv_pos_site_id
 _symmetry_equiv_pos_as_xyz
  1  'x, y, z'
loop_
 _atom_site_type_symbol
 _atom_site_label
 _atom_site_symmetry_multiplicity
 _atom_site_fract_x
 _atom_site_fract_y
 _atom_site_fract_z
 _atom_site_occupancy
  Li  Li0  1  0.765061  0.768844  0.000000  1
  Li  Li1  1  0.235016  0.003527  0.000000  1
  Er  Er2  1  0.425672  0.425135  0.500000  1
  Tm  Tm3  1  0.575073  0.999611  0.500000  1
  Tm  Tm4  1  0.000126  0.571432  0.500000  1
  Si  Si5  1  0.665998  0.331265  0.000000  1
  Si  Si6  1  0.334479  0.667483  0.000000  1
  Si  Si7  1  0.998916  0.995229  0.500000  1
  Ag  Ag8  1  0.999659  0.237476  0.000000  1
