# generated using pymatgen
data_CaTb3Ni14
_symmetry_space_group_name_H-M   'P 1'
_cell_length_a   4.94380209
_cell_length_b   4.94380095
_cell_length_c   12.41219301
_cell_angle_alpha   78.51267821
_cell_angle_beta   78.51267860
_cell_angle_gamma   59.99999447
_symmetry_Int_Tables_number   1
_chemical_formula_structural   CaTb3Ni14
_chemical_formula_sum   'Ca1 Tb3 Ni14'
_cell_volume   255.68387052
_cell_formula_units_Z   1
loop_
 _symmetry_equiv_pos_site_id
 _symmetry_equiv_pos_as_xyz
  1  'x, y, z'
loop_
 _atom_site_type_symbol
 _atom_site_label
 _atom_site_symmetry_multiplicity
 _atom_site_fract_x
 _atom_site_fract_y
 _atom_site_fract_z
 _atom_site_occupancy
  Ca  Ca0  1  0.147412  0.147412  0.557764  1
  Tb  Tb1  1  0.949377  0.949377  0.151868  1
  Tb  Tb2  1  0.051816  0.051816  0.844553  1
  Tb  Tb3  1  0.851675  0.851675  0.444975  1
  Ni  Ni4  1  0.499854  0.499854  0.500438  1
  Ni  Ni5  1  0.721591  0.721591  0.835226  1
  Ni  Ni6  1  0.278408  0.278408  0.164777  1
  Ni  Ni7  1  0.612116  0.612116  0.163652  1
  Ni  Ni8  1  0.387891  0.387891  0.836328  1
  Ni  Ni9  1  0.000042  0.500094  0.999770  1
  Ni  Ni10  1  0.500094  0.000042  0.999770  1
  Ni  Ni11  1  0.500094  0.500094  0.999770  1
  Ni  Ni12  1  0.391105  0.391105  0.327477  1
  Ni  Ni13  1  0.890313  0.391105  0.327477  1
  Ni  Ni14  1  0.391105  0.890313  0.327477  1
  Ni  Ni15  1  0.609028  0.609028  0.672893  1
  Ni  Ni16  1  0.109050  0.609028  0.672893  1
  Ni  Ni17  1  0.609028  0.109050  0.672893  1
