# generated using pymatgen
data_LaThSi4Tc3
_symmetry_space_group_name_H-M   'P 1'
_cell_length_a   8.24048400
_cell_length_b   5.77185608
_cell_length_c   7.00534858
_cell_angle_alpha   76.67332171
_cell_angle_beta   90.00000000
_cell_angle_gamma   90.00000000
_symmetry_Int_Tables_number   1
_chemical_formula_structural   LaThSi4Tc3
_chemical_formula_sum   'La2 Th2 Si8 Tc6'
_cell_volume   324.22222680
_cell_formula_units_Z   2
loop_
 _symmetry_equiv_pos_site_id
 _symmetry_equiv_pos_as_xyz
  1  'x, y, z'
loop_
 _atom_site_type_symbol
 _atom_site_label
 _atom_site_symmetry_multiplicity
 _atom_site_fract_x
 _atom_site_fract_y
 _atom_site_fract_z
 _atom_site_occupancy
  La  La0  1  0.068252  0.435916  0.747015  1
  La  La1  1  0.568252  0.064084  0.252985  1
  Th  Th2  1  0.932583  0.565239  0.251419  1
  Th  Th3  1  0.432583  0.934761  0.748581  1
  Si  Si4  1  0.587647  0.610895  0.113312  1
  Si  Si5  1  0.087647  0.889105  0.886688  1
  Si  Si6  1  0.413263  0.389998  0.886124  1
  Si  Si7  1  0.913263  0.110002  0.113876  1
  Si  Si8  1  0.750686  0.716420  0.593560  1
  Si  Si9  1  0.250686  0.783580  0.406440  1
  Si  Si10  1  0.247923  0.281711  0.407863  1
  Si  Si11  1  0.747923  0.218289  0.592137  1
  Tc  Tc12  1  0.292392  0.610734  0.116955  1
  Tc  Tc13  1  0.792392  0.889266  0.883045  1
  Tc  Tc14  1  0.708098  0.387281  0.884264  1
  Tc  Tc15  1  0.208098  0.112719  0.115736  1
  Tc  Tc16  1  0.499155  0.499246  0.502749  1
  Tc  Tc17  1  0.999155  0.000754  0.497251  1
