# generated using pymatgen
data_La3TbTm2Ta2O14
_symmetry_space_group_name_H-M   'P 1'
_cell_length_a   6.54325007
_cell_length_b   6.62282885
_cell_length_c   7.65937300
_cell_angle_alpha   90.00000000
_cell_angle_beta   90.00000000
_cell_angle_gamma   109.92775253
_symmetry_Int_Tables_number   1
_chemical_formula_structural   La3TbTm2Ta2O14
_chemical_formula_sum   'La3 Tb1 Tm2 Ta2 O14'
_cell_volume   312.04340973
_cell_formula_units_Z   1
loop_
 _symmetry_equiv_pos_site_id
 _symmetry_equiv_pos_as_xyz
  1  'x, y, z'
loop_
 _atom_site_type_symbol
 _atom_site_label
 _atom_site_symmetry_multiplicity
 _atom_site_fract_x
 _atom_site_fract_y
 _atom_site_fract_z
 _atom_site_occupancy
  La  La0  1  0.520997  0.066408  0.250000  1
  La  La1  1  0.002078  0.999195  0.996829  1
  La  La2  1  0.002078  0.999195  0.503171  1
  Tb  Tb3  1  0.948906  0.485435  0.750000  1
  Tm  Tm4  1  0.484005  0.976847  0.750000  1
  Tm  Tm5  1  0.052369  0.510633  0.250000  1
  Ta  Ta6  1  0.499552  0.506129  0.996752  1
  Ta  Ta7  1  0.499552  0.506129  0.503248  1
  O  O8  1  0.901317  0.156282  0.250000  1
  O  O9  1  0.839267  0.125719  0.750000  1
  O  O10  1  0.805902  0.534848  0.049649  1
  O  O11  1  0.805902  0.534848  0.450351  1
  O  O12  1  0.418337  0.179368  0.966148  1
  O  O13  1  0.418337  0.179368  0.533852  1
  O  O14  1  0.596530  0.534706  0.750000  1
  O  O15  1  0.419217  0.454145  0.250000  1
  O  O16  1  0.570623  0.821961  0.003260  1
  O  O17  1  0.183056  0.451564  0.534756  1
  O  O18  1  0.183056  0.451564  0.965244  1
  O  O19  1  0.570623  0.821961  0.496740  1
  O  O20  1  0.122651  0.840218  0.750000  1
  O  O21  1  0.155643  0.863475  0.250000  1
