# generated using pymatgen
data_CsCaPO4
_symmetry_space_group_name_H-M   'P 1'
_cell_length_a   5.63604135
_cell_length_b   5.84370700
_cell_length_c   8.01619087
_cell_angle_alpha   90.00000000
_cell_angle_beta   108.81686658
_cell_angle_gamma   90.00000000
_symmetry_Int_Tables_number   1
_chemical_formula_structural   CsCaPO4
_chemical_formula_sum   'Cs2 Ca2 P2 O8'
_cell_volume   249.90572714
_cell_formula_units_Z   2
loop_
 _symmetry_equiv_pos_site_id
 _symmetry_equiv_pos_as_xyz
  1  'x, y, z'
loop_
 _atom_site_type_symbol
 _atom_site_label
 _atom_site_symmetry_multiplicity
 _atom_site_fract_x
 _atom_site_fract_y
 _atom_site_fract_z
 _atom_site_occupancy
  Cs  Cs0  1  0.808644  0.250000  0.073775  1
  Cs  Cs1  1  0.191356  0.750000  0.926225  1
  Ca  Ca2  1  0.278396  0.750000  0.465698  1
  Ca  Ca3  1  0.721603  0.250000  0.534302  1
  P  P4  1  0.723182  0.750000  0.345300  1
  P  P5  1  0.276818  0.250000  0.654699  1
  O  O6  1  0.883182  0.750000  0.219541  1
  O  O7  1  0.546287  0.536269  0.317560  1
  O  O8  1  0.546287  0.963731  0.317560  1
  O  O9  1  0.095385  0.250000  0.461209  1
  O  O10  1  0.904614  0.750000  0.538790  1
  O  O11  1  0.453712  0.036270  0.682440  1
  O  O12  1  0.453712  0.463730  0.682440  1
  O  O13  1  0.116818  0.250000  0.780459  1
