# generated using pymatgen
data_Be(FeB)2
_symmetry_space_group_name_H-M   'P 1'
_cell_length_a   5.26717200
_cell_length_b   5.26717200
_cell_length_c   2.83122800
_cell_angle_alpha   90.00000000
_cell_angle_beta   90.00000000
_cell_angle_gamma   90.00000000
_symmetry_Int_Tables_number   1
_chemical_formula_structural   Be(FeB)2
_chemical_formula_sum   'Be2 Fe4 B4'
_cell_volume   78.54704401
_cell_formula_units_Z   2
loop_
 _symmetry_equiv_pos_site_id
 _symmetry_equiv_pos_as_xyz
  1  'x, y, z'
loop_
 _atom_site_type_symbol
 _atom_site_label
 _atom_site_symmetry_multiplicity
 _atom_site_fract_x
 _atom_site_fract_y
 _atom_site_fract_z
 _atom_site_occupancy
  Be  Be0  1  0.000000  0.000000  0.000000  1
  Be  Be1  1  0.500000  0.500000  0.000000  1
  Fe  Fe2  1  0.674273  0.174273  0.500000  1
  Fe  Fe3  1  0.174273  0.325727  0.500000  1
  Fe  Fe4  1  0.825726  0.674273  0.500000  1
  Fe  Fe5  1  0.325727  0.825726  0.500000  1
  B  B6  1  0.380574  0.119426  0.000000  1
  B  B7  1  0.880573  0.380574  0.000000  1
  B  B8  1  0.119426  0.619425  0.000000  1
  B  B9  1  0.619425  0.880573  0.000000  1
