# generated using pymatgen
data_Sc5Al2InC4
_symmetry_space_group_name_H-M   'P 1'
_cell_length_a   10.35369600
_cell_length_b   10.35369600
_cell_length_c   3.33317500
_cell_angle_alpha   90.00000000
_cell_angle_beta   90.00000000
_cell_angle_gamma   90.00000000
_symmetry_Int_Tables_number   1
_chemical_formula_structural   Sc5Al2InC4
_chemical_formula_sum   'Sc10 Al4 In2 C8'
_cell_volume   357.31309636
_cell_formula_units_Z   2
loop_
 _symmetry_equiv_pos_site_id
 _symmetry_equiv_pos_as_xyz
  1  'x, y, z'
loop_
 _atom_site_type_symbol
 _atom_site_label
 _atom_site_symmetry_multiplicity
 _atom_site_fract_x
 _atom_site_fract_y
 _atom_site_fract_z
 _atom_site_occupancy
  Sc  Sc0  1  0.548707  0.740148  0.500000  1
  Sc  Sc1  1  0.451293  0.259852  0.500000  1
  Sc  Sc2  1  0.048707  0.759852  0.500000  1
  Sc  Sc3  1  0.951293  0.240148  0.500000  1
  Sc  Sc4  1  0.259852  0.548707  0.500000  1
  Sc  Sc5  1  0.740148  0.451293  0.500000  1
  Sc  Sc6  1  0.240148  0.048707  0.500000  1
  Sc  Sc7  1  0.759852  0.951293  0.500000  1
  Sc  Sc8  1  0.500000  0.000000  0.000000  1
  Sc  Sc9  1  0.000000  0.500000  0.000000  1
  Al  Al10  1  0.703451  0.203451  0.000000  1
  Al  Al11  1  0.296549  0.796549  0.000000  1
  Al  Al12  1  0.203451  0.296549  0.000000  1
  Al  Al13  1  0.796549  0.703451  0.000000  1
  In  In14  1  0.500000  0.500000  0.000000  1
  In  In15  1  0.000000  0.000000  0.000000  1
  C  C16  1  0.624979  0.124979  0.500000  1
  C  C17  1  0.375021  0.875021  0.500000  1
  C  C18  1  0.124979  0.375021  0.500000  1
  C  C19  1  0.875021  0.624979  0.500000  1
  C  C20  1  0.157648  0.657648  0.000000  1
  C  C21  1  0.842352  0.342352  0.000000  1
  C  C22  1  0.657648  0.842352  0.000000  1
  C  C23  1  0.342352  0.157648  0.000000  1
