# generated using pymatgen
data_Dy16Cd4Ru3Rh
_symmetry_space_group_name_H-M   'P 1'
_cell_length_a   9.62283017
_cell_length_b   9.62283013
_cell_length_c   9.62282990
_cell_angle_alpha   59.87439469
_cell_angle_beta   59.87439650
_cell_angle_gamma   59.87440163
_symmetry_Int_Tables_number   1
_chemical_formula_structural   Dy16Cd4Ru3Rh
_chemical_formula_sum   'Dy16 Cd4 Ru3 Rh1'
_cell_volume   628.28105068
_cell_formula_units_Z   1
loop_
 _symmetry_equiv_pos_site_id
 _symmetry_equiv_pos_as_xyz
  1  'x, y, z'
loop_
 _atom_site_type_symbol
 _atom_site_label
 _atom_site_symmetry_multiplicity
 _atom_site_fract_x
 _atom_site_fract_y
 _atom_site_fract_z
 _atom_site_occupancy
  Dy  Dy0  1  0.938216  0.938216  0.561275  1
  Dy  Dy1  1  0.562198  0.562198  0.935884  1
  Dy  Dy2  1  0.688947  0.688947  0.311584  1
  Dy  Dy3  1  0.151378  0.544107  0.151378  1
  Dy  Dy4  1  0.688947  0.311584  0.688947  1
  Dy  Dy5  1  0.152207  0.152207  0.152207  1
  Dy  Dy6  1  0.544107  0.151378  0.151378  1
  Dy  Dy7  1  0.691014  0.311075  0.311075  1
  Dy  Dy8  1  0.151378  0.151378  0.544107  1
  Dy  Dy9  1  0.311075  0.691014  0.311075  1
  Dy  Dy10  1  0.311584  0.688947  0.688947  1
  Dy  Dy11  1  0.935884  0.562198  0.562198  1
  Dy  Dy12  1  0.938216  0.561275  0.938216  1
  Dy  Dy13  1  0.562198  0.935884  0.562198  1
  Dy  Dy14  1  0.561275  0.938216  0.938216  1
  Dy  Dy15  1  0.311075  0.311075  0.691014  1
  Cd  Cd16  1  0.919709  0.919709  0.241366  1
  Cd  Cd17  1  0.241366  0.919709  0.919709  1
  Cd  Cd18  1  0.919378  0.919378  0.919378  1
  Cd  Cd19  1  0.919709  0.241366  0.919709  1
  Ru  Ru20  1  0.359377  0.359377  0.921853  1
  Ru  Ru21  1  0.359377  0.921853  0.359377  1
  Ru  Ru22  1  0.921853  0.359377  0.359377  1
  Rh  Rh23  1  0.359530  0.359530  0.359530  1
