# generated using pymatgen
data_Ho2TmZr(Al3Ir)6
_symmetry_space_group_name_H-M   'P 1'
_cell_length_a   7.53195621
_cell_length_b   7.52373188
_cell_length_c   9.40176900
_cell_angle_alpha   90.00000000
_cell_angle_beta   90.00000000
_cell_angle_gamma   119.59163343
_symmetry_Int_Tables_number   1
_chemical_formula_structural   Ho2TmZr(Al3Ir)6
_chemical_formula_sum   'Ho2 Tm1 Zr1 Al18 Ir6'
_cell_volume   463.29087537
_cell_formula_units_Z   1
loop_
 _symmetry_equiv_pos_site_id
 _symmetry_equiv_pos_as_xyz
  1  'x, y, z'
loop_
 _atom_site_type_symbol
 _atom_site_label
 _atom_site_symmetry_multiplicity
 _atom_site_fract_x
 _atom_site_fract_y
 _atom_site_fract_z
 _atom_site_occupancy
  Ho  Ho0  1  0.005941  0.327149  0.750000  1
  Ho  Ho1  1  0.328571  0.006605  0.750000  1
  Tm  Tm2  1  0.671435  0.995761  0.250000  1
  Zr  Zr3  1  0.996539  0.672064  0.250000  1
  Al  Al4  1  0.125571  0.123438  0.250000  1
  Al  Al5  1  0.870391  0.869109  0.750000  1
  Al  Al6  1  0.999944  0.337401  0.078817  1
  Al  Al7  1  0.999327  0.664840  0.928966  1
  Al  Al8  1  0.999327  0.664840  0.571034  1
  Al  Al9  1  0.332970  0.998335  0.420962  1
  Al  Al10  1  0.999944  0.337401  0.421183  1
  Al  Al11  1  0.664383  0.998322  0.574633  1
  Al  Al12  1  0.664383  0.998322  0.925367  1
  Al  Al13  1  0.332970  0.998335  0.079038  1
  Al  Al14  1  0.333916  0.334014  0.550933  1
  Al  Al15  1  0.669008  0.667465  0.443062  1
  Al  Al16  1  0.669008  0.667465  0.056938  1
  Al  Al17  1  0.333916  0.334014  0.949067  1
  Al  Al18  1  0.336403  0.550229  0.250000  1
  Al  Al19  1  0.660703  0.451790  0.750000  1
  Al  Al20  1  0.555028  0.343651  0.250000  1
  Al  Al21  1  0.450602  0.659338  0.750000  1
  Ir  Ir22  1  0.672359  0.327742  0.000707  1
  Ir  Ir23  1  0.328000  0.672535  0.001408  1
  Ir  Ir24  1  0.328000  0.672535  0.498592  1
  Ir  Ir25  1  0.672359  0.327742  0.499293  1
  Ir  Ir26  1  0.999504  0.999780  0.000604  1
  Ir  Ir27  1  0.999504  0.999780  0.499396  1
