# generated using pymatgen
data_Tb4AlTc4Ru3
_symmetry_space_group_name_H-M   'P 1'
_cell_length_a   5.26150049
_cell_length_b   5.30467049
_cell_length_c   9.12195500
_cell_angle_alpha   90.00000000
_cell_angle_beta   90.00000000
_cell_angle_gamma   119.58416340
_symmetry_Int_Tables_number   1
_chemical_formula_structural   Tb4AlTc4Ru3
_chemical_formula_sum   'Tb4 Al1 Tc4 Ru3'
_cell_volume   221.40691264
_cell_formula_units_Z   1
loop_
 _symmetry_equiv_pos_site_id
 _symmetry_equiv_pos_as_xyz
  1  'x, y, z'
loop_
 _atom_site_type_symbol
 _atom_site_label
 _atom_site_symmetry_multiplicity
 _atom_site_fract_x
 _atom_site_fract_y
 _atom_site_fract_z
 _atom_site_occupancy
  Tb  Tb0  1  0.337295  0.668694  0.436865  1
  Tb  Tb1  1  0.666692  0.330037  0.560813  1
  Tb  Tb2  1  0.666692  0.330037  0.939187  1
  Tb  Tb3  1  0.337295  0.668694  0.063135  1
  Al  Al4  1  0.164756  0.335257  0.750000  1
  Tc  Tc5  1  0.828581  0.174878  0.250000  1
  Tc  Tc6  1  0.836820  0.666947  0.250000  1
  Tc  Tc7  1  0.340305  0.173327  0.250000  1
  Tc  Tc8  1  0.161967  0.834463  0.750000  1
  Ru  Ru9  1  0.007234  0.991242  0.503241  1
  Ru  Ru10  1  0.007234  0.991242  0.996759  1
  Ru  Ru11  1  0.645129  0.835181  0.750000  1
