# generated using pymatgen
data_Tb2CeEr17Bi12
_symmetry_space_group_name_H-M   'P 1'
_cell_length_a   8.21018028
_cell_length_b   9.46962100
_cell_length_c   11.96586600
_cell_angle_alpha   90.00000000
_cell_angle_beta   90.01499707
_cell_angle_gamma   90.00000000
_symmetry_Int_Tables_number   1
_chemical_formula_structural   Tb2CeEr17Bi12
_chemical_formula_sum   'Tb2 Ce1 Er17 Bi12'
_cell_volume   930.31368920
_cell_formula_units_Z   1
loop_
 _symmetry_equiv_pos_site_id
 _symmetry_equiv_pos_as_xyz
  1  'x, y, z'
loop_
 _atom_site_type_symbol
 _atom_site_label
 _atom_site_symmetry_multiplicity
 _atom_site_fract_x
 _atom_site_fract_y
 _atom_site_fract_z
 _atom_site_occupancy
  Tb  Tb0  1  0.685934  0.750000  0.781241  1
  Tb  Tb1  1  0.185352  0.750000  0.718205  1
  Ce  Ce2  1  0.815479  0.250000  0.277829  1
  Er  Er3  1  0.353339  0.750000  0.217012  1
  Er  Er4  1  0.851975  0.750000  0.283050  1
  Er  Er5  1  0.646437  0.250000  0.783097  1
  Er  Er6  1  0.146863  0.250000  0.717169  1
  Er  Er7  1  0.694197  0.564077  0.059479  1
  Er  Er8  1  0.190926  0.934960  0.439973  1
  Er  Er9  1  0.306613  0.064429  0.939872  1
  Er  Er10  1  0.808450  0.434495  0.559555  1
  Er  Er11  1  0.306613  0.435571  0.939872  1
  Er  Er12  1  0.808450  0.065505  0.559555  1
  Er  Er13  1  0.694197  0.935923  0.059479  1
  Er  Er14  1  0.190926  0.565040  0.439973  1
  Er  Er15  1  0.476723  0.250000  0.489212  1
  Er  Er16  1  0.976374  0.250000  0.014059  1
  Er  Er17  1  0.522522  0.750000  0.511191  1
  Er  Er18  1  0.025072  0.750000  0.988377  1
  Er  Er19  1  0.313891  0.250000  0.218646  1
  Bi  Bi20  1  0.406767  0.750000  0.959259  1
  Bi  Bi21  1  0.904429  0.750000  0.541153  1
  Bi  Bi22  1  0.591288  0.250000  0.040719  1
  Bi  Bi23  1  0.097472  0.250000  0.459502  1
  Bi  Bi24  1  0.563089  0.994317  0.326343  1
  Bi  Bi25  1  0.068853  0.506522  0.174088  1
  Bi  Bi26  1  0.434368  0.495113  0.673878  1
  Bi  Bi27  1  0.933544  0.005491  0.826948  1
  Bi  Bi28  1  0.434368  0.004887  0.673878  1
  Bi  Bi29  1  0.933544  0.494509  0.826948  1
  Bi  Bi30  1  0.563089  0.505683  0.326343  1
  Bi  Bi31  1  0.068853  0.993478  0.174088  1
