# generated using pymatgen
data_Dy6Tm3LuSn6
_symmetry_space_group_name_H-M   'P 1'
_cell_length_a   6.47358100
_cell_length_b   8.91770895
_cell_length_c   8.91954600
_cell_angle_alpha   119.98451282
_cell_angle_beta   90.00294906
_cell_angle_gamma   89.99715143
_symmetry_Int_Tables_number   1
_chemical_formula_structural   Dy6Tm3LuSn6
_chemical_formula_sum   'Dy6 Tm3 Lu1 Sn6'
_cell_volume   446.00426917
_cell_formula_units_Z   1
loop_
 _symmetry_equiv_pos_site_id
 _symmetry_equiv_pos_as_xyz
  1  'x, y, z'
loop_
 _atom_site_type_symbol
 _atom_site_label
 _atom_site_symmetry_multiplicity
 _atom_site_fract_x
 _atom_site_fract_y
 _atom_site_fract_z
 _atom_site_occupancy
  Dy  Dy0  1  0.749960  0.239450  0.999949  1
  Dy  Dy1  1  0.749966  0.760407  0.760532  1
  Dy  Dy2  1  0.749950  0.000026  0.239554  1
  Dy  Dy3  1  0.250044  0.760490  0.999934  1
  Dy  Dy4  1  0.250041  0.239537  0.239534  1
  Dy  Dy5  1  0.250042  0.000121  0.760529  1
  Tm  Tm6  1  0.500014  0.666611  0.333250  1
  Tm  Tm7  1  0.999992  0.666658  0.333275  1
  Tm  Tm8  1  0.999987  0.333378  0.666742  1
  Lu  Lu9  1  0.500009  0.333352  0.666755  1
  Sn  Sn10  1  0.749821  0.604011  0.999741  1
  Sn  Sn11  1  0.749841  0.395609  0.395852  1
  Sn  Sn12  1  0.749838  0.000279  0.604376  1
  Sn  Sn13  1  0.250167  0.395710  0.999714  1
  Sn  Sn14  1  0.250164  0.604123  0.604388  1
  Sn  Sn15  1  0.250162  0.000239  0.395875  1
