# generated using pymatgen
data_Dy2Ho14TlIn5Co2
_symmetry_space_group_name_H-M   'P 1'
_cell_length_a   10.29248689
_cell_length_b   10.30799668
_cell_length_c   6.97430040
_cell_angle_alpha   89.97032189
_cell_angle_beta   89.99278274
_cell_angle_gamma   120.01683318
_symmetry_Int_Tables_number   1
_chemical_formula_structural   Dy2Ho14TlIn5Co2
_chemical_formula_sum   'Dy2 Ho14 Tl1 In5 Co2'
_cell_volume   640.69610127
_cell_formula_units_Z   1
loop_
 _symmetry_equiv_pos_site_id
 _symmetry_equiv_pos_as_xyz
  1  'x, y, z'
loop_
 _atom_site_type_symbol
 _atom_site_label
 _atom_site_symmetry_multiplicity
 _atom_site_fract_x
 _atom_site_fract_y
 _atom_site_fract_z
 _atom_site_occupancy
  Dy  Dy0  1  0.534886  0.070508  0.505086  1
  Dy  Dy1  1  0.928966  0.464628  0.504715  1
  Ho  Ho2  1  0.535569  0.464246  0.505069  1
  Ho  Ho3  1  0.464368  0.928389  0.005399  1
  Ho  Ho4  1  0.072512  0.535368  0.006581  1
  Ho  Ho5  1  0.463369  0.535483  0.006399  1
  Ho  Ho6  1  0.178052  0.356160  0.711911  1
  Ho  Ho7  1  0.643804  0.821533  0.712197  1
  Ho  Ho8  1  0.177361  0.821319  0.712356  1
  Ho  Ho9  1  0.821972  0.643414  0.209264  1
  Ho  Ho10  1  0.356715  0.178167  0.211589  1
  Ho  Ho11  1  0.821946  0.178042  0.211302  1
  Ho  Ho12  1  0.666091  0.333071  0.895785  1
  Ho  Ho13  1  0.333765  0.667057  0.395858  1
  Ho  Ho14  1  0.000654  0.001358  0.491996  1
  Ho  Ho15  1  0.000565  0.001670  0.993495  1
  Tl  Tl16  1  0.836729  0.674610  0.753558  1
  In  In17  1  0.324345  0.161812  0.753030  1
  In  In18  1  0.836330  0.162292  0.752139  1
  In  In19  1  0.163679  0.325654  0.253164  1
  In  In20  1  0.675574  0.837220  0.252977  1
  In  In21  1  0.162862  0.837846  0.253194  1
  Co  Co22  1  0.666667  0.333674  0.280231  1
  Co  Co23  1  0.333219  0.666479  0.780748  1
