# generated using pymatgen
data_Ta3Ti7Nb2Al8(IrC)4
_symmetry_space_group_name_H-M   'P 1'
_cell_length_a   8.25578410
_cell_length_b   8.25867134
_cell_length_c   8.24159700
_cell_angle_alpha   60.01154841
_cell_angle_beta   60.03631990
_cell_angle_gamma   59.94820970
_symmetry_Int_Tables_number   1
_chemical_formula_structural   Ta3Ti7Nb2Al8(IrC)4
_chemical_formula_sum   'Ta3 Ti7 Nb2 Al8 Ir4 C4'
_cell_volume   397.33010108
_cell_formula_units_Z   1
loop_
 _symmetry_equiv_pos_site_id
 _symmetry_equiv_pos_as_xyz
  1  'x, y, z'
loop_
 _atom_site_type_symbol
 _atom_site_label
 _atom_site_symmetry_multiplicity
 _atom_site_fract_x
 _atom_site_fract_y
 _atom_site_fract_z
 _atom_site_occupancy
  Ta  Ta0  1  0.939143  0.938542  0.561525  1
  Ta  Ta1  1  0.686842  0.313846  0.687675  1
  Ta  Ta2  1  0.936974  0.563401  0.938037  1
  Ti  Ti3  1  0.562602  0.937715  0.561017  1
  Ti  Ti4  1  0.313569  0.687466  0.689305  1
  Ti  Ti5  1  0.688322  0.312135  0.311163  1
  Ti  Ti6  1  0.312487  0.688192  0.309988  1
  Ti  Ti7  1  0.688313  0.687472  0.312698  1
  Ti  Ti8  1  0.311896  0.310720  0.689157  1
  Ti  Ti9  1  0.561555  0.560974  0.939415  1
  Nb  Nb10  1  0.938447  0.561597  0.560426  1
  Nb  Nb11  1  0.562326  0.937307  0.940036  1
  Al  Al12  1  0.917185  0.915136  0.916871  1
  Al  Al13  1  0.996016  0.335840  0.332111  1
  Al  Al14  1  0.336225  0.994504  0.336037  1
  Al  Al15  1  0.331918  0.336545  0.996819  1
  Al  Al16  1  0.913711  0.254028  0.917021  1
  Al  Al17  1  0.912914  0.917149  0.253105  1
  Al  Al18  1  0.255874  0.913471  0.913633  1
  Al  Al19  1  0.336589  0.333507  0.334756  1
  Ir  Ir20  1  0.124372  0.124270  0.125829  1
  Ir  Ir21  1  0.624612  0.126159  0.123135  1
  Ir  Ir22  1  0.124666  0.625126  0.125411  1
  Ir  Ir23  1  0.123637  0.124844  0.625103  1
  C  C24  1  0.620945  0.629119  0.626169  1
  C  C25  1  0.132593  0.623322  0.622860  1
  C  C26  1  0.622785  0.126603  0.621281  1
  C  C27  1  0.623481  0.621007  0.129420  1
