# generated using pymatgen
data_Pr4BeCuSi6
_symmetry_space_group_name_H-M   'P 1'
_cell_length_a   8.22400949
_cell_length_b   8.06431084
_cell_length_c   5.92145041
_cell_angle_alpha   70.12905259
_cell_angle_beta   67.24959584
_cell_angle_gamma   42.62135848
_symmetry_Int_Tables_number   1
_chemical_formula_structural   Pr4BeCuSi6
_chemical_formula_sum   'Pr4 Be1 Cu1 Si6'
_cell_volume   244.27348877
_cell_formula_units_Z   1
loop_
 _symmetry_equiv_pos_site_id
 _symmetry_equiv_pos_as_xyz
  1  'x, y, z'
loop_
 _atom_site_type_symbol
 _atom_site_label
 _atom_site_symmetry_multiplicity
 _atom_site_fract_x
 _atom_site_fract_y
 _atom_site_fract_z
 _atom_site_occupancy
  Pr  Pr0  1  0.245516  0.756245  0.243755  1
  Pr  Pr1  1  0.249097  0.249097  0.250902  1
  Pr  Pr2  1  0.749097  0.749097  0.750902  1
  Pr  Pr3  1  0.756245  0.245517  0.754484  1
  Be  Be4  1  0.666125  0.666126  0.333875  1
  Cu  Cu5  1  0.333793  0.333793  0.666207  1
  Si  Si6  1  0.828294  0.828294  0.171706  1
  Si  Si7  1  0.825963  0.344937  0.174037  1
  Si  Si8  1  0.659320  0.171934  0.340681  1
  Si  Si9  1  0.344937  0.825964  0.655064  1
  Si  Si10  1  0.171934  0.659320  0.828067  1
  Si  Si11  1  0.169675  0.169675  0.830325  1
