# generated using pymatgen
data_Ca20AgIr2Pd
_symmetry_space_group_name_H-M   'P 1'
_cell_length_a   6.89055100
_cell_length_b   7.57869880
_cell_length_c   16.03238100
_cell_angle_alpha   90.00000000
_cell_angle_beta   90.00000000
_cell_angle_gamma   89.87936327
_symmetry_Int_Tables_number   1
_chemical_formula_structural   Ca20AgIr2Pd
_chemical_formula_sum   'Ca20 Ag1 Ir2 Pd1'
_cell_volume   837.23169509
_cell_formula_units_Z   1
loop_
 _symmetry_equiv_pos_site_id
 _symmetry_equiv_pos_as_xyz
  1  'x, y, z'
loop_
 _atom_site_type_symbol
 _atom_site_label
 _atom_site_symmetry_multiplicity
 _atom_site_fract_x
 _atom_site_fract_y
 _atom_site_fract_z
 _atom_site_occupancy
  Ca  Ca0  1  0.128298  0.096481  0.250000  1
  Ca  Ca1  1  0.854455  0.188524  0.560987  1
  Ca  Ca2  1  0.837129  0.904355  0.750000  1
  Ca  Ca3  1  0.838729  0.472750  0.140122  1
  Ca  Ca4  1  0.176367  0.545348  0.644111  1
  Ca  Ca5  1  0.354241  0.312967  0.056396  1
  Ca  Ca6  1  0.333725  0.607329  0.250000  1
  Ca  Ca7  1  0.838729  0.472750  0.359878  1
  Ca  Ca8  1  0.329475  0.031009  0.855906  1
  Ca  Ca9  1  0.150112  0.816607  0.064220  1
  Ca  Ca10  1  0.645866  0.686009  0.568506  1
  Ca  Ca11  1  0.675885  0.942852  0.360467  1
  Ca  Ca12  1  0.645866  0.686009  0.931494  1
  Ca  Ca13  1  0.329475  0.031009  0.644094  1
  Ca  Ca14  1  0.150112  0.816607  0.435780  1
  Ca  Ca15  1  0.646056  0.403761  0.750000  1
  Ca  Ca16  1  0.176367  0.545348  0.855889  1
  Ca  Ca17  1  0.354241  0.312967  0.443604  1
  Ca  Ca18  1  0.675885  0.942852  0.139533  1
  Ca  Ca19  1  0.854455  0.188524  0.939013  1
  Ag  Ag20  1  0.544903  0.254169  0.250000  1
  Ir  Ir21  1  0.462744  0.737653  0.750000  1
  Ir  Ir22  1  0.956931  0.761955  0.250000  1
  Pd  Pd23  1  0.039954  0.242164  0.750000  1
