# generated using pymatgen
data_Er4MgNi2Hg
_symmetry_space_group_name_H-M   'P 1'
_cell_length_a   8.48696705
_cell_length_b   8.48696682
_cell_length_c   8.48696607
_cell_angle_alpha   128.46796943
_cell_angle_beta   128.46796801
_cell_angle_gamma   75.86815585
_symmetry_Int_Tables_number   1
_chemical_formula_structural   Er4MgNi2Hg
_chemical_formula_sum   'Er8 Mg2 Ni4 Hg2'
_cell_volume   364.42893839
_cell_formula_units_Z   2
loop_
 _symmetry_equiv_pos_site_id
 _symmetry_equiv_pos_as_xyz
  1  'x, y, z'
loop_
 _atom_site_type_symbol
 _atom_site_label
 _atom_site_symmetry_multiplicity
 _atom_site_fract_x
 _atom_site_fract_y
 _atom_site_fract_z
 _atom_site_occupancy
  Er  Er0  1  0.800928  0.300928  0.843900  1
  Er  Er1  1  0.199072  0.699072  0.156100  1
  Er  Er2  1  0.457027  0.957027  0.156100  1
  Er  Er3  1  0.300928  0.457027  0.500000  1
  Er  Er4  1  0.042973  0.199072  0.500000  1
  Er  Er5  1  0.542973  0.042973  0.843900  1
  Er  Er6  1  0.699072  0.542973  0.500000  1
  Er  Er7  1  0.957027  0.800928  0.500000  1
  Mg  Mg8  1  0.000000  0.000000  0.000000  1
  Mg  Mg9  1  0.500000  0.500000  0.000000  1
  Ni  Ni10  1  0.125578  0.625578  0.751157  1
  Ni  Ni11  1  0.874422  0.374422  0.248843  1
  Ni  Ni12  1  0.625578  0.874422  0.500000  1
  Ni  Ni13  1  0.374422  0.125578  0.500000  1
  Hg  Hg14  1  0.250000  0.250000  0.000000  1
  Hg  Hg15  1  0.750000  0.750000  0.000000  1
