# generated using pymatgen
data_SmDyY(SiRh2)3
_symmetry_space_group_name_H-M   'P 1'
_cell_length_a   5.60241800
_cell_length_b   5.60241723
_cell_length_c   15.01487100
_cell_angle_alpha   90.00000000
_cell_angle_beta   90.00000000
_cell_angle_gamma   119.99999273
_symmetry_Int_Tables_number   1
_chemical_formula_structural   SmDyY(SiRh2)3
_chemical_formula_sum   'Sm2 Dy2 Y2 Si6 Rh12'
_cell_volume   408.13442381
_cell_formula_units_Z   2
loop_
 _symmetry_equiv_pos_site_id
 _symmetry_equiv_pos_as_xyz
  1  'x, y, z'
loop_
 _atom_site_type_symbol
 _atom_site_label
 _atom_site_symmetry_multiplicity
 _atom_site_fract_x
 _atom_site_fract_y
 _atom_site_fract_z
 _atom_site_occupancy
  Sm  Sm0  1  0.666667  0.333333  0.750000  1
  Sm  Sm1  1  0.333333  0.666667  0.250000  1
  Dy  Dy2  1  0.666667  0.333333  0.963326  1
  Dy  Dy3  1  0.666667  0.333333  0.536674  1
  Y  Y4  1  0.333333  0.666667  0.036683  1
  Y  Y5  1  0.333333  0.666667  0.463317  1
  Si  Si6  1  0.666667  0.333333  0.250000  1
  Si  Si7  1  0.000000  0.000000  0.500012  1
  Si  Si8  1  0.000000  0.000000  0.250000  1
  Si  Si9  1  0.000000  0.000000  0.750000  1
  Si  Si10  1  0.333333  0.666667  0.750000  1
  Si  Si11  1  0.000000  0.000000  0.999988  1
  Rh  Rh12  1  0.166539  0.333077  0.869222  1
  Rh  Rh13  1  0.166539  0.333077  0.630778  1
  Rh  Rh14  1  0.666923  0.833461  0.869222  1
  Rh  Rh15  1  0.333157  0.166579  0.369244  1
  Rh  Rh16  1  0.833421  0.666843  0.369244  1
  Rh  Rh17  1  0.833421  0.166579  0.369244  1
  Rh  Rh18  1  0.833421  0.166579  0.130756  1
  Rh  Rh19  1  0.333157  0.166579  0.130756  1
  Rh  Rh20  1  0.666923  0.833461  0.630778  1
  Rh  Rh21  1  0.166539  0.833461  0.630778  1
  Rh  Rh22  1  0.833421  0.666843  0.130756  1
  Rh  Rh23  1  0.166539  0.833461  0.869222  1
