# generated using pymatgen
data_Ca6RuWO12
_symmetry_space_group_name_H-M   'P 1'
_cell_length_a   6.58542024
_cell_length_b   6.58541906
_cell_length_c   6.58541972
_cell_angle_alpha   91.95276564
_cell_angle_beta   91.95275946
_cell_angle_gamma   91.95277500
_symmetry_Int_Tables_number   1
_chemical_formula_structural   Ca6RuWO12
_chemical_formula_sum   'Ca6 Ru1 W1 O12'
_cell_volume   285.08566880
_cell_formula_units_Z   1
loop_
 _symmetry_equiv_pos_site_id
 _symmetry_equiv_pos_as_xyz
  1  'x, y, z'
loop_
 _atom_site_type_symbol
 _atom_site_label
 _atom_site_symmetry_multiplicity
 _atom_site_fract_x
 _atom_site_fract_y
 _atom_site_fract_z
 _atom_site_occupancy
  Ca  Ca0  1  0.930146  0.436578  0.745356  1
  Ca  Ca1  1  0.745356  0.930146  0.436578  1
  Ca  Ca2  1  0.563422  0.254644  0.069854  1
  Ca  Ca3  1  0.436578  0.745356  0.930146  1
  Ca  Ca4  1  0.254644  0.069854  0.563422  1
  Ca  Ca5  1  0.069854  0.563422  0.254644  1
  Ru  Ru6  1  0.500000  0.500000  0.500000  1
  W  W7  1  0.000000  0.000000  0.000000  1
  O  O8  1  0.938193  0.283983  0.068466  1
  O  O9  1  0.931534  0.061807  0.716017  1
  O  O10  1  0.782582  0.578253  0.452495  1
  O  O11  1  0.716017  0.931534  0.061807  1
  O  O12  1  0.578253  0.452495  0.782582  1
  O  O13  1  0.547505  0.217418  0.421747  1
  O  O14  1  0.452495  0.782582  0.578253  1
  O  O15  1  0.421747  0.547505  0.217418  1
  O  O16  1  0.283983  0.068466  0.938193  1
  O  O17  1  0.217418  0.421747  0.547505  1
  O  O18  1  0.068466  0.938193  0.283983  1
  O  O19  1  0.061807  0.716017  0.931534  1
