# generated using pymatgen
data_Na2BeS2
_symmetry_space_group_name_H-M   'P 1'
_cell_length_a   6.91267899
_cell_length_b   6.91267898
_cell_length_c   6.91267902
_cell_angle_alpha   132.89112344
_cell_angle_beta   127.97415611
_cell_angle_gamma   72.78768718
_symmetry_Int_Tables_number   1
_chemical_formula_structural   Na2BeS2
_chemical_formula_sum   'Na4 Be2 S4'
_cell_volume   186.40704166
_cell_formula_units_Z   2
loop_
 _symmetry_equiv_pos_site_id
 _symmetry_equiv_pos_as_xyz
  1  'x, y, z'
loop_
 _atom_site_type_symbol
 _atom_site_label
 _atom_site_symmetry_multiplicity
 _atom_site_fract_x
 _atom_site_fract_y
 _atom_site_fract_z
 _atom_site_occupancy
  Na  Na0  1  0.517617  0.856731  0.660886  1
  Na  Na1  1  0.804156  0.643269  0.160886  1
  Na  Na2  1  0.482383  0.143269  0.339114  1
  Na  Na3  1  0.195844  0.356731  0.839114  1
  Be  Be4  1  0.000000  0.250000  0.250000  1
  Be  Be5  1  0.000000  0.750000  0.750000  1
  S  S6  1  0.913956  0.104770  0.809186  1
  S  S7  1  0.295584  0.604770  0.690814  1
  S  S8  1  0.086044  0.895230  0.190814  1
  S  S9  1  0.704416  0.395230  0.309186  1
