# generated using pymatgen
data_Ce2Er6Si12PtRh3
_symmetry_space_group_name_H-M   'P 1'
_cell_length_a   8.15337600
_cell_length_b   8.15337622
_cell_length_c   7.99305300
_cell_angle_alpha   90.00000000
_cell_angle_beta   90.00000000
_cell_angle_gamma   119.99999910
_symmetry_Int_Tables_number   1
_chemical_formula_structural   Ce2Er6Si12PtRh3
_chemical_formula_sum   'Ce2 Er6 Si12 Pt1 Rh3'
_cell_volume   460.16997812
_cell_formula_units_Z   1
loop_
 _symmetry_equiv_pos_site_id
 _symmetry_equiv_pos_as_xyz
  1  'x, y, z'
loop_
 _atom_site_type_symbol
 _atom_site_label
 _atom_site_symmetry_multiplicity
 _atom_site_fract_x
 _atom_site_fract_y
 _atom_site_fract_z
 _atom_site_occupancy
  Ce  Ce0  1  0.000000  0.000000  0.249147  1
  Ce  Ce1  1  0.000000  0.000000  0.751273  1
  Er  Er2  1  0.491900  0.508100  0.247355  1
  Er  Er3  1  0.491900  0.983799  0.247355  1
  Er  Er4  1  0.016201  0.508100  0.247355  1
  Er  Er5  1  0.506368  0.493632  0.752357  1
  Er  Er6  1  0.987262  0.493632  0.752357  1
  Er  Er7  1  0.506368  0.012738  0.752357  1
  Si  Si8  1  0.835026  0.164974  0.502038  1
  Si  Si9  1  0.835026  0.670053  0.502038  1
  Si  Si10  1  0.329947  0.164974  0.502038  1
  Si  Si11  1  0.832547  0.167453  0.998693  1
  Si  Si12  1  0.832547  0.665095  0.998693  1
  Si  Si13  1  0.334905  0.167453  0.998693  1
  Si  Si14  1  0.167337  0.832663  0.001746  1
  Si  Si15  1  0.665326  0.832663  0.001746  1
  Si  Si16  1  0.167337  0.334674  0.001746  1
  Si  Si17  1  0.168409  0.831591  0.496927  1
  Si  Si18  1  0.663183  0.831591  0.496927  1
  Si  Si19  1  0.168409  0.336817  0.496927  1
  Pt  Pt20  1  0.666667  0.333333  0.475864  1
  Rh  Rh21  1  0.666667  0.333333  0.026391  1
  Rh  Rh22  1  0.333333  0.666667  0.969386  1
  Rh  Rh23  1  0.333333  0.666667  0.530589  1
