# generated using pymatgen
data_YbLu3(NiP)4
_symmetry_space_group_name_H-M   'P 1'
_cell_length_a   3.84543100
_cell_length_b   3.84542994
_cell_length_c   15.39096400
_cell_angle_alpha   90.00000000
_cell_angle_beta   90.00000000
_cell_angle_gamma   120.00000051
_symmetry_Int_Tables_number   1
_chemical_formula_structural   YbLu3(NiP)4
_chemical_formula_sum   'Yb1 Lu3 Ni4 P4'
_cell_volume   197.09988836
_cell_formula_units_Z   1
loop_
 _symmetry_equiv_pos_site_id
 _symmetry_equiv_pos_as_xyz
  1  'x, y, z'
loop_
 _atom_site_type_symbol
 _atom_site_label
 _atom_site_symmetry_multiplicity
 _atom_site_fract_x
 _atom_site_fract_y
 _atom_site_fract_z
 _atom_site_occupancy
  Yb  Yb0  1  0.000000  0.000000  0.250000  1
  Lu  Lu1  1  0.000000  0.000000  0.500692  1
  Lu  Lu2  1  0.000000  0.000000  0.999308  1
  Lu  Lu3  1  0.000000  0.000000  0.750000  1
  Ni  Ni4  1  0.333333  0.666667  0.378749  1
  Ni  Ni5  1  0.666667  0.333333  0.628080  1
  Ni  Ni6  1  0.666667  0.333333  0.871920  1
  Ni  Ni7  1  0.333333  0.666667  0.121251  1
  P  P8  1  0.333333  0.666667  0.875909  1
  P  P9  1  0.666667  0.333333  0.116735  1
  P  P10  1  0.666667  0.333333  0.383265  1
  P  P11  1  0.333333  0.666667  0.624091  1
