# generated using pymatgen
data_Y5Ho15(In3Os)2
_symmetry_space_group_name_H-M   'P 1'
_cell_length_a   9.71562300
_cell_length_b   9.71562233
_cell_length_c   9.74470800
_cell_angle_alpha   90.00000000
_cell_angle_beta   90.00000000
_cell_angle_gamma   119.97364925
_symmetry_Int_Tables_number   1
_chemical_formula_structural   Y5Ho15(In3Os)2
_chemical_formula_sum   'Y5 Ho15 In6 Os2'
_cell_volume   796.81223887
_cell_formula_units_Z   1
loop_
 _symmetry_equiv_pos_site_id
 _symmetry_equiv_pos_as_xyz
  1  'x, y, z'
loop_
 _atom_site_type_symbol
 _atom_site_label
 _atom_site_symmetry_multiplicity
 _atom_site_fract_x
 _atom_site_fract_y
 _atom_site_fract_z
 _atom_site_occupancy
  Y  Y0  1  0.537785  0.075897  0.250000  1
  Y  Y1  1  0.924103  0.462215  0.250000  1
  Y  Y2  1  0.462219  0.537781  0.750000  1
  Y  Y3  1  0.462347  0.924731  0.750000  1
  Y  Y4  1  0.075269  0.537653  0.750000  1
  Ho  Ho5  1  0.000063  0.999937  0.499776  1
  Ho  Ho6  1  0.000063  0.999937  0.000224  1
  Ho  Ho7  1  0.209678  0.790322  0.438734  1
  Ho  Ho8  1  0.209946  0.419267  0.438635  1
  Ho  Ho9  1  0.580733  0.790054  0.438635  1
  Ho  Ho10  1  0.790371  0.209629  0.561150  1
  Ho  Ho11  1  0.790108  0.580537  0.560749  1
  Ho  Ho12  1  0.419463  0.209892  0.560749  1
  Ho  Ho13  1  0.790371  0.209629  0.938850  1
  Ho  Ho14  1  0.790108  0.580537  0.939251  1
  Ho  Ho15  1  0.419463  0.209892  0.939251  1
  Ho  Ho16  1  0.209678  0.790322  0.061266  1
  Ho  Ho17  1  0.209946  0.419267  0.061365  1
  Ho  Ho18  1  0.580733  0.790054  0.061365  1
  Ho  Ho19  1  0.537460  0.462540  0.250000  1
  In  In20  1  0.884467  0.115533  0.250000  1
  In  In21  1  0.884290  0.768917  0.250000  1
  In  In22  1  0.231083  0.115710  0.250000  1
  In  In23  1  0.115523  0.884477  0.750000  1
  In  In24  1  0.115415  0.230813  0.750000  1
  In  In25  1  0.769187  0.884585  0.750000  1
  Os  Os26  1  0.333622  0.666378  0.250000  1
  Os  Os27  1  0.666505  0.333495  0.750000  1
