# generated using pymatgen
data_Nd12OsPt3
_symmetry_space_group_name_H-M   'P 1'
_cell_length_a   7.36329306
_cell_length_b   9.92624100
_cell_length_c   6.62844506
_cell_angle_alpha   90.00000000
_cell_angle_beta   90.01518128
_cell_angle_gamma   90.00000000
_symmetry_Int_Tables_number   1
_chemical_formula_structural   Nd12OsPt3
_chemical_formula_sum   'Nd12 Os1 Pt3'
_cell_volume   484.47184920
_cell_formula_units_Z   1
loop_
 _symmetry_equiv_pos_site_id
 _symmetry_equiv_pos_as_xyz
  1  'x, y, z'
loop_
 _atom_site_type_symbol
 _atom_site_label
 _atom_site_symmetry_multiplicity
 _atom_site_fract_x
 _atom_site_fract_y
 _atom_site_fract_z
 _atom_site_occupancy
  Nd  Nd0  1  0.969484  0.750000  0.137221  1
  Nd  Nd1  1  0.673437  0.065836  0.169916  1
  Nd  Nd2  1  0.673437  0.434165  0.169916  1
  Nd  Nd3  1  0.180047  0.064653  0.323607  1
  Nd  Nd4  1  0.180047  0.435348  0.323607  1
  Nd  Nd5  1  0.470611  0.750000  0.365314  1
  Nd  Nd6  1  0.527775  0.250000  0.640276  1
  Nd  Nd7  1  0.823159  0.562536  0.668417  1
  Nd  Nd8  1  0.823159  0.937464  0.668417  1
  Nd  Nd9  1  0.321469  0.558273  0.831228  1
  Nd  Nd10  1  0.321469  0.941727  0.831228  1
  Nd  Nd11  1  0.037679  0.250000  0.868181  1
  Os  Os12  1  0.382466  0.250000  0.060666  1
  Pt  Pt13  1  0.883548  0.250000  0.441085  1
  Pt  Pt14  1  0.117402  0.750000  0.566849  1
  Pt  Pt15  1  0.614810  0.750000  0.934071  1
