# generated using pymatgen
data_Zn20IrPd2Au3
_symmetry_space_group_name_H-M   'P 1'
_cell_length_a   8.01953437
_cell_length_b   8.01953358
_cell_length_c   7.98237517
_cell_angle_alpha   70.68020493
_cell_angle_beta   70.68021154
_cell_angle_gamma   109.47061452
_symmetry_Int_Tables_number   1
_chemical_formula_structural   Zn20IrPd2Au3
_chemical_formula_sum   'Zn20 Ir1 Pd2 Au3'
_cell_volume   396.66479377
_cell_formula_units_Z   1
loop_
 _symmetry_equiv_pos_site_id
 _symmetry_equiv_pos_as_xyz
  1  'x, y, z'
loop_
 _atom_site_type_symbol
 _atom_site_label
 _atom_site_symmetry_multiplicity
 _atom_site_fract_x
 _atom_site_fract_y
 _atom_site_fract_z
 _atom_site_occupancy
  Zn  Zn0  1  0.007496  0.007496  0.788344  1
  Zn  Zn1  1  0.768865  0.768865  0.225933  1
  Zn  Zn2  1  0.219997  0.003439  0.988071  1
  Zn  Zn3  1  0.003439  0.219997  0.988071  1
  Zn  Zn4  1  0.274131  0.274131  0.387103  1
  Zn  Zn5  1  0.001276  0.722070  0.656170  1
  Zn  Zn6  1  0.722070  0.001276  0.656170  1
  Zn  Zn7  1  0.646282  0.646282  0.630330  1
  Zn  Zn8  1  0.378871  0.644537  0.356684  1
  Zn  Zn9  1  0.644537  0.378871  0.356684  1
  Zn  Zn10  1  0.349137  0.728343  0.997579  1
  Zn  Zn11  1  0.609145  0.261066  0.738342  1
  Zn  Zn12  1  0.355467  0.005660  0.267623  1
  Zn  Zn13  1  0.728343  0.349137  0.997579  1
  Zn  Zn14  1  0.005660  0.355467  0.267623  1
  Zn  Zn15  1  0.261066  0.609145  0.738342  1
  Zn  Zn16  1  0.654130  0.654130  0.979494  1
  Zn  Zn17  1  0.017478  0.661578  0.337168  1
  Zn  Zn18  1  0.661578  0.017478  0.337168  1
  Zn  Zn19  1  0.357714  0.357714  0.006412  1
  Ir  Ir20  1  0.353594  0.353594  0.661315  1
  Pd  Pd21  1  0.643484  0.985324  0.015360  1
  Pd  Pd22  1  0.985324  0.643484  0.015360  1
  Au  Au23  1  0.989477  0.364525  0.626521  1
  Au  Au24  1  0.364525  0.989477  0.626521  1
  Au  Au25  1  0.996910  0.996910  0.354040  1
