# generated using pymatgen
data_Dy12InCo5
_symmetry_space_group_name_H-M   'P 1'
_cell_length_a   8.30249048
_cell_length_b   8.30249094
_cell_length_c   8.30249038
_cell_angle_alpha   110.70043039
_cell_angle_beta   110.64934482
_cell_angle_gamma   107.08981737
_symmetry_Int_Tables_number   1
_chemical_formula_structural   Dy12InCo5
_chemical_formula_sum   'Dy12 In1 Co5'
_cell_volume   439.99027243
_cell_formula_units_Z   1
loop_
 _symmetry_equiv_pos_site_id
 _symmetry_equiv_pos_as_xyz
  1  'x, y, z'
loop_
 _atom_site_type_symbol
 _atom_site_label
 _atom_site_symmetry_multiplicity
 _atom_site_fract_x
 _atom_site_fract_y
 _atom_site_fract_z
 _atom_site_occupancy
  Dy  Dy0  1  0.813969  0.706339  0.520308  1
  Dy  Dy1  1  0.186031  0.293661  0.479692  1
  Dy  Dy2  1  0.186031  0.706339  0.892369  1
  Dy  Dy3  1  0.813969  0.293661  0.107631  1
  Dy  Dy4  1  0.685280  0.379660  0.694381  1
  Dy  Dy5  1  0.314720  0.620340  0.305619  1
  Dy  Dy6  1  0.685280  0.990899  0.305619  1
  Dy  Dy7  1  0.314720  0.009101  0.694381  1
  Dy  Dy8  1  0.600595  0.792277  0.808319  1
  Dy  Dy9  1  0.399405  0.207723  0.191681  1
  Dy  Dy10  1  0.983958  0.792277  0.191681  1
  Dy  Dy11  1  0.016042  0.207723  0.808319  1
  In  In12  1  0.500000  0.500000  0.000000  1
  Co  Co13  1  0.620923  0.000000  0.620923  1
  Co  Co14  1  0.379077  0.000000  0.379077  1
  Co  Co15  1  0.112351  0.612351  0.500000  1
  Co  Co16  1  0.887649  0.387649  0.500000  1
  Co  Co17  1  0.000000  0.000000  0.000000  1
