# generated using pymatgen
data_La2Al16Ir5Pt4
_symmetry_space_group_name_H-M   'P 1'
_cell_length_a   11.18832280
_cell_length_b   11.15955409
_cell_length_c   11.15955472
_cell_angle_alpha   158.37457660
_cell_angle_beta   116.61236854
_cell_angle_gamma   67.80585794
_symmetry_Int_Tables_number   1
_chemical_formula_structural   La2Al16Ir5Pt4
_chemical_formula_sum   'La2 Al16 Ir5 Pt4'
_cell_volume   455.92423958
_cell_formula_units_Z   1
loop_
 _symmetry_equiv_pos_site_id
 _symmetry_equiv_pos_as_xyz
  1  'x, y, z'
loop_
 _atom_site_type_symbol
 _atom_site_label
 _atom_site_symmetry_multiplicity
 _atom_site_fract_x
 _atom_site_fract_y
 _atom_site_fract_z
 _atom_site_occupancy
  La  La0  1  0.227364  0.229005  0.998358  1
  La  La1  1  0.774113  0.771492  0.002621  1
  Al  Al2  1  0.275348  0.397415  0.877932  1
  Al  Al3  1  0.092787  0.919403  0.173384  1
  Al  Al4  1  0.513087  0.203691  0.309395  1
  Al  Al5  1  0.253269  0.078825  0.174444  1
  Al  Al6  1  0.920610  0.418001  0.502610  1
  Al  Al7  1  0.719650  0.602264  0.117387  1
  Al  Al8  1  0.896656  0.204957  0.691699  1
  Al  Al9  1  0.490827  0.795115  0.695712  1
  Al  Al10  1  0.383346  0.001873  0.381474  1
  Al  Al11  1  0.620690  0.002146  0.618544  1
  Al  Al12  1  0.484986  0.601682  0.883304  1
  Al  Al13  1  0.095444  0.795332  0.300112  1
  Al  Al14  1  0.904294  0.078469  0.825825  1
  Al  Al15  1  0.749101  0.922041  0.827060  1
  Al  Al16  1  0.517417  0.398598  0.118819  1
  Al  Al17  1  0.081453  0.580210  0.501243  1
  Ir  Ir18  1  0.762278  0.499628  0.262650  1
  Ir  Ir19  1  0.029285  0.340723  0.688562  1
  Ir  Ir20  1  0.621682  0.121790  0.499893  1
  Ir  Ir21  1  0.235541  0.500621  0.734920  1
  Ir  Ir22  1  0.001612  0.000714  0.000898  1
  Pt  Pt23  1  0.377338  0.877062  0.500276  1
  Pt  Pt24  1  0.651560  0.340404  0.311156  1
  Pt  Pt25  1  0.347972  0.659600  0.688372  1
  Pt  Pt26  1  0.972291  0.658940  0.313351  1
