# generated using pymatgen
data_Er8Tm12(Ir3Ru)3
_symmetry_space_group_name_H-M   'P 1'
_cell_length_a   10.71535400
_cell_length_b   10.71535400
_cell_length_c   6.35607800
_cell_angle_alpha   90.00000000
_cell_angle_beta   90.00000000
_cell_angle_gamma   90.00000000
_symmetry_Int_Tables_number   1
_chemical_formula_structural   Er8Tm12(Ir3Ru)3
_chemical_formula_sum   'Er8 Tm12 Ir9 Ru3'
_cell_volume   729.79732078
_cell_formula_units_Z   1
loop_
 _symmetry_equiv_pos_site_id
 _symmetry_equiv_pos_as_xyz
  1  'x, y, z'
loop_
 _atom_site_type_symbol
 _atom_site_label
 _atom_site_symmetry_multiplicity
 _atom_site_fract_x
 _atom_site_fract_y
 _atom_site_fract_z
 _atom_site_occupancy
  Er  Er0  1  0.293232  0.086423  0.376462  1
  Er  Er1  1  0.293248  0.913715  0.876726  1
  Er  Er2  1  0.706752  0.086285  0.876726  1
  Er  Er3  1  0.706768  0.913577  0.376462  1
  Er  Er4  1  0.586285  0.793248  0.876726  1
  Er  Er5  1  0.586423  0.206768  0.376462  1
  Er  Er6  1  0.413577  0.793232  0.376462  1
  Er  Er7  1  0.413715  0.206752  0.876726  1
  Tm  Tm8  1  0.207832  0.413162  0.624520  1
  Tm  Tm9  1  0.207630  0.586813  0.121775  1
  Tm  Tm10  1  0.792370  0.413187  0.121775  1
  Tm  Tm11  1  0.792168  0.586838  0.624520  1
  Tm  Tm12  1  0.913187  0.707630  0.121775  1
  Tm  Tm13  1  0.913162  0.292168  0.624520  1
  Tm  Tm14  1  0.086838  0.707832  0.624520  1
  Tm  Tm15  1  0.086813  0.292370  0.121775  1
  Tm  Tm16  1  0.000000  0.000000  0.499856  1
  Tm  Tm17  1  0.000000  0.000000  0.999843  1
  Tm  Tm18  1  0.500000  0.500000  0.999843  1
  Tm  Tm19  1  0.500000  0.500000  0.499856  1
  Ir  Ir20  1  0.847889  0.153108  0.250353  1
  Ir  Ir21  1  0.847684  0.846903  0.749956  1
  Ir  Ir22  1  0.152316  0.153097  0.749956  1
  Ir  Ir23  1  0.152111  0.846892  0.250353  1
  Ir  Ir24  1  0.653097  0.347684  0.749956  1
  Ir  Ir25  1  0.653108  0.652111  0.250353  1
  Ir  Ir26  1  0.346892  0.347889  0.250353  1
  Ir  Ir27  1  0.346903  0.652316  0.749956  1
  Ir  Ir28  1  0.000000  0.500000  0.377987  1
  Ru  Ru29  1  0.500000  0.000000  0.122817  1
  Ru  Ru30  1  0.500000  0.000000  0.622825  1
  Ru  Ru31  1  0.000000  0.500000  0.877798  1
