# generated using pymatgen
data_Dy4TcAsO12
_symmetry_space_group_name_H-M   'P 1'
_cell_length_a   9.98874648
_cell_length_b   9.98874658
_cell_length_c   5.38102581
_cell_angle_alpha   74.24117704
_cell_angle_beta   74.24117088
_cell_angle_gamma   68.44617578
_symmetry_Int_Tables_number   1
_chemical_formula_structural   Dy4TcAsO12
_chemical_formula_sum   'Dy8 Tc2 As2 O24'
_cell_volume   471.64384539
_cell_formula_units_Z   2
loop_
 _symmetry_equiv_pos_site_id
 _symmetry_equiv_pos_as_xyz
  1  'x, y, z'
loop_
 _atom_site_type_symbol
 _atom_site_label
 _atom_site_symmetry_multiplicity
 _atom_site_fract_x
 _atom_site_fract_y
 _atom_site_fract_z
 _atom_site_occupancy
  Dy  Dy0  1  0.939072  0.716891  0.391946  1
  Dy  Dy1  1  0.716891  0.939072  0.891946  1
  Dy  Dy2  1  0.379663  0.647619  0.216640  1
  Dy  Dy3  1  0.896024  0.106445  0.245139  1
  Dy  Dy4  1  0.106445  0.896024  0.745139  1
  Dy  Dy5  1  0.647619  0.379663  0.716640  1
  Dy  Dy6  1  0.282346  0.044175  0.134965  1
  Dy  Dy7  1  0.044175  0.282346  0.634965  1
  Tc  Tc8  1  0.493359  0.205402  0.454187  1
  Tc  Tc9  1  0.205402  0.493359  0.954187  1
  As  As10  1  0.789821  0.533637  0.062689  1
  As  As11  1  0.533637  0.789821  0.562689  1
  O  O12  1  0.890251  0.924270  0.086028  1
  O  O13  1  0.924270  0.890251  0.586028  1
  O  O14  1  0.515337  0.920908  0.277267  1
  O  O15  1  0.791609  0.691134  0.136273  1
  O  O16  1  0.920908  0.515337  0.777267  1
  O  O17  1  0.691134  0.791609  0.636273  1
  O  O18  1  0.824988  0.393437  0.335043  1
  O  O19  1  0.393437  0.824988  0.835043  1
  O  O20  1  0.624511  0.540257  0.003430  1
  O  O21  1  0.267655  0.838410  0.379409  1
  O  O22  1  0.540257  0.624511  0.503430  1
  O  O23  1  0.838410  0.267655  0.879409  1
  O  O24  1  0.163906  0.686753  0.075154  1
  O  O25  1  0.451890  0.390434  0.478720  1
  O  O26  1  0.686753  0.163906  0.575154  1
  O  O27  1  0.390434  0.451890  0.978720  1
  O  O28  1  0.606174  0.171518  0.145293  1
  O  O29  1  0.171518  0.606174  0.645293  1
  O  O30  1  0.326449  0.205560  0.389710  1
  O  O31  1  0.080160  0.472151  0.268525  1
  O  O32  1  0.205560  0.326449  0.889710  1
  O  O33  1  0.472151  0.080160  0.768525  1
  O  O34  1  0.072661  0.115122  0.419582  1
  O  O35  1  0.115122  0.072661  0.919582  1
