# generated using pymatgen
data_CsOsCl6
_symmetry_space_group_name_H-M   'P 1'
_cell_length_a   7.08016607
_cell_length_b   7.08015267
_cell_length_c   12.74067343
_cell_angle_alpha   78.92208190
_cell_angle_beta   78.92219331
_cell_angle_gamma   55.95935959
_symmetry_Int_Tables_number   1
_chemical_formula_structural   CsOsCl6
_chemical_formula_sum   'Cs2 Os2 Cl12'
_cell_volume   516.55197541
_cell_formula_units_Z   2
loop_
 _symmetry_equiv_pos_site_id
 _symmetry_equiv_pos_as_xyz
  1  'x, y, z'
loop_
 _atom_site_type_symbol
 _atom_site_label
 _atom_site_symmetry_multiplicity
 _atom_site_fract_x
 _atom_site_fract_y
 _atom_site_fract_z
 _atom_site_occupancy
  Cs  Cs0  1  0.114552  0.885448  0.250001  1
  Cs  Cs1  1  0.885448  0.114552  0.749999  1
  Os  Os2  1  0.000000  0.500000  0.000000  1
  Os  Os3  1  0.500000  0.000000  0.500000  1
  Cl  Cl4  1  0.190853  0.376075  0.152660  1
  Cl  Cl5  1  0.623924  0.809146  0.347340  1
  Cl  Cl6  1  0.809147  0.623925  0.847340  1
  Cl  Cl7  1  0.376076  0.190854  0.652660  1
  Cl  Cl8  1  0.804091  0.876553  0.039230  1
  Cl  Cl9  1  0.123447  0.195909  0.460770  1
  Cl  Cl10  1  0.195909  0.123447  0.960770  1
  Cl  Cl11  1  0.876553  0.804091  0.539230  1
  Cl  Cl12  1  0.710971  0.460311  0.101247  1
  Cl  Cl13  1  0.539688  0.289030  0.398753  1
  Cl  Cl14  1  0.289029  0.539689  0.898753  1
  Cl  Cl15  1  0.460312  0.710970  0.601247  1
