# generated using pymatgen
data_Gd10Mg3InRu6
_symmetry_space_group_name_H-M   'P 1'
_cell_length_a   8.53318053
_cell_length_b   8.53264998
_cell_length_c   8.53318000
_cell_angle_alpha   109.46995530
_cell_angle_beta   109.47248469
_cell_angle_gamma   109.46996440
_symmetry_Int_Tables_number   1
_chemical_formula_structural   Gd10Mg3InRu6
_chemical_formula_sum   'Gd10 Mg3 In1 Ru6'
_cell_volume   478.28925043
_cell_formula_units_Z   1
loop_
 _symmetry_equiv_pos_site_id
 _symmetry_equiv_pos_as_xyz
  1  'x, y, z'
loop_
 _atom_site_type_symbol
 _atom_site_label
 _atom_site_symmetry_multiplicity
 _atom_site_fract_x
 _atom_site_fract_y
 _atom_site_fract_z
 _atom_site_occupancy
  Gd  Gd0  1  0.247648  0.677042  0.428370  1
  Gd  Gd1  1  0.750504  0.822887  0.071556  1
  Gd  Gd2  1  0.428444  0.251331  0.678948  1
  Gd  Gd3  1  0.680722  0.429394  0.252352  1
  Gd  Gd4  1  0.071630  0.748673  0.819278  1
  Gd  Gd5  1  0.821052  0.072383  0.749496  1
  Gd  Gd6  1  0.210653  0.210837  0.210249  1
  Gd  Gd7  1  0.499596  0.000184  0.289347  1
  Gd  Gd8  1  0.289751  0.500589  0.000404  1
  Gd  Gd9  1  0.000000  0.288510  0.500000  1
  Mg  Mg10  1  0.595199  0.595615  0.595743  1
  Mg  Mg11  1  0.500544  0.000416  0.904801  1
  Mg  Mg12  1  0.904257  0.499872  0.999456  1
  In  In13  1  0.000000  0.902678  0.500000  1
  Ru  Ru14  1  0.252990  0.136594  0.887628  1
  Ru  Ru15  1  0.750328  0.365346  0.615291  1
  Ru  Ru16  1  0.884708  0.250054  0.135037  1
  Ru  Ru17  1  0.134639  0.883604  0.247010  1
  Ru  Ru18  1  0.612372  0.748967  0.365361  1
  Ru  Ru19  1  0.364963  0.615019  0.749672  1
