# generated using pymatgen
data_Y3TmFe2(Co2B)6
_symmetry_space_group_name_H-M   'P 1'
_cell_length_a   5.05982700
_cell_length_b   5.05982699
_cell_length_c   12.63219400
_cell_angle_alpha   90.00000000
_cell_angle_beta   90.00000000
_cell_angle_gamma   119.99999352
_symmetry_Int_Tables_number   1
_chemical_formula_structural   Y3TmFe2(Co2B)6
_chemical_formula_sum   'Y3 Tm1 Fe2 Co12 B6'
_cell_volume   280.07915178
_cell_formula_units_Z   1
loop_
 _symmetry_equiv_pos_site_id
 _symmetry_equiv_pos_as_xyz
  1  'x, y, z'
loop_
 _atom_site_type_symbol
 _atom_site_label
 _atom_site_symmetry_multiplicity
 _atom_site_fract_x
 _atom_site_fract_y
 _atom_site_fract_z
 _atom_site_occupancy
  Y  Y0  1  0.000000  0.000000  0.000000  1
  Y  Y1  1  0.000000  0.000000  0.739089  1
  Y  Y2  1  0.000000  0.000000  0.260911  1
  Tm  Tm3  1  0.000000  0.000000  0.500000  1
  Fe  Fe4  1  0.666667  0.333333  0.000000  1
  Fe  Fe5  1  0.333333  0.666667  0.000000  1
  Co  Co6  1  0.500000  0.500000  0.844750  1
  Co  Co7  1  0.500000  0.000000  0.844750  1
  Co  Co8  1  0.000000  0.500000  0.844750  1
  Co  Co9  1  0.500000  0.500000  0.155250  1
  Co  Co10  1  0.500000  0.000000  0.155250  1
  Co  Co11  1  0.000000  0.500000  0.155250  1
  Co  Co12  1  0.500000  0.500000  0.614733  1
  Co  Co13  1  0.500000  0.000000  0.614733  1
  Co  Co14  1  0.000000  0.500000  0.614733  1
  Co  Co15  1  0.500000  0.500000  0.385267  1
  Co  Co16  1  0.500000  0.000000  0.385267  1
  Co  Co17  1  0.000000  0.500000  0.385267  1
  B  B18  1  0.666667  0.333333  0.500000  1
  B  B19  1  0.333333  0.666667  0.500000  1
  B  B20  1  0.666667  0.333333  0.731648  1
  B  B21  1  0.333333  0.666667  0.731648  1
  B  B22  1  0.333333  0.666667  0.268352  1
  B  B23  1  0.666667  0.333333  0.268352  1
