# generated using pymatgen
data_ScTc3P4RuRh2
_symmetry_space_group_name_H-M   'P 1'
_cell_length_a   6.99746100
_cell_length_b   6.93123018
_cell_length_c   3.72752800
_cell_angle_alpha   90.00000000
_cell_angle_beta   90.00000000
_cell_angle_gamma   120.32069195
_symmetry_Int_Tables_number   1
_chemical_formula_structural   ScTc3P4RuRh2
_chemical_formula_sum   'Sc1 Tc3 P4 Ru1 Rh2'
_cell_volume   156.05936652
_cell_formula_units_Z   1
loop_
 _symmetry_equiv_pos_site_id
 _symmetry_equiv_pos_as_xyz
  1  'x, y, z'
loop_
 _atom_site_type_symbol
 _atom_site_label
 _atom_site_symmetry_multiplicity
 _atom_site_fract_x
 _atom_site_fract_y
 _atom_site_fract_z
 _atom_site_occupancy
  Sc  Sc0  1  0.998504  0.997164  0.000000  1
  Tc  Tc1  1  0.466567  0.931209  0.000000  1
  Tc  Tc2  1  0.463567  0.535629  0.000000  1
  Tc  Tc3  1  0.071990  0.537658  0.000000  1
  P  P4  1  0.670884  0.341863  0.000000  1
  P  P5  1  0.190987  0.381110  0.500000  1
  P  P6  1  0.184655  0.807329  0.500000  1
  P  P7  1  0.622580  0.807967  0.500000  1
  Ru  Ru8  1  0.803215  0.607387  0.500000  1
  Rh  Rh9  1  0.809297  0.193464  0.500000  1
  Rh  Rh10  1  0.384421  0.192553  0.500000  1
