# generated using pymatgen
data_Al7Si(IrRu)4
_symmetry_space_group_name_H-M   'P 1'
_cell_length_a   6.00460814
_cell_length_b   4.22775800
_cell_length_c   8.46134720
_cell_angle_alpha   90.00000000
_cell_angle_beta   90.02464553
_cell_angle_gamma   90.00000000
_symmetry_Int_Tables_number   1
_chemical_formula_structural   Al7Si(IrRu)4
_chemical_formula_sum   'Al7 Si1 Ir4 Ru4'
_cell_volume   214.79999469
_cell_formula_units_Z   1
loop_
 _symmetry_equiv_pos_site_id
 _symmetry_equiv_pos_as_xyz
  1  'x, y, z'
loop_
 _atom_site_type_symbol
 _atom_site_label
 _atom_site_symmetry_multiplicity
 _atom_site_fract_x
 _atom_site_fract_y
 _atom_site_fract_z
 _atom_site_occupancy
  Al  Al0  1  0.500615  0.749999  0.124896  1
  Al  Al1  1  0.999907  0.250001  0.380175  1
  Al  Al2  1  0.500103  0.250001  0.373504  1
  Al  Al3  1  0.499301  0.749999  0.625111  1
  Al  Al4  1  0.999693  0.749999  0.625104  1
  Al  Al5  1  0.500187  0.250001  0.876467  1
  Al  Al6  1  0.999847  0.250001  0.869829  1
  Si  Si7  1  0.000472  0.749999  0.124911  1
  Ir  Ir8  1  0.756431  0.250001  0.125066  1
  Ir  Ir9  1  0.247575  0.749999  0.370147  1
  Ir  Ir10  1  0.748251  0.250001  0.624929  1
  Ir  Ir11  1  0.247571  0.749999  0.879837  1
  Ru  Ru12  1  0.240622  0.250001  0.125101  1
  Ru  Ru13  1  0.753923  0.749999  0.369059  1
  Ru  Ru14  1  0.251592  0.250001  0.624925  1
  Ru  Ru15  1  0.753910  0.749999  0.880936  1
