# generated using pymatgen
data_Tb2Er3Tm5(CoSb2)2
_symmetry_space_group_name_H-M   'P 1'
_cell_length_a   7.79645400
_cell_length_b   8.74627200
_cell_length_c   12.06111900
_cell_angle_alpha   90.00000000
_cell_angle_beta   90.00000000
_cell_angle_gamma   90.00000000
_symmetry_Int_Tables_number   1
_chemical_formula_structural   Tb2Er3Tm5(CoSb2)2
_chemical_formula_sum   'Tb4 Er6 Tm10 Co4 Sb8'
_cell_volume   822.44658678
_cell_formula_units_Z   2
loop_
 _symmetry_equiv_pos_site_id
 _symmetry_equiv_pos_as_xyz
  1  'x, y, z'
loop_
 _atom_site_type_symbol
 _atom_site_label
 _atom_site_symmetry_multiplicity
 _atom_site_fract_x
 _atom_site_fract_y
 _atom_site_fract_z
 _atom_site_occupancy
  Tb  Tb0  1  0.621873  0.750000  0.306616  1
  Tb  Tb1  1  0.121873  0.250000  0.193384  1
  Tb  Tb2  1  0.378111  0.250000  0.693407  1
  Tb  Tb3  1  0.878111  0.750000  0.806593  1
  Er  Er4  1  0.154742  0.750000  0.203504  1
  Er  Er5  1  0.654742  0.250000  0.296496  1
  Er  Er6  1  0.845091  0.250000  0.796570  1
  Er  Er7  1  0.345091  0.750000  0.703430  1
  Er  Er8  1  0.450421  0.750000  0.997698  1
  Er  Er9  1  0.950421  0.250000  0.502302  1
  Tm  Tm10  1  0.549775  0.250000  0.002277  1
  Tm  Tm11  1  0.049775  0.750000  0.497723  1
  Tm  Tm12  1  0.822975  0.963530  0.064984  1
  Tm  Tm13  1  0.322975  0.036470  0.435016  1
  Tm  Tm14  1  0.176993  0.463291  0.934986  1
  Tm  Tm15  1  0.676993  0.536709  0.565014  1
  Tm  Tm16  1  0.176993  0.036709  0.934986  1
  Tm  Tm17  1  0.676993  0.963291  0.565014  1
  Tm  Tm18  1  0.822975  0.536470  0.064984  1
  Tm  Tm19  1  0.322975  0.463530  0.435016  1
  Co  Co20  1  0.431959  0.750000  0.490836  1
  Co  Co21  1  0.931959  0.250000  0.009164  1
  Co  Co22  1  0.567872  0.250000  0.509162  1
  Co  Co23  1  0.067872  0.750000  0.990838  1
  Sb  Sb24  1  0.929608  0.991326  0.328365  1
  Sb  Sb25  1  0.429608  0.008674  0.171635  1
  Sb  Sb26  1  0.070502  0.491629  0.671612  1
  Sb  Sb27  1  0.570502  0.508371  0.828388  1
  Sb  Sb28  1  0.070502  0.008371  0.671612  1
  Sb  Sb29  1  0.570502  0.991629  0.828388  1
  Sb  Sb30  1  0.929608  0.508674  0.328365  1
  Sb  Sb31  1  0.429608  0.491326  0.171635  1
