# generated using pymatgen
data_Na4ErTaO6
_symmetry_space_group_name_H-M   'P 1'
_cell_length_a   5.65828062
_cell_length_b   5.65827560
_cell_length_c   5.82708600
_cell_angle_alpha   99.49746574
_cell_angle_beta   99.49709790
_cell_angle_gamma   119.90208481
_symmetry_Int_Tables_number   1
_chemical_formula_structural   Na4ErTaO6
_chemical_formula_sum   'Na4 Er1 Ta1 O6'
_cell_volume   152.69316472
_cell_formula_units_Z   1
loop_
 _symmetry_equiv_pos_site_id
 _symmetry_equiv_pos_as_xyz
  1  'x, y, z'
loop_
 _atom_site_type_symbol
 _atom_site_label
 _atom_site_symmetry_multiplicity
 _atom_site_fract_x
 _atom_site_fract_y
 _atom_site_fract_z
 _atom_site_occupancy
  Na  Na0  1  0.499409  0.500586  0.999995  1
  Na  Na1  1  0.008324  0.991693  0.500006  1
  Na  Na2  1  0.657898  0.342084  0.500001  1
  Na  Na3  1  0.337658  0.662350  0.500004  1
  Er  Er4  1  0.832794  0.167239  0.000017  1
  Ta  Ta5  1  0.167520  0.832490  0.999997  1
  O  O6  1  0.952134  0.598893  0.207464  1
  O  O7  1  0.216355  0.189719  0.212476  1
  O  O8  1  0.541743  0.925182  0.211744  1
  O  O9  1  0.074816  0.458254  0.788249  1
  O  O10  1  0.810277  0.783638  0.787526  1
  O  O11  1  0.401079  0.047876  0.792524  1
