# generated using pymatgen
data_SrPr3Pt4F28
_symmetry_space_group_name_H-M   'P 1'
_cell_length_a   5.72007628
_cell_length_b   9.28820320
_cell_length_c   12.46736031
_cell_angle_alpha   62.00568294
_cell_angle_beta   89.98711346
_cell_angle_gamma   90.13060372
_symmetry_Int_Tables_number   1
_chemical_formula_structural   SrPr3Pt4F28
_chemical_formula_sum   'Sr1 Pr3 Pt4 F28'
_cell_volume   584.87663494
_cell_formula_units_Z   1
loop_
 _symmetry_equiv_pos_site_id
 _symmetry_equiv_pos_as_xyz
  1  'x, y, z'
loop_
 _atom_site_type_symbol
 _atom_site_label
 _atom_site_symmetry_multiplicity
 _atom_site_fract_x
 _atom_site_fract_y
 _atom_site_fract_z
 _atom_site_occupancy
  Sr  Sr0  1  0.739064  0.815030  0.264138  1
  Pr  Pr1  1  0.760499  0.811424  0.765023  1
  Pr  Pr2  1  0.261587  0.188372  0.735627  1
  Pr  Pr3  1  0.236279  0.185190  0.235567  1
  Pt  Pt4  1  0.757690  0.276552  0.954129  1
  Pt  Pt5  1  0.258026  0.724069  0.547117  1
  Pt  Pt6  1  0.244513  0.725155  0.040178  1
  Pt  Pt7  1  0.743654  0.270744  0.459052  1
  F  F8  1  0.430378  0.708157  0.913190  1
  F  F9  1  0.933469  0.289633  0.583560  1
  F  F10  1  0.568747  0.296800  0.077198  1
  F  F11  1  0.077697  0.702776  0.423988  1
  F  F12  1  0.452930  0.279283  0.541388  1
  F  F13  1  0.950651  0.718504  0.958807  1
  F  F14  1  0.546831  0.713524  0.469772  1
  F  F15  1  0.047450  0.286369  0.035062  1
  F  F16  1  0.766571  0.516498  0.860215  1
  F  F17  1  0.264305  0.484998  0.642218  1
  F  F18  1  0.236376  0.486837  0.134138  1
  F  F19  1  0.737167  0.506047  0.365135  1
  F  F20  1  0.757059  0.040568  0.041168  1
  F  F21  1  0.259657  0.961995  0.456080  1
  F  F22  1  0.243346  0.964545  0.949618  1
  F  F23  1  0.741737  0.030932  0.551303  1
  F  F24  1  0.969489  0.728505  0.632312  1
  F  F25  1  0.471822  0.272812  0.867432  1
  F  F26  1  0.030751  0.269324  0.374001  1
  F  F27  1  0.531382  0.725934  0.122621  1
  F  F28  1  0.064896  0.737630  0.167475  1
  F  F29  1  0.555123  0.255979  0.333173  1
  F  F30  1  0.944005  0.260494  0.827090  1
  F  F31  1  0.439317  0.741830  0.674889  1
  F  F32  1  0.391590  0.973132  0.227810  1
  F  F33  1  0.901915  0.048996  0.269551  1
  F  F34  1  0.591972  0.032968  0.768576  1
  F  F35  1  0.092057  0.968397  0.731400  1
