# generated using pymatgen
data_Hf12AlRe6Ir5
_symmetry_space_group_name_H-M   'P 1'
_cell_length_a   4.62692400
_cell_length_b   6.54082600
_cell_length_c   13.92345100
_cell_angle_alpha   90.00000000
_cell_angle_beta   89.99990513
_cell_angle_gamma   90.00000000
_symmetry_Int_Tables_number   1
_chemical_formula_structural   Hf12AlRe6Ir5
_chemical_formula_sum   'Hf12 Al1 Re6 Ir5'
_cell_volume   421.37799554
_cell_formula_units_Z   1
loop_
 _symmetry_equiv_pos_site_id
 _symmetry_equiv_pos_as_xyz
  1  'x, y, z'
loop_
 _atom_site_type_symbol
 _atom_site_label
 _atom_site_symmetry_multiplicity
 _atom_site_fract_x
 _atom_site_fract_y
 _atom_site_fract_z
 _atom_site_occupancy
  Hf  Hf0  1  0.500000  0.253750  0.000001  1
  Hf  Hf1  1  0.500000  0.746250  0.000001  1
  Hf  Hf2  1  0.999989  0.252215  0.168652  1
  Hf  Hf3  1  0.999989  0.747785  0.168652  1
  Hf  Hf4  1  0.499989  0.249940  0.333809  1
  Hf  Hf5  1  0.499989  0.750059  0.333809  1
  Hf  Hf6  1  0.000000  0.249164  0.499998  1
  Hf  Hf7  1  0.000000  0.750835  0.499998  1
  Hf  Hf8  1  0.500015  0.249942  0.666194  1
  Hf  Hf9  1  0.500015  0.750057  0.666194  1
  Hf  Hf10  1  0.000007  0.252215  0.831349  1
  Hf  Hf11  1  0.000007  0.747785  0.831349  1
  Al  Al12  1  0.000000  0.000000  0.000000  1
  Re  Re13  1  0.999999  0.500001  0.999995  1
  Re  Re14  1  0.499994  0.000000  0.163665  1
  Re  Re15  1  0.999988  0.500001  0.333893  1
  Re  Re16  1  0.499997  0.000000  0.500001  1
  Re  Re17  1  0.000016  0.500001  0.666105  1
  Re  Re18  1  0.500005  0.000000  0.836335  1
  Ir  Ir19  1  0.499993  0.500001  0.167673  1
  Ir  Ir20  1  0.999988  0.000000  0.333290  1
  Ir  Ir21  1  0.500000  0.500001  0.500001  1
  Ir  Ir22  1  0.000015  0.000000  0.666710  1
  Ir  Ir23  1  0.500005  0.500001  0.832326  1
