# generated using pymatgen
data_Dy9Ho(RuRh)2
_symmetry_space_group_name_H-M   'P 1'
_cell_length_a   6.37357762
_cell_length_b   7.25828387
_cell_length_c   8.52812539
_cell_angle_alpha   96.67701733
_cell_angle_beta   111.94274709
_cell_angle_gamma   90.00000022
_symmetry_Int_Tables_number   1
_chemical_formula_structural   Dy9Ho(RuRh)2
_chemical_formula_sum   'Dy9 Ho1 Ru2 Rh2'
_cell_volume   363.05508970
_cell_formula_units_Z   1
loop_
 _symmetry_equiv_pos_site_id
 _symmetry_equiv_pos_as_xyz
  1  'x, y, z'
loop_
 _atom_site_type_symbol
 _atom_site_label
 _atom_site_symmetry_multiplicity
 _atom_site_fract_x
 _atom_site_fract_y
 _atom_site_fract_z
 _atom_site_occupancy
  Dy  Dy0  1  0.980856  0.917817  0.188019  1
  Dy  Dy1  1  0.792837  0.582183  0.811981  1
  Dy  Dy2  1  0.023564  0.085429  0.814288  1
  Dy  Dy3  1  0.209277  0.414571  0.185712  1
  Dy  Dy4  1  0.641624  0.815555  0.434216  1
  Dy  Dy5  1  0.207407  0.684445  0.565784  1
  Dy  Dy6  1  0.356151  0.187465  0.563429  1
  Dy  Dy7  1  0.792724  0.312535  0.436571  1
  Dy  Dy8  1  0.419706  0.750000  0.000000  1
  Ho  Ho9  1  0.577339  0.250000  0.000000  1
  Ru  Ru10  1  0.177284  0.425068  0.779545  1
  Ru  Ru11  1  0.397737  0.074932  0.220455  1
  Rh  Rh12  1  0.822266  0.576140  0.221040  1
  Rh  Rh13  1  0.601227  0.923860  0.778960  1
