# generated using pymatgen
data_Pm2Cu3Si
_symmetry_space_group_name_H-M   'P 1'
_cell_length_a   5.73603205
_cell_length_b   5.73613072
_cell_length_c   5.73613081
_cell_angle_alpha   137.23259104
_cell_angle_beta   98.90998291
_cell_angle_gamma   96.37329865
_symmetry_Int_Tables_number   1
_chemical_formula_structural   Pm2Cu3Si
_chemical_formula_sum   'Pm2 Cu3 Si1'
_cell_volume   119.29399346
_cell_formula_units_Z   1
loop_
 _symmetry_equiv_pos_site_id
 _symmetry_equiv_pos_as_xyz
  1  'x, y, z'
loop_
 _atom_site_type_symbol
 _atom_site_label
 _atom_site_symmetry_multiplicity
 _atom_site_fract_x
 _atom_site_fract_y
 _atom_site_fract_z
 _atom_site_occupancy
  Pm  Pm0  1  0.007068  0.006545  0.000523  1
  Pm  Pm1  1  0.493974  0.493455  0.000520  1
  Cu  Cu2  1  0.086317  0.750010  0.336310  1
  Cu  Cu3  1  0.902655  0.249984  0.652671  1
  Cu  Cu4  1  0.426978  0.750025  0.676954  1
  Si  Si5  1  0.583009  0.249985  0.333023  1
