# generated using pymatgen
data_Lu8Ta8Nb3Si16Mo
_symmetry_space_group_name_H-M   'P 1'
_cell_length_a   6.78370318
_cell_length_b   6.98607593
_cell_length_c   13.24081524
_cell_angle_alpha   90.03280805
_cell_angle_beta   89.94167848
_cell_angle_gamma   89.91543237
_symmetry_Int_Tables_number   1
_chemical_formula_structural   Lu8Ta8Nb3Si16Mo
_chemical_formula_sum   'Lu8 Ta8 Nb3 Si16 Mo1'
_cell_volume   627.50052671
_cell_formula_units_Z   1
loop_
 _symmetry_equiv_pos_site_id
 _symmetry_equiv_pos_as_xyz
  1  'x, y, z'
loop_
 _atom_site_type_symbol
 _atom_site_label
 _atom_site_symmetry_multiplicity
 _atom_site_fract_x
 _atom_site_fract_y
 _atom_site_fract_z
 _atom_site_occupancy
  Lu  Lu0  1  0.502487  0.328128  0.095519  1
  Lu  Lu1  1  0.000761  0.172789  0.404615  1
  Lu  Lu2  1  0.497523  0.673153  0.594990  1
  Lu  Lu3  1  0.998381  0.828201  0.904520  1
  Lu  Lu4  1  0.498106  0.672150  0.904143  1
  Lu  Lu5  1  0.998755  0.827548  0.595264  1
  Lu  Lu6  1  0.501950  0.328143  0.405824  1
  Lu  Lu7  1  0.002247  0.172723  0.095632  1
  Ta  Ta8  1  0.661667  0.826739  0.375379  1
  Ta  Ta9  1  0.166220  0.674330  0.376305  1
  Ta  Ta10  1  0.663545  0.825954  0.125495  1
  Ta  Ta11  1  0.836448  0.325623  0.873294  1
  Ta  Ta12  1  0.660985  0.007708  0.749005  1
  Ta  Ta13  1  0.160282  0.492384  0.749344  1
  Ta  Ta14  1  0.339298  0.993883  0.250637  1
  Ta  Ta15  1  0.838321  0.507437  0.250314  1
  Nb  Nb16  1  0.837805  0.326107  0.624233  1
  Nb  Nb17  1  0.337215  0.174356  0.873765  1
  Nb  Nb18  1  0.164106  0.673896  0.125192  1
  Si  Si19  1  0.661891  0.035885  0.541943  1
  Si  Si20  1  0.164528  0.464801  0.958489  1
  Si  Si21  1  0.335286  0.965385  0.041180  1
  Si  Si22  1  0.835106  0.535649  0.458709  1
  Si  Si23  1  0.332989  0.966361  0.461073  1
  Si  Si24  1  0.834237  0.535114  0.040553  1
  Si  Si25  1  0.665340  0.035139  0.959320  1
  Si  Si26  1  0.167346  0.460224  0.542166  1
  Si  Si27  1  0.537570  0.378958  0.747728  1
  Si  Si28  1  0.041710  0.119732  0.748709  1
  Si  Si29  1  0.461338  0.618920  0.250289  1
  Si  Si30  1  0.961043  0.880016  0.250474  1
  Si  Si31  1  0.793485  0.632989  0.749848  1
  Si  Si32  1  0.295784  0.867589  0.749638  1
  Si  Si33  1  0.205518  0.367027  0.250633  1
  Si  Si34  1  0.704662  0.133540  0.250084  1
  Mo  Mo35  1  0.336064  0.171415  0.625690  1
