# generated using pymatgen
data_HfPa2Ta3Zn7
_symmetry_space_group_name_H-M   'P 1'
_cell_length_a   10.25885680
_cell_length_b   10.25885688
_cell_length_c   10.25885586
_cell_angle_alpha   28.99111357
_cell_angle_beta   28.99111415
_cell_angle_gamma   28.99111086
_symmetry_Int_Tables_number   1
_chemical_formula_structural   HfPa2Ta3Zn7
_chemical_formula_sum   'Hf1 Pa2 Ta3 Zn7'
_cell_volume   224.32815688
_cell_formula_units_Z   1
loop_
 _symmetry_equiv_pos_site_id
 _symmetry_equiv_pos_as_xyz
  1  'x, y, z'
loop_
 _atom_site_type_symbol
 _atom_site_label
 _atom_site_symmetry_multiplicity
 _atom_site_fract_x
 _atom_site_fract_y
 _atom_site_fract_z
 _atom_site_occupancy
  Hf  Hf0  1  0.648172  0.648172  0.648172  1
  Pa  Pa1  1  0.833959  0.833959  0.833959  1
  Pa  Pa2  1  0.167269  0.167269  0.167269  1
  Ta  Ta3  1  0.353822  0.353822  0.353822  1
  Ta  Ta4  1  0.543350  0.543350  0.543350  1
  Ta  Ta5  1  0.452230  0.452230  0.452230  1
  Zn  Zn6  1  0.000284  0.000284  0.000284  1
  Zn  Zn7  1  0.901793  0.409349  0.901793  1
  Zn  Zn8  1  0.901793  0.901793  0.409349  1
  Zn  Zn9  1  0.409349  0.901793  0.901793  1
  Zn  Zn10  1  0.099057  0.589863  0.099057  1
  Zn  Zn11  1  0.099057  0.099057  0.589863  1
  Zn  Zn12  1  0.589863  0.099057  0.099057  1
