# generated using pymatgen
data_Na4Nb5WS12
_symmetry_space_group_name_H-M   'P 1'
_cell_length_a   14.98151050
_cell_length_b   14.98151067
_cell_length_c   14.98151054
_cell_angle_alpha   22.48352512
_cell_angle_beta   22.48352322
_cell_angle_gamma   22.48351651
_symmetry_Int_Tables_number   1
_chemical_formula_structural   Na4Nb5WS12
_chemical_formula_sum   'Na4 Nb5 W1 S12'
_cell_volume   431.32883341
_cell_formula_units_Z   1
loop_
 _symmetry_equiv_pos_site_id
 _symmetry_equiv_pos_as_xyz
  1  'x, y, z'
loop_
 _atom_site_type_symbol
 _atom_site_label
 _atom_site_symmetry_multiplicity
 _atom_site_fract_x
 _atom_site_fract_y
 _atom_site_fract_z
 _atom_site_occupancy
  Na  Na0  1  0.916295  0.916295  0.916295  1
  Na  Na1  1  0.582967  0.582967  0.582967  1
  Na  Na2  1  0.417273  0.417273  0.417273  1
  Na  Na3  1  0.083692  0.083692  0.083692  1
  Nb  Nb4  1  0.666729  0.666729  0.666729  1
  Nb  Nb5  1  0.000001  0.000001  0.000001  1
  Nb  Nb6  1  0.833655  0.166200  0.500173  1
  Nb  Nb7  1  0.500173  0.833655  0.166200  1
  Nb  Nb8  1  0.166200  0.500173  0.833655  1
  W  W9  1  0.333185  0.333185  0.333185  1
  S  S10  1  0.973266  0.622641  0.298040  1
  S  S11  1  0.298040  0.973266  0.622641  1
  S  S12  1  0.622641  0.298040  0.973266  1
  S  S13  1  0.693659  0.369944  0.042223  1
  S  S14  1  0.042223  0.693659  0.369944  1
  S  S15  1  0.369944  0.042223  0.693659  1
  S  S16  1  0.870210  0.534927  0.202276  1
  S  S17  1  0.202276  0.870210  0.534927  1
  S  S18  1  0.534927  0.202276  0.870210  1
  S  S19  1  0.797868  0.465113  0.129665  1
  S  S20  1  0.129665  0.797868  0.465113  1
  S  S21  1  0.465113  0.129665  0.797868  1
