# generated using pymatgen
data_Tm5Sc7Co5Bi
_symmetry_space_group_name_H-M   'P 1'
_cell_length_a   7.91426978
_cell_length_b   7.91211753
_cell_length_c   7.91426901
_cell_angle_alpha   110.70497401
_cell_angle_beta   110.79320478
_cell_angle_gamma   106.95516376
_symmetry_Int_Tables_number   1
_chemical_formula_structural   Tm5Sc7Co5Bi
_chemical_formula_sum   'Tm5 Sc7 Co5 Bi1'
_cell_volume   380.89750598
_cell_formula_units_Z   1
loop_
 _symmetry_equiv_pos_site_id
 _symmetry_equiv_pos_as_xyz
  1  'x, y, z'
loop_
 _atom_site_type_symbol
 _atom_site_label
 _atom_site_symmetry_multiplicity
 _atom_site_fract_x
 _atom_site_fract_y
 _atom_site_fract_z
 _atom_site_occupancy
  Tm  Tm0  1  0.815993  0.721985  0.535266  1
  Tm  Tm1  1  0.181554  0.277380  0.462231  1
  Tm  Tm2  1  0.186719  0.721985  0.905993  1
  Tm  Tm3  1  0.815149  0.277380  0.095824  1
  Tm  Tm4  1  0.681061  0.371248  0.690189  1
  Sc  Sc5  1  0.319810  0.633782  0.313971  1
  Sc  Sc6  1  0.680481  0.995006  0.314525  1
  Sc  Sc7  1  0.318510  0.004047  0.685537  1
  Sc  Sc8  1  0.588529  0.785363  0.806086  1
  Sc  Sc9  1  0.407434  0.213937  0.190558  1
  Sc  Sc10  1  0.979275  0.785363  0.196832  1
  Sc  Sc11  1  0.023380  0.213937  0.806504  1
  Co  Co12  1  0.647865  0.997000  0.647860  1
  Co  Co13  1  0.349141  0.997000  0.349135  1
  Co  Co14  1  0.122458  0.623097  0.500639  1
  Co  Co15  1  0.885251  0.381792  0.496541  1
  Co  Co16  1  0.999056  0.998078  0.999022  1
  Bi  Bi17  1  0.498333  0.501619  0.003286  1
