# generated using pymatgen
data_SmY15(MgSn4)4
_symmetry_space_group_name_H-M   'P 1'
_cell_length_a   7.70093327
_cell_length_b   8.28237605
_cell_length_c   15.42070800
_cell_angle_alpha   89.97456327
_cell_angle_beta   89.92687115
_cell_angle_gamma   89.90987713
_symmetry_Int_Tables_number   1
_chemical_formula_structural   SmY15(MgSn4)4
_chemical_formula_sum   'Sm1 Y15 Mg4 Sn16'
_cell_volume   983.56187443
_cell_formula_units_Z   1
loop_
 _symmetry_equiv_pos_site_id
 _symmetry_equiv_pos_as_xyz
  1  'x, y, z'
loop_
 _atom_site_type_symbol
 _atom_site_label
 _atom_site_symmetry_multiplicity
 _atom_site_fract_x
 _atom_site_fract_y
 _atom_site_fract_z
 _atom_site_occupancy
  Sm  Sm0  1  0.338648  0.828584  0.871836  1
  Y  Y1  1  0.837375  0.670848  0.628315  1
  Y  Y2  1  0.663221  0.170510  0.371497  1
  Y  Y3  1  0.161537  0.330005  0.130007  1
  Y  Y4  1  0.661526  0.170488  0.129310  1
  Y  Y5  1  0.162171  0.329117  0.371446  1
  Y  Y6  1  0.338362  0.829359  0.628283  1
  Y  Y7  1  0.836662  0.670556  0.870708  1
  Y  Y8  1  0.501015  0.314987  0.908727  1
  Y  Y9  1  0.001903  0.185008  0.590759  1
  Y  Y10  1  0.498927  0.684080  0.408509  1
  Y  Y11  1  0.997886  0.815463  0.091755  1
  Y  Y12  1  0.498985  0.684546  0.092363  1
  Y  Y13  1  0.999160  0.815743  0.408197  1
  Y  Y14  1  0.501523  0.315936  0.590472  1
  Y  Y15  1  0.001613  0.184252  0.908485  1
  Mg  Mg16  1  0.162120  0.493917  0.748859  1
  Mg  Mg17  1  0.664210  0.008905  0.749329  1
  Mg  Mg18  1  0.836327  0.505790  0.250185  1
  Mg  Mg19  1  0.336359  0.993856  0.250731  1
  Sn  Sn20  1  0.317508  0.037813  0.039920  1
  Sn  Sn21  1  0.817678  0.462866  0.462352  1
  Sn  Sn22  1  0.682436  0.963593  0.537573  1
  Sn  Sn23  1  0.178952  0.534386  0.963120  1
  Sn  Sn24  1  0.687081  0.963418  0.963692  1
  Sn  Sn25  1  0.182807  0.537925  0.537247  1
  Sn  Sn26  1  0.318196  0.036950  0.462363  1
  Sn  Sn27  1  0.816697  0.462268  0.037703  1
  Sn  Sn28  1  0.525040  0.586716  0.748698  1
  Sn  Sn29  1  0.024106  0.910764  0.748168  1
  Sn  Sn30  1  0.474738  0.409416  0.250558  1
  Sn  Sn31  1  0.974624  0.090707  0.249889  1
  Sn  Sn32  1  0.304136  0.153435  0.749179  1
  Sn  Sn33  1  0.805795  0.348068  0.749338  1
  Sn  Sn34  1  0.695352  0.848241  0.250302  1
  Sn  Sn35  1  0.195321  0.651481  0.250124  1
