# generated using pymatgen
data_Yb6Al24Co3Ir5
_symmetry_space_group_name_H-M   'P 1'
_cell_length_a   8.76362697
_cell_length_b   8.78430550
_cell_length_c   9.46970590
_cell_angle_alpha   90.00000213
_cell_angle_beta   89.71172651
_cell_angle_gamma   120.07809773
_symmetry_Int_Tables_number   1
_chemical_formula_structural   Yb6Al24Co3Ir5
_chemical_formula_sum   'Yb6 Al24 Co3 Ir5'
_cell_volume   630.82483739
_cell_formula_units_Z   1
loop_
 _symmetry_equiv_pos_site_id
 _symmetry_equiv_pos_as_xyz
  1  'x, y, z'
loop_
 _atom_site_type_symbol
 _atom_site_label
 _atom_site_symmetry_multiplicity
 _atom_site_fract_x
 _atom_site_fract_y
 _atom_site_fract_z
 _atom_site_occupancy
  Yb  Yb0  1  0.804427  0.192545  0.749663  1
  Yb  Yb1  1  0.195573  0.807455  0.250337  1
  Yb  Yb2  1  0.389077  0.194538  0.751306  1
  Yb  Yb3  1  0.610923  0.805462  0.248694  1
  Yb  Yb4  1  0.804427  0.611882  0.749663  1
  Yb  Yb5  1  0.195573  0.388118  0.250337  1
  Al  Al6  1  0.675163  0.337581  0.996161  1
  Al  Al7  1  0.324837  0.662419  0.003839  1
  Al  Al8  1  0.332789  0.666395  0.497395  1
  Al  Al9  1  0.667211  0.333605  0.502605  1
  Al  Al10  1  0.842395  0.158754  0.420941  1
  Al  Al11  1  0.157605  0.841246  0.579059  1
  Al  Al12  1  0.316224  0.158112  0.421411  1
  Al  Al13  1  0.155738  0.838164  0.922127  1
  Al  Al14  1  0.683776  0.841888  0.578589  1
  Al  Al15  1  0.844262  0.161836  0.077873  1
  Al  Al16  1  0.842395  0.683641  0.420941  1
  Al  Al17  1  0.682001  0.841000  0.922025  1
  Al  Al18  1  0.157605  0.316359  0.579059  1
  Al  Al19  1  0.317999  0.159000  0.077975  1
  Al  Al20  1  0.155738  0.317574  0.922127  1
  Al  Al21  1  0.844262  0.682426  0.077873  1
  Al  Al22  1  0.437244  0.562207  0.750569  1
  Al  Al23  1  0.562756  0.437793  0.249431  1
  Al  Al24  1  0.118236  0.559119  0.755591  1
  Al  Al25  1  0.881764  0.440881  0.244409  1
  Al  Al26  1  0.437244  0.875038  0.750569  1
  Al  Al27  1  0.562756  0.124962  0.249431  1
  Al  Al28  1  0.999902  0.999951  0.750102  1
  Al  Al29  1  0.000098  0.000049  0.249898  1
  Co  Co30  1  0.000000  0.500000  0.000000  1
  Co  Co31  1  0.000000  0.000000  0.000000  1
  Co  Co32  1  0.000000  0.000000  0.500000  1
  Ir  Ir33  1  0.500000  0.500000  0.000000  1
  Ir  Ir34  1  0.500000  0.500000  0.500000  1
  Ir  Ir35  1  0.500000  0.000000  0.000000  1
  Ir  Ir36  1  0.000000  0.500000  0.500000  1
  Ir  Ir37  1  0.500000  0.000000  0.500000  1
