# generated using pymatgen
data_Yb5Sn(OsO6)3
_symmetry_space_group_name_H-M   'P 1'
_cell_length_a   8.86546184
_cell_length_b   8.86546130
_cell_length_c   5.30666918
_cell_angle_alpha   94.31216012
_cell_angle_beta   85.68783745
_cell_angle_gamma   122.22148627
_symmetry_Int_Tables_number   1
_chemical_formula_structural   Yb5Sn(OsO6)3
_chemical_formula_sum   'Yb5 Sn1 Os3 O18'
_cell_volume   351.54769005
_cell_formula_units_Z   1
loop_
 _symmetry_equiv_pos_site_id
 _symmetry_equiv_pos_as_xyz
  1  'x, y, z'
loop_
 _atom_site_type_symbol
 _atom_site_label
 _atom_site_symmetry_multiplicity
 _atom_site_fract_x
 _atom_site_fract_y
 _atom_site_fract_z
 _atom_site_occupancy
  Yb  Yb0  1  0.973980  0.246416  0.542388  1
  Yb  Yb1  1  0.246416  0.973980  0.457612  1
  Yb  Yb2  1  0.424468  0.424468  0.000000  1
  Yb  Yb3  1  0.937403  0.589896  0.017833  1
  Yb  Yb4  1  0.589896  0.937403  0.982167  1
  Sn  Sn5  1  0.721322  0.721322  0.500000  1
  Os  Os6  1  0.657833  0.320566  0.503779  1
  Os  Os7  1  0.320566  0.657833  0.496221  1
  Os  Os8  1  0.029218  0.029218  0.000000  1
  O  O9  1  0.736951  0.245379  0.752241  1
  O  O10  1  0.740336  0.547813  0.724563  1
  O  O11  1  0.441484  0.239483  0.671966  1
  O  O12  1  0.547813  0.740336  0.275437  1
  O  O13  1  0.239483  0.441484  0.328034  1
  O  O14  1  0.245379  0.736951  0.247759  1
  O  O15  1  0.635641  0.471670  0.277103  1
  O  O16  1  0.546829  0.125047  0.287736  1
  O  O17  1  0.879606  0.404480  0.340955  1
  O  O18  1  0.072614  0.874437  0.816639  1
  O  O19  1  0.145801  0.225842  0.806372  1
  O  O20  1  0.820674  0.944811  0.735862  1
  O  O21  1  0.225842  0.145801  0.193628  1
  O  O22  1  0.944811  0.820674  0.264138  1
  O  O23  1  0.874437  0.072614  0.183361  1
  O  O24  1  0.471670  0.635641  0.722897  1
  O  O25  1  0.404480  0.879606  0.659045  1
  O  O26  1  0.125047  0.546829  0.712264  1
