# generated using pymatgen
data_Nb8NiRhSe16
_symmetry_space_group_name_H-M   'P 1'
_cell_length_a   7.00397900
_cell_length_b   7.00397911
_cell_length_c   12.58684300
_cell_angle_alpha   90.00000000
_cell_angle_beta   90.00000000
_cell_angle_gamma   120.00001366
_symmetry_Int_Tables_number   1
_chemical_formula_structural   Nb8NiRhSe16
_chemical_formula_sum   'Nb8 Ni1 Rh1 Se16'
_cell_volume   534.73309568
_cell_formula_units_Z   1
loop_
 _symmetry_equiv_pos_site_id
 _symmetry_equiv_pos_as_xyz
  1  'x, y, z'
loop_
 _atom_site_type_symbol
 _atom_site_label
 _atom_site_symmetry_multiplicity
 _atom_site_fract_x
 _atom_site_fract_y
 _atom_site_fract_z
 _atom_site_occupancy
  Nb  Nb0  1  0.000000  0.000000  0.251439  1
  Nb  Nb1  1  0.000000  0.000000  0.748561  1
  Nb  Nb2  1  0.510234  0.020467  0.250340  1
  Nb  Nb3  1  0.979533  0.489766  0.250340  1
  Nb  Nb4  1  0.510234  0.489766  0.250340  1
  Nb  Nb5  1  0.489766  0.979533  0.749660  1
  Nb  Nb6  1  0.020467  0.510234  0.749660  1
  Nb  Nb7  1  0.489766  0.510234  0.749660  1
  Ni  Ni8  1  0.000000  0.000000  0.500000  1
  Rh  Rh9  1  0.000000  0.000000  0.000000  1
  Se  Se10  1  0.333333  0.666667  0.890226  1
  Se  Se11  1  0.666667  0.333333  0.109774  1
  Se  Se12  1  0.666667  0.333333  0.390099  1
  Se  Se13  1  0.333333  0.666667  0.609901  1
  Se  Se14  1  0.167809  0.832191  0.381141  1
  Se  Se15  1  0.167809  0.335617  0.381141  1
  Se  Se16  1  0.664383  0.832191  0.381141  1
  Se  Se17  1  0.832191  0.167809  0.618859  1
  Se  Se18  1  0.832191  0.664383  0.618859  1
  Se  Se19  1  0.335617  0.167809  0.618859  1
  Se  Se20  1  0.831940  0.168060  0.879872  1
  Se  Se21  1  0.831940  0.663878  0.879872  1
  Se  Se22  1  0.336122  0.168060  0.879872  1
  Se  Se23  1  0.168060  0.831940  0.120128  1
  Se  Se24  1  0.168060  0.336122  0.120128  1
  Se  Se25  1  0.663878  0.831940  0.120128  1
