# generated using pymatgen
data_Sc10Tl7In(RuAu)2
_symmetry_space_group_name_H-M   'P 1'
_cell_length_a   3.43114200
_cell_length_b   7.84855211
_cell_length_c   17.91364231
_cell_angle_alpha   90.18046506
_cell_angle_beta   90.00000000
_cell_angle_gamma   90.00000000
_symmetry_Int_Tables_number   1
_chemical_formula_structural   Sc10Tl7In(RuAu)2
_chemical_formula_sum   'Sc10 Tl7 In1 Ru2 Au2'
_cell_volume   482.40298005
_cell_formula_units_Z   1
loop_
 _symmetry_equiv_pos_site_id
 _symmetry_equiv_pos_as_xyz
  1  'x, y, z'
loop_
 _atom_site_type_symbol
 _atom_site_label
 _atom_site_symmetry_multiplicity
 _atom_site_fract_x
 _atom_site_fract_y
 _atom_site_fract_z
 _atom_site_occupancy
  Sc  Sc0  1  0.000000  0.999971  0.999643  1
  Sc  Sc1  1  0.000000  0.500965  0.501172  1
  Sc  Sc2  1  0.000000  0.765755  0.776962  1
  Sc  Sc3  1  0.000000  0.233789  0.223178  1
  Sc  Sc4  1  0.000000  0.223089  0.717393  1
  Sc  Sc5  1  0.000000  0.775620  0.282288  1
  Sc  Sc6  1  0.000000  0.877423  0.587973  1
  Sc  Sc7  1  0.000000  0.121737  0.412003  1
  Sc  Sc8  1  0.000000  0.372949  0.916610  1
  Sc  Sc9  1  0.000000  0.627429  0.082529  1
  Tl  Tl10  1  0.500000  0.800072  0.436156  1
  Tl  Tl11  1  0.500000  0.202954  0.565146  1
  Tl  Tl12  1  0.500000  0.298395  0.061200  1
  Tl  Tl13  1  0.500000  0.701178  0.938105  1
  Tl  Tl14  1  0.500000  0.934385  0.146980  1
  Tl  Tl15  1  0.500000  0.066352  0.852532  1
  Tl  Tl16  1  0.500000  0.424386  0.354980  1
  In  In17  1  0.500000  0.577185  0.647045  1
  Ru  Ru18  1  0.500000  0.958198  0.694945  1
  Ru  Ru19  1  0.500000  0.037933  0.304960  1
  Au  Au20  1  0.500000  0.462946  0.800786  1
  Au  Au21  1  0.500000  0.537291  0.197413  1
