# generated using pymatgen
data_Ba8Dy3In(FeO5)4
_symmetry_space_group_name_H-M   'P 1'
_cell_length_a   6.11378400
_cell_length_b   7.95284998
_cell_length_c   12.71241449
_cell_angle_alpha   91.77897334
_cell_angle_beta   90.00008735
_cell_angle_gamma   90.00156354
_symmetry_Int_Tables_number   1
_chemical_formula_structural   Ba8Dy3In(FeO5)4
_chemical_formula_sum   'Ba8 Dy3 In1 Fe4 O20'
_cell_volume   617.80519235
_cell_formula_units_Z   1
loop_
 _symmetry_equiv_pos_site_id
 _symmetry_equiv_pos_as_xyz
  1  'x, y, z'
loop_
 _atom_site_type_symbol
 _atom_site_label
 _atom_site_symmetry_multiplicity
 _atom_site_fract_x
 _atom_site_fract_y
 _atom_site_fract_z
 _atom_site_occupancy
  Ba  Ba0  1  0.760903  0.483421  0.349600  1
  Ba  Ba1  1  0.738179  0.991285  0.850867  1
  Ba  Ba2  1  0.240883  0.512126  0.653739  1
  Ba  Ba3  1  0.256400  0.016051  0.147228  1
  Ba  Ba4  1  0.756840  0.994166  0.380205  1
  Ba  Ba5  1  0.742261  0.491638  0.879219  1
  Ba  Ba6  1  0.244598  0.008367  0.623985  1
  Ba  Ba7  1  0.253923  0.503505  0.116253  1
  Dy  Dy8  1  0.752874  0.265625  0.630520  1
  Dy  Dy9  1  0.749416  0.765291  0.129700  1
  Dy  Dy10  1  0.249986  0.733940  0.369961  1
  In  In11  1  0.250115  0.235710  0.869967  1
  Fe  Fe12  1  0.733995  0.743664  0.584840  1
  Fe  Fe13  1  0.760063  0.243359  0.081251  1
  Fe  Fe14  1  0.264551  0.255642  0.415620  1
  Fe  Fe15  1  0.233968  0.757565  0.915956  1
  O  O16  1  0.765220  0.972333  0.634268  1
  O  O17  1  0.739044  0.470807  0.131530  1
  O  O18  1  0.236909  0.027831  0.365207  1
  O  O19  1  0.266579  0.530020  0.866972  1
  O  O20  1  0.738322  0.060531  0.172551  1
  O  O21  1  0.767867  0.559150  0.674968  1
  O  O22  1  0.270078  0.940181  0.825451  1
  O  O23  1  0.235464  0.438807  0.324150  1
  O  O24  1  0.551111  0.745874  0.275864  1
  O  O25  1  0.969979  0.247388  0.770912  1
  O  O26  1  0.467454  0.252696  0.735807  1
  O  O27  1  0.049438  0.752542  0.224536  1
  O  O28  1  0.531095  0.224936  0.978650  1
  O  O29  1  0.945283  0.723612  0.474367  1
  O  O30  1  0.446520  0.776517  0.026053  1
  O  O31  1  0.049091  0.276319  0.523673  1
  O  O32  1  0.039190  0.231534  0.012218  1
  O  O33  1  0.448379  0.734232  0.524271  1
  O  O34  1  0.949255  0.766932  0.977548  1
  O  O35  1  0.544768  0.266403  0.482092  1
