# generated using pymatgen
data_Tb8Ga(Pd7Pt5)2
_symmetry_space_group_name_H-M   'P 1'
_cell_length_a   8.36994813
_cell_length_b   8.37230221
_cell_length_c   8.37302010
_cell_angle_alpha   90.01698526
_cell_angle_beta   90.00520300
_cell_angle_gamma   89.98063665
_symmetry_Int_Tables_number   1
_chemical_formula_structural   Tb8Ga(Pd7Pt5)2
_chemical_formula_sum   'Tb8 Ga1 Pd14 Pt10'
_cell_volume   586.74547788
_cell_formula_units_Z   1
loop_
 _symmetry_equiv_pos_site_id
 _symmetry_equiv_pos_as_xyz
  1  'x, y, z'
loop_
 _atom_site_type_symbol
 _atom_site_label
 _atom_site_symmetry_multiplicity
 _atom_site_fract_x
 _atom_site_fract_y
 _atom_site_fract_z
 _atom_site_occupancy
  Tb  Tb0  1  0.251858  0.252016  0.747835  1
  Tb  Tb1  1  0.252247  0.748122  0.252471  1
  Tb  Tb2  1  0.747906  0.252174  0.252111  1
  Tb  Tb3  1  0.748105  0.747618  0.747745  1
  Tb  Tb4  1  0.747741  0.747791  0.252279  1
  Tb  Tb5  1  0.748154  0.252328  0.747936  1
  Tb  Tb6  1  0.251882  0.747948  0.747548  1
  Tb  Tb7  1  0.252106  0.251859  0.252209  1
  Ga  Ga8  1  0.000130  0.000272  0.999861  1
  Pd  Pd9  1  0.999857  0.999814  0.708207  1
  Pd  Pd10  1  0.999935  0.292000  0.000098  1
  Pd  Pd11  1  0.292071  0.999852  0.000063  1
  Pd  Pd12  1  0.999859  0.999874  0.291846  1
  Pd  Pd13  1  0.999941  0.708001  0.000043  1
  Pd  Pd14  1  0.707927  0.999841  0.000051  1
  Pd  Pd15  1  0.500079  0.000087  0.739856  1
  Pd  Pd16  1  0.260218  0.500155  0.999868  1
  Pd  Pd17  1  0.999942  0.500172  0.260068  1
  Pd  Pd18  1  0.500069  0.739697  0.000063  1
  Pd  Pd19  1  0.000109  0.739975  0.499866  1
  Pd  Pd20  1  0.500103  0.000047  0.260050  1
  Pd  Pd21  1  0.739704  0.000063  0.499933  1
  Pd  Pd22  1  0.739869  0.500191  0.999892  1
  Pt  Pt23  1  0.500098  0.499997  0.747499  1
  Pt  Pt24  1  0.499887  0.252544  0.499901  1
  Pt  Pt25  1  0.252656  0.500018  0.500040  1
  Pt  Pt26  1  0.500093  0.499983  0.252623  1
  Pt  Pt27  1  0.499872  0.747228  0.499914  1
  Pt  Pt28  1  0.747240  0.500004  0.500049  1
  Pt  Pt29  1  0.999933  0.500092  0.740140  1
  Pt  Pt30  1  0.500071  0.260206  0.000042  1
  Pt  Pt31  1  0.260236  0.000022  0.499915  1
  Pt  Pt32  1  0.000104  0.260007  0.499976  1
