# generated using pymatgen
data_NdPu9O20
_symmetry_space_group_name_H-M   'P 1'
_cell_length_a   6.61558448
_cell_length_b   7.62635606
_cell_length_c   8.52877956
_cell_angle_alpha   102.93848223
_cell_angle_beta   97.44009654
_cell_angle_gamma   106.76729803
_symmetry_Int_Tables_number   1
_chemical_formula_structural   NdPu9O20
_chemical_formula_sum   'Nd1 Pu9 O20'
_cell_volume   392.76520720
_cell_formula_units_Z   1
loop_
 _symmetry_equiv_pos_site_id
 _symmetry_equiv_pos_as_xyz
  1  'x, y, z'
loop_
 _atom_site_type_symbol
 _atom_site_label
 _atom_site_symmetry_multiplicity
 _atom_site_fract_x
 _atom_site_fract_y
 _atom_site_fract_z
 _atom_site_occupancy
  Nd  Nd0  1  0.000000  0.500000  0.000000  1
  Pu  Pu1  1  0.799105  0.599850  0.599097  1
  Pu  Pu2  1  0.599847  0.199566  0.200361  1
  Pu  Pu3  1  0.799339  0.099322  0.599154  1
  Pu  Pu4  1  0.400153  0.800434  0.799639  1
  Pu  Pu5  1  0.600278  0.700646  0.200509  1
  Pu  Pu6  1  0.200895  0.400150  0.400903  1
  Pu  Pu7  1  0.399722  0.299354  0.799491  1
  Pu  Pu8  1  0.000000  0.000000  0.000000  1
  Pu  Pu9  1  0.200661  0.900678  0.400846  1
  O  O10  1  0.647371  0.925804  0.048791  1
  O  O11  1  0.447429  0.525638  0.647439  1
  O  O12  1  0.637832  0.421011  0.053465  1
  O  O13  1  0.739643  0.370095  0.740669  1
  O  O14  1  0.255447  0.126498  0.250342  1
  O  O15  1  0.447004  0.022227  0.649498  1
  O  O16  1  0.050778  0.734237  0.844116  1
  O  O17  1  0.552996  0.977773  0.350502  1
  O  O18  1  0.744553  0.873502  0.749658  1
  O  O19  1  0.260357  0.629905  0.259331  1
  O  O20  1  0.362168  0.578989  0.946535  1
  O  O21  1  0.851799  0.326131  0.450619  1
  O  O22  1  0.052230  0.213650  0.843947  1
  O  O23  1  0.552571  0.474362  0.352561  1
  O  O24  1  0.150195  0.174799  0.547219  1
  O  O25  1  0.352629  0.074196  0.951209  1
  O  O26  1  0.849805  0.825201  0.452781  1
  O  O27  1  0.947770  0.786350  0.156053  1
  O  O28  1  0.148201  0.673869  0.549381  1
  O  O29  1  0.949222  0.265763  0.155884  1
