# generated using pymatgen
data_Zr10AlIn2SiSb4
_symmetry_space_group_name_H-M   'P 1'
_cell_length_a   8.69246994
_cell_length_b   8.73547621
_cell_length_c   5.88945523
_cell_angle_alpha   90.01897470
_cell_angle_beta   89.99046170
_cell_angle_gamma   120.16380267
_symmetry_Int_Tables_number   1
_chemical_formula_structural   Zr10AlIn2SiSb4
_chemical_formula_sum   'Zr10 Al1 In2 Si1 Sb4'
_cell_volume   386.64847939
_cell_formula_units_Z   1
loop_
 _symmetry_equiv_pos_site_id
 _symmetry_equiv_pos_as_xyz
  1  'x, y, z'
loop_
 _atom_site_type_symbol
 _atom_site_label
 _atom_site_symmetry_multiplicity
 _atom_site_fract_x
 _atom_site_fract_y
 _atom_site_fract_z
 _atom_site_occupancy
  Zr  Zr0  1  0.733370  0.729802  0.757823  1
  Zr  Zr1  1  0.266630  0.996432  0.757823  1
  Zr  Zr2  1  0.000000  0.272178  0.757479  1
  Zr  Zr3  1  0.259473  0.259678  0.240729  1
  Zr  Zr4  1  0.740527  0.000204  0.240729  1
  Zr  Zr5  1  0.000000  0.739615  0.244726  1
  Zr  Zr6  1  0.668332  0.334881  0.998029  1
  Zr  Zr7  1  0.331668  0.666549  0.998029  1
  Zr  Zr8  1  0.330317  0.666227  0.501530  1
  Zr  Zr9  1  0.669683  0.335909  0.501530  1
  Al  Al10  1  0.000000  0.003119  0.512533  1
  In  In11  1  0.384506  0.383981  0.745013  1
  In  In12  1  0.615494  0.999476  0.745013  1
  Si  Si13  1  0.000000  0.001399  0.988228  1
  Sb  Sb14  1  0.000000  0.611858  0.747721  1
  Sb  Sb15  1  0.603427  0.605569  0.254742  1
  Sb  Sb16  1  0.396573  0.002144  0.254742  1
  Sb  Sb17  1  0.000000  0.390977  0.253580  1
