# generated using pymatgen
data_Dy2Ho3GaSiB8
_symmetry_space_group_name_H-M   'P 1'
_cell_length_a   7.23498658
_cell_length_b   7.23498692
_cell_length_c   8.12561900
_cell_angle_alpha   90.00000000
_cell_angle_beta   90.00000000
_cell_angle_gamma   89.70860114
_symmetry_Int_Tables_number   1
_chemical_formula_structural   Dy2Ho3GaSiB8
_chemical_formula_sum   'Dy4 Ho6 Ga2 Si2 B16'
_cell_volume   425.33029634
_cell_formula_units_Z   2
loop_
 _symmetry_equiv_pos_site_id
 _symmetry_equiv_pos_as_xyz
  1  'x, y, z'
loop_
 _atom_site_type_symbol
 _atom_site_label
 _atom_site_symmetry_multiplicity
 _atom_site_fract_x
 _atom_site_fract_y
 _atom_site_fract_z
 _atom_site_occupancy
  Dy  Dy0  1  0.679394  0.179394  0.223928  1
  Dy  Dy1  1  0.320606  0.820606  0.776072  1
  Dy  Dy2  1  0.320606  0.820606  0.223928  1
  Dy  Dy3  1  0.679394  0.179394  0.776072  1
  Ho  Ho4  1  0.815587  0.684413  0.218443  1
  Ho  Ho5  1  0.815587  0.684413  0.781557  1
  Ho  Ho6  1  0.184413  0.315587  0.781557  1
  Ho  Ho7  1  0.184413  0.315587  0.218443  1
  Ho  Ho8  1  0.000000  0.000000  0.500000  1
  Ho  Ho9  1  0.500000  0.500000  0.500000  1
  Ga  Ga10  1  0.117285  0.617285  0.500000  1
  Ga  Ga11  1  0.882715  0.382715  0.500000  1
  Si  Si12  1  0.383845  0.116155  0.500000  1
  Si  Si13  1  0.616155  0.883845  0.500000  1
  B  B14  1  0.171706  0.039452  0.000000  1
  B  B15  1  0.828294  0.960548  0.000000  1
  B  B16  1  0.959666  0.172076  0.000000  1
  B  B17  1  0.327924  0.540334  0.000000  1
  B  B18  1  0.040334  0.827924  0.000000  1
  B  B19  1  0.672076  0.459666  0.000000  1
  B  B20  1  0.539452  0.671706  0.000000  1
  B  B21  1  0.460548  0.328294  0.000000  1
  B  B22  1  0.090494  0.590494  0.000000  1
  B  B23  1  0.909506  0.409506  0.000000  1
  B  B24  1  0.408500  0.091500  0.000000  1
  B  B25  1  0.591500  0.908500  0.000000  1
  B  B26  1  0.000000  0.000000  0.162489  1
  B  B27  1  0.000000  0.000000  0.837511  1
  B  B28  1  0.500000  0.500000  0.837511  1
  B  B29  1  0.500000  0.500000  0.162489  1
