# generated using pymatgen
data_Ta2NbCo2ReN
_symmetry_space_group_name_H-M   'P 1'
_cell_length_a   8.11186151
_cell_length_b   8.11186074
_cell_length_c   8.10906800
_cell_angle_alpha   60.01138800
_cell_angle_beta   60.01139112
_cell_angle_gamma   59.97722082
_symmetry_Int_Tables_number   1
_chemical_formula_structural   Ta2NbCo2ReN
_chemical_formula_sum   'Ta8 Nb4 Co8 Re4 N4'
_cell_volume   377.30873125
_cell_formula_units_Z   4
loop_
 _symmetry_equiv_pos_site_id
 _symmetry_equiv_pos_as_xyz
  1  'x, y, z'
loop_
 _atom_site_type_symbol
 _atom_site_label
 _atom_site_symmetry_multiplicity
 _atom_site_fract_x
 _atom_site_fract_y
 _atom_site_fract_z
 _atom_site_occupancy
  Ta  Ta0  1  0.808145  0.808145  0.191855  1
  Ta  Ta1  1  0.191855  0.191855  0.808145  1
  Ta  Ta2  1  0.807673  0.192327  0.807673  1
  Ta  Ta3  1  0.192327  0.807673  0.192327  1
  Ta  Ta4  1  0.192327  0.807673  0.807673  1
  Ta  Ta5  1  0.807673  0.192327  0.192327  1
  Ta  Ta6  1  0.442498  0.442498  0.057502  1
  Ta  Ta7  1  0.057502  0.057502  0.442498  1
  Nb  Nb8  1  0.441871  0.058129  0.441871  1
  Nb  Nb9  1  0.058129  0.441871  0.058129  1
  Nb  Nb10  1  0.058129  0.441871  0.441871  1
  Nb  Nb11  1  0.441871  0.058129  0.058129  1
  Co  Co12  1  0.732706  0.421816  0.422739  1
  Co  Co13  1  0.421816  0.732706  0.422739  1
  Co  Co14  1  0.422739  0.422739  0.732706  1
  Co  Co15  1  0.422739  0.422739  0.421816  1
  Co  Co16  1  0.515252  0.827762  0.828493  1
  Co  Co17  1  0.827762  0.515252  0.828493  1
  Co  Co18  1  0.828493  0.828493  0.515252  1
  Co  Co19  1  0.828493  0.828493  0.827762  1
  Re  Re20  1  0.125260  0.625811  0.624464  1
  Re  Re21  1  0.625811  0.125260  0.624464  1
  Re  Re22  1  0.624464  0.624464  0.125260  1
  Re  Re23  1  0.624464  0.624464  0.625811  1
  N  N24  1  0.628269  0.125984  0.122873  1
  N  N25  1  0.125984  0.628269  0.122873  1
  N  N26  1  0.122873  0.122873  0.628269  1
  N  N27  1  0.122873  0.122873  0.125984  1
