# generated using pymatgen
data_Ac4SmIn3
_symmetry_space_group_name_H-M   'P 1'
_cell_length_a   6.47758745
_cell_length_b   9.91578446
_cell_length_c   9.91578596
_cell_angle_alpha   83.91188770
_cell_angle_beta   71.01585803
_cell_angle_gamma   71.01586629
_symmetry_Int_Tables_number   1
_chemical_formula_structural   Ac4SmIn3
_chemical_formula_sum   'Ac8 Sm2 In6'
_cell_volume   569.49561417
_cell_formula_units_Z   2
loop_
 _symmetry_equiv_pos_site_id
 _symmetry_equiv_pos_as_xyz
  1  'x, y, z'
loop_
 _atom_site_type_symbol
 _atom_site_label
 _atom_site_symmetry_multiplicity
 _atom_site_fract_x
 _atom_site_fract_y
 _atom_site_fract_z
 _atom_site_occupancy
  Ac  Ac0  1  0.719876  0.864907  0.693395  1
  Ac  Ac1  1  0.280124  0.135093  0.306605  1
  Ac  Ac2  1  0.780124  0.306605  0.135093  1
  Ac  Ac3  1  0.219876  0.693395  0.864907  1
  Ac  Ac4  1  0.585565  0.693799  0.135910  1
  Ac  Ac5  1  0.414435  0.306201  0.864090  1
  Ac  Ac6  1  0.085565  0.135910  0.693799  1
  Ac  Ac7  1  0.914435  0.864090  0.306201  1
  Sm  Sm8  1  0.750000  0.500948  0.499052  1
  Sm  Sm9  1  0.250000  0.499052  0.500948  1
  In  In10  1  0.156829  0.499729  0.187945  1
  In  In11  1  0.843171  0.500271  0.812055  1
  In  In12  1  0.343171  0.812055  0.500271  1
  In  In13  1  0.656829  0.187945  0.499729  1
  In  In14  1  0.250000  0.000211  0.999789  1
  In  In15  1  0.750000  0.999789  0.000211  1
