# generated using pymatgen
data_Dy4OsCl4
_symmetry_space_group_name_H-M   'P 1'
_cell_length_a   8.59852248
_cell_length_b   8.59852295
_cell_length_c   6.49809336
_cell_angle_alpha   89.90704065
_cell_angle_beta   89.90703393
_cell_angle_gamma   89.49055534
_symmetry_Int_Tables_number   1
_chemical_formula_structural   Dy4OsCl4
_chemical_formula_sum   'Dy8 Os2 Cl8'
_cell_volume   480.41364219
_cell_formula_units_Z   2
loop_
 _symmetry_equiv_pos_site_id
 _symmetry_equiv_pos_as_xyz
  1  'x, y, z'
loop_
 _atom_site_type_symbol
 _atom_site_label
 _atom_site_symmetry_multiplicity
 _atom_site_fract_x
 _atom_site_fract_y
 _atom_site_fract_z
 _atom_site_occupancy
  Dy  Dy0  1  0.105058  0.741596  0.987932  1
  Dy  Dy1  1  0.258404  0.894942  0.512068  1
  Dy  Dy2  1  0.894942  0.258404  0.012068  1
  Dy  Dy3  1  0.741596  0.105058  0.487932  1
  Dy  Dy4  1  0.742390  0.895623  0.006029  1
  Dy  Dy5  1  0.104377  0.257610  0.493971  1
  Dy  Dy6  1  0.257610  0.104377  0.993971  1
  Dy  Dy7  1  0.895623  0.742390  0.506029  1
  Os  Os8  1  0.005983  0.994017  0.250000  1
  Os  Os9  1  0.994017  0.005983  0.750000  1
  Cl  Cl10  1  0.419600  0.820703  0.902558  1
  Cl  Cl11  1  0.179297  0.580400  0.597442  1
  Cl  Cl12  1  0.580400  0.179297  0.097442  1
  Cl  Cl13  1  0.820703  0.419600  0.402558  1
  Cl  Cl14  1  0.813339  0.582855  0.903483  1
  Cl  Cl15  1  0.417145  0.186661  0.596517  1
  Cl  Cl16  1  0.186661  0.417145  0.096517  1
  Cl  Cl17  1  0.582855  0.813339  0.403483  1
