# generated using pymatgen
data_Ho8B24IrRu3
_symmetry_space_group_name_H-M   'P 1'
_cell_length_a   3.65043800
_cell_length_b   9.13530378
_cell_length_c   11.48098399
_cell_angle_alpha   90.04744874
_cell_angle_beta   90.00000000
_cell_angle_gamma   90.00000000
_symmetry_Int_Tables_number   1
_chemical_formula_structural   Ho8B24IrRu3
_chemical_formula_sum   'Ho8 B24 Ir1 Ru3'
_cell_volume   382.86611610
_cell_formula_units_Z   1
loop_
 _symmetry_equiv_pos_site_id
 _symmetry_equiv_pos_as_xyz
  1  'x, y, z'
loop_
 _atom_site_type_symbol
 _atom_site_label
 _atom_site_symmetry_multiplicity
 _atom_site_fract_x
 _atom_site_fract_y
 _atom_site_fract_z
 _atom_site_occupancy
  Ho  Ho0  1  0.000000  0.319953  0.414465  1
  Ho  Ho1  1  0.000000  0.678279  0.588587  1
  Ho  Ho2  1  0.000000  0.823659  0.084339  1
  Ho  Ho3  1  0.000000  0.177850  0.913395  1
  Ho  Ho4  1  0.000000  0.946057  0.372944  1
  Ho  Ho5  1  0.000000  0.055619  0.627126  1
  Ho  Ho6  1  0.000000  0.442195  0.125878  1
  Ho  Ho7  1  0.000000  0.555708  0.873082  1
  B  B8  1  0.500000  0.553590  0.433555  1
  B  B9  1  0.500000  0.445917  0.566970  1
  B  B10  1  0.500000  0.054242  0.067007  1
  B  B11  1  0.500000  0.945958  0.932967  1
  B  B12  1  0.500000  0.749500  0.421038  1
  B  B13  1  0.500000  0.251604  0.579935  1
  B  B14  1  0.500000  0.247973  0.079839  1
  B  B15  1  0.500000  0.751983  0.920158  1
  B  B16  1  0.500000  0.792461  0.265627  1
  B  B17  1  0.500000  0.208592  0.733809  1
  B  B18  1  0.500000  0.291648  0.234073  1
  B  B19  1  0.500000  0.708294  0.766228  1
  B  B20  1  0.500000  0.632565  0.183888  1
  B  B21  1  0.500000  0.367915  0.814761  1
  B  B22  1  0.500000  0.132442  0.314938  1
  B  B23  1  0.500000  0.867572  0.685246  1
  B  B24  1  0.500000  0.983713  0.212959  1
  B  B25  1  0.500000  0.016294  0.786945  1
  B  B26  1  0.500000  0.482446  0.286913  1
  B  B27  1  0.500000  0.516425  0.713095  1
  B  B28  1  0.500000  0.609964  0.030543  1
  B  B29  1  0.500000  0.390166  0.969815  1
  B  B30  1  0.500000  0.109833  0.469842  1
  B  B31  1  0.500000  0.889723  0.529901  1
  Ir  Ir32  1  0.000000  0.637428  0.321661  1
  Ru  Ru33  1  0.000000  0.362255  0.678271  1
  Ru  Ru34  1  0.000000  0.138232  0.179084  1
  Ru  Ru35  1  0.000000  0.861943  0.821115  1
