# generated using pymatgen
data_Nb2VBr12
_symmetry_space_group_name_H-M   'P 1'
_cell_length_a   9.18217883
_cell_length_b   9.18217872
_cell_length_c   7.10496200
_cell_angle_alpha   70.52670938
_cell_angle_beta   70.52671623
_cell_angle_gamma   82.45390094
_symmetry_Int_Tables_number   1
_chemical_formula_structural   Nb2VBr12
_chemical_formula_sum   'Nb2 V1 Br12'
_cell_volume   532.32588326
_cell_formula_units_Z   1
loop_
 _symmetry_equiv_pos_site_id
 _symmetry_equiv_pos_as_xyz
  1  'x, y, z'
loop_
 _atom_site_type_symbol
 _atom_site_label
 _atom_site_symmetry_multiplicity
 _atom_site_fract_x
 _atom_site_fract_y
 _atom_site_fract_z
 _atom_site_occupancy
  Nb  Nb0  1  0.264676  0.264676  0.741807  1
  Nb  Nb1  1  0.735324  0.735324  0.258193  1
  V  V2  1  0.000000  0.000000  0.000000  1
  Br  Br3  1  0.973107  0.263832  0.740296  1
  Br  Br4  1  0.263832  0.973107  0.740296  1
  Br  Br5  1  0.026893  0.736168  0.259704  1
  Br  Br6  1  0.736168  0.026893  0.259704  1
  Br  Br7  1  0.216928  0.521759  0.789637  1
  Br  Br8  1  0.521759  0.216928  0.789637  1
  Br  Br9  1  0.783072  0.478241  0.210363  1
  Br  Br10  1  0.478241  0.783072  0.210363  1
  Br  Br11  1  0.134232  0.134232  0.155468  1
  Br  Br12  1  0.865768  0.865768  0.844532  1
  Br  Br13  1  0.646159  0.646159  0.644013  1
  Br  Br14  1  0.353841  0.353841  0.355987  1
