# generated using pymatgen
data_Y3ZnMoRu4
_symmetry_space_group_name_H-M   'P 1'
_cell_length_a   5.24798084
_cell_length_b   5.19492084
_cell_length_c   13.45365509
_cell_angle_alpha   92.60394812
_cell_angle_beta   87.66188353
_cell_angle_gamma   114.90671409
_symmetry_Int_Tables_number   1
_chemical_formula_structural   Y3ZnMoRu4
_chemical_formula_sum   'Y6 Zn2 Mo2 Ru8'
_cell_volume   332.23345621
_cell_formula_units_Z   2
loop_
 _symmetry_equiv_pos_site_id
 _symmetry_equiv_pos_as_xyz
  1  'x, y, z'
loop_
 _atom_site_type_symbol
 _atom_site_label
 _atom_site_symmetry_multiplicity
 _atom_site_fract_x
 _atom_site_fract_y
 _atom_site_fract_z
 _atom_site_occupancy
  Y  Y0  1  0.361431  0.647138  0.912878  1
  Y  Y1  1  0.974162  0.007351  0.254188  1
  Y  Y2  1  0.668748  0.332856  0.583857  1
  Y  Y3  1  0.331252  0.667144  0.666143  1
  Y  Y4  1  0.025838  0.992649  0.995812  1
  Y  Y5  1  0.638569  0.352862  0.337122  1
  Zn  Zn6  1  0.500000  0.500000  0.125000  1
  Zn  Zn7  1  0.500000  0.000000  0.125000  1
  Mo  Mo8  1  0.160271  0.840675  0.457862  1
  Mo  Mo9  1  0.839729  0.159325  0.792138  1
  Ru  Ru10  1  0.156171  0.345357  0.456453  1
  Ru  Ru11  1  0.843829  0.654643  0.793547  1
  Ru  Ru12  1  0.294791  0.683380  0.286046  1
  Ru  Ru13  1  0.000000  0.000000  0.625000  1
  Ru  Ru14  1  0.705209  0.316620  0.963954  1
  Ru  Ru15  1  0.000000  0.500000  0.125000  1
  Ru  Ru16  1  0.658634  0.844260  0.457276  1
  Ru  Ru17  1  0.341366  0.155740  0.792724  1
