# generated using pymatgen
data_Pr7Th(CdRu)2
_symmetry_space_group_name_H-M   'P 1'
_cell_length_a   9.98715615
_cell_length_b   9.98715597
_cell_length_c   10.06621600
_cell_angle_alpha   59.73778120
_cell_angle_beta   59.73778181
_cell_angle_gamma   59.63785244
_symmetry_Int_Tables_number   1
_chemical_formula_structural   Pr7Th(CdRu)2
_chemical_formula_sum   'Pr14 Th2 Cd4 Ru4'
_cell_volume   705.19449160
_cell_formula_units_Z   2
loop_
 _symmetry_equiv_pos_site_id
 _symmetry_equiv_pos_as_xyz
  1  'x, y, z'
loop_
 _atom_site_type_symbol
 _atom_site_label
 _atom_site_symmetry_multiplicity
 _atom_site_fract_x
 _atom_site_fract_y
 _atom_site_fract_z
 _atom_site_occupancy
  Pr  Pr0  1  0.347520  0.955134  0.348673  1
  Pr  Pr1  1  0.955134  0.347520  0.348673  1
  Pr  Pr2  1  0.809596  0.191304  0.190463  1
  Pr  Pr3  1  0.191304  0.809596  0.808637  1
  Pr  Pr4  1  0.191304  0.809596  0.190463  1
  Pr  Pr5  1  0.809596  0.191304  0.808637  1
  Pr  Pr6  1  0.190845  0.190845  0.809155  1
  Pr  Pr7  1  0.809388  0.809388  0.190612  1
  Pr  Pr8  1  0.941225  0.560020  0.560947  1
  Pr  Pr9  1  0.560020  0.941225  0.937808  1
  Pr  Pr10  1  0.560020  0.941225  0.560947  1
  Pr  Pr11  1  0.941225  0.560020  0.937808  1
  Pr  Pr12  1  0.560401  0.560401  0.939599  1
  Pr  Pr13  1  0.939203  0.939203  0.560797  1
  Th  Th14  1  0.341529  0.341529  0.344148  1
  Th  Th15  1  0.341529  0.341529  0.972793  1
  Cd  Cd16  1  0.578135  0.578135  0.582094  1
  Cd  Cd17  1  0.578135  0.578135  0.261637  1
  Cd  Cd18  1  0.577059  0.261132  0.580904  1
  Cd  Cd19  1  0.261132  0.577059  0.580904  1
  Ru  Ru20  1  0.146883  0.146883  0.130148  1
  Ru  Ru21  1  0.146883  0.146883  0.576084  1
  Ru  Ru22  1  0.152673  0.569260  0.139033  1
  Ru  Ru23  1  0.569260  0.152673  0.139033  1
