# generated using pymatgen
data_SrAcTi2O6
_symmetry_space_group_name_H-M   'P 1'
_cell_length_a   5.64361801
_cell_length_b   5.64361841
_cell_length_c   7.95813300
_cell_angle_alpha   90.00000000
_cell_angle_beta   90.00000000
_cell_angle_gamma   90.72979822
_symmetry_Int_Tables_number   1
_chemical_formula_structural   SrAcTi2O6
_chemical_formula_sum   'Sr2 Ac2 Ti4 O12'
_cell_volume   253.44936881
_cell_formula_units_Z   2
loop_
 _symmetry_equiv_pos_site_id
 _symmetry_equiv_pos_as_xyz
  1  'x, y, z'
loop_
 _atom_site_type_symbol
 _atom_site_label
 _atom_site_symmetry_multiplicity
 _atom_site_fract_x
 _atom_site_fract_y
 _atom_site_fract_z
 _atom_site_occupancy
  Sr  Sr0  1  0.998060  0.001940  0.750000  1
  Sr  Sr1  1  0.001940  0.998060  0.250000  1
  Ac  Ac2  1  0.498083  0.501917  0.750000  1
  Ac  Ac3  1  0.501917  0.498083  0.250000  1
  Ti  Ti4  1  0.500000  0.000000  0.500000  1
  Ti  Ti5  1  0.000000  0.500000  0.500000  1
  Ti  Ti6  1  0.500000  0.000000  0.000000  1
  Ti  Ti7  1  0.000000  0.500000  0.000000  1
  O  O8  1  0.745907  0.745907  0.500000  1
  O  O9  1  0.745907  0.745907  0.000000  1
  O  O10  1  0.254093  0.254093  0.500000  1
  O  O11  1  0.254093  0.254093  0.000000  1
  O  O12  1  0.745560  0.254440  0.529801  1
  O  O13  1  0.254440  0.745560  0.470199  1
  O  O14  1  0.745560  0.254440  0.970199  1
  O  O15  1  0.254440  0.745560  0.029801  1
  O  O16  1  0.470005  0.970283  0.750000  1
  O  O17  1  0.970283  0.470005  0.250000  1
  O  O18  1  0.529995  0.029717  0.250000  1
  O  O19  1  0.029717  0.529995  0.750000  1
