# generated using pymatgen
data_Dy2Er3GaSb2
_symmetry_space_group_name_H-M   'P 1'
_cell_length_a   8.80543243
_cell_length_b   8.78315509
_cell_length_c   6.38300100
_cell_angle_alpha   90.00000000
_cell_angle_beta   90.00000000
_cell_angle_gamma   119.91634105
_symmetry_Int_Tables_number   1
_chemical_formula_structural   Dy2Er3GaSb2
_chemical_formula_sum   'Dy4 Er6 Ga2 Sb4'
_cell_volume   427.88028732
_cell_formula_units_Z   2
loop_
 _symmetry_equiv_pos_site_id
 _symmetry_equiv_pos_as_xyz
  1  'x, y, z'
loop_
 _atom_site_type_symbol
 _atom_site_label
 _atom_site_symmetry_multiplicity
 _atom_site_fract_x
 _atom_site_fract_y
 _atom_site_fract_z
 _atom_site_occupancy
  Dy  Dy0  1  0.011505  0.767341  0.750000  1
  Dy  Dy1  1  0.011505  0.244163  0.250000  1
  Dy  Dy2  1  0.752606  0.753389  0.250000  1
  Dy  Dy3  1  0.752606  0.999218  0.750000  1
  Er  Er4  1  0.244468  0.233032  0.750000  1
  Er  Er5  1  0.244468  0.011436  0.250000  1
  Er  Er6  1  0.335997  0.667999  0.500000  1
  Er  Er7  1  0.652798  0.326399  0.000000  1
  Er  Er8  1  0.652798  0.326399  0.500000  1
  Er  Er9  1  0.335997  0.667999  0.000000  1
  Ga  Ga10  1  0.394614  0.997700  0.750000  1
  Ga  Ga11  1  0.394614  0.396914  0.250000  1
  Sb  Sb12  1  0.999256  0.607707  0.250000  1
  Sb  Sb13  1  0.999256  0.391549  0.750000  1
  Sb  Sb14  1  0.608756  0.607156  0.750000  1
  Sb  Sb15  1  0.608756  0.001600  0.250000  1
