# generated using pymatgen
data_Dy7Er3(InSb)3
_symmetry_space_group_name_H-M   'P 1'
_cell_length_a   8.96290857
_cell_length_b   8.94549266
_cell_length_c   6.52834904
_cell_angle_alpha   89.99100259
_cell_angle_beta   89.99617759
_cell_angle_gamma   120.10494970
_symmetry_Int_Tables_number   1
_chemical_formula_structural   Dy7Er3(InSb)3
_chemical_formula_sum   'Dy7 Er3 In3 Sb3'
_cell_volume   452.82141681
_cell_formula_units_Z   1
loop_
 _symmetry_equiv_pos_site_id
 _symmetry_equiv_pos_as_xyz
  1  'x, y, z'
loop_
 _atom_site_type_symbol
 _atom_site_label
 _atom_site_symmetry_multiplicity
 _atom_site_fract_x
 _atom_site_fract_y
 _atom_site_fract_z
 _atom_site_occupancy
  Dy  Dy0  1  0.002448  0.763296  0.750136  1
  Dy  Dy1  1  0.003456  0.239181  0.249959  1
  Dy  Dy2  1  0.764115  0.760695  0.249928  1
  Dy  Dy3  1  0.761499  0.999792  0.750085  1
  Dy  Dy4  1  0.239629  0.236480  0.750115  1
  Dy  Dy5  1  0.237952  0.000444  0.249877  1
  Dy  Dy6  1  0.330564  0.665972  0.498940  1
  Er  Er7  1  0.664651  0.333796  0.000840  1
  Er  Er8  1  0.664605  0.333750  0.499120  1
  Er  Er9  1  0.330571  0.665993  0.001137  1
  In  In10  1  0.397828  0.000571  0.750296  1
  In  In11  1  0.395731  0.397680  0.249602  1
  In  In12  1  0.997458  0.601929  0.249674  1
  Sb  Sb13  1  0.996811  0.391867  0.750255  1
  Sb  Sb14  1  0.605755  0.608078  0.750325  1
  Sb  Sb15  1  0.606926  0.000477  0.249712  1
