# generated using pymatgen
data_SrHgGePt2
_symmetry_space_group_name_H-M   'P 1'
_cell_length_a   4.30158500
_cell_length_b   4.30158500
_cell_length_c   11.58253600
_cell_angle_alpha   90.00000000
_cell_angle_beta   90.00000000
_cell_angle_gamma   90.00000000
_symmetry_Int_Tables_number   1
_chemical_formula_structural   SrHgGePt2
_chemical_formula_sum   'Sr2 Hg2 Ge2 Pt4'
_cell_volume   214.31900129
_cell_formula_units_Z   2
loop_
 _symmetry_equiv_pos_site_id
 _symmetry_equiv_pos_as_xyz
  1  'x, y, z'
loop_
 _atom_site_type_symbol
 _atom_site_label
 _atom_site_symmetry_multiplicity
 _atom_site_fract_x
 _atom_site_fract_y
 _atom_site_fract_z
 _atom_site_occupancy
  Sr  Sr0  1  0.000000  0.500000  0.242783  1
  Sr  Sr1  1  0.500000  0.000000  0.757217  1
  Hg  Hg2  1  0.000000  0.000000  0.500000  1
  Hg  Hg3  1  0.500000  0.500000  0.500000  1
  Ge  Ge4  1  0.000000  0.500000  0.881058  1
  Ge  Ge5  1  0.500000  0.000000  0.118942  1
  Pt  Pt6  1  0.000000  0.000000  0.000000  1
  Pt  Pt7  1  0.500000  0.500000  0.000000  1
  Pt  Pt8  1  0.000000  0.500000  0.670924  1
  Pt  Pt9  1  0.500000  0.000000  0.329076  1
