# generated using pymatgen
data_Tb2Dy3Y3Pt4
_symmetry_space_group_name_H-M   'P 1'
_cell_length_a   4.76087600
_cell_length_b   7.18586999
_cell_length_c   8.84900481
_cell_angle_alpha   89.81915038
_cell_angle_beta   90.00000000
_cell_angle_gamma   90.00000000
_symmetry_Int_Tables_number   1
_chemical_formula_structural   Tb2Dy3Y3Pt4
_chemical_formula_sum   'Tb2 Dy3 Y3 Pt4'
_cell_volume   302.73211379
_cell_formula_units_Z   1
loop_
 _symmetry_equiv_pos_site_id
 _symmetry_equiv_pos_as_xyz
  1  'x, y, z'
loop_
 _atom_site_type_symbol
 _atom_site_label
 _atom_site_symmetry_multiplicity
 _atom_site_fract_x
 _atom_site_fract_y
 _atom_site_fract_z
 _atom_site_occupancy
  Tb  Tb0  1  0.750000  0.645194  0.419442  1
  Tb  Tb1  1  0.250000  0.991281  0.332369  1
  Dy  Dy2  1  0.250000  0.855463  0.919847  1
  Dy  Dy3  1  0.250000  0.354513  0.580250  1
  Dy  Dy4  1  0.750000  0.144591  0.079635  1
  Y  Y5  1  0.250000  0.490191  0.167534  1
  Y  Y6  1  0.750000  0.009633  0.669215  1
  Y  Y7  1  0.750000  0.509183  0.831865  1
  Pt  Pt8  1  0.250000  0.256687  0.906579  1
  Pt  Pt9  1  0.250000  0.758035  0.593962  1
  Pt  Pt10  1  0.750000  0.743352  0.092493  1
  Pt  Pt11  1  0.750000  0.241876  0.406809  1
