# generated using pymatgen
data_Tb6Mn3Co13(NiP6)2
_symmetry_space_group_name_H-M   'P 1'
_cell_length_a   3.72185000
_cell_length_b   10.56454300
_cell_length_c   12.22632000
_cell_angle_alpha   90.00000000
_cell_angle_beta   90.00000000
_cell_angle_gamma   90.00000000
_symmetry_Int_Tables_number   1
_chemical_formula_structural   Tb6Mn3Co13(NiP6)2
_chemical_formula_sum   'Tb6 Mn3 Co13 Ni2 P12'
_cell_volume   480.73455429
_cell_formula_units_Z   1
loop_
 _symmetry_equiv_pos_site_id
 _symmetry_equiv_pos_as_xyz
  1  'x, y, z'
loop_
 _atom_site_type_symbol
 _atom_site_label
 _atom_site_symmetry_multiplicity
 _atom_site_fract_x
 _atom_site_fract_y
 _atom_site_fract_z
 _atom_site_occupancy
  Tb  Tb0  1  0.000000  0.500000  0.519804  1
  Tb  Tb1  1  0.500000  0.000000  0.479551  1
  Tb  Tb2  1  0.500000  0.816831  0.204739  1
  Tb  Tb3  1  0.500000  0.183169  0.204739  1
  Tb  Tb4  1  0.000000  0.682160  0.796372  1
  Tb  Tb5  1  0.000000  0.317840  0.796372  1
  Mn  Mn6  1  0.500000  0.500000  0.151734  1
  Mn  Mn7  1  0.000000  0.000000  0.841911  1
  Mn  Mn8  1  0.000000  0.500000  0.989298  1
  Co  Co9  1  0.500000  0.000000  0.013687  1
  Co  Co10  1  0.500000  0.330445  0.994337  1
  Co  Co11  1  0.500000  0.669555  0.994337  1
  Co  Co12  1  0.000000  0.164734  0.004653  1
  Co  Co13  1  0.000000  0.835266  0.004653  1
  Co  Co14  1  0.500000  0.297233  0.431186  1
  Co  Co15  1  0.500000  0.702767  0.431186  1
  Co  Co16  1  0.000000  0.202577  0.569768  1
  Co  Co17  1  0.000000  0.797423  0.569768  1
  Co  Co18  1  0.500000  0.879343  0.709966  1
  Co  Co19  1  0.500000  0.120657  0.709966  1
  Co  Co20  1  0.000000  0.621352  0.290944  1
  Co  Co21  1  0.000000  0.378648  0.290944  1
  Ni  Ni22  1  0.500000  0.500000  0.700568  1
  Ni  Ni23  1  0.000000  0.000000  0.298385  1
  P  P24  1  0.500000  0.500000  0.884247  1
  P  P25  1  0.000000  0.000000  0.116087  1
  P  P26  1  0.500000  0.500000  0.344949  1
  P  P27  1  0.000000  0.000000  0.656651  1
  P  P28  1  0.500000  0.308835  0.615549  1
  P  P29  1  0.500000  0.691165  0.615549  1
  P  P30  1  0.000000  0.191004  0.385157  1
  P  P31  1  0.000000  0.808996  0.385157  1
  P  P32  1  0.500000  0.847848  0.893002  1
  P  P33  1  0.500000  0.152152  0.893002  1
  P  P34  1  0.000000  0.655388  0.105889  1
  P  P35  1  0.000000  0.344612  0.105889  1
