# generated using pymatgen
data_HgBiIrRuO7
_symmetry_space_group_name_H-M   'P 1'
_cell_length_a   7.45272654
_cell_length_b   7.31048756
_cell_length_c   7.34410790
_cell_angle_alpha   59.00857548
_cell_angle_beta   59.51644021
_cell_angle_gamma   59.43653485
_symmetry_Int_Tables_number   1
_chemical_formula_structural   HgBiIrRuO7
_chemical_formula_sum   'Hg2 Bi2 Ir2 Ru2 O14'
_cell_volume   278.54441268
_cell_formula_units_Z   2
loop_
 _symmetry_equiv_pos_site_id
 _symmetry_equiv_pos_as_xyz
  1  'x, y, z'
loop_
 _atom_site_type_symbol
 _atom_site_label
 _atom_site_symmetry_multiplicity
 _atom_site_fract_x
 _atom_site_fract_y
 _atom_site_fract_z
 _atom_site_occupancy
  Hg  Hg0  1  0.125000  0.125000  0.625000  1
  Hg  Hg1  1  0.125000  0.625000  0.125000  1
  Bi  Bi2  1  0.625000  0.125000  0.125000  1
  Bi  Bi3  1  0.125000  0.125000  0.125000  1
  Ir  Ir4  1  0.625000  0.125000  0.625000  1
  Ir  Ir5  1  0.625000  0.625000  0.625000  1
  Ru  Ru6  1  0.625000  0.625000  0.125000  1
  Ru  Ru7  1  0.125000  0.625000  0.625000  1
  O  O8  1  0.241300  0.258239  0.257885  1
  O  O9  1  0.008700  0.991761  0.992115  1
  O  O10  1  0.553461  0.955939  0.539738  1
  O  O11  1  0.307801  0.708681  0.301946  1
  O  O12  1  0.557253  0.540621  0.953537  1
  O  O13  1  0.938845  0.564919  0.558180  1
  O  O14  1  0.544046  0.955636  0.954659  1
  O  O15  1  0.947313  0.952193  0.537487  1
  O  O16  1  0.942199  0.541319  0.948054  1
  O  O17  1  0.705954  0.294364  0.295341  1
  O  O18  1  0.311155  0.685081  0.691820  1
  O  O19  1  0.696539  0.294061  0.710262  1
  O  O20  1  0.302687  0.297807  0.712513  1
  O  O21  1  0.692747  0.709379  0.296463  1
