# generated using pymatgen
data_Cd9Ag4Hg5
_symmetry_space_group_name_H-M   'P 1'
_cell_length_a   16.49345706
_cell_length_b   16.49345810
_cell_length_c   6.10210734
_cell_angle_alpha   96.39948709
_cell_angle_beta   96.39948843
_cell_angle_gamma   13.66100785
_symmetry_Int_Tables_number   1
_chemical_formula_structural   Cd9Ag4Hg5
_chemical_formula_sum   'Cd9 Ag4 Hg5'
_cell_volume   389.57126006
_cell_formula_units_Z   1
loop_
 _symmetry_equiv_pos_site_id
 _symmetry_equiv_pos_as_xyz
  1  'x, y, z'
loop_
 _atom_site_type_symbol
 _atom_site_label
 _atom_site_symmetry_multiplicity
 _atom_site_fract_x
 _atom_site_fract_y
 _atom_site_fract_z
 _atom_site_occupancy
  Cd  Cd0  1  0.447729  0.447729  0.222709  1
  Cd  Cd1  1  0.556658  0.556658  0.286958  1
  Cd  Cd2  1  0.777054  0.777054  0.378877  1
  Cd  Cd3  1  0.220958  0.220958  0.611303  1
  Cd  Cd4  1  0.446199  0.446199  0.709873  1
  Cd  Cd5  1  0.555486  0.555486  0.783602  1
  Cd  Cd6  1  0.666488  0.666488  0.849898  1
  Cd  Cd7  1  0.775912  0.775912  0.896249  1
  Cd  Cd8  1  0.887753  0.887753  0.937966  1
  Ag  Ag9  1  0.109966  0.109966  0.065582  1
  Ag  Ag10  1  0.223821  0.223821  0.103764  1
  Ag  Ag11  1  0.330719  0.330719  0.160293  1
  Ag  Ag12  1  0.002130  0.002130  0.501160  1
  Hg  Hg13  1  0.001273  0.001273  0.999446  1
  Hg  Hg14  1  0.668446  0.668446  0.327375  1
  Hg  Hg15  1  0.888349  0.888349  0.428488  1
  Hg  Hg16  1  0.111229  0.111229  0.570170  1
  Hg  Hg17  1  0.329830  0.329830  0.666287  1
