# generated using pymatgen
data_Pr4Nd4Sc12Ga11Si5
_symmetry_space_group_name_H-M   'P 1'
_cell_length_a   7.36713700
_cell_length_b   7.67585680
_cell_length_c   14.50470792
_cell_angle_alpha   89.94882582
_cell_angle_beta   90.13953836
_cell_angle_gamma   90.17135925
_symmetry_Int_Tables_number   1
_chemical_formula_structural   Pr4Nd4Sc12Ga11Si5
_chemical_formula_sum   'Pr4 Nd4 Sc12 Ga11 Si5'
_cell_volume   820.22159122
_cell_formula_units_Z   1
loop_
 _symmetry_equiv_pos_site_id
 _symmetry_equiv_pos_as_xyz
  1  'x, y, z'
loop_
 _atom_site_type_symbol
 _atom_site_label
 _atom_site_symmetry_multiplicity
 _atom_site_fract_x
 _atom_site_fract_y
 _atom_site_fract_z
 _atom_site_occupancy
  Pr  Pr0  1  0.988026  0.821125  0.594378  1
  Pr  Pr1  1  0.985638  0.825245  0.903873  1
  Pr  Pr2  1  0.510663  0.324014  0.095228  1
  Pr  Pr3  1  0.010988  0.177142  0.096090  1
  Nd  Nd4  1  0.014903  0.176273  0.404109  1
  Nd  Nd5  1  0.513042  0.325226  0.405406  1
  Nd  Nd6  1  0.489248  0.676613  0.904190  1
  Nd  Nd7  1  0.489188  0.677569  0.593660  1
  Sc  Sc8  1  0.328388  0.171601  0.622067  1
  Sc  Sc9  1  0.670629  0.824220  0.377580  1
  Sc  Sc10  1  0.664801  0.994985  0.752065  1
  Sc  Sc11  1  0.172993  0.674226  0.376684  1
  Sc  Sc12  1  0.823727  0.326210  0.876208  1
  Sc  Sc13  1  0.826189  0.330055  0.622877  1
  Sc  Sc14  1  0.839953  0.498046  0.252281  1
  Sc  Sc15  1  0.336480  0.004022  0.252608  1
  Sc  Sc16  1  0.332923  0.173868  0.875374  1
  Sc  Sc17  1  0.171626  0.670564  0.125180  1
  Sc  Sc18  1  0.671257  0.827625  0.123197  1
  Sc  Sc19  1  0.159182  0.501702  0.750599  1
  Ga  Ga20  1  0.287295  0.880519  0.749373  1
  Ga  Ga21  1  0.467970  0.620236  0.251189  1
  Ga  Ga22  1  0.031645  0.125157  0.749075  1
  Ga  Ga23  1  0.531161  0.381434  0.748951  1
  Ga  Ga24  1  0.154739  0.463366  0.541112  1
  Ga  Ga25  1  0.967938  0.876359  0.250416  1
  Ga  Ga26  1  0.712845  0.119255  0.251354  1
  Ga  Ga27  1  0.844434  0.537411  0.042199  1
  Ga  Ga28  1  0.344143  0.960619  0.040955  1
  Ga  Ga29  1  0.155682  0.462867  0.957253  1
  Ga  Ga30  1  0.655461  0.037991  0.540832  1
  Si  Si31  1  0.346415  0.963403  0.457657  1
  Si  Si32  1  0.848095  0.534467  0.456777  1
  Si  Si33  1  0.784370  0.616140  0.749270  1
  Si  Si34  1  0.215382  0.383514  0.251416  1
  Si  Si35  1  0.652581  0.036925  0.958515  1
