# generated using pymatgen
data_LaPr(AlCu4)2
_symmetry_space_group_name_H-M   'P 1'
_cell_length_a   4.21901900
_cell_length_b   5.14291402
_cell_length_c   8.97521322
_cell_angle_alpha   88.76097470
_cell_angle_beta   90.00000000
_cell_angle_gamma   90.00000000
_symmetry_Int_Tables_number   1
_chemical_formula_structural   LaPr(AlCu4)2
_chemical_formula_sum   'La1 Pr1 Al2 Cu8'
_cell_volume   194.69910901
_cell_formula_units_Z   1
loop_
 _symmetry_equiv_pos_site_id
 _symmetry_equiv_pos_as_xyz
  1  'x, y, z'
loop_
 _atom_site_type_symbol
 _atom_site_label
 _atom_site_symmetry_multiplicity
 _atom_site_fract_x
 _atom_site_fract_y
 _atom_site_fract_z
 _atom_site_occupancy
  La  La0  1  0.000000  0.999977  0.000002  1
  Pr  Pr1  1  0.000000  0.499992  0.499988  1
  Al  Al2  1  0.500000  0.251104  0.251668  1
  Al  Al3  1  0.500000  0.748874  0.748343  1
  Cu  Cu4  1  0.000000  0.001416  0.334233  1
  Cu  Cu5  1  0.000000  0.500863  0.832181  1
  Cu  Cu6  1  0.000000  0.499080  0.167783  1
  Cu  Cu7  1  0.000000  0.998548  0.665779  1
  Cu  Cu8  1  0.500000  0.999988  0.500009  1
  Cu  Cu9  1  0.500000  0.499997  0.999997  1
  Cu  Cu10  1  0.500000  0.749549  0.251998  1
  Cu  Cu11  1  0.500000  0.250414  0.748019  1
