# generated using pymatgen
data_Pr(Nd3Pb2)3
_symmetry_space_group_name_H-M   'P 1'
_cell_length_a   9.40902660
_cell_length_b   9.40319137
_cell_length_c   6.95060100
_cell_angle_alpha   90.00000000
_cell_angle_beta   90.00000000
_cell_angle_gamma   119.97947982
_symmetry_Int_Tables_number   1
_chemical_formula_structural   Pr(Nd3Pb2)3
_chemical_formula_sum   'Pr1 Nd9 Pb6'
_cell_volume   532.67550413
_cell_formula_units_Z   1
loop_
 _symmetry_equiv_pos_site_id
 _symmetry_equiv_pos_as_xyz
  1  'x, y, z'
loop_
 _atom_site_type_symbol
 _atom_site_label
 _atom_site_symmetry_multiplicity
 _atom_site_fract_x
 _atom_site_fract_y
 _atom_site_fract_z
 _atom_site_occupancy
  Pr  Pr0  1  0.000000  0.760841  0.250000  1
  Nd  Nd1  1  0.666576  0.333192  0.999938  1
  Nd  Nd2  1  0.333424  0.666617  0.999938  1
  Nd  Nd3  1  0.333424  0.666617  0.500062  1
  Nd  Nd4  1  0.666576  0.333192  0.500062  1
  Nd  Nd5  1  0.760356  0.760551  0.750000  1
  Nd  Nd6  1  0.239644  0.000195  0.750000  1
  Nd  Nd7  1  0.000000  0.239323  0.750000  1
  Nd  Nd8  1  0.239600  0.239643  0.250000  1
  Nd  Nd9  1  0.760400  0.000043  0.250000  1
  Pb  Pb10  1  0.394567  0.394551  0.750000  1
  Pb  Pb11  1  0.605433  0.999984  0.750000  1
  Pb  Pb12  1  0.000000  0.605450  0.750000  1
  Pb  Pb13  1  0.604585  0.605119  0.250000  1
  Pb  Pb14  1  0.395415  0.000533  0.250000  1
  Pb  Pb15  1  0.000000  0.394152  0.250000  1
