# generated using pymatgen
data_Pr7Dy(Si3Pt)4
_symmetry_space_group_name_H-M   'P 1'
_cell_length_a   8.24329116
_cell_length_b   8.24329206
_cell_length_c   8.64243500
_cell_angle_alpha   90.00000000
_cell_angle_beta   90.00000000
_cell_angle_gamma   119.97720473
_symmetry_Int_Tables_number   1
_chemical_formula_structural   Pr7Dy(Si3Pt)4
_chemical_formula_sum   'Pr7 Dy1 Si12 Pt4'
_cell_volume   508.70709212
_cell_formula_units_Z   1
loop_
 _symmetry_equiv_pos_site_id
 _symmetry_equiv_pos_as_xyz
  1  'x, y, z'
loop_
 _atom_site_type_symbol
 _atom_site_label
 _atom_site_symmetry_multiplicity
 _atom_site_fract_x
 _atom_site_fract_y
 _atom_site_fract_z
 _atom_site_occupancy
  Pr  Pr0  1  0.500157  0.499843  0.250000  1
  Pr  Pr1  1  0.000389  0.500176  0.750000  1
  Pr  Pr2  1  0.999696  0.499858  0.250000  1
  Pr  Pr3  1  0.499824  0.999611  0.750000  1
  Pr  Pr4  1  0.500142  0.000304  0.250000  1
  Pr  Pr5  1  0.000002  0.999998  0.750000  1
  Pr  Pr6  1  0.999998  0.000002  0.250000  1
  Dy  Dy7  1  0.499913  0.500087  0.750000  1
  Si  Si8  1  0.833660  0.166340  0.000402  1
  Si  Si9  1  0.166313  0.833687  0.999922  1
  Si  Si10  1  0.331933  0.166775  0.998414  1
  Si  Si11  1  0.166313  0.833687  0.500078  1
  Si  Si12  1  0.668046  0.833181  0.997786  1
  Si  Si13  1  0.833660  0.166340  0.499598  1
  Si  Si14  1  0.833225  0.668067  0.998414  1
  Si  Si15  1  0.668046  0.833181  0.502214  1
  Si  Si16  1  0.166819  0.331954  0.997786  1
  Si  Si17  1  0.331933  0.166775  0.501586  1
  Si  Si18  1  0.166819  0.331954  0.502214  1
  Si  Si19  1  0.833225  0.668067  0.501586  1
  Pt  Pt20  1  0.665466  0.334534  0.994734  1
  Pt  Pt21  1  0.334476  0.665524  0.996130  1
  Pt  Pt22  1  0.334476  0.665524  0.503870  1
  Pt  Pt23  1  0.665466  0.334534  0.505266  1
