# generated using pymatgen
data_Y5Ho3Tc2(B12Ru)2
_symmetry_space_group_name_H-M   'P 1'
_cell_length_a   3.67160200
_cell_length_b   9.15519087
_cell_length_c   11.54808603
_cell_angle_alpha   89.86252993
_cell_angle_beta   90.00000000
_cell_angle_gamma   90.00000000
_symmetry_Int_Tables_number   1
_chemical_formula_structural   Y5Ho3Tc2(B12Ru)2
_chemical_formula_sum   'Y5 Ho3 Tc2 B24 Ru2'
_cell_volume   388.17875358
_cell_formula_units_Z   1
loop_
 _symmetry_equiv_pos_site_id
 _symmetry_equiv_pos_as_xyz
  1  'x, y, z'
loop_
 _atom_site_type_symbol
 _atom_site_label
 _atom_site_symmetry_multiplicity
 _atom_site_fract_x
 _atom_site_fract_y
 _atom_site_fract_z
 _atom_site_occupancy
  Y  Y0  1  0.000000  0.324987  0.415546  1
  Y  Y1  1  0.000000  0.675007  0.584561  1
  Y  Y2  1  0.000000  0.821121  0.087273  1
  Y  Y3  1  0.000000  0.178867  0.912617  1
  Y  Y4  1  0.000000  0.942224  0.370844  1
  Ho  Ho5  1  0.000000  0.057964  0.629771  1
  Ho  Ho6  1  0.000000  0.443054  0.130047  1
  Ho  Ho7  1  0.000000  0.556968  0.869873  1
  Tc  Tc8  1  0.000000  0.638230  0.319909  1
  Tc  Tc9  1  0.000000  0.361287  0.680096  1
  B  B10  1  0.500000  0.553104  0.432761  1
  B  B11  1  0.500000  0.446697  0.567304  1
  B  B12  1  0.500000  0.053996  0.067156  1
  B  B13  1  0.500000  0.946023  0.932693  1
  B  B14  1  0.500000  0.748051  0.418736  1
  B  B15  1  0.500000  0.251419  0.581412  1
  B  B16  1  0.500000  0.248714  0.081391  1
  B  B17  1  0.500000  0.751390  0.918537  1
  B  B18  1  0.500000  0.791096  0.265239  1
  B  B19  1  0.500000  0.208562  0.734532  1
  B  B20  1  0.500000  0.290745  0.233928  1
  B  B21  1  0.500000  0.709443  0.766015  1
  B  B22  1  0.500000  0.630926  0.185207  1
  B  B23  1  0.500000  0.368964  0.814685  1
  B  B24  1  0.500000  0.131228  0.313718  1
  B  B25  1  0.500000  0.869206  0.686196  1
  B  B26  1  0.500000  0.983542  0.211663  1
  B  B27  1  0.500000  0.016591  0.787957  1
  B  B28  1  0.500000  0.482733  0.287406  1
  B  B29  1  0.500000  0.517167  0.712553  1
  B  B30  1  0.500000  0.603226  0.028395  1
  B  B31  1  0.500000  0.396778  0.971547  1
  B  B32  1  0.500000  0.104025  0.471451  1
  B  B33  1  0.500000  0.896327  0.529311  1
  Ru  Ru34  1  0.000000  0.138280  0.178345  1
  Ru  Ru35  1  0.000000  0.862057  0.821325  1
