# generated using pymatgen
data_LuTh3(Ni2Hg)2
_symmetry_space_group_name_H-M   'P 1'
_cell_length_a   7.56394811
_cell_length_b   7.56394830
_cell_length_c   3.66610300
_cell_angle_alpha   90.00000000
_cell_angle_beta   90.00000000
_cell_angle_gamma   91.17846545
_symmetry_Int_Tables_number   1
_chemical_formula_structural   LuTh3(Ni2Hg)2
_chemical_formula_sum   'Lu1 Th3 Ni4 Hg2'
_cell_volume   209.70553080
_cell_formula_units_Z   1
loop_
 _symmetry_equiv_pos_site_id
 _symmetry_equiv_pos_as_xyz
  1  'x, y, z'
loop_
 _atom_site_type_symbol
 _atom_site_label
 _atom_site_symmetry_multiplicity
 _atom_site_fract_x
 _atom_site_fract_y
 _atom_site_fract_z
 _atom_site_occupancy
  Lu  Lu0  1  0.826925  0.673075  0.500000  1
  Th  Th1  1  0.676010  0.172356  0.500000  1
  Th  Th2  1  0.327644  0.823990  0.500000  1
  Th  Th3  1  0.170409  0.329591  0.500000  1
  Ni  Ni4  1  0.121594  0.621417  0.000000  1
  Ni  Ni5  1  0.878583  0.378406  0.000000  1
  Ni  Ni6  1  0.617270  0.882730  0.000000  1
  Ni  Ni7  1  0.375095  0.124905  0.000000  1
  Hg  Hg8  1  0.512001  0.505530  0.000000  1
  Hg  Hg9  1  0.994470  0.987999  0.000000  1
