# generated using pymatgen
data_Er10Tl6CuAs
_symmetry_space_group_name_H-M   'P 1'
_cell_length_a   9.12244000
_cell_length_b   9.12243895
_cell_length_c   6.67367800
_cell_angle_alpha   90.00000000
_cell_angle_beta   90.00000000
_cell_angle_gamma   120.00001104
_symmetry_Int_Tables_number   1
_chemical_formula_structural   Er10Tl6CuAs
_chemical_formula_sum   'Er10 Tl6 Cu1 As1'
_cell_volume   480.96980586
_cell_formula_units_Z   1
loop_
 _symmetry_equiv_pos_site_id
 _symmetry_equiv_pos_as_xyz
  1  'x, y, z'
loop_
 _atom_site_type_symbol
 _atom_site_label
 _atom_site_symmetry_multiplicity
 _atom_site_fract_x
 _atom_site_fract_y
 _atom_site_fract_z
 _atom_site_occupancy
  Er  Er0  1  0.252149  0.000000  0.246313  1
  Er  Er1  1  0.747851  0.000000  0.753687  1
  Er  Er2  1  0.000000  0.252149  0.246313  1
  Er  Er3  1  0.000000  0.747851  0.753687  1
  Er  Er4  1  0.747851  0.747851  0.246313  1
  Er  Er5  1  0.252149  0.252149  0.753687  1
  Er  Er6  1  0.333333  0.666667  0.000000  1
  Er  Er7  1  0.666667  0.333333  0.000000  1
  Er  Er8  1  0.666667  0.333333  0.500000  1
  Er  Er9  1  0.333333  0.666667  0.500000  1
  Tl  Tl10  1  0.603921  0.000000  0.251838  1
  Tl  Tl11  1  0.396079  0.000000  0.748162  1
  Tl  Tl12  1  0.000000  0.603921  0.251838  1
  Tl  Tl13  1  0.000000  0.396079  0.748162  1
  Tl  Tl14  1  0.396079  0.396079  0.251838  1
  Tl  Tl15  1  0.603921  0.603921  0.748162  1
  Cu  Cu16  1  0.000000  0.000000  0.500000  1
  As  As17  1  0.000000  0.000000  0.000000  1
