# generated using pymatgen
data_Ho3Th(InCu2)2
_symmetry_space_group_name_H-M   'P 1'
_cell_length_a   7.57065456
_cell_length_b   7.57065417
_cell_length_c   3.72291300
_cell_angle_alpha   90.00000000
_cell_angle_beta   90.00000000
_cell_angle_gamma   90.83540538
_symmetry_Int_Tables_number   1
_chemical_formula_structural   Ho3Th(InCu2)2
_chemical_formula_sum   'Ho3 Th1 In2 Cu4'
_cell_volume   213.35536112
_cell_formula_units_Z   1
loop_
 _symmetry_equiv_pos_site_id
 _symmetry_equiv_pos_as_xyz
  1  'x, y, z'
loop_
 _atom_site_type_symbol
 _atom_site_label
 _atom_site_symmetry_multiplicity
 _atom_site_fract_x
 _atom_site_fract_y
 _atom_site_fract_z
 _atom_site_occupancy
  Ho  Ho0  1  0.325098  0.825098  0.500000  1
  Ho  Ho1  1  0.174132  0.327534  0.500000  1
  Ho  Ho2  1  0.827534  0.674132  0.500000  1
  Th  Th3  1  0.673768  0.173768  0.500000  1
  In  In4  1  0.006725  0.994329  0.000000  1
  In  In5  1  0.494329  0.506725  0.000000  1
  Cu  Cu6  1  0.121708  0.621708  0.000000  1
  Cu  Cu7  1  0.883127  0.383127  0.000000  1
  Cu  Cu8  1  0.619148  0.874432  0.000000  1
  Cu  Cu9  1  0.374432  0.119148  0.000000  1
