# generated using pymatgen
data_ThNbP7Ru12
_symmetry_space_group_name_H-M   'P 1'
_cell_length_a   9.43119600
_cell_length_b   9.43119522
_cell_length_c   3.91481700
_cell_angle_alpha   90.00000000
_cell_angle_beta   90.00000000
_cell_angle_gamma   120.00000180
_symmetry_Int_Tables_number   1
_chemical_formula_structural   ThNbP7Ru12
_chemical_formula_sum   'Th1 Nb1 P7 Ru12'
_cell_volume   301.56129138
_cell_formula_units_Z   1
loop_
 _symmetry_equiv_pos_site_id
 _symmetry_equiv_pos_as_xyz
  1  'x, y, z'
loop_
 _atom_site_type_symbol
 _atom_site_label
 _atom_site_symmetry_multiplicity
 _atom_site_fract_x
 _atom_site_fract_y
 _atom_site_fract_z
 _atom_site_occupancy
  Th  Th0  1  0.333333  0.666667  0.000000  1
  Nb  Nb1  1  0.666667  0.333333  0.500000  1
  P  P2  1  0.603790  0.718452  0.500000  1
  P  P3  1  0.000000  0.000000  0.000000  1
  P  P4  1  0.281548  0.885338  0.500000  1
  P  P5  1  0.114662  0.396210  0.500000  1
  P  P6  1  0.886546  0.573837  0.000000  1
  P  P7  1  0.426163  0.312708  0.000000  1
  P  P8  1  0.687292  0.113454  0.000000  1
  Ru  Ru9  1  0.559709  0.957908  0.500000  1
  Ru  Ru10  1  0.398199  0.440291  0.500000  1
  Ru  Ru11  1  0.911891  0.122343  0.500000  1
  Ru  Ru12  1  0.210452  0.088109  0.500000  1
  Ru  Ru13  1  0.877657  0.789548  0.500000  1
  Ru  Ru14  1  0.724879  0.887184  0.000000  1
  Ru  Ru15  1  0.112816  0.837694  0.000000  1
  Ru  Ru16  1  0.162306  0.275121  0.000000  1
  Ru  Ru17  1  0.431802  0.079683  0.000000  1
  Ru  Ru18  1  0.920317  0.352120  0.000000  1
  Ru  Ru19  1  0.647880  0.568198  0.000000  1
  Ru  Ru20  1  0.042092  0.601801  0.500000  1
