# generated using pymatgen
data_EuDySe2
_symmetry_space_group_name_H-M   'P 1'
_cell_length_a   7.34395703
_cell_length_b   7.34395670
_cell_length_c   7.34395664
_cell_angle_alpha   33.19681171
_cell_angle_beta   33.19681658
_cell_angle_gamma   33.19681023
_symmetry_Int_Tables_number   1
_chemical_formula_structural   EuDySe2
_chemical_formula_sum   'Eu1 Dy1 Se2'
_cell_volume   105.69921807
_cell_formula_units_Z   1
loop_
 _symmetry_equiv_pos_site_id
 _symmetry_equiv_pos_as_xyz
  1  'x, y, z'
loop_
 _atom_site_type_symbol
 _atom_site_label
 _atom_site_symmetry_multiplicity
 _atom_site_fract_x
 _atom_site_fract_y
 _atom_site_fract_z
 _atom_site_occupancy
  Eu  Eu0  1  0.500000  0.500000  0.500000  1
  Dy  Dy1  1  0.000000  0.000000  0.000000  1
  Se  Se2  1  0.745118  0.745118  0.745118  1
  Se  Se3  1  0.254882  0.254882  0.254882  1
