# generated using pymatgen
data_SmTm3(Bi2O7)2
_symmetry_space_group_name_H-M   'P 1'
_cell_length_a   6.60158367
_cell_length_b   6.68182086
_cell_length_c   7.76346800
_cell_angle_alpha   106.82207453
_cell_angle_beta   89.62463508
_cell_angle_gamma   98.61026685
_symmetry_Int_Tables_number   1
_chemical_formula_structural   SmTm3(Bi2O7)2
_chemical_formula_sum   'Sm1 Tm3 Bi4 O14'
_cell_volume   323.85788905
_cell_formula_units_Z   1
loop_
 _symmetry_equiv_pos_site_id
 _symmetry_equiv_pos_as_xyz
  1  'x, y, z'
loop_
 _atom_site_type_symbol
 _atom_site_label
 _atom_site_symmetry_multiplicity
 _atom_site_fract_x
 _atom_site_fract_y
 _atom_site_fract_z
 _atom_site_occupancy
  Sm  Sm0  1  0.737340  0.460976  0.112565  1
  Tm  Tm1  1  0.461214  0.003852  0.251001  1
  Tm  Tm2  1  0.536816  0.992855  0.748265  1
  Tm  Tm3  1  0.262655  0.537725  0.886447  1
  Bi  Bi4  1  0.001785  0.004136  0.502179  1
  Bi  Bi5  1  0.003720  0.999666  0.998543  1
  Bi  Bi6  1  0.723088  0.465194  0.616888  1
  Bi  Bi7  1  0.269782  0.533804  0.385109  1
  O  O8  1  0.441925  0.655015  0.162691  1
  O  O9  1  0.543257  0.342447  0.830973  1
  O  O10  1  0.306836  0.923514  0.949778  1
  O  O11  1  0.698567  0.071931  0.052649  1
  O  O12  1  0.304327  0.923077  0.512922  1
  O  O13  1  0.697538  0.077482  0.486690  1
  O  O14  1  0.538688  0.356590  0.343204  1
  O  O15  1  0.454097  0.642343  0.663341  1
  O  O16  1  0.940207  0.667313  0.956416  1
  O  O17  1  0.074716  0.329923  0.033527  1
  O  O18  1  0.092301  0.330455  0.633234  1
  O  O19  1  0.912163  0.676896  0.372481  1
  O  O20  1  0.870094  0.923033  0.731225  1
  O  O21  1  0.128883  0.081773  0.269871  1
