# generated using pymatgen
data_LiPr9Si5Sn
_symmetry_space_group_name_H-M   'P 1'
_cell_length_a   7.81797662
_cell_length_b   7.81797490
_cell_length_c   9.10736743
_cell_angle_alpha   115.41754026
_cell_angle_beta   115.41753529
_cell_angle_gamma   90.00000218
_symmetry_Int_Tables_number   1
_chemical_formula_structural   LiPr9Si5Sn
_chemical_formula_sum   'Li1 Pr9 Si5 Sn1'
_cell_volume   442.37136264
_cell_formula_units_Z   1
loop_
 _symmetry_equiv_pos_site_id
 _symmetry_equiv_pos_as_xyz
  1  'x, y, z'
loop_
 _atom_site_type_symbol
 _atom_site_label
 _atom_site_symmetry_multiplicity
 _atom_site_fract_x
 _atom_site_fract_y
 _atom_site_fract_z
 _atom_site_occupancy
  Li  Li0  1  0.507521  0.507521  0.015043  1
  Pr  Pr1  1  0.000773  0.000773  0.001546  1
  Pr  Pr2  1  0.961011  0.817683  0.280838  1
  Pr  Pr3  1  0.319826  0.463154  0.280838  1
  Pr  Pr4  1  0.817683  0.319826  0.280838  1
  Pr  Pr5  1  0.463154  0.961011  0.280838  1
  Pr  Pr6  1  0.050406  0.193406  0.718162  1
  Pr  Pr7  1  0.667757  0.524756  0.718162  1
  Pr  Pr8  1  0.193406  0.667757  0.718162  1
  Pr  Pr9  1  0.524756  0.050406  0.718162  1
  Si  Si10  1  0.235411  0.235411  0.470820  1
  Si  Si11  1  0.614709  0.889864  0.999117  1
  Si  Si12  1  0.384408  0.109252  0.999117  1
  Si  Si13  1  0.889864  0.384408  0.999117  1
  Si  Si14  1  0.109252  0.614709  0.999117  1
  Sn  Sn15  1  0.760062  0.760062  0.520124  1
