# generated using pymatgen
data_La9Pr3(YRh3)2
_symmetry_space_group_name_H-M   'P 1'
_cell_length_a   6.42662101
_cell_length_b   10.23335802
_cell_length_c   10.23335818
_cell_angle_alpha   119.97570903
_cell_angle_beta   89.99502695
_cell_angle_gamma   90.00497234
_symmetry_Int_Tables_number   1
_chemical_formula_structural   La9Pr3(YRh3)2
_chemical_formula_sum   'La9 Pr3 Y2 Rh6'
_cell_volume   582.98303048
_cell_formula_units_Z   1
loop_
 _symmetry_equiv_pos_site_id
 _symmetry_equiv_pos_as_xyz
  1  'x, y, z'
loop_
 _atom_site_type_symbol
 _atom_site_label
 _atom_site_symmetry_multiplicity
 _atom_site_fract_x
 _atom_site_fract_y
 _atom_site_fract_z
 _atom_site_occupancy
  La  La0  1  0.261100  0.127477  0.872523  1
  La  La1  1  0.261140  0.745054  0.872506  1
  La  La2  1  0.261140  0.127494  0.254946  1
  La  La3  1  0.759888  0.873114  0.126886  1
  La  La4  1  0.759846  0.253735  0.126883  1
  La  La5  1  0.759846  0.873117  0.746265  1
  La  La6  1  0.435824  0.541892  0.458108  1
  La  La7  1  0.435632  0.916220  0.458154  1
  La  La8  1  0.435632  0.541846  0.083780  1
  Pr  Pr9  1  0.937434  0.457516  0.542484  1
  Pr  Pr10  1  0.937291  0.084950  0.542443  1
  Pr  Pr11  1  0.937291  0.457557  0.915050  1
  Y  Y12  1  0.464829  0.333332  0.666668  1
  Y  Y13  1  0.963521  0.666656  0.333344  1
  Rh  Rh14  1  0.182242  0.810136  0.189864  1
  Rh  Rh15  1  0.182407  0.379830  0.189995  1
  Rh  Rh16  1  0.182407  0.810005  0.620170  1
  Rh  Rh17  1  0.676056  0.188332  0.811668  1
  Rh  Rh18  1  0.676240  0.623285  0.811548  1
  Rh  Rh19  1  0.676240  0.188452  0.376715  1
