# generated using pymatgen
data_Y10Si5P
_symmetry_space_group_name_H-M   'P 1'
_cell_length_a   8.42952500
_cell_length_b   8.43443750
_cell_length_c   6.32999000
_cell_angle_alpha   90.00000000
_cell_angle_beta   90.00000000
_cell_angle_gamma   119.98073119
_symmetry_Int_Tables_number   1
_chemical_formula_structural   Y10Si5P
_chemical_formula_sum   'Y10 Si5 P1'
_cell_volume   389.83172120
_cell_formula_units_Z   1
loop_
 _symmetry_equiv_pos_site_id
 _symmetry_equiv_pos_as_xyz
  1  'x, y, z'
loop_
 _atom_site_type_symbol
 _atom_site_label
 _atom_site_symmetry_multiplicity
 _atom_site_fract_x
 _atom_site_fract_y
 _atom_site_fract_z
 _atom_site_occupancy
  Y  Y0  1  0.001088  0.756413  0.750000  1
  Y  Y1  1  0.000893  0.244687  0.250000  1
  Y  Y2  1  0.756206  0.755313  0.250000  1
  Y  Y3  1  0.754453  0.000000  0.750000  1
  Y  Y4  1  0.244674  0.243587  0.750000  1
  Y  Y5  1  0.244524  0.000000  0.250000  1
  Y  Y6  1  0.333680  0.667509  0.500443  1
  Y  Y7  1  0.666172  0.332491  0.999557  1
  Y  Y8  1  0.666172  0.332491  0.500443  1
  Y  Y9  1  0.333680  0.667509  0.999557  1
  Si  Si10  1  0.393864  0.393184  0.250000  1
  Si  Si11  1  0.000681  0.606816  0.250000  1
  Si  Si12  1  0.000140  0.393326  0.750000  1
  Si  Si13  1  0.606814  0.606674  0.750000  1
  Si  Si14  1  0.607609  0.000000  0.250000  1
  P  P15  1  0.389347  0.000000  0.750000  1
