# generated using pymatgen
data_V(RuI4)3
_symmetry_space_group_name_H-M   'P 1'
_cell_length_a   6.37420700
_cell_length_b   7.60545889
_cell_length_c   13.25041600
_cell_angle_alpha   90.00000000
_cell_angle_beta   90.00000000
_cell_angle_gamma   90.04035700
_symmetry_Int_Tables_number   1
_chemical_formula_structural   V(RuI4)3
_chemical_formula_sum   'V1 Ru3 I12'
_cell_volume   642.36370069
_cell_formula_units_Z   1
loop_
 _symmetry_equiv_pos_site_id
 _symmetry_equiv_pos_as_xyz
  1  'x, y, z'
loop_
 _atom_site_type_symbol
 _atom_site_label
 _atom_site_symmetry_multiplicity
 _atom_site_fract_x
 _atom_site_fract_y
 _atom_site_fract_z
 _atom_site_occupancy
  V  V0  1  0.225771  0.750808  0.000000  1
  Ru  Ru1  1  0.278216  0.249142  0.500000  1
  Ru  Ru2  1  0.721154  0.249349  0.500000  1
  Ru  Ru3  1  0.768845  0.750825  0.000000  1
  I  I4  1  0.499535  0.396608  0.352614  1
  I  I5  1  0.997588  0.603494  0.852445  1
  I  I6  1  0.997588  0.603494  0.147555  1
  I  I7  1  0.499535  0.396608  0.647386  1
  I  I8  1  0.505189  0.890779  0.861185  1
  I  I9  1  0.999490  0.111057  0.362869  1
  I  I10  1  0.999490  0.111057  0.637131  1
  I  I11  1  0.505189  0.890779  0.138815  1
  I  I12  1  0.499506  0.953319  0.500000  1
  I  I13  1  0.997573  0.048553  0.000000  1
  I  I14  1  0.505365  0.468664  0.000000  1
  I  I15  1  0.999965  0.525463  0.500000  1
