# generated using pymatgen
data_Sm2Sc3Si4(GePt3)3
_symmetry_space_group_name_H-M   'P 1'
_cell_length_a   10.15712500
_cell_length_b   10.15712587
_cell_length_c   4.04614300
_cell_angle_alpha   90.00000000
_cell_angle_beta   90.00000000
_cell_angle_gamma   120.00000041
_symmetry_Int_Tables_number   1
_chemical_formula_structural   Sm2Sc3Si4(GePt3)3
_chemical_formula_sum   'Sm2 Sc3 Si4 Ge3 Pt9'
_cell_volume   361.50431818
_cell_formula_units_Z   1
loop_
 _symmetry_equiv_pos_site_id
 _symmetry_equiv_pos_as_xyz
  1  'x, y, z'
loop_
 _atom_site_type_symbol
 _atom_site_label
 _atom_site_symmetry_multiplicity
 _atom_site_fract_x
 _atom_site_fract_y
 _atom_site_fract_z
 _atom_site_occupancy
  Sm  Sm0  1  0.000000  0.000000  0.000000  1
  Sm  Sm1  1  0.333333  0.666667  0.500000  1
  Sc  Sc2  1  0.893423  0.454337  0.500000  1
  Sc  Sc3  1  0.560914  0.106577  0.500000  1
  Sc  Sc4  1  0.545663  0.439086  0.500000  1
  Si  Si5  1  0.557137  0.646760  0.000000  1
  Si  Si6  1  0.353240  0.910376  0.000000  1
  Si  Si7  1  0.089624  0.442863  0.000000  1
  Si  Si8  1  0.666667  0.333333  0.000000  1
  Ge  Ge9  1  0.245868  0.197632  0.500000  1
  Ge  Ge10  1  0.802368  0.048238  0.500000  1
  Ge  Ge11  1  0.951762  0.754132  0.500000  1
  Pt  Pt12  1  0.231032  0.935361  0.500000  1
  Pt  Pt13  1  0.064639  0.295670  0.500000  1
  Pt  Pt14  1  0.704330  0.768968  0.500000  1
  Pt  Pt15  1  0.315855  0.415376  0.000000  1
  Pt  Pt16  1  0.584624  0.900479  0.000000  1
  Pt  Pt17  1  0.099521  0.684145  0.000000  1
  Pt  Pt18  1  0.390553  0.171800  0.000000  1
  Pt  Pt19  1  0.828200  0.218753  0.000000  1
  Pt  Pt20  1  0.781247  0.609447  0.000000  1
