# generated using pymatgen
data_EuMnSi2Os
_symmetry_space_group_name_H-M   'P 1'
_cell_length_a   6.00707149
_cell_length_b   6.00707160
_cell_length_c   6.00707091
_cell_angle_alpha   140.34239737
_cell_angle_beta   140.34239542
_cell_angle_gamma   57.33377944
_symmetry_Int_Tables_number   1
_chemical_formula_structural   EuMnSi2Os
_chemical_formula_sum   'Eu1 Mn1 Si2 Os1'
_cell_volume   87.53809554
_cell_formula_units_Z   1
loop_
 _symmetry_equiv_pos_site_id
 _symmetry_equiv_pos_as_xyz
  1  'x, y, z'
loop_
 _atom_site_type_symbol
 _atom_site_label
 _atom_site_symmetry_multiplicity
 _atom_site_fract_x
 _atom_site_fract_y
 _atom_site_fract_z
 _atom_site_occupancy
  Eu  Eu0  1  0.000000  0.000000  0.000000  1
  Mn  Mn1  1  0.750000  0.250000  0.499999  1
  Si  Si2  1  0.374031  0.374031  0.000000  1
  Si  Si3  1  0.625968  0.625968  0.000000  1
  Os  Os4  1  0.250000  0.750000  0.499999  1
