# generated using pymatgen
data_Tm7Lu3IrPt5
_symmetry_space_group_name_H-M   'P 1'
_cell_length_a   10.87316470
_cell_length_b   10.87511601
_cell_length_c   6.32069003
_cell_angle_alpha   89.99713608
_cell_angle_beta   89.97376436
_cell_angle_gamma   89.99771275
_symmetry_Int_Tables_number   1
_chemical_formula_structural   Tm7Lu3IrPt5
_chemical_formula_sum   'Tm14 Lu6 Ir2 Pt10'
_cell_volume   747.40209577
_cell_formula_units_Z   2
loop_
 _symmetry_equiv_pos_site_id
 _symmetry_equiv_pos_as_xyz
  1  'x, y, z'
loop_
 _atom_site_type_symbol
 _atom_site_label
 _atom_site_symmetry_multiplicity
 _atom_site_fract_x
 _atom_site_fract_y
 _atom_site_fract_z
 _atom_site_occupancy
  Tm  Tm0  1  0.708345  0.087331  0.876256  1
  Tm  Tm1  1  0.708328  0.912767  0.376253  1
  Tm  Tm2  1  0.587046  0.791628  0.876367  1
  Tm  Tm3  1  0.587007  0.208444  0.376349  1
  Tm  Tm4  1  0.412007  0.791995  0.376118  1
  Tm  Tm5  1  0.412017  0.208114  0.876090  1
  Tm  Tm6  1  0.205780  0.413376  0.624251  1
  Tm  Tm7  1  0.205764  0.586695  0.124278  1
  Tm  Tm8  1  0.794049  0.413335  0.124611  1
  Tm  Tm9  1  0.794048  0.586767  0.624600  1
  Tm  Tm10  1  0.913236  0.706169  0.124731  1
  Tm  Tm11  1  0.913240  0.293917  0.624710  1
  Tm  Tm12  1  0.087006  0.706329  0.624403  1
  Tm  Tm13  1  0.087030  0.293736  0.124328  1
  Lu  Lu14  1  0.292249  0.086999  0.376766  1
  Lu  Lu15  1  0.292253  0.913083  0.876782  1
  Lu  Lu16  1  0.000470  0.000093  0.500511  1
  Lu  Lu17  1  0.000476  0.000007  0.000532  1
  Lu  Lu18  1  0.499807  0.499809  0.000963  1
  Lu  Lu19  1  0.499800  0.500245  0.500995  1
  Ir  Ir20  1  0.000084  0.500072  0.879507  1
  Ir  Ir21  1  0.000108  0.499818  0.379503  1
  Pt  Pt22  1  0.846280  0.151629  0.249778  1
  Pt  Pt23  1  0.846126  0.848247  0.749724  1
  Pt  Pt24  1  0.154507  0.150709  0.749240  1
  Pt  Pt25  1  0.154438  0.849018  0.249200  1
  Pt  Pt26  1  0.651158  0.346377  0.749788  1
  Pt  Pt27  1  0.650881  0.653312  0.249575  1
  Pt  Pt28  1  0.348480  0.345626  0.249838  1
  Pt  Pt29  1  0.348312  0.654501  0.750069  1
  Pt  Pt30  1  0.499906  0.000185  0.116695  1
  Pt  Pt31  1  0.499765  0.999668  0.617187  1
