# generated using pymatgen
data_Nd16Ag3Rh4Pb
_symmetry_space_group_name_H-M   'P 1'
_cell_length_a   9.88348638
_cell_length_b   9.91624162
_cell_length_c   9.91624100
_cell_angle_alpha   60.00000541
_cell_angle_beta   59.89031393
_cell_angle_gamma   59.89030935
_symmetry_Int_Tables_number   1
_chemical_formula_structural   Nd16Ag3Rh4Pb
_chemical_formula_sum   'Nd16 Ag3 Rh4 Pb1'
_cell_volume   686.06827071
_cell_formula_units_Z   1
loop_
 _symmetry_equiv_pos_site_id
 _symmetry_equiv_pos_as_xyz
  1  'x, y, z'
loop_
 _atom_site_type_symbol
 _atom_site_label
 _atom_site_symmetry_multiplicity
 _atom_site_fract_x
 _atom_site_fract_y
 _atom_site_fract_z
 _atom_site_occupancy
  Nd  Nd0  1  0.601420  0.599311  0.599311  1
  Nd  Nd1  1  0.601420  0.599311  0.199957  1
  Nd  Nd2  1  0.601420  0.199957  0.599311  1
  Nd  Nd3  1  0.192300  0.602567  0.602567  1
  Nd  Nd4  1  0.061355  0.438290  0.438290  1
  Nd  Nd5  1  0.439035  0.059620  0.059620  1
  Nd  Nd6  1  0.439035  0.059620  0.441725  1
  Nd  Nd7  1  0.061355  0.438290  0.062063  1
  Nd  Nd8  1  0.439035  0.441725  0.059620  1
  Nd  Nd9  1  0.061355  0.062063  0.438290  1
  Nd  Nd10  1  0.181832  0.812952  0.812952  1
  Nd  Nd11  1  0.812546  0.186789  0.186789  1
  Nd  Nd12  1  0.812546  0.186789  0.813876  1
  Nd  Nd13  1  0.181832  0.812952  0.192262  1
  Nd  Nd14  1  0.812546  0.813876  0.186789  1
  Nd  Nd15  1  0.181832  0.192262  0.812952  1
  Ag  Ag16  1  0.835652  0.832894  0.832894  1
  Ag  Ag17  1  0.835652  0.832894  0.498561  1
  Ag  Ag18  1  0.835652  0.498561  0.832894  1
  Rh  Rh19  1  0.389957  0.393984  0.393984  1
  Rh  Rh20  1  0.389957  0.393984  0.822073  1
  Rh  Rh21  1  0.389957  0.822073  0.393984  1
  Rh  Rh22  1  0.822324  0.392558  0.392558  1
  Pb  Pb23  1  0.519977  0.826675  0.826675  1
