# generated using pymatgen
data_Tb16Lu3MgIr12
_symmetry_space_group_name_H-M   'P 1'
_cell_length_a   10.87540900
_cell_length_b   10.87540900
_cell_length_c   6.31160700
_cell_angle_alpha   90.00000000
_cell_angle_beta   90.00000000
_cell_angle_gamma   90.00000000
_symmetry_Int_Tables_number   1
_chemical_formula_structural   Tb16Lu3MgIr12
_chemical_formula_sum   'Tb16 Lu3 Mg1 Ir12'
_cell_volume   746.50229414
_cell_formula_units_Z   1
loop_
 _symmetry_equiv_pos_site_id
 _symmetry_equiv_pos_as_xyz
  1  'x, y, z'
loop_
 _atom_site_type_symbol
 _atom_site_label
 _atom_site_symmetry_multiplicity
 _atom_site_fract_x
 _atom_site_fract_y
 _atom_site_fract_z
 _atom_site_occupancy
  Tb  Tb0  1  0.285635  0.086105  0.379431  1
  Tb  Tb1  1  0.289090  0.912330  0.879907  1
  Tb  Tb2  1  0.710910  0.087670  0.879907  1
  Tb  Tb3  1  0.714365  0.913895  0.379431  1
  Tb  Tb4  1  0.588544  0.790298  0.879848  1
  Tb  Tb5  1  0.588316  0.209486  0.378365  1
  Tb  Tb6  1  0.411684  0.790514  0.378365  1
  Tb  Tb7  1  0.411456  0.209702  0.879848  1
  Tb  Tb8  1  0.209486  0.411684  0.621635  1
  Tb  Tb9  1  0.209702  0.588544  0.120152  1
  Tb  Tb10  1  0.790298  0.411456  0.120152  1
  Tb  Tb11  1  0.790514  0.588316  0.621635  1
  Tb  Tb12  1  0.912330  0.710910  0.120093  1
  Tb  Tb13  1  0.913895  0.285635  0.620569  1
  Tb  Tb14  1  0.086105  0.714365  0.620569  1
  Tb  Tb15  1  0.087670  0.289090  0.120093  1
  Lu  Lu16  1  0.000000  0.000000  0.000000  1
  Lu  Lu17  1  0.500000  0.500000  0.000000  1
  Lu  Lu18  1  0.500000  0.500000  0.500000  1
  Mg  Mg19  1  0.000000  0.000000  0.500000  1
  Ir  Ir20  1  0.848475  0.151948  0.247888  1
  Ir  Ir21  1  0.848052  0.848475  0.752112  1
  Ir  Ir22  1  0.151948  0.151525  0.752112  1
  Ir  Ir23  1  0.151525  0.848052  0.247888  1
  Ir  Ir24  1  0.650824  0.349409  0.749062  1
  Ir  Ir25  1  0.650591  0.650824  0.250938  1
  Ir  Ir26  1  0.349409  0.349176  0.250938  1
  Ir  Ir27  1  0.349176  0.650591  0.749062  1
  Ir  Ir28  1  0.500000  0.000000  0.122340  1
  Ir  Ir29  1  0.500000  0.000000  0.620866  1
  Ir  Ir30  1  0.000000  0.500000  0.877660  1
  Ir  Ir31  1  0.000000  0.500000  0.379134  1
