# generated using pymatgen
data_NdCd3IrRh3O14
_symmetry_space_group_name_H-M   'P 1'
_cell_length_a   7.32702113
_cell_length_b   7.32702230
_cell_length_c   7.32702228
_cell_angle_alpha   59.03659595
_cell_angle_beta   59.03659021
_cell_angle_gamma   59.03660082
_symmetry_Int_Tables_number   1
_chemical_formula_structural   NdCd3IrRh3O14
_chemical_formula_sum   'Nd1 Cd3 Ir1 Rh3 O14'
_cell_volume   272.03150371
_cell_formula_units_Z   1
loop_
 _symmetry_equiv_pos_site_id
 _symmetry_equiv_pos_as_xyz
  1  'x, y, z'
loop_
 _atom_site_type_symbol
 _atom_site_label
 _atom_site_symmetry_multiplicity
 _atom_site_fract_x
 _atom_site_fract_y
 _atom_site_fract_z
 _atom_site_occupancy
  Nd  Nd0  1  0.125000  0.125000  0.125000  1
  Cd  Cd1  1  0.625000  0.125000  0.125000  1
  Cd  Cd2  1  0.125000  0.625000  0.125000  1
  Cd  Cd3  1  0.125000  0.125000  0.625000  1
  Ir  Ir4  1  0.625000  0.625000  0.625000  1
  Rh  Rh5  1  0.125000  0.625000  0.625000  1
  Rh  Rh6  1  0.625000  0.125000  0.625000  1
  Rh  Rh7  1  0.625000  0.625000  0.125000  1
  O  O8  1  0.695838  0.695838  0.306942  1
  O  O9  1  0.294174  0.294174  0.702553  1
  O  O10  1  0.695838  0.306942  0.695838  1
  O  O11  1  0.294174  0.702553  0.294174  1
  O  O12  1  0.306942  0.695838  0.695838  1
  O  O13  1  0.702553  0.294174  0.294174  1
  O  O14  1  0.554162  0.554162  0.943058  1
  O  O15  1  0.955826  0.955826  0.547447  1
  O  O16  1  0.554162  0.943058  0.554162  1
  O  O17  1  0.955826  0.547447  0.955826  1
  O  O18  1  0.943058  0.554162  0.554162  1
  O  O19  1  0.547447  0.955826  0.955826  1
  O  O20  1  0.255658  0.255658  0.255658  1
  O  O21  1  0.994342  0.994342  0.994342  1
