# generated using pymatgen
data_CaU3(TcB6)2
_symmetry_space_group_name_H-M   'P 1'
_cell_length_a   3.64645500
_cell_length_b   9.29122096
_cell_length_c   11.39851115
_cell_angle_alpha   89.90636961
_cell_angle_beta   90.00000000
_cell_angle_gamma   90.00000000
_symmetry_Int_Tables_number   1
_chemical_formula_structural   CaU3(TcB6)2
_chemical_formula_sum   'Ca2 U6 Tc4 B24'
_cell_volume   386.18126016
_cell_formula_units_Z   2
loop_
 _symmetry_equiv_pos_site_id
 _symmetry_equiv_pos_as_xyz
  1  'x, y, z'
loop_
 _atom_site_type_symbol
 _atom_site_label
 _atom_site_symmetry_multiplicity
 _atom_site_fract_x
 _atom_site_fract_y
 _atom_site_fract_z
 _atom_site_occupancy
  Ca  Ca0  1  0.000000  0.338786  0.408803  1
  Ca  Ca1  1  0.000000  0.661214  0.591197  1
  U  U2  1  0.000000  0.837519  0.093281  1
  U  U3  1  0.000000  0.162481  0.906719  1
  U  U4  1  0.000000  0.956005  0.396919  1
  U  U5  1  0.000000  0.043995  0.603081  1
  U  U6  1  0.000000  0.457598  0.104157  1
  U  U7  1  0.000000  0.542402  0.895843  1
  Tc  Tc8  1  0.000000  0.649627  0.313643  1
  Tc  Tc9  1  0.000000  0.350373  0.686357  1
  Tc  Tc10  1  0.000000  0.142919  0.176658  1
  Tc  Tc11  1  0.000000  0.857081  0.823342  1
  B  B12  1  0.500000  0.553046  0.429997  1
  B  B13  1  0.500000  0.446954  0.570003  1
  B  B14  1  0.500000  0.049944  0.067579  1
  B  B15  1  0.500000  0.950056  0.932421  1
  B  B16  1  0.500000  0.742815  0.422281  1
  B  B17  1  0.500000  0.257185  0.577719  1
  B  B18  1  0.500000  0.242159  0.076297  1
  B  B19  1  0.500000  0.757841  0.923703  1
  B  B20  1  0.500000  0.804303  0.273616  1
  B  B21  1  0.500000  0.195697  0.726384  1
  B  B22  1  0.500000  0.301645  0.224344  1
  B  B23  1  0.500000  0.698355  0.775656  1
  B  B24  1  0.500000  0.646459  0.187752  1
  B  B25  1  0.500000  0.353541  0.812248  1
  B  B26  1  0.500000  0.144178  0.310811  1
  B  B27  1  0.500000  0.855822  0.689189  1
  B  B28  1  0.500000  0.988064  0.219269  1
  B  B29  1  0.500000  0.011936  0.780731  1
  B  B30  1  0.500000  0.490393  0.280617  1
  B  B31  1  0.500000  0.509607  0.719383  1
  B  B32  1  0.500000  0.644528  0.039443  1
  B  B33  1  0.500000  0.355472  0.960557  1
  B  B34  1  0.500000  0.138561  0.461163  1
  B  B35  1  0.500000  0.861439  0.538837  1
