# generated using pymatgen
data_Eu2Ni2PtRh
_symmetry_space_group_name_H-M   'P 1'
_cell_length_a   5.20216471
_cell_length_b   5.28003261
_cell_length_c   5.31443056
_cell_angle_alpha   62.23473824
_cell_angle_beta   60.69637842
_cell_angle_gamma   60.48666575
_symmetry_Int_Tables_number   1
_chemical_formula_structural   Eu2Ni2PtRh
_chemical_formula_sum   'Eu2 Ni2 Pt1 Rh1'
_cell_volume   105.80856297
_cell_formula_units_Z   1
loop_
 _symmetry_equiv_pos_site_id
 _symmetry_equiv_pos_as_xyz
  1  'x, y, z'
loop_
 _atom_site_type_symbol
 _atom_site_label
 _atom_site_symmetry_multiplicity
 _atom_site_fract_x
 _atom_site_fract_y
 _atom_site_fract_z
 _atom_site_occupancy
  Eu  Eu0  1  0.248641  0.252990  0.249727  1
  Eu  Eu1  1  0.001359  0.997010  0.000273  1
  Ni  Ni2  1  0.125000  0.625000  0.625000  1
  Ni  Ni3  1  0.625000  0.625000  0.625000  1
  Pt  Pt4  1  0.625000  0.125000  0.625000  1
  Rh  Rh5  1  0.625000  0.625000  0.125000  1
