# generated using pymatgen
data_Y2ThSn3Pt2Rh
_symmetry_space_group_name_H-M   'P 1'
_cell_length_a   7.52453500
_cell_length_b   7.52723391
_cell_length_c   4.10662600
_cell_angle_alpha   90.00000000
_cell_angle_beta   90.00000000
_cell_angle_gamma   119.98813547
_symmetry_Int_Tables_number   1
_chemical_formula_structural   Y2ThSn3Pt2Rh
_chemical_formula_sum   'Y2 Th1 Sn3 Pt2 Rh1'
_cell_volume   201.45719027
_cell_formula_units_Z   1
loop_
 _symmetry_equiv_pos_site_id
 _symmetry_equiv_pos_as_xyz
  1  'x, y, z'
loop_
 _atom_site_type_symbol
 _atom_site_label
 _atom_site_symmetry_multiplicity
 _atom_site_fract_x
 _atom_site_fract_y
 _atom_site_fract_z
 _atom_site_occupancy
  Y  Y0  1  0.000176  0.407520  0.500000  1
  Y  Y1  1  0.592656  0.592480  0.500000  1
  Th  Th2  1  0.411019  0.000000  0.500000  1
  Sn  Sn3  1  0.756517  0.000000  0.000000  1
  Sn  Sn4  1  0.990046  0.739337  0.000000  1
  Sn  Sn5  1  0.250710  0.260663  0.000000  1
  Pt  Pt6  1  0.332718  0.673432  0.000000  1
  Pt  Pt7  1  0.659287  0.326568  0.000000  1
  Rh  Rh8  1  0.006871  0.000000  0.500000  1
