# generated using pymatgen
data_YEr19Cd4(NiPd)2
_symmetry_space_group_name_H-M   'P 1'
_cell_length_a   9.57710999
_cell_length_b   9.48136023
_cell_length_c   9.41447200
_cell_angle_alpha   90.00000000
_cell_angle_beta   90.00000000
_cell_angle_gamma   119.87354538
_symmetry_Int_Tables_number   1
_chemical_formula_structural   YEr19Cd4(NiPd)2
_chemical_formula_sum   'Y1 Er19 Cd4 Ni2 Pd2'
_cell_volume   741.28243370
_cell_formula_units_Z   1
loop_
 _symmetry_equiv_pos_site_id
 _symmetry_equiv_pos_as_xyz
  1  'x, y, z'
loop_
 _atom_site_type_symbol
 _atom_site_label
 _atom_site_symmetry_multiplicity
 _atom_site_fract_x
 _atom_site_fract_y
 _atom_site_fract_z
 _atom_site_occupancy
  Y  Y0  1  0.093458  0.546323  0.750000  1
  Er  Er1  1  0.979608  0.990373  0.466976  1
  Er  Er2  1  0.979608  0.990373  0.033024  1
  Er  Er3  1  0.558145  0.470181  0.250000  1
  Er  Er4  1  0.559724  0.089073  0.250000  1
  Er  Er5  1  0.920679  0.461045  0.250000  1
  Er  Er6  1  0.459574  0.541425  0.750000  1
  Er  Er7  1  0.458736  0.913914  0.750000  1
  Er  Er8  1  0.210028  0.793970  0.435833  1
  Er  Er9  1  0.208755  0.415924  0.436174  1
  Er  Er10  1  0.572221  0.785645  0.438334  1
  Er  Er11  1  0.792239  0.210947  0.559859  1
  Er  Er12  1  0.793081  0.581647  0.558645  1
  Er  Er13  1  0.419898  0.209137  0.560412  1
  Er  Er14  1  0.792239  0.210947  0.940141  1
  Er  Er15  1  0.793081  0.581647  0.941355  1
  Er  Er16  1  0.419898  0.209137  0.939588  1
  Er  Er17  1  0.210028  0.793970  0.064167  1
  Er  Er18  1  0.208755  0.415924  0.063826  1
  Er  Er19  1  0.572221  0.785645  0.061666  1
  Cd  Cd20  1  0.250235  0.124092  0.250000  1
  Cd  Cd21  1  0.109599  0.892758  0.750000  1
  Cd  Cd22  1  0.109236  0.218150  0.750000  1
  Cd  Cd23  1  0.777132  0.888457  0.750000  1
  Ni  Ni24  1  0.330580  0.666068  0.250000  1
  Ni  Ni25  1  0.663582  0.332213  0.750000  1
  Pd  Pd26  1  0.879422  0.138298  0.250000  1
  Pd  Pd27  1  0.878236  0.742718  0.250000  1
