# generated using pymatgen
data_Sc12Co4HgIr
_symmetry_space_group_name_H-M   'P 1'
_cell_length_a   7.70461507
_cell_length_b   7.70461476
_cell_length_c   7.70461503
_cell_angle_alpha   111.01196802
_cell_angle_beta   111.43512472
_cell_angle_gamma   106.02099830
_symmetry_Int_Tables_number   1
_chemical_formula_structural   Sc12Co4HgIr
_chemical_formula_sum   'Sc12 Co4 Hg1 Ir1'
_cell_volume   351.11631700
_cell_formula_units_Z   1
loop_
 _symmetry_equiv_pos_site_id
 _symmetry_equiv_pos_as_xyz
  1  'x, y, z'
loop_
 _atom_site_type_symbol
 _atom_site_label
 _atom_site_symmetry_multiplicity
 _atom_site_fract_x
 _atom_site_fract_y
 _atom_site_fract_z
 _atom_site_occupancy
  Sc  Sc0  1  0.424503  0.227112  0.197390  1
  Sc  Sc1  1  0.575497  0.772888  0.802610  1
  Sc  Sc2  1  0.029723  0.227112  0.802610  1
  Sc  Sc3  1  0.970277  0.772888  0.197390  1
  Sc  Sc4  1  0.313981  0.614925  0.300943  1
  Sc  Sc5  1  0.686019  0.385075  0.699057  1
  Sc  Sc6  1  0.313981  0.013038  0.699057  1
  Sc  Sc7  1  0.686019  0.986962  0.300943  1
  Sc  Sc8  1  0.185246  0.277655  0.462902  1
  Sc  Sc9  1  0.814754  0.722344  0.537098  1
  Sc  Sc10  1  0.185246  0.722344  0.907591  1
  Sc  Sc11  1  0.814754  0.277655  0.092409  1
  Co  Co12  1  0.366450  0.000000  0.366450  1
  Co  Co13  1  0.633550  0.000000  0.633550  1
  Co  Co14  1  0.118417  0.618417  0.500000  1
  Co  Co15  1  0.881583  0.381583  0.500000  1
  Hg  Hg16  1  0.500000  0.500000  0.000000  1
  Ir  Ir17  1  0.000000  0.000000  0.000000  1
