# generated using pymatgen
data_Er8Si12AgIr3
_symmetry_space_group_name_H-M   'P 1'
_cell_length_a   8.17185300
_cell_length_b   8.17185300
_cell_length_c   7.83428000
_cell_angle_alpha   90.00000000
_cell_angle_beta   90.00000000
_cell_angle_gamma   120.00000407
_symmetry_Int_Tables_number   1
_chemical_formula_structural   Er8Si12AgIr3
_chemical_formula_sum   'Er8 Si12 Ag1 Ir3'
_cell_volume   453.07572531
_cell_formula_units_Z   1
loop_
 _symmetry_equiv_pos_site_id
 _symmetry_equiv_pos_as_xyz
  1  'x, y, z'
loop_
 _atom_site_type_symbol
 _atom_site_label
 _atom_site_symmetry_multiplicity
 _atom_site_fract_x
 _atom_site_fract_y
 _atom_site_fract_z
 _atom_site_occupancy
  Er  Er0  1  0.972989  0.486495  0.255372  1
  Er  Er1  1  0.513505  0.486495  0.255372  1
  Er  Er2  1  0.492654  0.985307  0.746569  1
  Er  Er3  1  0.014693  0.507346  0.746569  1
  Er  Er4  1  0.492654  0.507346  0.746569  1
  Er  Er5  1  0.513505  0.027011  0.255372  1
  Er  Er6  1  0.000000  0.000000  0.746942  1
  Er  Er7  1  0.000000  0.000000  0.248585  1
  Si  Si8  1  0.166914  0.833086  0.496088  1
  Si  Si9  1  0.166914  0.333829  0.496088  1
  Si  Si10  1  0.666171  0.833086  0.496088  1
  Si  Si11  1  0.336566  0.168284  0.001087  1
  Si  Si12  1  0.834164  0.668329  0.502755  1
  Si  Si13  1  0.831716  0.168284  0.001087  1
  Si  Si14  1  0.831716  0.663434  0.001087  1
  Si  Si15  1  0.160602  0.321203  0.995186  1
  Si  Si16  1  0.678797  0.839398  0.995186  1
  Si  Si17  1  0.331671  0.165836  0.502755  1
  Si  Si18  1  0.834164  0.165836  0.502755  1
  Si  Si19  1  0.160602  0.839398  0.995186  1
  Ag  Ag20  1  0.333333  0.666667  0.046578  1
  Ir  Ir21  1  0.666667  0.333333  0.959918  1
  Ir  Ir22  1  0.666667  0.333333  0.534622  1
  Ir  Ir23  1  0.333333  0.666667  0.472184  1
