# generated using pymatgen
data_CeY4FeB6Ru
_symmetry_space_group_name_H-M   'P 1'
_cell_length_a   5.49874633
_cell_length_b   5.49874613
_cell_length_c   8.14549225
_cell_angle_alpha   70.27334951
_cell_angle_beta   70.27334341
_cell_angle_gamma   59.99999290
_symmetry_Int_Tables_number   1
_chemical_formula_structural   CeY4FeB6Ru
_chemical_formula_sum   'Ce1 Y4 Fe1 B6 Ru1'
_cell_volume   196.42536872
_cell_formula_units_Z   1
loop_
 _symmetry_equiv_pos_site_id
 _symmetry_equiv_pos_as_xyz
  1  'x, y, z'
loop_
 _atom_site_type_symbol
 _atom_site_label
 _atom_site_symmetry_multiplicity
 _atom_site_fract_x
 _atom_site_fract_y
 _atom_site_fract_z
 _atom_site_occupancy
  Ce  Ce0  1  0.005127  0.005127  0.984620  1
  Y  Y1  1  0.747990  0.747990  0.756033  1
  Y  Y2  1  0.252391  0.252391  0.242824  1
  Y  Y3  1  0.584978  0.584978  0.245068  1
  Y  Y4  1  0.414571  0.414571  0.756286  1
  Fe  Fe5  1  0.111096  0.111096  0.666714  1
  B  B6  1  0.495165  0.169090  0.504081  1
  B  B7  1  0.831664  0.495165  0.504081  1
  B  B8  1  0.169090  0.831664  0.504081  1
  B  B9  1  0.169090  0.495165  0.504081  1
  B  B10  1  0.831664  0.169090  0.504081  1
  B  B11  1  0.495165  0.831664  0.504081  1
  Ru  Ru12  1  0.892011  0.892011  0.323966  1
