# generated using pymatgen
data_Yb4HfIr2Pd
_symmetry_space_group_name_H-M   'P 1'
_cell_length_a   6.30215100
_cell_length_b   10.86704500
_cell_length_c   10.86704500
_cell_angle_alpha   90.00000000
_cell_angle_beta   90.00000000
_cell_angle_gamma   90.00000000
_symmetry_Int_Tables_number   1
_chemical_formula_structural   Yb4HfIr2Pd
_chemical_formula_sum   'Yb16 Hf4 Ir8 Pd4'
_cell_volume   744.23781963
_cell_formula_units_Z   4
loop_
 _symmetry_equiv_pos_site_id
 _symmetry_equiv_pos_as_xyz
  1  'x, y, z'
loop_
 _atom_site_type_symbol
 _atom_site_label
 _atom_site_symmetry_multiplicity
 _atom_site_fract_x
 _atom_site_fract_y
 _atom_site_fract_z
 _atom_site_occupancy
  Yb  Yb0  1  0.359528  0.834363  0.535079  1
  Yb  Yb1  1  0.859528  0.665637  0.535079  1
  Yb  Yb2  1  0.859528  0.834363  0.964921  1
  Yb  Yb3  1  0.359528  0.665637  0.964921  1
  Yb  Yb4  1  0.859528  0.535079  0.834363  1
  Yb  Yb5  1  0.359528  0.964921  0.834363  1
  Yb  Yb6  1  0.359528  0.535079  0.665637  1
  Yb  Yb7  1  0.859528  0.964921  0.665637  1
  Yb  Yb8  1  0.640472  0.165637  0.464922  1
  Yb  Yb9  1  0.140472  0.334363  0.464922  1
  Yb  Yb10  1  0.140472  0.165637  0.035079  1
  Yb  Yb11  1  0.640472  0.334363  0.035079  1
  Yb  Yb12  1  0.140472  0.464922  0.165637  1
  Yb  Yb13  1  0.640472  0.035079  0.165637  1
  Yb  Yb14  1  0.640472  0.464922  0.334363  1
  Yb  Yb15  1  0.140472  0.035079  0.334363  1
  Hf  Hf16  1  0.500000  0.750000  0.250000  1
  Hf  Hf17  1  0.000000  0.750000  0.250000  1
  Hf  Hf18  1  0.000000  0.250000  0.750000  1
  Hf  Hf19  1  0.500000  0.250000  0.750000  1
  Ir  Ir20  1  0.250000  0.887943  0.112057  1
  Ir  Ir21  1  0.750000  0.612057  0.112057  1
  Ir  Ir22  1  0.750000  0.887943  0.387943  1
  Ir  Ir23  1  0.250000  0.612057  0.387943  1
  Ir  Ir24  1  0.750000  0.112057  0.887943  1
  Ir  Ir25  1  0.250000  0.387943  0.887943  1
  Ir  Ir26  1  0.250000  0.112057  0.612057  1
  Ir  Ir27  1  0.750000  0.387943  0.612057  1
  Pd  Pd28  1  0.113014  0.750000  0.750000  1
  Pd  Pd29  1  0.613014  0.750000  0.750000  1
  Pd  Pd30  1  0.886986  0.250000  0.250000  1
  Pd  Pd31  1  0.386986  0.250000  0.250000  1
