# generated using pymatgen
data_Nb2CrOs3
_symmetry_space_group_name_H-M   'P 1'
_cell_length_a   5.10670222
_cell_length_b   4.99195171
_cell_length_c   8.40288000
_cell_angle_alpha   90.00000000
_cell_angle_beta   90.00000000
_cell_angle_gamma   119.25943227
_symmetry_Int_Tables_number   1
_chemical_formula_structural   Nb2CrOs3
_chemical_formula_sum   'Nb4 Cr2 Os6'
_cell_volume   186.87984794
_cell_formula_units_Z   2
loop_
 _symmetry_equiv_pos_site_id
 _symmetry_equiv_pos_as_xyz
  1  'x, y, z'
loop_
 _atom_site_type_symbol
 _atom_site_label
 _atom_site_symmetry_multiplicity
 _atom_site_fract_x
 _atom_site_fract_y
 _atom_site_fract_z
 _atom_site_occupancy
  Nb  Nb0  1  0.332528  0.667696  0.433329  1
  Nb  Nb1  1  0.667472  0.335167  0.933329  1
  Nb  Nb2  1  0.667472  0.335167  0.566671  1
  Nb  Nb3  1  0.332528  0.667696  0.066671  1
  Cr  Cr4  1  0.829048  0.656203  0.250000  1
  Cr  Cr5  1  0.170952  0.827155  0.750000  1
  Os  Os6  1  0.166991  0.345630  0.750000  1
  Os  Os7  1  0.833009  0.178638  0.250000  1
  Os  Os8  1  0.350967  0.184501  0.250000  1
  Os  Os9  1  0.649033  0.833534  0.750000  1
  Os  Os10  1  0.000000  0.984307  0.000000  1
  Os  Os11  1  0.000000  0.984307  0.500000  1
