# generated using pymatgen
data_Dy7Ho3(FeSb2)2
_symmetry_space_group_name_H-M   'P 1'
_cell_length_a   7.84990504
_cell_length_b   8.78752379
_cell_length_c   12.18144600
_cell_angle_alpha   90.00000000
_cell_angle_beta   90.00000000
_cell_angle_gamma   90.02976974
_symmetry_Int_Tables_number   1
_chemical_formula_structural   Dy7Ho3(FeSb2)2
_chemical_formula_sum   'Dy14 Ho6 Fe4 Sb8'
_cell_volume   840.29098129
_cell_formula_units_Z   2
loop_
 _symmetry_equiv_pos_site_id
 _symmetry_equiv_pos_as_xyz
  1  'x, y, z'
loop_
 _atom_site_type_symbol
 _atom_site_label
 _atom_site_symmetry_multiplicity
 _atom_site_fract_x
 _atom_site_fract_y
 _atom_site_fract_z
 _atom_site_occupancy
  Dy  Dy0  1  0.154556  0.749841  0.204341  1
  Dy  Dy1  1  0.345444  0.750159  0.704341  1
  Dy  Dy2  1  0.845508  0.250092  0.795829  1
  Dy  Dy3  1  0.654492  0.249908  0.295829  1
  Dy  Dy4  1  0.450470  0.749939  0.996057  1
  Dy  Dy5  1  0.049530  0.750061  0.496057  1
  Dy  Dy6  1  0.548784  0.250191  0.003923  1
  Dy  Dy7  1  0.951216  0.249809  0.503923  1
  Dy  Dy8  1  0.622776  0.750395  0.307390  1
  Dy  Dy9  1  0.877224  0.749605  0.807390  1
  Dy  Dy10  1  0.376856  0.249729  0.692525  1
  Dy  Dy11  1  0.123144  0.250271  0.192525  1
  Dy  Dy12  1  0.823089  0.965380  0.063908  1
  Dy  Dy13  1  0.676911  0.534620  0.563908  1
  Ho  Ho14  1  0.823647  0.534955  0.063967  1
  Ho  Ho15  1  0.676353  0.965045  0.563967  1
  Ho  Ho16  1  0.176412  0.034897  0.935995  1
  Ho  Ho17  1  0.323588  0.465103  0.435995  1
  Ho  Ho18  1  0.176176  0.464938  0.936146  1
  Ho  Ho19  1  0.323824  0.035062  0.436146  1
  Fe  Fe20  1  0.428434  0.750289  0.489050  1
  Fe  Fe21  1  0.071566  0.749711  0.989050  1
  Fe  Fe22  1  0.570669  0.249988  0.510680  1
  Fe  Fe23  1  0.929331  0.250012  0.010680  1
  Sb  Sb24  1  0.928802  0.506706  0.327686  1
  Sb  Sb25  1  0.571198  0.993294  0.827686  1
  Sb  Sb26  1  0.070836  0.006606  0.672413  1
  Sb  Sb27  1  0.429164  0.493394  0.172413  1
  Sb  Sb28  1  0.071544  0.493156  0.672372  1
  Sb  Sb29  1  0.428456  0.006844  0.172372  1
  Sb  Sb30  1  0.929186  0.993383  0.327716  1
  Sb  Sb31  1  0.570814  0.506617  0.827716  1
