# generated using pymatgen
data_PrNdZn2(GeRh2)2
_symmetry_space_group_name_H-M   'P 1'
_cell_length_a   4.15301300
_cell_length_b   4.15301300
_cell_length_c   10.74123500
_cell_angle_alpha   90.00000000
_cell_angle_beta   90.00000000
_cell_angle_gamma   90.00000000
_symmetry_Int_Tables_number   1
_chemical_formula_structural   PrNdZn2(GeRh2)2
_chemical_formula_sum   'Pr1 Nd1 Zn2 Ge2 Rh4'
_cell_volume   185.25963303
_cell_formula_units_Z   1
loop_
 _symmetry_equiv_pos_site_id
 _symmetry_equiv_pos_as_xyz
  1  'x, y, z'
loop_
 _atom_site_type_symbol
 _atom_site_label
 _atom_site_symmetry_multiplicity
 _atom_site_fract_x
 _atom_site_fract_y
 _atom_site_fract_z
 _atom_site_occupancy
  Pr  Pr0  1  0.500000  0.000000  0.750510  1
  Nd  Nd1  1  0.000000  0.500000  0.249239  1
  Zn  Zn2  1  0.000000  0.000000  0.499426  1
  Zn  Zn3  1  0.500000  0.500000  0.499426  1
  Ge  Ge4  1  0.000000  0.500000  0.874287  1
  Ge  Ge5  1  0.500000  0.000000  0.126654  1
  Rh  Rh6  1  0.000000  0.000000  0.000516  1
  Rh  Rh7  1  0.500000  0.500000  0.000516  1
  Rh  Rh8  1  0.000000  0.500000  0.642714  1
  Rh  Rh9  1  0.500000  0.000000  0.356711  1
