# generated using pymatgen
data_Li3Ni4As4Pd
_symmetry_space_group_name_H-M   'P 1'
_cell_length_a   6.35921856
_cell_length_b   3.86535800
_cell_length_c   6.88268917
_cell_angle_alpha   90.00000000
_cell_angle_beta   90.52096383
_cell_angle_gamma   90.00000000
_symmetry_Int_Tables_number   1
_chemical_formula_structural   Li3Ni4As4Pd
_chemical_formula_sum   'Li3 Ni4 As4 Pd1'
_cell_volume   169.17402352
_cell_formula_units_Z   1
loop_
 _symmetry_equiv_pos_site_id
 _symmetry_equiv_pos_as_xyz
  1  'x, y, z'
loop_
 _atom_site_type_symbol
 _atom_site_label
 _atom_site_symmetry_multiplicity
 _atom_site_fract_x
 _atom_site_fract_y
 _atom_site_fract_z
 _atom_site_occupancy
  Li  Li0  1  0.016057  0.250000  0.320769  1
  Li  Li1  1  0.513205  0.250000  0.171907  1
  Li  Li2  1  0.985835  0.750000  0.679115  1
  Ni  Ni3  1  0.138405  0.250000  0.943908  1
  Ni  Ni4  1  0.643062  0.250000  0.552348  1
  Ni  Ni5  1  0.857297  0.750000  0.055949  1
  Ni  Ni6  1  0.362247  0.750000  0.443663  1
  As  As7  1  0.275925  0.250000  0.625236  1
  As  As8  1  0.773163  0.250000  0.874170  1
  As  As9  1  0.725477  0.750000  0.375550  1
  As  As10  1  0.223876  0.750000  0.123671  1
  Pd  Pd11  1  0.485453  0.750000  0.833714  1
