# generated using pymatgen
data_TbEr7(CdNi)2
_symmetry_space_group_name_H-M   'P 1'
_cell_length_a   9.50678849
_cell_length_b   9.50678849
_cell_length_c   9.50492800
_cell_angle_alpha   60.00647353
_cell_angle_beta   60.00647353
_cell_angle_gamma   60.03151089
_symmetry_Int_Tables_number   1
_chemical_formula_structural   TbEr7(CdNi)2
_chemical_formula_sum   'Tb2 Er14 Cd4 Ni4'
_cell_volume   607.64135372
_cell_formula_units_Z   2
loop_
 _symmetry_equiv_pos_site_id
 _symmetry_equiv_pos_as_xyz
  1  'x, y, z'
loop_
 _atom_site_type_symbol
 _atom_site_label
 _atom_site_symmetry_multiplicity
 _atom_site_fract_x
 _atom_site_fract_y
 _atom_site_fract_z
 _atom_site_occupancy
  Tb  Tb0  1  0.348367  0.348367  0.349512  1
  Tb  Tb1  1  0.348367  0.348367  0.953756  1
  Er  Er2  1  0.348962  0.952892  0.349074  1
  Er  Er3  1  0.952892  0.348962  0.349074  1
  Er  Er4  1  0.811541  0.189097  0.188435  1
  Er  Er5  1  0.189097  0.811541  0.810928  1
  Er  Er6  1  0.189097  0.811541  0.188435  1
  Er  Er7  1  0.811541  0.189097  0.810928  1
  Er  Er8  1  0.188385  0.188385  0.811615  1
  Er  Er9  1  0.810989  0.810989  0.189011  1
  Er  Er10  1  0.935702  0.564307  0.564310  1
  Er  Er11  1  0.564307  0.935702  0.935681  1
  Er  Er12  1  0.564307  0.935702  0.564310  1
  Er  Er13  1  0.935702  0.564307  0.935681  1
  Er  Er14  1  0.564047  0.564047  0.935953  1
  Er  Er15  1  0.936079  0.936079  0.563921  1
  Cd  Cd16  1  0.582345  0.582345  0.580577  1
  Cd  Cd17  1  0.582345  0.582345  0.254732  1
  Cd  Cd18  1  0.582958  0.255214  0.580913  1
  Cd  Cd19  1  0.255214  0.582958  0.580913  1
  Ni  Ni20  1  0.141456  0.141456  0.144345  1
  Ni  Ni21  1  0.141456  0.141456  0.572742  1
  Ni  Ni22  1  0.140380  0.574466  0.142577  1
  Ni  Ni23  1  0.574466  0.140380  0.142577  1
