# generated using pymatgen
data_K10Zn4O9
_symmetry_space_group_name_H-M   'P 1'
_cell_length_a   6.87513774
_cell_length_b   9.25215694
_cell_length_c   9.35616171
_cell_angle_alpha   120.48528750
_cell_angle_beta   109.94091478
_cell_angle_gamma   91.23348740
_symmetry_Int_Tables_number   1
_chemical_formula_structural   K10Zn4O9
_chemical_formula_sum   'K10 Zn4 O9'
_cell_volume   468.01226160
_cell_formula_units_Z   1
loop_
 _symmetry_equiv_pos_site_id
 _symmetry_equiv_pos_as_xyz
  1  'x, y, z'
loop_
 _atom_site_type_symbol
 _atom_site_label
 _atom_site_symmetry_multiplicity
 _atom_site_fract_x
 _atom_site_fract_y
 _atom_site_fract_z
 _atom_site_occupancy
  K  K0  1  0.083446  0.215405  0.935415  1
  K  K1  1  0.062222  0.607551  0.342026  1
  K  K2  1  0.261581  0.044957  0.511386  1
  K  K3  1  0.449742  0.479467  0.666254  1
  K  K4  1  0.540103  0.925908  0.801766  1
  K  K5  1  0.469448  0.082491  0.183858  1
  K  K6  1  0.549477  0.524495  0.330110  1
  K  K7  1  0.742211  0.939987  0.474864  1
  K  K8  1  0.911856  0.397120  0.656469  1
  K  K9  1  0.905677  0.779301  0.067354  1
  Zn  Zn10  1  0.035260  0.781804  0.745610  1
  Zn  Zn11  1  0.659289  0.349116  0.959285  1
  Zn  Zn12  1  0.379517  0.675574  0.063334  1
  Zn  Zn13  1  0.968389  0.218734  0.259238  1
  O  O14  1  0.124185  0.920587  0.674993  1
  O  O15  1  0.275296  0.709247  0.866907  1
  O  O16  1  0.233077  0.317507  0.289391  1
  O  O17  1  0.300287  0.750476  0.258747  1
  O  O18  1  0.675347  0.231177  0.732020  1
  O  O19  1  0.763542  0.681039  0.701876  1
  O  O20  1  0.636914  0.586058  0.090174  1
  O  O21  1  0.710672  0.258352  0.113223  1
  O  O22  1  0.888159  0.099351  0.351998  1
