# generated using pymatgen
data_La7Pr(Sc3Ga4)4
_symmetry_space_group_name_H-M   'P 1'
_cell_length_a   7.47791219
_cell_length_b   7.75309424
_cell_length_c   14.79707816
_cell_angle_alpha   89.98537945
_cell_angle_beta   89.99141744
_cell_angle_gamma   89.97568240
_symmetry_Int_Tables_number   1
_chemical_formula_structural   La7Pr(Sc3Ga4)4
_chemical_formula_sum   'La7 Pr1 Sc12 Ga16'
_cell_volume   857.88946290
_cell_formula_units_Z   1
loop_
 _symmetry_equiv_pos_site_id
 _symmetry_equiv_pos_as_xyz
  1  'x, y, z'
loop_
 _atom_site_type_symbol
 _atom_site_label
 _atom_site_symmetry_multiplicity
 _atom_site_fract_x
 _atom_site_fract_y
 _atom_site_fract_z
 _atom_site_occupancy
  La  La0  1  0.012129  0.175070  0.404303  1
  La  La1  1  0.512012  0.325014  0.404539  1
  La  La2  1  0.487990  0.674914  0.904578  1
  La  La3  1  0.488013  0.674993  0.595511  1
  La  La4  1  0.987987  0.825166  0.595446  1
  La  La5  1  0.988063  0.825430  0.904721  1
  La  La6  1  0.511947  0.324858  0.095515  1
  Pr  Pr7  1  0.012324  0.175483  0.095919  1
  Sc  Sc8  1  0.329550  0.174205  0.625120  1
  Sc  Sc9  1  0.670453  0.825667  0.374912  1
  Sc  Sc10  1  0.661518  0.002520  0.750042  1
  Sc  Sc11  1  0.170364  0.674174  0.374783  1
  Sc  Sc12  1  0.829727  0.325543  0.875127  1
  Sc  Sc13  1  0.829567  0.325728  0.625068  1
  Sc  Sc14  1  0.838650  0.501993  0.249805  1
  Sc  Sc15  1  0.338448  0.997780  0.249825  1
  Sc  Sc16  1  0.329406  0.174268  0.875087  1
  Sc  Sc17  1  0.170082  0.674207  0.125041  1
  Sc  Sc18  1  0.670845  0.826039  0.125011  1
  Sc  Sc19  1  0.161548  0.497414  0.750019  1
  Ga  Ga20  1  0.287217  0.882873  0.750001  1
  Ga  Ga21  1  0.468138  0.624533  0.249949  1
  Ga  Ga22  1  0.031839  0.124657  0.749912  1
  Ga  Ga23  1  0.531757  0.375477  0.749950  1
  Ga  Ga24  1  0.155002  0.461716  0.540741  1
  Ga  Ga25  1  0.968113  0.875821  0.249759  1
  Ga  Ga26  1  0.713198  0.117258  0.249649  1
  Ga  Ga27  1  0.845320  0.537466  0.040873  1
  Ga  Ga28  1  0.344011  0.962141  0.040968  1
  Ga  Ga29  1  0.154694  0.461210  0.959516  1
  Ga  Ga30  1  0.654945  0.038284  0.540745  1
  Ga  Ga31  1  0.345008  0.961766  0.459228  1
  Ga  Ga32  1  0.845089  0.538431  0.459200  1
  Ga  Ga33  1  0.787103  0.617112  0.749959  1
  Ga  Ga34  1  0.212461  0.382373  0.249842  1
  Ga  Ga35  1  0.655481  0.038415  0.959338  1
