# generated using pymatgen
data_Dy3(CrC3)2
_symmetry_space_group_name_H-M   'P 1'
_cell_length_a   8.12789400
_cell_length_b   8.12789427
_cell_length_c   5.01285000
_cell_angle_alpha   90.00000000
_cell_angle_beta   90.00000000
_cell_angle_gamma   119.99999888
_symmetry_Int_Tables_number   1
_chemical_formula_structural   Dy3(CrC3)2
_chemical_formula_sum   'Dy6 Cr4 C12'
_cell_volume   286.79489916
_cell_formula_units_Z   2
loop_
 _symmetry_equiv_pos_site_id
 _symmetry_equiv_pos_as_xyz
  1  'x, y, z'
loop_
 _atom_site_type_symbol
 _atom_site_label
 _atom_site_symmetry_multiplicity
 _atom_site_fract_x
 _atom_site_fract_y
 _atom_site_fract_z
 _atom_site_occupancy
  Dy  Dy0  1  0.621329  0.686158  0.750000  1
  Dy  Dy1  1  0.935170  0.621329  0.250000  1
  Dy  Dy2  1  0.686158  0.064830  0.250000  1
  Dy  Dy3  1  0.313842  0.935170  0.750000  1
  Dy  Dy4  1  0.064830  0.378671  0.750000  1
  Dy  Dy5  1  0.378671  0.313842  0.250000  1
  Cr  Cr6  1  0.000000  0.000000  0.500000  1
  Cr  Cr7  1  0.000000  0.000000  0.000000  1
  Cr  Cr8  1  0.666667  0.333333  0.750000  1
  Cr  Cr9  1  0.333333  0.666667  0.250000  1
  C  C10  1  0.964614  0.775390  0.750000  1
  C  C11  1  0.189224  0.964614  0.250000  1
  C  C12  1  0.775390  0.810776  0.250000  1
  C  C13  1  0.224610  0.189224  0.750000  1
  C  C14  1  0.810776  0.035386  0.750000  1
  C  C15  1  0.035386  0.224610  0.250000  1
  C  C16  1  0.865415  0.579923  0.750000  1
  C  C17  1  0.285492  0.865415  0.250000  1
  C  C18  1  0.579923  0.714508  0.250000  1
  C  C19  1  0.420077  0.285492  0.750000  1
  C  C20  1  0.134585  0.420077  0.250000  1
  C  C21  1  0.714508  0.134585  0.750000  1
