# generated using pymatgen
data_LiEu16Cd3Pd4
_symmetry_space_group_name_H-M   'P 1'
_cell_length_a   10.26421072
_cell_length_b   10.26420916
_cell_length_c   10.26421036
_cell_angle_alpha   60.16005628
_cell_angle_beta   60.16006185
_cell_angle_gamma   60.16005233
_symmetry_Int_Tables_number   1
_chemical_formula_structural   LiEu16Cd3Pd4
_chemical_formula_sum   'Li1 Eu16 Cd3 Pd4'
_cell_volume   767.42008318
_cell_formula_units_Z   1
loop_
 _symmetry_equiv_pos_site_id
 _symmetry_equiv_pos_as_xyz
  1  'x, y, z'
loop_
 _atom_site_type_symbol
 _atom_site_label
 _atom_site_symmetry_multiplicity
 _atom_site_fract_x
 _atom_site_fract_y
 _atom_site_fract_z
 _atom_site_occupancy
  Li  Li0  1  0.569419  0.569419  0.569419  1
  Eu  Eu1  1  0.350494  0.350494  0.350494  1
  Eu  Eu2  1  0.348588  0.348588  0.953377  1
  Eu  Eu3  1  0.348588  0.953377  0.348588  1
  Eu  Eu4  1  0.953377  0.348588  0.348588  1
  Eu  Eu5  1  0.807639  0.193689  0.193689  1
  Eu  Eu6  1  0.189741  0.809574  0.809574  1
  Eu  Eu7  1  0.193689  0.807639  0.193689  1
  Eu  Eu8  1  0.809574  0.189741  0.809574  1
  Eu  Eu9  1  0.193689  0.193689  0.807639  1
  Eu  Eu10  1  0.809574  0.809574  0.189741  1
  Eu  Eu11  1  0.942481  0.559430  0.559430  1
  Eu  Eu12  1  0.562098  0.939457  0.939457  1
  Eu  Eu13  1  0.559430  0.942481  0.559430  1
  Eu  Eu14  1  0.939457  0.562098  0.939457  1
  Eu  Eu15  1  0.559430  0.559430  0.942481  1
  Eu  Eu16  1  0.939457  0.939457  0.562098  1
  Cd  Cd17  1  0.579622  0.579622  0.261680  1
  Cd  Cd18  1  0.579622  0.261680  0.579622  1
  Cd  Cd19  1  0.261680  0.579622  0.579622  1
  Pd  Pd20  1  0.142299  0.142299  0.142299  1
  Pd  Pd21  1  0.142974  0.142974  0.574103  1
  Pd  Pd22  1  0.142974  0.574103  0.142974  1
  Pd  Pd23  1  0.574103  0.142974  0.142974  1
