# generated using pymatgen
data_Th3CuHg3Ir2
_symmetry_space_group_name_H-M   'P 1'
_cell_length_a   7.84631600
_cell_length_b   7.84631465
_cell_length_c   3.82449400
_cell_angle_alpha   90.00000000
_cell_angle_beta   90.00000000
_cell_angle_gamma   119.99999726
_symmetry_Int_Tables_number   1
_chemical_formula_structural   Th3CuHg3Ir2
_chemical_formula_sum   'Th3 Cu1 Hg3 Ir2'
_cell_volume   203.90888150
_cell_formula_units_Z   1
loop_
 _symmetry_equiv_pos_site_id
 _symmetry_equiv_pos_as_xyz
  1  'x, y, z'
loop_
 _atom_site_type_symbol
 _atom_site_label
 _atom_site_symmetry_multiplicity
 _atom_site_fract_x
 _atom_site_fract_y
 _atom_site_fract_z
 _atom_site_occupancy
  Th  Th0  1  0.418629  0.418629  0.500000  1
  Th  Th1  1  0.581371  0.000000  0.500000  1
  Th  Th2  1  0.000000  0.581371  0.500000  1
  Cu  Cu3  1  0.000000  0.000000  0.500000  1
  Hg  Hg4  1  0.753659  0.753659  0.000000  1
  Hg  Hg5  1  0.246341  0.000000  0.000000  1
  Hg  Hg6  1  0.000000  0.246341  0.000000  1
  Ir  Ir7  1  0.666667  0.333333  0.000000  1
  Ir  Ir8  1  0.333333  0.666667  0.000000  1
