# generated using pymatgen
data_Sc4Fe3Co6P12Rh11
_symmetry_space_group_name_H-M   'P 1'
_cell_length_a   3.71245300
_cell_length_b   10.50452047
_cell_length_c   12.14805762
_cell_angle_alpha   89.83724651
_cell_angle_beta   90.00000000
_cell_angle_gamma   90.00000000
_symmetry_Int_Tables_number   1
_chemical_formula_structural   Sc4Fe3Co6P12Rh11
_chemical_formula_sum   'Sc4 Fe3 Co6 P12 Rh11'
_cell_volume   473.74243395
_cell_formula_units_Z   1
loop_
 _symmetry_equiv_pos_site_id
 _symmetry_equiv_pos_as_xyz
  1  'x, y, z'
loop_
 _atom_site_type_symbol
 _atom_site_label
 _atom_site_symmetry_multiplicity
 _atom_site_fract_x
 _atom_site_fract_y
 _atom_site_fract_z
 _atom_site_occupancy
  Sc  Sc0  1  0.250000  0.580656  0.710770  1
  Sc  Sc1  1  0.250000  0.912899  0.213391  1
  Sc  Sc2  1  0.750000  0.426204  0.289958  1
  Sc  Sc3  1  0.750000  0.077272  0.788273  1
  Fe  Fe4  1  0.250000  0.881572  0.694577  1
  Fe  Fe5  1  0.250000  0.622767  0.197227  1
  Fe  Fe6  1  0.250000  0.461612  0.932971  1
  Co  Co7  1  0.750000  0.723641  0.323594  1
  Co  Co8  1  0.750000  0.112025  0.301621  1
  Co  Co9  1  0.750000  0.380957  0.802683  1
  Co  Co10  1  0.250000  0.036309  0.429672  1
  Co  Co11  1  0.750000  0.539564  0.068703  1
  Co  Co12  1  0.750000  0.963085  0.565136  1
  P  P13  1  0.250000  0.434752  0.113927  1
  P  P14  1  0.250000  0.067559  0.611431  1
  P  P15  1  0.750000  0.566437  0.887770  1
  P  P16  1  0.750000  0.922473  0.384944  1
  P  P17  1  0.250000  0.269472  0.868744  1
  P  P18  1  0.250000  0.230176  0.369968  1
  P  P19  1  0.750000  0.728602  0.142202  1
  P  P20  1  0.750000  0.772751  0.632686  1
  P  P21  1  0.250000  0.604006  0.375743  1
  P  P22  1  0.250000  0.901856  0.877794  1
  P  P23  1  0.750000  0.403265  0.619376  1
  P  P24  1  0.750000  0.097333  0.120577  1
  Rh  Rh25  1  0.250000  0.715783  0.989744  1
  Rh  Rh26  1  0.250000  0.787376  0.483891  1
  Rh  Rh27  1  0.750000  0.285020  0.009797  1
  Rh  Rh28  1  0.750000  0.218150  0.506056  1
  Rh  Rh29  1  0.250000  0.413122  0.474373  1
  Rh  Rh30  1  0.250000  0.089356  0.976534  1
  Rh  Rh31  1  0.750000  0.595113  0.524439  1
  Rh  Rh32  1  0.750000  0.906041  0.029399  1
  Rh  Rh33  1  0.250000  0.228944  0.181277  1
  Rh  Rh34  1  0.250000  0.272134  0.678555  1
  Rh  Rh35  1  0.750000  0.771715  0.822197  1
