# generated using pymatgen
data_SmRe3Si2Mo
_symmetry_space_group_name_H-M   'P 1'
_cell_length_a   7.87387410
_cell_length_b   7.06309138
_cell_length_c   4.20975900
_cell_angle_alpha   90.00000000
_cell_angle_beta   90.00000000
_cell_angle_gamma   89.69765599
_symmetry_Int_Tables_number   1
_chemical_formula_structural   SmRe3Si2Mo
_chemical_formula_sum   'Sm2 Re6 Si4 Mo2'
_cell_volume   234.11782386
_cell_formula_units_Z   2
loop_
 _symmetry_equiv_pos_site_id
 _symmetry_equiv_pos_as_xyz
  1  'x, y, z'
loop_
 _atom_site_type_symbol
 _atom_site_label
 _atom_site_symmetry_multiplicity
 _atom_site_fract_x
 _atom_site_fract_y
 _atom_site_fract_z
 _atom_site_occupancy
  Sm  Sm0  1  0.500000  0.500000  0.000000  1
  Sm  Sm1  1  0.000000  0.000000  0.500000  1
  Re  Re2  1  0.109864  0.345222  0.000000  1
  Re  Re3  1  0.890136  0.654778  0.000000  1
  Re  Re4  1  0.156908  0.573812  0.500000  1
  Re  Re5  1  0.843092  0.426188  0.500000  1
  Re  Re6  1  0.335250  0.075676  0.000000  1
  Re  Re7  1  0.664750  0.924324  0.000000  1
  Si  Si8  1  0.689024  0.729375  0.500000  1
  Si  Si9  1  0.310976  0.270625  0.500000  1
  Si  Si10  1  0.187791  0.767488  0.000000  1
  Si  Si11  1  0.812209  0.232512  0.000000  1
  Mo  Mo12  1  0.613468  0.151433  0.500000  1
  Mo  Mo13  1  0.386532  0.848567  0.500000  1
