# generated using pymatgen
data_La18YbDyGa12
_symmetry_space_group_name_H-M   'P 1'
_cell_length_a   7.97217100
_cell_length_b   7.97217100
_cell_length_c   14.95540600
_cell_angle_alpha   90.00000000
_cell_angle_beta   90.00000000
_cell_angle_gamma   90.00000000
_symmetry_Int_Tables_number   1
_chemical_formula_structural   La18YbDyGa12
_chemical_formula_sum   'La18 Yb1 Dy1 Ga12'
_cell_volume   950.49846237
_cell_formula_units_Z   1
loop_
 _symmetry_equiv_pos_site_id
 _symmetry_equiv_pos_as_xyz
  1  'x, y, z'
loop_
 _atom_site_type_symbol
 _atom_site_label
 _atom_site_symmetry_multiplicity
 _atom_site_fract_x
 _atom_site_fract_y
 _atom_site_fract_z
 _atom_site_occupancy
  La  La0  1  0.334802  0.314365  0.102583  1
  La  La1  1  0.838104  0.812951  0.896340  1
  La  La2  1  0.839454  0.181201  0.397006  1
  La  La3  1  0.161896  0.187049  0.896340  1
  La  La4  1  0.665198  0.685635  0.102583  1
  La  La5  1  0.000000  0.500000  0.708546  1
  La  La6  1  0.817130  0.839467  0.603670  1
  La  La7  1  0.318799  0.339454  0.397006  1
  La  La8  1  0.185635  0.834802  0.102583  1
  La  La9  1  0.182870  0.160533  0.603670  1
  La  La10  1  0.814365  0.165198  0.102583  1
  La  La11  1  0.339467  0.682870  0.603670  1
  La  La12  1  0.500000  0.000000  0.290373  1
  La  La13  1  0.687049  0.338104  0.896340  1
  La  La14  1  0.660533  0.317130  0.603670  1
  La  La15  1  0.312951  0.661896  0.896340  1
  La  La16  1  0.160546  0.818799  0.397006  1
  La  La17  1  0.681201  0.660546  0.397006  1
  Yb  Yb18  1  0.000000  0.500000  0.232381  1
  Dy  Dy19  1  0.500000  0.000000  0.777470  1
  Ga  Ga20  1  0.617771  0.381903  0.247854  1
  Ga  Ga21  1  0.877160  0.116377  0.751253  1
  Ga  Ga22  1  0.500000  0.000000  0.498884  1
  Ga  Ga23  1  0.881903  0.882229  0.247854  1
  Ga  Ga24  1  0.000000  0.500000  0.012539  1
  Ga  Ga25  1  0.122840  0.883623  0.751253  1
  Ga  Ga26  1  0.383623  0.377160  0.751253  1
  Ga  Ga27  1  0.118097  0.117771  0.247854  1
  Ga  Ga28  1  0.382229  0.618097  0.247854  1
  Ga  Ga29  1  0.616377  0.622840  0.751253  1
  Ga  Ga30  1  0.500000  0.000000  0.984710  1
  Ga  Ga31  1  0.000000  0.500000  0.500271  1
