# generated using pymatgen
data_Dy4HoTm5Sb6
_symmetry_space_group_name_H-M   'P 1'
_cell_length_a   8.93181700
_cell_length_b   8.92988060
_cell_length_c   6.26398300
_cell_angle_alpha   90.00000000
_cell_angle_beta   90.00000000
_cell_angle_gamma   119.99281893
_symmetry_Int_Tables_number   1
_chemical_formula_structural   Dy4HoTm5Sb6
_chemical_formula_sum   'Dy4 Ho1 Tm5 Sb6'
_cell_volume   432.71115609
_cell_formula_units_Z   1
loop_
 _symmetry_equiv_pos_site_id
 _symmetry_equiv_pos_as_xyz
  1  'x, y, z'
loop_
 _atom_site_type_symbol
 _atom_site_label
 _atom_site_symmetry_multiplicity
 _atom_site_fract_x
 _atom_site_fract_y
 _atom_site_fract_z
 _atom_site_occupancy
  Dy  Dy0  1  0.754284  0.753196  0.250000  1
  Dy  Dy1  1  0.754326  0.001242  0.750000  1
  Dy  Dy2  1  0.245674  0.246916  0.750000  1
  Dy  Dy3  1  0.245716  0.998913  0.250000  1
  Ho  Ho4  1  0.000000  0.751958  0.750000  1
  Tm  Tm5  1  0.000000  0.247583  0.250000  1
  Tm  Tm6  1  0.334170  0.667102  0.500052  1
  Tm  Tm7  1  0.665830  0.332929  0.999948  1
  Tm  Tm8  1  0.665830  0.332929  0.500052  1
  Tm  Tm9  1  0.334170  0.667102  0.999948  1
  Sb  Sb10  1  0.389098  0.999319  0.750000  1
  Sb  Sb11  1  0.388364  0.389746  0.250000  1
  Sb  Sb12  1  0.000000  0.607851  0.250000  1
  Sb  Sb13  1  0.000000  0.391613  0.750000  1
  Sb  Sb14  1  0.610902  0.610221  0.750000  1
  Sb  Sb15  1  0.611636  0.001380  0.250000  1
