# generated using pymatgen
data_Y6MnSi11Ir18
_symmetry_space_group_name_H-M   'P 1'
_cell_length_a   4.01318200
_cell_length_b   11.42712817
_cell_length_c   12.80381600
_cell_angle_alpha   89.71519782
_cell_angle_beta   90.00000000
_cell_angle_gamma   90.00000000
_symmetry_Int_Tables_number   1
_chemical_formula_structural   Y6MnSi11Ir18
_chemical_formula_sum   'Y6 Mn1 Si11 Ir18'
_cell_volume   587.16480168
_cell_formula_units_Z   1
loop_
 _symmetry_equiv_pos_site_id
 _symmetry_equiv_pos_as_xyz
  1  'x, y, z'
loop_
 _atom_site_type_symbol
 _atom_site_label
 _atom_site_symmetry_multiplicity
 _atom_site_fract_x
 _atom_site_fract_y
 _atom_site_fract_z
 _atom_site_occupancy
  Y  Y0  1  0.000000  0.500768  0.525461  1
  Y  Y1  1  0.500000  0.001828  0.473375  1
  Y  Y2  1  0.500000  0.816313  0.203453  1
  Y  Y3  1  0.500000  0.185325  0.203550  1
  Y  Y4  1  0.000000  0.684188  0.793481  1
  Y  Y5  1  0.000000  0.317488  0.795312  1
  Mn  Mn6  1  0.000000  0.344687  0.112684  1
  Si  Si7  1  0.500000  0.499420  0.875917  1
  Si  Si8  1  0.000000  0.998698  0.121827  1
  Si  Si9  1  0.500000  0.500416  0.342926  1
  Si  Si10  1  0.000000  0.000440  0.657286  1
  Si  Si11  1  0.500000  0.306794  0.618296  1
  Si  Si12  1  0.500000  0.695477  0.616819  1
  Si  Si13  1  0.000000  0.192084  0.384918  1
  Si  Si14  1  0.000000  0.805741  0.380114  1
  Si  Si15  1  0.500000  0.847514  0.894495  1
  Si  Si16  1  0.500000  0.154181  0.894217  1
  Si  Si17  1  0.000000  0.650468  0.104336  1
  Ir  Ir18  1  0.500000  0.497052  0.153829  1
  Ir  Ir19  1  0.000000  0.998925  0.844220  1
  Ir  Ir20  1  0.500000  0.501571  0.691942  1
  Ir  Ir21  1  0.000000  0.000092  0.306544  1
  Ir  Ir22  1  0.000000  0.496895  0.981116  1
  Ir  Ir23  1  0.500000  0.000544  0.017483  1
  Ir  Ir24  1  0.500000  0.333791  0.996240  1
  Ir  Ir25  1  0.500000  0.666696  0.986820  1
  Ir  Ir26  1  0.000000  0.169879  0.009325  1
  Ir  Ir27  1  0.000000  0.831037  0.010516  1
  Ir  Ir28  1  0.500000  0.301861  0.430726  1
  Ir  Ir29  1  0.500000  0.698873  0.429018  1
  Ir  Ir30  1  0.000000  0.198441  0.571592  1
  Ir  Ir31  1  0.000000  0.803444  0.568385  1
  Ir  Ir32  1  0.500000  0.879019  0.711274  1
  Ir  Ir33  1  0.500000  0.122457  0.713442  1
  Ir  Ir34  1  0.000000  0.620328  0.287334  1
  Ir  Ir35  1  0.000000  0.377264  0.291722  1
