# generated using pymatgen
data_Pr2Ho3Er(IrO7)2
_symmetry_space_group_name_H-M   'P 1'
_cell_length_a   6.46298751
_cell_length_b   6.46472368
_cell_length_c   7.50126802
_cell_angle_alpha   90.00745001
_cell_angle_beta   89.99964065
_cell_angle_gamma   109.56490900
_symmetry_Int_Tables_number   1
_chemical_formula_structural   Pr2Ho3Er(IrO7)2
_chemical_formula_sum   'Pr2 Ho3 Er1 Ir2 O14'
_cell_volume   295.31803707
_cell_formula_units_Z   1
loop_
 _symmetry_equiv_pos_site_id
 _symmetry_equiv_pos_as_xyz
  1  'x, y, z'
loop_
 _atom_site_type_symbol
 _atom_site_label
 _atom_site_symmetry_multiplicity
 _atom_site_fract_x
 _atom_site_fract_y
 _atom_site_fract_z
 _atom_site_occupancy
  Pr  Pr0  1  0.997926  0.997480  0.999439  1
  Pr  Pr1  1  0.997891  0.997482  0.500484  1
  Ho  Ho2  1  0.514409  0.059906  0.250063  1
  Ho  Ho3  1  0.937843  0.485648  0.749943  1
  Ho  Ho4  1  0.059993  0.514109  0.250035  1
  Er  Er5  1  0.486527  0.938923  0.750063  1
  Ir  Ir6  1  0.498877  0.499074  0.999495  1
  Ir  Ir7  1  0.498935  0.499191  0.500543  1
  O  O8  1  0.593670  0.596157  0.750079  1
  O  O9  1  0.412466  0.412607  0.250094  1
  O  O10  1  0.838269  0.122768  0.749965  1
  O  O11  1  0.161030  0.876993  0.249979  1
  O  O12  1  0.125259  0.838654  0.749952  1
  O  O13  1  0.877021  0.160416  0.249931  1
  O  O14  1  0.441027  0.180091  0.965258  1
  O  O15  1  0.559181  0.820576  0.467448  1
  O  O16  1  0.179412  0.439082  0.966066  1
  O  O17  1  0.820502  0.560699  0.466788  1
  O  O18  1  0.440960  0.180082  0.534710  1
  O  O19  1  0.559251  0.820245  0.032594  1
  O  O20  1  0.820190  0.560820  0.033185  1
  O  O21  1  0.179361  0.438997  0.533888  1
