# generated using pymatgen
data_ErTh3Al13Ga5Ir6
_symmetry_space_group_name_H-M   'P 1'
_cell_length_a   7.62297451
_cell_length_b   7.63571690
_cell_length_c   9.56626500
_cell_angle_alpha   90.00000000
_cell_angle_beta   90.00000000
_cell_angle_gamma   119.76074554
_symmetry_Int_Tables_number   1
_chemical_formula_structural   ErTh3Al13Ga5Ir6
_chemical_formula_sum   'Er1 Th3 Al13 Ga5 Ir6'
_cell_volume   483.38071446
_cell_formula_units_Z   1
loop_
 _symmetry_equiv_pos_site_id
 _symmetry_equiv_pos_as_xyz
  1  'x, y, z'
loop_
 _atom_site_type_symbol
 _atom_site_label
 _atom_site_symmetry_multiplicity
 _atom_site_fract_x
 _atom_site_fract_y
 _atom_site_fract_z
 _atom_site_occupancy
  Er  Er0  1  0.329910  0.003835  0.250000  1
  Th  Th1  1  0.996837  0.667373  0.750000  1
  Th  Th2  1  0.002473  0.331340  0.250000  1
  Th  Th3  1  0.666519  0.996180  0.750000  1
  Al  Al4  1  0.132578  0.129810  0.750000  1
  Al  Al5  1  0.005685  0.333824  0.572756  1
  Al  Al6  1  0.000017  0.670969  0.424547  1
  Al  Al7  1  0.000017  0.670969  0.075453  1
  Al  Al8  1  0.333720  0.004304  0.933299  1
  Al  Al9  1  0.005685  0.333824  0.927244  1
  Al  Al10  1  0.660682  0.995381  0.075398  1
  Al  Al11  1  0.660682  0.995381  0.424602  1
  Al  Al12  1  0.333720  0.004304  0.566701  1
  Al  Al13  1  0.336644  0.333013  0.055979  1
  Al  Al14  1  0.663402  0.663414  0.948542  1
  Al  Al15  1  0.663402  0.663414  0.551458  1
  Al  Al16  1  0.336644  0.333013  0.444021  1
  Ga  Ga17  1  0.872897  0.870263  0.250000  1
  Ga  Ga18  1  0.341963  0.540872  0.750000  1
  Ga  Ga19  1  0.655642  0.450997  0.250000  1
  Ga  Ga20  1  0.540591  0.338861  0.750000  1
  Ga  Ga21  1  0.456416  0.663898  0.250000  1
  Ir  Ir22  1  0.674546  0.329284  0.499908  1
  Ir  Ir23  1  0.327600  0.671714  0.499955  1
  Ir  Ir24  1  0.327600  0.671714  0.000045  1
  Ir  Ir25  1  0.674546  0.329284  0.000092  1
  Ir  Ir26  1  0.999791  0.001385  0.502724  1
  Ir  Ir27  1  0.999791  0.001385  0.997276  1
