# generated using pymatgen
data_Pr8Sc(IrO8)3
_symmetry_space_group_name_H-M   'P 1'
_cell_length_a   5.50878268
_cell_length_b   9.47289874
_cell_length_c   10.34971263
_cell_angle_alpha   89.33742081
_cell_angle_beta   90.24810336
_cell_angle_gamma   90.53579653
_symmetry_Int_Tables_number   1
_chemical_formula_structural   Pr8Sc(IrO8)3
_chemical_formula_sum   'Pr8 Sc1 Ir3 O24'
_cell_volume   540.02631715
_cell_formula_units_Z   1
loop_
 _symmetry_equiv_pos_site_id
 _symmetry_equiv_pos_as_xyz
  1  'x, y, z'
loop_
 _atom_site_type_symbol
 _atom_site_label
 _atom_site_symmetry_multiplicity
 _atom_site_fract_x
 _atom_site_fract_y
 _atom_site_fract_z
 _atom_site_occupancy
  Pr  Pr0  1  0.039963  0.217259  0.130605  1
  Pr  Pr1  1  0.464599  0.764333  0.635759  1
  Pr  Pr2  1  0.966586  0.715862  0.377418  1
  Pr  Pr3  1  0.524321  0.293225  0.850734  1
  Pr  Pr4  1  0.039576  0.120804  0.540284  1
  Pr  Pr5  1  0.473999  0.899186  0.038850  1
  Pr  Pr6  1  0.982516  0.600403  0.954040  1
  Pr  Pr7  1  0.516185  0.409424  0.467715  1
  Sc  Sc8  1  0.031459  0.490352  0.645632  1
  Ir  Ir9  1  0.550768  0.000775  0.357030  1
  Ir  Ir10  1  0.955853  0.997946  0.858066  1
  Ir  Ir11  1  0.460443  0.503244  0.144438  1
  O  O12  1  0.444109  0.153112  0.459627  1
  O  O13  1  0.061506  0.853513  0.982364  1
  O  O14  1  0.565032  0.649658  0.026187  1
  O  O15  1  0.906693  0.341341  0.508001  1
  O  O16  1  0.722256  0.390510  0.079117  1
  O  O17  1  0.758202  0.616440  0.553283  1
  O  O18  1  0.284855  0.893694  0.433487  1
  O  O19  1  0.218324  0.108555  0.936843  1
  O  O20  1  0.255401  0.409247  0.009238  1
  O  O21  1  0.249691  0.600451  0.505864  1
  O  O22  1  0.755725  0.919914  0.493874  1
  O  O23  1  0.749493  0.089668  0.991747  1
  O  O24  1  0.194822  0.627040  0.180501  1
  O  O25  1  0.308506  0.330199  0.663329  1
  O  O26  1  0.824711  0.118124  0.312465  1
  O  O27  1  0.690350  0.870752  0.827879  1
  O  O28  1  0.348699  0.057663  0.212611  1
  O  O29  1  0.159985  0.945596  0.722254  1
  O  O30  1  0.659380  0.564015  0.280819  1
  O  O31  1  0.806310  0.457219  0.800901  1
  O  O32  1  0.324858  0.362700  0.257015  1
  O  O33  1  0.212741  0.633183  0.771875  1
  O  O34  1  0.664440  0.855797  0.245573  1
  O  O35  1  0.827640  0.138792  0.744578  1
