# generated using pymatgen
data_Sn3P6BrN12
_symmetry_space_group_name_H-M   'P 1'
_cell_length_a   7.41729567
_cell_length_b   7.41729498
_cell_length_c   7.41729570
_cell_angle_alpha   109.42746516
_cell_angle_beta   109.42745306
_cell_angle_gamma   109.42743389
_symmetry_Int_Tables_number   1
_chemical_formula_structural   Sn3P6BrN12
_chemical_formula_sum   'Sn3 P6 Br1 N12'
_cell_volume   314.64196483
_cell_formula_units_Z   1
loop_
 _symmetry_equiv_pos_site_id
 _symmetry_equiv_pos_as_xyz
  1  'x, y, z'
loop_
 _atom_site_type_symbol
 _atom_site_label
 _atom_site_symmetry_multiplicity
 _atom_site_fract_x
 _atom_site_fract_y
 _atom_site_fract_z
 _atom_site_occupancy
  Sn  Sn0  1  0.012900  0.336971  0.012900  1
  Sn  Sn1  1  0.012900  0.012900  0.336971  1
  Sn  Sn2  1  0.336971  0.012900  0.012900  1
  P  P3  1  0.510402  0.264579  0.759782  1
  P  P4  1  0.264579  0.759782  0.510402  1
  P  P5  1  0.759782  0.510402  0.264579  1
  P  P6  1  0.759782  0.264579  0.510402  1
  P  P7  1  0.510402  0.759782  0.264579  1
  P  P8  1  0.264579  0.510402  0.759782  1
  Br  Br9  1  0.831004  0.831004  0.831004  1
  N  N10  1  0.420190  0.710996  0.420190  1
  N  N11  1  0.710996  0.420190  0.420190  1
  N  N12  1  0.420190  0.420190  0.710996  1
  N  N13  1  0.724796  0.295856  0.724796  1
  N  N14  1  0.009984  0.593808  0.296143  1
  N  N15  1  0.296143  0.593808  0.009984  1
  N  N16  1  0.296143  0.009984  0.593808  1
  N  N17  1  0.009984  0.296143  0.593808  1
  N  N18  1  0.724796  0.724796  0.295856  1
  N  N19  1  0.593808  0.009984  0.296143  1
  N  N20  1  0.295856  0.724796  0.724796  1
  N  N21  1  0.593808  0.296143  0.009984  1
