# generated using pymatgen
data_Y8Ho2(InSb)3
_symmetry_space_group_name_H-M   'P 1'
_cell_length_a   8.98160700
_cell_length_b   8.96264173
_cell_length_c   6.57123516
_cell_angle_alpha   90.02175032
_cell_angle_beta   90.00000000
_cell_angle_gamma   120.07001891
_symmetry_Int_Tables_number   1
_chemical_formula_structural   Y8Ho2(InSb)3
_chemical_formula_sum   'Y8 Ho2 In3 Sb3'
_cell_volume   457.78423407
_cell_formula_units_Z   1
loop_
 _symmetry_equiv_pos_site_id
 _symmetry_equiv_pos_as_xyz
  1  'x, y, z'
loop_
 _atom_site_type_symbol
 _atom_site_label
 _atom_site_symmetry_multiplicity
 _atom_site_fract_x
 _atom_site_fract_y
 _atom_site_fract_z
 _atom_site_occupancy
  Y  Y0  1  0.331194  0.666150  0.000689  1
  Y  Y1  1  0.665045  0.333850  0.499311  1
  Y  Y2  1  0.760489  0.000000  0.750000  1
  Y  Y3  1  0.762888  0.759747  0.250002  1
  Y  Y4  1  0.003141  0.240253  0.249998  1
  Y  Y5  1  0.002282  0.762580  0.749986  1
  Y  Y6  1  0.239704  0.237420  0.750014  1
  Y  Y7  1  0.238429  0.000000  0.250000  1
  Ho  Ho8  1  0.664657  0.333849  0.000991  1
  Ho  Ho9  1  0.330808  0.666151  0.499009  1
  In  In10  1  0.397189  0.000000  0.750000  1
  In  In11  1  0.395668  0.397296  0.250043  1
  In  In12  1  0.998370  0.602704  0.249957  1
  Sb  Sb13  1  0.997390  0.391723  0.750088  1
  Sb  Sb14  1  0.605667  0.608277  0.749912  1
  Sb  Sb15  1  0.607077  0.000000  0.250000  1
