# generated using pymatgen
data_Er3BiRuRh3O14
_symmetry_space_group_name_H-M   'P 1'
_cell_length_a   7.17240324
_cell_length_b   7.17240306
_cell_length_c   7.28423211
_cell_angle_alpha   60.50655324
_cell_angle_beta   60.50655484
_cell_angle_gamma   59.99999776
_symmetry_Int_Tables_number   1
_chemical_formula_structural   Er3BiRuRh3O14
_chemical_formula_sum   'Er3 Bi1 Ru1 Rh3 O14'
_cell_volume   266.98156095
_cell_formula_units_Z   1
loop_
 _symmetry_equiv_pos_site_id
 _symmetry_equiv_pos_as_xyz
  1  'x, y, z'
loop_
 _atom_site_type_symbol
 _atom_site_label
 _atom_site_symmetry_multiplicity
 _atom_site_fract_x
 _atom_site_fract_y
 _atom_site_fract_z
 _atom_site_occupancy
  Er  Er0  1  0.125000  0.125000  0.125000  1
  Er  Er1  1  0.125000  0.625000  0.125000  1
  Er  Er2  1  0.625000  0.125000  0.125000  1
  Bi  Bi3  1  0.125000  0.125000  0.625000  1
  Ru  Ru4  1  0.625000  0.625000  0.125000  1
  Rh  Rh5  1  0.625000  0.625000  0.625000  1
  Rh  Rh6  1  0.125000  0.625000  0.625000  1
  Rh  Rh7  1  0.625000  0.125000  0.625000  1
  O  O8  1  0.253077  0.253077  0.240768  1
  O  O9  1  0.292437  0.709572  0.288419  1
  O  O10  1  0.965206  0.965206  0.525472  1
  O  O11  1  0.544116  0.965206  0.525472  1
  O  O12  1  0.709572  0.709572  0.288419  1
  O  O13  1  0.965206  0.544116  0.525472  1
  O  O14  1  0.705884  0.284794  0.724528  1
  O  O15  1  0.284794  0.284794  0.724528  1
  O  O16  1  0.709572  0.292437  0.288419  1
  O  O17  1  0.284794  0.705884  0.724528  1
  O  O18  1  0.957563  0.540428  0.961581  1
  O  O19  1  0.540428  0.540428  0.961581  1
  O  O20  1  0.996923  0.996923  0.009232  1
  O  O21  1  0.540428  0.957563  0.961581  1
