# generated using pymatgen
data_DyTmLu4(Al3Os)8
_symmetry_space_group_name_H-M   'P 1'
_cell_length_a   8.76721813
_cell_length_b   8.76574252
_cell_length_c   9.58318400
_cell_angle_alpha   90.00000000
_cell_angle_beta   90.00000000
_cell_angle_gamma   119.95131206
_symmetry_Int_Tables_number   1
_chemical_formula_structural   DyTmLu4(Al3Os)8
_chemical_formula_sum   'Dy1 Tm1 Lu4 Al24 Os8'
_cell_volume   638.12218180
_cell_formula_units_Z   1
loop_
 _symmetry_equiv_pos_site_id
 _symmetry_equiv_pos_as_xyz
  1  'x, y, z'
loop_
 _atom_site_type_symbol
 _atom_site_label
 _atom_site_symmetry_multiplicity
 _atom_site_fract_x
 _atom_site_fract_y
 _atom_site_fract_z
 _atom_site_occupancy
  Dy  Dy0  1  0.806624  0.193291  0.750000  1
  Tm  Tm1  1  0.804582  0.609346  0.750000  1
  Lu  Lu2  1  0.195339  0.391143  0.250000  1
  Lu  Lu3  1  0.608831  0.804644  0.250000  1
  Lu  Lu4  1  0.391523  0.195807  0.750000  1
  Lu  Lu5  1  0.195390  0.804580  0.250000  1
  Al  Al6  1  0.333244  0.666731  0.021837  1
  Al  Al7  1  0.666459  0.333264  0.979511  1
  Al  Al8  1  0.666459  0.333264  0.520489  1
  Al  Al9  1  0.333244  0.666731  0.478163  1
  Al  Al10  1  0.164084  0.327363  0.576284  1
  Al  Al11  1  0.836532  0.673316  0.422878  1
  Al  Al12  1  0.672563  0.835964  0.576267  1
  Al  Al13  1  0.836532  0.673316  0.077122  1
  Al  Al14  1  0.326654  0.163446  0.422989  1
  Al  Al15  1  0.164084  0.327363  0.923716  1
  Al  Al16  1  0.163456  0.836714  0.576269  1
  Al  Al17  1  0.326654  0.163446  0.077011  1
  Al  Al18  1  0.836449  0.163536  0.422262  1
  Al  Al19  1  0.672563  0.835964  0.923733  1
  Al  Al20  1  0.836449  0.163536  0.077738  1
  Al  Al21  1  0.163456  0.836714  0.923731  1
  Al  Al22  1  0.561196  0.123027  0.250000  1
  Al  Al23  1  0.437398  0.876162  0.750000  1
  Al  Al24  1  0.876964  0.438779  0.250000  1
  Al  Al25  1  0.124092  0.562558  0.750000  1
  Al  Al26  1  0.561332  0.438624  0.250000  1
  Al  Al27  1  0.438231  0.561430  0.750000  1
  Al  Al28  1  0.999823  0.000150  0.250000  1
  Al  Al29  1  0.001837  0.998645  0.750000  1
  Os  Os30  1  0.499010  0.999451  0.000738  1
  Os  Os31  1  0.000543  0.500848  0.000825  1
  Os  Os32  1  0.499010  0.999451  0.499262  1
  Os  Os33  1  0.499650  0.500074  0.000276  1
  Os  Os34  1  0.000543  0.500848  0.499175  1
  Os  Os35  1  0.499650  0.500074  0.499724  1
  Os  Os36  1  0.999778  0.000197  0.000109  1
  Os  Os37  1  0.999778  0.000197  0.499891  1
