# generated using pymatgen
data_NdCrH5
_symmetry_space_group_name_H-M   'P 1'
_cell_length_a   4.43800900
_cell_length_b   4.70443800
_cell_length_c   11.66923300
_cell_angle_alpha   90.00000000
_cell_angle_beta   90.00000000
_cell_angle_gamma   90.00000000
_symmetry_Int_Tables_number   1
_chemical_formula_structural   NdCrH5
_chemical_formula_sum   'Nd4 Cr4 H20'
_cell_volume   243.63419292
_cell_formula_units_Z   4
loop_
 _symmetry_equiv_pos_site_id
 _symmetry_equiv_pos_as_xyz
  1  'x, y, z'
loop_
 _atom_site_type_symbol
 _atom_site_label
 _atom_site_symmetry_multiplicity
 _atom_site_fract_x
 _atom_site_fract_y
 _atom_site_fract_z
 _atom_site_occupancy
  Nd  Nd0  1  0.267368  0.252388  0.647297  1
  Nd  Nd1  1  0.767368  0.247612  0.352703  1
  Nd  Nd2  1  0.232632  0.747612  0.147297  1
  Nd  Nd3  1  0.732632  0.752388  0.852703  1
  Cr  Cr4  1  0.275937  0.252443  0.923406  1
  Cr  Cr5  1  0.775937  0.247557  0.076594  1
  Cr  Cr6  1  0.224063  0.747557  0.423406  1
  Cr  Cr7  1  0.724063  0.752443  0.576594  1
  H  H8  1  0.499259  0.521511  0.494887  1
  H  H9  1  0.999259  0.978489  0.505113  1
  H  H10  1  0.000741  0.478489  0.994887  1
  H  H11  1  0.500741  0.021511  0.005113  1
  H  H12  1  0.190485  0.000770  0.823770  1
  H  H13  1  0.690485  0.499230  0.176230  1
  H  H14  1  0.309515  0.999230  0.323770  1
  H  H15  1  0.809515  0.500770  0.676230  1
  H  H16  1  0.193744  0.508154  0.824795  1
  H  H17  1  0.693744  0.991846  0.175205  1
  H  H18  1  0.306256  0.491846  0.324795  1
  H  H19  1  0.806256  0.008154  0.675205  1
  H  H20  1  0.570903  0.252955  0.831057  1
  H  H21  1  0.070903  0.247045  0.168943  1
  H  H22  1  0.929097  0.747045  0.331057  1
  H  H23  1  0.429097  0.752955  0.668943  1
  H  H24  1  0.003992  0.020445  0.994757  1
  H  H25  1  0.503992  0.479555  0.005243  1
  H  H26  1  0.496008  0.979555  0.494757  1
  H  H27  1  0.996008  0.520445  0.505243  1
