# generated using pymatgen
data_TmLu15(In3Ir)2
_symmetry_space_group_name_H-M   'P 1'
_cell_length_a   10.22622300
_cell_length_b   10.22554302
_cell_length_c   6.90495201
_cell_angle_alpha   90.00551617
_cell_angle_beta   90.00000000
_cell_angle_gamma   120.00219652
_symmetry_Int_Tables_number   1
_chemical_formula_structural   TmLu15(In3Ir)2
_chemical_formula_sum   'Tm1 Lu15 In6 Ir2'
_cell_volume   625.29264457
_cell_formula_units_Z   1
loop_
 _symmetry_equiv_pos_site_id
 _symmetry_equiv_pos_as_xyz
  1  'x, y, z'
loop_
 _atom_site_type_symbol
 _atom_site_label
 _atom_site_symmetry_multiplicity
 _atom_site_fract_x
 _atom_site_fract_y
 _atom_site_fract_z
 _atom_site_occupancy
  Tm  Tm0  1  0.532653  0.065306  0.523619  1
  Lu  Lu1  1  0.934427  0.467216  0.523548  1
  Lu  Lu2  1  0.532791  0.467216  0.523548  1
  Lu  Lu3  1  0.467150  0.934300  0.023517  1
  Lu  Lu4  1  0.065609  0.532812  0.023524  1
  Lu  Lu5  1  0.467202  0.532812  0.023524  1
  Lu  Lu6  1  0.177190  0.354380  0.729504  1
  Lu  Lu7  1  0.645669  0.822732  0.729595  1
  Lu  Lu8  1  0.177063  0.822732  0.729595  1
  Lu  Lu9  1  0.822777  0.645555  0.229490  1
  Lu  Lu10  1  0.354295  0.177226  0.229399  1
  Lu  Lu11  1  0.822931  0.177226  0.229399  1
  Lu  Lu12  1  0.666729  0.333457  0.903818  1
  Lu  Lu13  1  0.333281  0.666563  0.403727  1
  Lu  Lu14  1  0.999986  0.999973  0.506596  1
  Lu  Lu15  1  0.000012  0.000025  0.006629  1
  In  In16  1  0.837199  0.674398  0.769521  1
  In  In17  1  0.325523  0.162836  0.769559  1
  In  In18  1  0.837313  0.162836  0.769559  1
  In  In19  1  0.162796  0.325593  0.269520  1
  In  In20  1  0.674401  0.837214  0.269475  1
  In  In21  1  0.162813  0.837214  0.269475  1
  Ir  Ir22  1  0.666839  0.333678  0.299641  1
  Ir  Ir23  1  0.333350  0.666702  0.799900  1
