# generated using pymatgen
data_Sc4TiRe7
_symmetry_space_group_name_H-M   'P 1'
_cell_length_a   5.28504001
_cell_length_b   5.28504086
_cell_length_c   8.73226802
_cell_angle_alpha   89.99812149
_cell_angle_beta   90.00188041
_cell_angle_gamma   119.99868048
_symmetry_Int_Tables_number   1
_chemical_formula_structural   Sc4TiRe7
_chemical_formula_sum   'Sc4 Ti1 Re7'
_cell_volume   211.23218484
_cell_formula_units_Z   1
loop_
 _symmetry_equiv_pos_site_id
 _symmetry_equiv_pos_as_xyz
  1  'x, y, z'
loop_
 _atom_site_type_symbol
 _atom_site_label
 _atom_site_symmetry_multiplicity
 _atom_site_fract_x
 _atom_site_fract_y
 _atom_site_fract_z
 _atom_site_occupancy
  Sc  Sc0  1  0.666672  0.333328  0.564283  1
  Sc  Sc1  1  0.333328  0.666672  0.435717  1
  Sc  Sc2  1  0.333324  0.666676  0.060816  1
  Sc  Sc3  1  0.666676  0.333324  0.939184  1
  Ti  Ti4  1  0.000000  0.000000  0.500000  1
  Re  Re5  1  0.000000  0.000000  0.000000  1
  Re  Re6  1  0.170707  0.341369  0.751520  1
  Re  Re7  1  0.170731  0.829269  0.751515  1
  Re  Re8  1  0.658631  0.829293  0.751520  1
  Re  Re9  1  0.829293  0.658631  0.248480  1
  Re  Re10  1  0.829269  0.170731  0.248485  1
  Re  Re11  1  0.341369  0.170707  0.248480  1
