# generated using pymatgen
data_KH11
_symmetry_space_group_name_H-M   'P 1'
_cell_length_a   6.57032066
_cell_length_b   6.57032066
_cell_length_c   9.54746700
_cell_angle_alpha   90.00000000
_cell_angle_beta   90.00000000
_cell_angle_gamma   48.33197400
_symmetry_Int_Tables_number   1
_chemical_formula_structural   KH11
_chemical_formula_sum   'K2 H22'
_cell_volume   307.88413105
_cell_formula_units_Z   2
loop_
 _symmetry_equiv_pos_site_id
 _symmetry_equiv_pos_as_xyz
  1  'x, y, z'
loop_
 _atom_site_type_symbol
 _atom_site_label
 _atom_site_symmetry_multiplicity
 _atom_site_fract_x
 _atom_site_fract_y
 _atom_site_fract_z
 _atom_site_occupancy
  K  K0  1  0.130653  0.130653  0.250000  1
  K  K1  1  0.869347  0.869347  0.750000  1
  H  H2  1  0.257177  0.518282  0.009349  1
  H  H3  1  0.933576  0.386971  0.897915  1
  H  H4  1  0.757702  0.369004  0.072502  1
  H  H5  1  0.001386  0.641682  0.326481  1
  H  H6  1  0.641682  0.001386  0.173519  1
  H  H7  1  0.369004  0.757702  0.427498  1
  H  H8  1  0.386971  0.933576  0.602085  1
  H  H9  1  0.518282  0.257177  0.490651  1
  H  H10  1  0.742822  0.481718  0.509348  1
  H  H11  1  0.066424  0.613030  0.397915  1
  H  H12  1  0.242298  0.630997  0.572501  1
  H  H13  1  0.998614  0.358319  0.826480  1
  H  H14  1  0.358319  0.998614  0.673519  1
  H  H15  1  0.630997  0.242298  0.927498  1
  H  H16  1  0.613030  0.066424  0.102086  1
  H  H17  1  0.481718  0.742822  0.990651  1
  H  H18  1  0.701998  0.298001  0.000000  1
  H  H19  1  0.124574  0.626365  0.048042  1
  H  H20  1  0.626365  0.124574  0.451957  1
  H  H21  1  0.298001  0.701998  0.499999  1
  H  H22  1  0.875427  0.373635  0.548043  1
  H  H23  1  0.373635  0.875427  0.951958  1
