# generated using pymatgen
data_NaNb8RhS16
_symmetry_space_group_name_H-M   'P 1'
_cell_length_a   6.72526100
_cell_length_b   6.72526136
_cell_length_c   13.41149800
_cell_angle_alpha   90.00000000
_cell_angle_beta   90.00000000
_cell_angle_gamma   120.00000315
_symmetry_Int_Tables_number   1
_chemical_formula_structural   NaNb8RhS16
_chemical_formula_sum   'Na1 Nb8 Rh1 S16'
_cell_volume   525.32275997
_cell_formula_units_Z   1
loop_
 _symmetry_equiv_pos_site_id
 _symmetry_equiv_pos_as_xyz
  1  'x, y, z'
loop_
 _atom_site_type_symbol
 _atom_site_label
 _atom_site_symmetry_multiplicity
 _atom_site_fract_x
 _atom_site_fract_y
 _atom_site_fract_z
 _atom_site_occupancy
  Na  Na0  1  0.000000  0.000000  0.000000  1
  Nb  Nb1  1  0.000000  0.000000  0.271821  1
  Nb  Nb2  1  0.000000  0.000000  0.728179  1
  Nb  Nb3  1  0.504063  0.008126  0.275967  1
  Nb  Nb4  1  0.495937  0.991874  0.724033  1
  Nb  Nb5  1  0.991874  0.495937  0.275967  1
  Nb  Nb6  1  0.008126  0.504063  0.724033  1
  Nb  Nb7  1  0.504063  0.495937  0.275967  1
  Nb  Nb8  1  0.495937  0.504063  0.724033  1
  Rh  Rh9  1  0.000000  0.000000  0.500000  1
  S  S10  1  0.333333  0.666667  0.606231  1
  S  S11  1  0.666667  0.333333  0.393769  1
  S  S12  1  0.666667  0.333333  0.155807  1
  S  S13  1  0.333333  0.666667  0.844193  1
  S  S14  1  0.168114  0.336227  0.158207  1
  S  S15  1  0.831886  0.663773  0.841793  1
  S  S16  1  0.663773  0.831886  0.158207  1
  S  S17  1  0.834286  0.668571  0.609841  1
  S  S18  1  0.336227  0.168114  0.841793  1
  S  S19  1  0.165714  0.331429  0.390159  1
  S  S20  1  0.168114  0.831886  0.158207  1
  S  S21  1  0.331429  0.165714  0.609841  1
  S  S22  1  0.831886  0.168114  0.841793  1
  S  S23  1  0.668571  0.834286  0.390159  1
  S  S24  1  0.834286  0.165714  0.609841  1
  S  S25  1  0.165714  0.834286  0.390159  1
