# generated using pymatgen
data_Tc2Ir5Ru
_symmetry_space_group_name_H-M   'P 1'
_cell_length_a   5.51080288
_cell_length_b   5.51080242
_cell_length_c   4.39191800
_cell_angle_alpha   90.00000000
_cell_angle_beta   90.00000000
_cell_angle_gamma   120.13601418
_symmetry_Int_Tables_number   1
_chemical_formula_structural   Tc2Ir5Ru
_chemical_formula_sum   'Tc2 Ir5 Ru1'
_cell_volume   115.35002914
_cell_formula_units_Z   1
loop_
 _symmetry_equiv_pos_site_id
 _symmetry_equiv_pos_as_xyz
  1  'x, y, z'
loop_
 _atom_site_type_symbol
 _atom_site_label
 _atom_site_symmetry_multiplicity
 _atom_site_fract_x
 _atom_site_fract_y
 _atom_site_fract_z
 _atom_site_occupancy
  Tc  Tc0  1  0.333085  0.666915  0.750000  1
  Tc  Tc1  1  0.667033  0.332967  0.250000  1
  Ir  Ir2  1  0.165709  0.333147  0.250000  1
  Ir  Ir3  1  0.666853  0.834291  0.250000  1
  Ir  Ir4  1  0.167331  0.832669  0.250000  1
  Ir  Ir5  1  0.832867  0.666179  0.750000  1
  Ir  Ir6  1  0.333821  0.167133  0.750000  1
  Ru  Ru7  1  0.833301  0.166699  0.750000  1
