# generated using pymatgen
data_Y8Cd2CoPd
_symmetry_space_group_name_H-M   'P 1'
_cell_length_a   9.64067531
_cell_length_b   9.64067480
_cell_length_c   9.66554800
_cell_angle_alpha   59.91461664
_cell_angle_beta   59.91461839
_cell_angle_gamma   59.99398078
_symmetry_Int_Tables_number   1
_chemical_formula_structural   Y8Cd2CoPd
_chemical_formula_sum   'Y16 Cd4 Co2 Pd2'
_cell_volume   634.37341808
_cell_formula_units_Z   2
loop_
 _symmetry_equiv_pos_site_id
 _symmetry_equiv_pos_as_xyz
  1  'x, y, z'
loop_
 _atom_site_type_symbol
 _atom_site_label
 _atom_site_symmetry_multiplicity
 _atom_site_fract_x
 _atom_site_fract_y
 _atom_site_fract_z
 _atom_site_occupancy
  Y  Y0  1  0.346764  0.346764  0.359891  1
  Y  Y1  1  0.346764  0.346764  0.946580  1
  Y  Y2  1  0.340817  0.954692  0.352245  1
  Y  Y3  1  0.954692  0.340817  0.352245  1
  Y  Y4  1  0.819918  0.188465  0.189397  1
  Y  Y5  1  0.188465  0.819918  0.802219  1
  Y  Y6  1  0.188465  0.819918  0.189397  1
  Y  Y7  1  0.819918  0.188465  0.802219  1
  Y  Y8  1  0.188352  0.188352  0.811648  1
  Y  Y9  1  0.809798  0.809798  0.190202  1
  Y  Y10  1  0.935645  0.562354  0.565471  1
  Y  Y11  1  0.562354  0.935645  0.936531  1
  Y  Y12  1  0.562354  0.935645  0.565471  1
  Y  Y13  1  0.935645  0.562354  0.936531  1
  Y  Y14  1  0.563500  0.563500  0.936500  1
  Y  Y15  1  0.935643  0.935643  0.564357  1
  Cd  Cd16  1  0.580721  0.580721  0.580319  1
  Cd  Cd17  1  0.580721  0.580721  0.258240  1
  Cd  Cd18  1  0.582291  0.255159  0.581275  1
  Cd  Cd19  1  0.255159  0.582291  0.581275  1
  Co  Co20  1  0.142835  0.142835  0.141739  1
  Co  Co21  1  0.142835  0.142835  0.572590  1
  Pd  Pd22  1  0.145228  0.571114  0.141829  1
  Pd  Pd23  1  0.571114  0.145228  0.141829  1
