# generated using pymatgen
data_Ho3Hf(Al3Ir)6
_symmetry_space_group_name_H-M   'P 1'
_cell_length_a   7.53396773
_cell_length_b   7.52524680
_cell_length_c   9.39601000
_cell_angle_alpha   90.00000000
_cell_angle_beta   90.00000000
_cell_angle_gamma   119.63306640
_symmetry_Int_Tables_number   1
_chemical_formula_structural   Ho3Hf(Al3Ir)6
_chemical_formula_sum   'Ho3 Hf1 Al18 Ir6'
_cell_volume   463.03364512
_cell_formula_units_Z   1
loop_
 _symmetry_equiv_pos_site_id
 _symmetry_equiv_pos_as_xyz
  1  'x, y, z'
loop_
 _atom_site_type_symbol
 _atom_site_label
 _atom_site_symmetry_multiplicity
 _atom_site_fract_x
 _atom_site_fract_y
 _atom_site_fract_z
 _atom_site_occupancy
  Ho  Ho0  1  0.005783  0.327835  0.750000  1
  Ho  Ho1  1  0.671091  0.995825  0.250000  1
  Ho  Ho2  1  0.329352  0.006518  0.750000  1
  Hf  Hf3  1  0.997397  0.672589  0.250000  1
  Al  Al4  1  0.125826  0.123124  0.250000  1
  Al  Al5  1  0.871177  0.869939  0.750000  1
  Al  Al6  1  0.000106  0.337790  0.079401  1
  Al  Al7  1  0.999340  0.665000  0.928862  1
  Al  Al8  1  0.999340  0.665000  0.571138  1
  Al  Al9  1  0.332460  0.998087  0.420492  1
  Al  Al10  1  0.000106  0.337790  0.420599  1
  Al  Al11  1  0.664668  0.998425  0.574721  1
  Al  Al12  1  0.664668  0.998425  0.925279  1
  Al  Al13  1  0.332460  0.998087  0.079508  1
  Al  Al14  1  0.333603  0.333677  0.551764  1
  Al  Al15  1  0.668857  0.666773  0.442494  1
  Al  Al16  1  0.668857  0.666773  0.057506  1
  Al  Al17  1  0.333603  0.333677  0.948236  1
  Al  Al18  1  0.335733  0.549167  0.250000  1
  Al  Al19  1  0.661065  0.452426  0.750000  1
  Al  Al20  1  0.554859  0.344402  0.250000  1
  Al  Al21  1  0.451040  0.659881  0.750000  1
  Ir  Ir22  1  0.672633  0.328364  0.001206  1
  Ir  Ir23  1  0.327393  0.672244  0.001913  1
  Ir  Ir24  1  0.327393  0.672244  0.498087  1
  Ir  Ir25  1  0.672633  0.328364  0.498794  1
  Ir  Ir26  1  0.999279  0.998787  0.001367  1
  Ir  Ir27  1  0.999279  0.998787  0.498633  1
