# generated using pymatgen
data_Ca6YbHgN4
_symmetry_space_group_name_H-M   'P 1'
_cell_length_a   3.62330600
_cell_length_b   12.01912900
_cell_length_c   11.58485400
_cell_angle_alpha   90.00000000
_cell_angle_beta   90.00000000
_cell_angle_gamma   90.00000000
_symmetry_Int_Tables_number   1
_chemical_formula_structural   Ca6YbHgN4
_chemical_formula_sum   'Ca12 Yb2 Hg2 N8'
_cell_volume   504.50860087
_cell_formula_units_Z   2
loop_
 _symmetry_equiv_pos_site_id
 _symmetry_equiv_pos_as_xyz
  1  'x, y, z'
loop_
 _atom_site_type_symbol
 _atom_site_label
 _atom_site_symmetry_multiplicity
 _atom_site_fract_x
 _atom_site_fract_y
 _atom_site_fract_z
 _atom_site_occupancy
  Ca  Ca0  1  0.498856  0.670384  0.234752  1
  Ca  Ca1  1  0.498856  0.329616  0.765248  1
  Ca  Ca2  1  0.501144  0.170384  0.265248  1
  Ca  Ca3  1  0.501144  0.829616  0.734752  1
  Ca  Ca4  1  0.000750  0.928288  0.266781  1
  Ca  Ca5  1  0.000750  0.071712  0.733219  1
  Ca  Ca6  1  0.999250  0.428288  0.233219  1
  Ca  Ca7  1  0.999250  0.571712  0.766781  1
  Ca  Ca8  1  0.001558  0.765374  0.479093  1
  Ca  Ca9  1  0.001558  0.234626  0.520907  1
  Ca  Ca10  1  0.998442  0.265374  0.020907  1
  Ca  Ca11  1  0.998442  0.734626  0.979093  1
  Yb  Yb12  1  0.498789  0.500000  0.000000  1
  Yb  Yb13  1  0.501211  0.000000  0.500000  1
  Hg  Hg14  1  0.512871  0.500000  0.500000  1
  Hg  Hg15  1  0.487129  0.000000  0.000000  1
  N  N16  1  0.998464  0.599714  0.127734  1
  N  N17  1  0.998464  0.400286  0.872266  1
  N  N18  1  0.001536  0.099714  0.372266  1
  N  N19  1  0.001536  0.900286  0.627734  1
  N  N20  1  0.501136  0.831414  0.358851  1
  N  N21  1  0.501136  0.168586  0.641149  1
  N  N22  1  0.498864  0.331414  0.141149  1
  N  N23  1  0.498864  0.668586  0.858851  1
