# generated using pymatgen
data_Tb11YPt4
_symmetry_space_group_name_H-M   'P 1'
_cell_length_a   6.53320902
_cell_length_b   7.07048212
_cell_length_c   9.68434300
_cell_angle_alpha   90.00000000
_cell_angle_beta   90.00000000
_cell_angle_gamma   90.06427568
_symmetry_Int_Tables_number   1
_chemical_formula_structural   Tb11YPt4
_chemical_formula_sum   'Tb11 Y1 Pt4'
_cell_volume   447.34797008
_cell_formula_units_Z   1
loop_
 _symmetry_equiv_pos_site_id
 _symmetry_equiv_pos_as_xyz
  1  'x, y, z'
loop_
 _atom_site_type_symbol
 _atom_site_label
 _atom_site_symmetry_multiplicity
 _atom_site_fract_x
 _atom_site_fract_y
 _atom_site_fract_z
 _atom_site_occupancy
  Tb  Tb0  1  0.364738  0.971162  0.750000  1
  Tb  Tb1  1  0.135349  0.471313  0.750000  1
  Tb  Tb2  1  0.865117  0.528736  0.250000  1
  Tb  Tb3  1  0.176938  0.179661  0.060948  1
  Tb  Tb4  1  0.823198  0.820387  0.938995  1
  Tb  Tb5  1  0.676767  0.320254  0.939083  1
  Tb  Tb6  1  0.823198  0.820387  0.561005  1
  Tb  Tb7  1  0.323153  0.679573  0.060879  1
  Tb  Tb8  1  0.176938  0.179661  0.439052  1
  Tb  Tb9  1  0.323153  0.679573  0.439121  1
  Tb  Tb10  1  0.676767  0.320254  0.560917  1
  Y  Y11  1  0.634612  0.028316  0.250000  1
  Pt  Pt12  1  0.442901  0.388513  0.250000  1
  Pt  Pt13  1  0.556660  0.612141  0.750000  1
  Pt  Pt14  1  0.943598  0.112062  0.750000  1
  Pt  Pt15  1  0.056912  0.888009  0.250000  1
