# generated using pymatgen
data_Mn4Cr16Ga(MoC3)2
_symmetry_space_group_name_H-M   'P 1'
_cell_length_a   7.51482617
_cell_length_b   7.51482507
_cell_length_c   7.51482600
_cell_angle_alpha   60.00000471
_cell_angle_beta   60.00000957
_cell_angle_gamma   59.99999898
_symmetry_Int_Tables_number   1
_chemical_formula_structural   Mn4Cr16Ga(MoC3)2
_chemical_formula_sum   'Mn4 Cr16 Ga1 Mo2 C6'
_cell_volume   300.08327435
_cell_formula_units_Z   1
loop_
 _symmetry_equiv_pos_site_id
 _symmetry_equiv_pos_as_xyz
  1  'x, y, z'
loop_
 _atom_site_type_symbol
 _atom_site_label
 _atom_site_symmetry_multiplicity
 _atom_site_fract_x
 _atom_site_fract_y
 _atom_site_fract_z
 _atom_site_occupancy
  Mn  Mn0  1  0.617215  0.617215  0.148354  1
  Mn  Mn1  1  0.617215  0.148354  0.617215  1
  Mn  Mn2  1  0.148354  0.617215  0.617215  1
  Mn  Mn3  1  0.617215  0.617215  0.617215  1
  Cr  Cr4  1  0.385083  0.385083  0.844752  1
  Cr  Cr5  1  0.385083  0.844752  0.385083  1
  Cr  Cr6  1  0.844752  0.385083  0.385083  1
  Cr  Cr7  1  0.385083  0.385083  0.385083  1
  Cr  Cr8  1  0.999014  0.999014  0.344251  1
  Cr  Cr9  1  0.657721  0.999014  0.344251  1
  Cr  Cr10  1  0.999014  0.657721  0.344251  1
  Cr  Cr11  1  0.657721  0.344251  0.999014  1
  Cr  Cr12  1  0.999014  0.344251  0.999014  1
  Cr  Cr13  1  0.999014  0.344251  0.657721  1
  Cr  Cr14  1  0.344251  0.657721  0.999014  1
  Cr  Cr15  1  0.344251  0.999014  0.657721  1
  Cr  Cr16  1  0.344251  0.999014  0.999014  1
  Cr  Cr17  1  0.999014  0.999014  0.657721  1
  Cr  Cr18  1  0.999014  0.657721  0.999014  1
  Cr  Cr19  1  0.657721  0.999014  0.999014  1
  Ga  Ga20  1  0.000000  0.000000  0.000000  1
  Mo  Mo21  1  0.750000  0.750000  0.750000  1
  Mo  Mo22  1  0.250000  0.250000  0.250000  1
  C  C23  1  0.721318  0.721318  0.278682  1
  C  C24  1  0.278682  0.721318  0.278682  1
  C  C25  1  0.721318  0.278682  0.278682  1
  C  C26  1  0.278682  0.278682  0.721318  1
  C  C27  1  0.721318  0.278682  0.721318  1
  C  C28  1  0.278682  0.721318  0.721318  1
