# generated using pymatgen
data_Gd3Pa(ReN3)4
_symmetry_space_group_name_H-M   'P 1'
_cell_length_a   5.40514752
_cell_length_b   5.67483273
_cell_length_c   7.78714500
_cell_angle_alpha   90.00000000
_cell_angle_beta   90.00000000
_cell_angle_gamma   89.75782509
_symmetry_Int_Tables_number   1
_chemical_formula_structural   Gd3Pa(ReN3)4
_chemical_formula_sum   'Gd3 Pa1 Re4 N12'
_cell_volume   238.85536370
_cell_formula_units_Z   1
loop_
 _symmetry_equiv_pos_site_id
 _symmetry_equiv_pos_as_xyz
  1  'x, y, z'
loop_
 _atom_site_type_symbol
 _atom_site_label
 _atom_site_symmetry_multiplicity
 _atom_site_fract_x
 _atom_site_fract_y
 _atom_site_fract_z
 _atom_site_occupancy
  Gd  Gd0  1  0.015676  0.934796  0.250000  1
  Gd  Gd1  1  0.509505  0.561836  0.750000  1
  Gd  Gd2  1  0.988915  0.059855  0.750000  1
  Pa  Pa3  1  0.481539  0.432704  0.250000  1
  Re  Re4  1  0.502878  0.003425  0.505458  1
  Re  Re5  1  0.991515  0.501445  0.994869  1
  Re  Re6  1  0.991515  0.501445  0.505131  1
  Re  Re7  1  0.502878  0.003425  0.994542  1
  N  N8  1  0.701059  0.292796  0.540228  1
  N  N9  1  0.312184  0.692508  0.053261  1
  N  N10  1  0.202407  0.206450  0.047727  1
  N  N11  1  0.424285  0.985791  0.750000  1
  N  N12  1  0.898285  0.522943  0.250000  1
  N  N13  1  0.312184  0.692508  0.446739  1
  N  N14  1  0.799902  0.792803  0.957408  1
  N  N15  1  0.701059  0.292796  0.959772  1
  N  N16  1  0.799902  0.792803  0.542592  1
  N  N17  1  0.073638  0.487034  0.750000  1
  N  N18  1  0.202407  0.206450  0.452273  1
  N  N19  1  0.588266  0.036186  0.250000  1
