# generated using pymatgen
data_YbMgZn3Pd
_symmetry_space_group_name_H-M   'P 1'
_cell_length_a   5.23512814
_cell_length_b   5.31449504
_cell_length_c   5.23513000
_cell_angle_alpha   60.49279758
_cell_angle_beta   60.00000088
_cell_angle_gamma   60.49279014
_symmetry_Int_Tables_number   1
_chemical_formula_structural   YbMgZn3Pd
_chemical_formula_sum   'Yb1 Mg1 Zn3 Pd1'
_cell_volume   103.75208430
_cell_formula_units_Z   1
loop_
 _symmetry_equiv_pos_site_id
 _symmetry_equiv_pos_as_xyz
  1  'x, y, z'
loop_
 _atom_site_type_symbol
 _atom_site_label
 _atom_site_symmetry_multiplicity
 _atom_site_fract_x
 _atom_site_fract_y
 _atom_site_fract_z
 _atom_site_occupancy
  Yb  Yb0  1  0.748761  0.753715  0.748761  1
  Mg  Mg1  1  0.000403  0.998790  0.000403  1
  Zn  Zn2  1  0.374015  0.374098  0.374015  1
  Zn  Zn3  1  0.877871  0.374098  0.374015  1
  Zn  Zn4  1  0.374015  0.374098  0.877871  1
  Pd  Pd5  1  0.374933  0.875201  0.374933  1
