# generated using pymatgen
data_NdSm2In3Ga2Ni
_symmetry_space_group_name_H-M   'P 1'
_cell_length_a   7.37529733
_cell_length_b   7.34840080
_cell_length_c   4.44257700
_cell_angle_alpha   90.00000000
_cell_angle_beta   90.00000000
_cell_angle_gamma   119.87943532
_symmetry_Int_Tables_number   1
_chemical_formula_structural   NdSm2In3Ga2Ni
_chemical_formula_sum   'Nd1 Sm2 In3 Ga2 Ni1'
_cell_volume   208.76817914
_cell_formula_units_Z   1
loop_
 _symmetry_equiv_pos_site_id
 _symmetry_equiv_pos_as_xyz
  1  'x, y, z'
loop_
 _atom_site_type_symbol
 _atom_site_label
 _atom_site_symmetry_multiplicity
 _atom_site_fract_x
 _atom_site_fract_y
 _atom_site_fract_z
 _atom_site_occupancy
  Nd  Nd0  1  0.000000  0.594974  0.500000  1
  Sm  Sm1  1  0.403615  0.403226  0.500000  1
  Sm  Sm2  1  0.596385  0.999610  0.500000  1
  In  In3  1  0.756154  0.757591  0.000000  1
  In  In4  1  0.243846  0.001437  0.000000  1
  In  In5  1  0.000000  0.241231  0.000000  1
  Ga  Ga6  1  0.663983  0.331493  0.000000  1
  Ga  Ga7  1  0.336017  0.667511  0.000000  1
  Ni  Ni8  1  0.000000  0.002926  0.500000  1
