# generated using pymatgen
data_ZrPa3(Rh2Pb)2
_symmetry_space_group_name_H-M   'P 1'
_cell_length_a   7.76108806
_cell_length_b   7.76108791
_cell_length_c   3.54278800
_cell_angle_alpha   90.00000000
_cell_angle_beta   90.00000000
_cell_angle_gamma   88.64691583
_symmetry_Int_Tables_number   1
_chemical_formula_structural   ZrPa3(Rh2Pb)2
_chemical_formula_sum   'Zr1 Pa3 Rh4 Pb2'
_cell_volume   213.33851303
_cell_formula_units_Z   1
loop_
 _symmetry_equiv_pos_site_id
 _symmetry_equiv_pos_as_xyz
  1  'x, y, z'
loop_
 _atom_site_type_symbol
 _atom_site_label
 _atom_site_symmetry_multiplicity
 _atom_site_fract_x
 _atom_site_fract_y
 _atom_site_fract_z
 _atom_site_occupancy
  Zr  Zr0  1  0.326329  0.826329  0.500000  1
  Pa  Pa1  1  0.666086  0.166086  0.500000  1
  Pa  Pa2  1  0.171865  0.329819  0.500000  1
  Pa  Pa3  1  0.829819  0.671865  0.500000  1
  Rh  Rh4  1  0.864555  0.364555  0.000000  1
  Rh  Rh5  1  0.374377  0.138468  0.000000  1
  Rh  Rh6  1  0.638468  0.874377  0.000000  1
  Rh  Rh7  1  0.121766  0.621766  0.000000  1
  Pb  Pb8  1  0.012984  0.993750  0.000000  1
  Pb  Pb9  1  0.493750  0.512984  0.000000  1
