# generated using pymatgen
data_InBiBr18
_symmetry_space_group_name_H-M   'P 1'
_cell_length_a   9.46617383
_cell_length_b   9.46216876
_cell_length_c   9.49652208
_cell_angle_alpha   89.92430060
_cell_angle_beta   89.82794579
_cell_angle_gamma   90.07823115
_symmetry_Int_Tables_number   1
_chemical_formula_structural   InBiBr18
_chemical_formula_sum   'In1 Bi1 Br18'
_cell_volume   850.60318146
_cell_formula_units_Z   1
loop_
 _symmetry_equiv_pos_site_id
 _symmetry_equiv_pos_as_xyz
  1  'x, y, z'
loop_
 _atom_site_type_symbol
 _atom_site_label
 _atom_site_symmetry_multiplicity
 _atom_site_fract_x
 _atom_site_fract_y
 _atom_site_fract_z
 _atom_site_occupancy
  In  In0  1  0.000000  0.000000  0.000000  1
  Bi  Bi1  1  0.500000  0.500000  0.500000  1
  Br  Br2  1  0.803503  0.460169  0.523491  1
  Br  Br3  1  0.524167  0.803605  0.459455  1
  Br  Br4  1  0.461218  0.524377  0.802421  1
  Br  Br5  1  0.196497  0.539831  0.476509  1
  Br  Br6  1  0.475833  0.196395  0.540545  1
  Br  Br7  1  0.538782  0.475623  0.197579  1
  Br  Br8  1  0.901657  0.371163  0.759145  1
  Br  Br9  1  0.760689  0.902841  0.370057  1
  Br  Br10  1  0.370874  0.760350  0.901396  1
  Br  Br11  1  0.098343  0.628837  0.240855  1
  Br  Br12  1  0.239311  0.097159  0.629943  1
  Br  Br13  1  0.629126  0.239650  0.098604  1
  Br  Br14  1  0.013968  0.969927  0.713107  1
  Br  Br15  1  0.711969  0.014737  0.971733  1
  Br  Br16  1  0.971764  0.710913  0.017079  1
  Br  Br17  1  0.986032  0.030073  0.286893  1
  Br  Br18  1  0.288031  0.985263  0.028267  1
  Br  Br19  1  0.028236  0.289087  0.982921  1
