# generated using pymatgen
data_Y2Ho4PtI10
_symmetry_space_group_name_H-M   'P 1'
_cell_length_a   7.71595907
_cell_length_b   9.71181650
_cell_length_c   9.76369030
_cell_angle_alpha   107.20843919
_cell_angle_beta   96.96779900
_cell_angle_gamma   104.66863535
_symmetry_Int_Tables_number   1
_chemical_formula_structural   Y2Ho4PtI10
_chemical_formula_sum   'Y2 Ho4 Pt1 I10'
_cell_volume   660.70041192
_cell_formula_units_Z   1
loop_
 _symmetry_equiv_pos_site_id
 _symmetry_equiv_pos_as_xyz
  1  'x, y, z'
loop_
 _atom_site_type_symbol
 _atom_site_label
 _atom_site_symmetry_multiplicity
 _atom_site_fract_x
 _atom_site_fract_y
 _atom_site_fract_z
 _atom_site_occupancy
  Y  Y0  1  0.884761  0.959262  0.242209  1
  Y  Y1  1  0.115239  0.040738  0.757791  1
  Ho  Ho2  1  0.347316  0.124974  0.165188  1
  Ho  Ho3  1  0.652684  0.875026  0.834812  1
  Ho  Ho4  1  0.971205  0.286082  0.086391  1
  Ho  Ho5  1  0.028795  0.713918  0.913609  1
  Pt  Pt6  1  0.000000  0.000000  0.000000  1
  I  I7  1  0.354725  0.452658  0.272418  1
  I  I8  1  0.645275  0.547342  0.727582  1
  I  I9  1  0.914521  0.626329  0.178708  1
  I  I10  1  0.085479  0.373671  0.821292  1
  I  I11  1  0.453381  0.816878  0.091672  1
  I  I12  1  0.546619  0.183122  0.908328  1
  I  I13  1  0.259980  0.087968  0.463213  1
  I  I14  1  0.740020  0.912032  0.536787  1
  I  I15  1  0.778638  0.259347  0.346702  1
  I  I16  1  0.221362  0.740653  0.653298  1
