# generated using pymatgen
data_LiLa(PrB12)2
_symmetry_space_group_name_H-M   'P 1'
_cell_length_a   7.17337109
_cell_length_b   7.17337124
_cell_length_c   5.87383600
_cell_angle_alpha   90.00000000
_cell_angle_beta   90.00000000
_cell_angle_gamma   109.38374481
_symmetry_Int_Tables_number   1
_chemical_formula_structural   LiLa(PrB12)2
_chemical_formula_sum   'Li1 La1 Pr2 B24'
_cell_volume   285.11890650
_cell_formula_units_Z   1
loop_
 _symmetry_equiv_pos_site_id
 _symmetry_equiv_pos_as_xyz
  1  'x, y, z'
loop_
 _atom_site_type_symbol
 _atom_site_label
 _atom_site_symmetry_multiplicity
 _atom_site_fract_x
 _atom_site_fract_y
 _atom_site_fract_z
 _atom_site_occupancy
  Li  Li0  1  0.748255  0.251745  0.500000  1
  La  La1  1  0.998648  0.001352  0.000000  1
  Pr  Pr2  1  0.500665  0.499335  0.000000  1
  Pr  Pr3  1  0.251471  0.748529  0.500000  1
  B  B4  1  0.174941  0.325236  0.649010  1
  B  B5  1  0.924750  0.574106  0.150101  1
  B  B6  1  0.674764  0.825059  0.649010  1
  B  B7  1  0.425894  0.075250  0.150101  1
  B  B8  1  0.174941  0.325236  0.350990  1
  B  B9  1  0.924750  0.574106  0.849899  1
  B  B10  1  0.674764  0.825059  0.350990  1
  B  B11  1  0.425894  0.075250  0.849899  1
  B  B12  1  0.401200  0.398785  0.500000  1
  B  B13  1  0.149469  0.649988  0.000000  1
  B  B14  1  0.898555  0.900449  0.500000  1
  B  B15  1  0.649907  0.149535  0.000000  1
  B  B16  1  0.325996  0.175529  0.649062  1
  B  B17  1  0.074690  0.425213  0.150091  1
  B  B18  1  0.824471  0.674004  0.649062  1
  B  B19  1  0.574787  0.925310  0.150091  1
  B  B20  1  0.099551  0.101445  0.500000  1
  B  B21  1  0.850465  0.350093  0.000000  1
  B  B22  1  0.601215  0.598800  0.500000  1
  B  B23  1  0.350012  0.850531  0.000000  1
  B  B24  1  0.325996  0.175529  0.350938  1
  B  B25  1  0.074690  0.425213  0.849909  1
  B  B26  1  0.824471  0.674004  0.350938  1
  B  B27  1  0.574787  0.925310  0.849909  1
