# generated using pymatgen
data_Th4Ni3Sn2Pd
_symmetry_space_group_name_H-M   'P 1'
_cell_length_a   7.66268287
_cell_length_b   7.66268287
_cell_length_c   3.80846200
_cell_angle_alpha   90.00000000
_cell_angle_beta   90.00000000
_cell_angle_gamma   89.33283131
_symmetry_Int_Tables_number   1
_chemical_formula_structural   Th4Ni3Sn2Pd
_chemical_formula_sum   'Th4 Ni3 Sn2 Pd1'
_cell_volume   223.60519411
_cell_formula_units_Z   1
loop_
 _symmetry_equiv_pos_site_id
 _symmetry_equiv_pos_as_xyz
  1  'x, y, z'
loop_
 _atom_site_type_symbol
 _atom_site_label
 _atom_site_symmetry_multiplicity
 _atom_site_fract_x
 _atom_site_fract_y
 _atom_site_fract_z
 _atom_site_occupancy
  Th  Th0  1  0.677867  0.177867  0.500000  1
  Th  Th1  1  0.175192  0.313506  0.500000  1
  Th  Th2  1  0.334117  0.834117  0.500000  1
  Th  Th3  1  0.813506  0.675192  0.500000  1
  Ni  Ni4  1  0.872783  0.372783  0.000000  1
  Ni  Ni5  1  0.382268  0.126549  0.000000  1
  Ni  Ni6  1  0.626549  0.882268  0.000000  1
  Sn  Sn7  1  0.496961  0.497231  0.000000  1
  Sn  Sn8  1  0.997231  0.996961  0.000000  1
  Pd  Pd9  1  0.123525  0.623525  0.000000  1
