# generated using pymatgen
data_La7Sm(WC2)4
_symmetry_space_group_name_H-M   'P 1'
_cell_length_a   5.83409055
_cell_length_b   5.83409029
_cell_length_c   10.66785685
_cell_angle_alpha   90.47373304
_cell_angle_beta   90.47372933
_cell_angle_gamma   89.86679079
_symmetry_Int_Tables_number   1
_chemical_formula_structural   La7Sm(WC2)4
_chemical_formula_sum   'La7 Sm1 W4 C8'
_cell_volume   363.07194763
_cell_formula_units_Z   1
loop_
 _symmetry_equiv_pos_site_id
 _symmetry_equiv_pos_as_xyz
  1  'x, y, z'
loop_
 _atom_site_type_symbol
 _atom_site_label
 _atom_site_symmetry_multiplicity
 _atom_site_fract_x
 _atom_site_fract_y
 _atom_site_fract_z
 _atom_site_occupancy
  La  La0  1  0.306169  0.692807  0.156243  1
  La  La1  1  0.691133  0.305213  0.842920  1
  La  La2  1  0.806846  0.806846  0.342569  1
  La  La3  1  0.197579  0.197579  0.658941  1
  La  La4  1  0.692807  0.306169  0.156243  1
  La  La5  1  0.305213  0.691133  0.842920  1
  La  La6  1  0.192266  0.192266  0.345396  1
  Sm  Sm7  1  0.804824  0.804824  0.653080  1
  W  W8  1  0.679738  0.325253  0.501625  1
  W  W9  1  0.325253  0.679738  0.501625  1
  W  W10  1  0.821562  0.821562  0.997651  1
  W  W11  1  0.174551  0.174551  0.998481  1
  C  C12  1  0.994948  0.994948  0.857049  1
  C  C13  1  0.504962  0.504962  0.639659  1
  C  C14  1  0.499452  0.499452  0.362455  1
  C  C15  1  0.498180  0.998635  0.999290  1
  C  C16  1  0.505354  0.000996  0.503460  1
  C  C17  1  0.998635  0.498180  0.999290  1
  C  C18  1  0.000996  0.505354  0.503460  1
  C  C19  1  0.999530  0.999530  0.137642  1
