# generated using pymatgen
data_Lu8MnB24Ir2W
_symmetry_space_group_name_H-M   'P 1'
_cell_length_a   3.56232700
_cell_length_b   9.05697934
_cell_length_c   11.44140158
_cell_angle_alpha   89.78505787
_cell_angle_beta   90.00000000
_cell_angle_gamma   90.00000000
_symmetry_Int_Tables_number   1
_chemical_formula_structural   Lu8MnB24Ir2W
_chemical_formula_sum   'Lu8 Mn1 B24 Ir2 W1'
_cell_volume   369.14189121
_cell_formula_units_Z   1
loop_
 _symmetry_equiv_pos_site_id
 _symmetry_equiv_pos_as_xyz
  1  'x, y, z'
loop_
 _atom_site_type_symbol
 _atom_site_label
 _atom_site_symmetry_multiplicity
 _atom_site_fract_x
 _atom_site_fract_y
 _atom_site_fract_z
 _atom_site_occupancy
  Lu  Lu0  1  0.000000  0.326741  0.414966  1
  Lu  Lu1  1  0.000000  0.675780  0.579650  1
  Lu  Lu2  1  0.000000  0.814942  0.090700  1
  Lu  Lu3  1  0.000000  0.184526  0.911382  1
  Lu  Lu4  1  0.000000  0.937828  0.372349  1
  Lu  Lu5  1  0.000000  0.055122  0.624226  1
  Lu  Lu6  1  0.000000  0.448253  0.130792  1
  Lu  Lu7  1  0.000000  0.555241  0.875056  1
  Mn  Mn8  1  0.000000  0.639830  0.318072  1
  B  B9  1  0.500000  0.554222  0.430115  1
  B  B10  1  0.500000  0.450295  0.562329  1
  B  B11  1  0.500000  0.053769  0.065979  1
  B  B12  1  0.500000  0.947088  0.935179  1
  B  B13  1  0.500000  0.745896  0.417349  1
  B  B14  1  0.500000  0.248652  0.575963  1
  B  B15  1  0.500000  0.251397  0.079706  1
  B  B16  1  0.500000  0.750437  0.922991  1
  B  B17  1  0.500000  0.790561  0.265556  1
  B  B18  1  0.500000  0.203522  0.736535  1
  B  B19  1  0.500000  0.292266  0.235993  1
  B  B20  1  0.500000  0.708912  0.766292  1
  B  B21  1  0.500000  0.631470  0.186324  1
  B  B22  1  0.500000  0.368911  0.818682  1
  B  B23  1  0.500000  0.130047  0.316780  1
  B  B24  1  0.500000  0.867831  0.682954  1
  B  B25  1  0.500000  0.979986  0.212716  1
  B  B26  1  0.500000  0.018509  0.787595  1
  B  B27  1  0.500000  0.484505  0.287714  1
  B  B28  1  0.500000  0.524121  0.713551  1
  B  B29  1  0.500000  0.607812  0.030731  1
  B  B30  1  0.500000  0.394158  0.973507  1
  B  B31  1  0.500000  0.103702  0.468845  1
  B  B32  1  0.500000  0.891407  0.528527  1
  Ir  Ir33  1  0.000000  0.137514  0.178619  1
  Ir  Ir34  1  0.000000  0.862687  0.822373  1
  W  W35  1  0.000000  0.362059  0.679901  1
