# generated using pymatgen
data_Pr5Nd3(BeSi3)4
_symmetry_space_group_name_H-M   'P 1'
_cell_length_a   7.96423800
_cell_length_b   7.96423238
_cell_length_c   8.64212500
_cell_angle_alpha   90.00000000
_cell_angle_beta   90.00000000
_cell_angle_gamma   120.00007283
_symmetry_Int_Tables_number   1
_chemical_formula_structural   Pr5Nd3(BeSi3)4
_chemical_formula_sum   'Pr5 Nd3 Be4 Si12'
_cell_volume   474.72161866
_cell_formula_units_Z   1
loop_
 _symmetry_equiv_pos_site_id
 _symmetry_equiv_pos_as_xyz
  1  'x, y, z'
loop_
 _atom_site_type_symbol
 _atom_site_label
 _atom_site_symmetry_multiplicity
 _atom_site_fract_x
 _atom_site_fract_y
 _atom_site_fract_z
 _atom_site_occupancy
  Pr  Pr0  1  0.999998  0.999999  0.750000  1
  Pr  Pr1  1  0.000000  0.000001  0.250000  1
  Pr  Pr2  1  0.499950  0.500050  0.750000  1
  Pr  Pr3  1  0.499950  0.999902  0.750000  1
  Pr  Pr4  1  0.000098  0.500051  0.750000  1
  Nd  Nd5  1  0.500055  0.499938  0.250000  1
  Nd  Nd6  1  0.999890  0.499947  0.250000  1
  Nd  Nd7  1  0.500058  0.000113  0.250000  1
  Be  Be8  1  0.666668  0.333334  0.002164  1
  Be  Be9  1  0.666668  0.333334  0.497836  1
  Be  Be10  1  0.333331  0.666665  0.497029  1
  Be  Be11  1  0.333331  0.666665  0.002971  1
  Si  Si12  1  0.827388  0.172612  0.001361  1
  Si  Si13  1  0.827388  0.654777  0.001361  1
  Si  Si14  1  0.345226  0.172612  0.001360  1
  Si  Si15  1  0.827388  0.172612  0.498639  1
  Si  Si16  1  0.827388  0.654777  0.498639  1
  Si  Si17  1  0.345226  0.172612  0.498640  1
  Si  Si18  1  0.172618  0.827385  0.498675  1
  Si  Si19  1  0.654765  0.827382  0.498674  1
  Si  Si20  1  0.172617  0.345233  0.498675  1
  Si  Si21  1  0.172618  0.827385  0.001325  1
  Si  Si22  1  0.654765  0.827382  0.001326  1
  Si  Si23  1  0.172617  0.345233  0.001325  1
