# generated using pymatgen
data_Lu5TlHg2O
_symmetry_space_group_name_H-M   'P 1'
_cell_length_a   8.77621142
_cell_length_b   8.77621061
_cell_length_c   8.77621000
_cell_angle_alpha   125.55159236
_cell_angle_beta   125.55158057
_cell_angle_gamma   80.62639321
_symmetry_Int_Tables_number   1
_chemical_formula_structural   Lu5TlHg2O
_chemical_formula_sum   'Lu10 Tl2 Hg4 O2'
_cell_volume   431.48345690
_cell_formula_units_Z   2
loop_
 _symmetry_equiv_pos_site_id
 _symmetry_equiv_pos_as_xyz
  1  'x, y, z'
loop_
 _atom_site_type_symbol
 _atom_site_label
 _atom_site_symmetry_multiplicity
 _atom_site_fract_x
 _atom_site_fract_y
 _atom_site_fract_z
 _atom_site_occupancy
  Lu  Lu0  1  0.499877  0.302757  0.500000  1
  Lu  Lu1  1  0.802757  0.999877  0.500000  1
  Lu  Lu2  1  0.999877  0.499877  0.197119  1
  Lu  Lu3  1  0.302757  0.802757  0.802881  1
  Lu  Lu4  1  0.502708  0.699769  0.500000  1
  Lu  Lu5  1  0.199769  0.002708  0.500000  1
  Lu  Lu6  1  0.002708  0.502708  0.802937  1
  Lu  Lu7  1  0.699769  0.199769  0.197063  1
  Lu  Lu8  1  0.501348  0.501348  0.000000  1
  Lu  Lu9  1  0.001348  0.001348  0.000000  1
  Tl  Tl10  1  0.751170  0.751170  0.000000  1
  Tl  Tl11  1  0.251170  0.251170  0.000000  1
  Hg  Hg12  1  0.142901  0.359642  0.500000  1
  Hg  Hg13  1  0.859642  0.642901  0.500000  1
  Hg  Hg14  1  0.642901  0.142901  0.783258  1
  Hg  Hg15  1  0.359642  0.859642  0.216742  1
  O  O16  1  0.751247  0.251247  0.500000  1
  O  O17  1  0.251247  0.751247  0.500000  1
