# generated using pymatgen
data_BaSr3Nb2O9
_symmetry_space_group_name_H-M   'P 1'
_cell_length_a   5.99681304
_cell_length_b   5.99675395
_cell_length_c   15.95752900
_cell_angle_alpha   90.00000000
_cell_angle_beta   90.00000000
_cell_angle_gamma   119.99411953
_symmetry_Int_Tables_number   1
_chemical_formula_structural   BaSr3Nb2O9
_chemical_formula_sum   'Ba2 Sr6 Nb4 O18'
_cell_volume   497.00269577
_cell_formula_units_Z   2
loop_
 _symmetry_equiv_pos_site_id
 _symmetry_equiv_pos_as_xyz
  1  'x, y, z'
loop_
 _atom_site_type_symbol
 _atom_site_label
 _atom_site_symmetry_multiplicity
 _atom_site_fract_x
 _atom_site_fract_y
 _atom_site_fract_z
 _atom_site_occupancy
  Ba  Ba0  1  0.000014  0.000041  0.750000  1
  Ba  Ba1  1  0.999986  0.999959  0.250000  1
  Sr  Sr2  1  0.666637  0.333318  0.639088  1
  Sr  Sr3  1  0.333363  0.666682  0.139088  1
  Sr  Sr4  1  0.333363  0.666682  0.360912  1
  Sr  Sr5  1  0.666637  0.333318  0.860912  1
  Sr  Sr6  1  0.000000  0.000000  0.500000  1
  Sr  Sr7  1  0.000000  0.000000  0.000000  1
  Nb  Nb8  1  0.666601  0.333205  0.346407  1
  Nb  Nb9  1  0.333399  0.666795  0.846407  1
  Nb  Nb10  1  0.333399  0.666795  0.653593  1
  Nb  Nb11  1  0.666601  0.333205  0.153593  1
  O  O12  1  0.531937  0.965279  0.750000  1
  O  O13  1  0.034794  0.566744  0.750000  1
  O  O14  1  0.433323  0.468133  0.750000  1
  O  O15  1  0.468063  0.034721  0.250000  1
  O  O16  1  0.965206  0.433256  0.250000  1
  O  O17  1  0.566677  0.531867  0.250000  1
  O  O18  1  0.082420  0.352841  0.601332  1
  O  O19  1  0.647160  0.729630  0.601362  1
  O  O20  1  0.270439  0.917591  0.601367  1
  O  O21  1  0.917580  0.647159  0.101332  1
  O  O22  1  0.352840  0.270370  0.101362  1
  O  O23  1  0.729561  0.082409  0.101367  1
  O  O24  1  0.917580  0.647159  0.398668  1
  O  O25  1  0.352840  0.270370  0.398638  1
  O  O26  1  0.729561  0.082409  0.398633  1
  O  O27  1  0.082420  0.352841  0.898668  1
  O  O28  1  0.647160  0.729630  0.898638  1
  O  O29  1  0.270439  0.917591  0.898633  1
