# generated using pymatgen
data_Sm2TmSn3Hg2
_symmetry_space_group_name_H-M   'P 1'
_cell_length_a   6.47818726
_cell_length_b   6.47818803
_cell_length_c   10.24251300
_cell_angle_alpha   90.00000000
_cell_angle_beta   90.00000000
_cell_angle_gamma   102.53081941
_symmetry_Int_Tables_number   1
_chemical_formula_structural   Sm2TmSn3Hg2
_chemical_formula_sum   'Sm4 Tm2 Sn6 Hg4'
_cell_volume   419.60748722
_cell_formula_units_Z   2
loop_
 _symmetry_equiv_pos_site_id
 _symmetry_equiv_pos_as_xyz
  1  'x, y, z'
loop_
 _atom_site_type_symbol
 _atom_site_label
 _atom_site_symmetry_multiplicity
 _atom_site_fract_x
 _atom_site_fract_y
 _atom_site_fract_z
 _atom_site_occupancy
  Sm  Sm0  1  0.794437  0.205563  0.000000  1
  Sm  Sm1  1  0.205563  0.794437  0.000000  1
  Sm  Sm2  1  0.205563  0.794437  0.500000  1
  Sm  Sm3  1  0.794437  0.205563  0.500000  1
  Tm  Tm4  1  0.621062  0.621062  0.250000  1
  Tm  Tm5  1  0.378938  0.378938  0.750000  1
  Sn  Sn6  1  0.061069  0.491839  0.250000  1
  Sn  Sn7  1  0.938931  0.508161  0.750000  1
  Sn  Sn8  1  0.491839  0.061069  0.250000  1
  Sn  Sn9  1  0.508161  0.938931  0.750000  1
  Sn  Sn10  1  0.009350  0.009350  0.250000  1
  Sn  Sn11  1  0.990650  0.990650  0.750000  1
  Hg  Hg12  1  0.315025  0.315025  0.037762  1
  Hg  Hg13  1  0.684975  0.684975  0.962238  1
  Hg  Hg14  1  0.684975  0.684975  0.537762  1
  Hg  Hg15  1  0.315025  0.315025  0.462238  1
