# generated using pymatgen
data_Th10SnBi5Os2
_symmetry_space_group_name_H-M   'P 1'
_cell_length_a   9.63143700
_cell_length_b   9.63143695
_cell_length_c   6.56988400
_cell_angle_alpha   90.00000000
_cell_angle_beta   90.00000000
_cell_angle_gamma   119.98592292
_symmetry_Int_Tables_number   1
_chemical_formula_structural   Th10SnBi5Os2
_chemical_formula_sum   'Th10 Sn1 Bi5 Os2'
_cell_volume   527.87621561
_cell_formula_units_Z   1
loop_
 _symmetry_equiv_pos_site_id
 _symmetry_equiv_pos_as_xyz
  1  'x, y, z'
loop_
 _atom_site_type_symbol
 _atom_site_label
 _atom_site_symmetry_multiplicity
 _atom_site_fract_x
 _atom_site_fract_y
 _atom_site_fract_z
 _atom_site_occupancy
  Th  Th0  1  0.663516  0.333705  0.998572  1
  Th  Th1  1  0.333705  0.663516  0.998572  1
  Th  Th2  1  0.333705  0.663516  0.501428  1
  Th  Th3  1  0.663516  0.333705  0.501428  1
  Th  Th4  1  0.752986  0.752986  0.750000  1
  Th  Th5  1  0.246823  0.003738  0.750000  1
  Th  Th6  1  0.003738  0.246823  0.750000  1
  Th  Th7  1  0.244042  0.244042  0.250000  1
  Th  Th8  1  0.756227  0.001098  0.250000  1
  Th  Th9  1  0.001098  0.756227  0.250000  1
  Sn  Sn10  1  0.394849  0.394849  0.750000  1
  Bi  Bi11  1  0.606457  0.000309  0.750000  1
  Bi  Bi12  1  0.000309  0.606457  0.750000  1
  Bi  Bi13  1  0.605465  0.605465  0.250000  1
  Bi  Bi14  1  0.395292  0.999129  0.250000  1
  Bi  Bi15  1  0.999129  0.395292  0.250000  1
  Os  Os16  1  0.999571  0.999571  0.998439  1
  Os  Os17  1  0.999571  0.999571  0.501561  1
