# generated using pymatgen
data_Y4TmCo(P2Ru3)6
_symmetry_space_group_name_H-M   'P 1'
_cell_length_a   12.48453900
_cell_length_b   12.48453931
_cell_length_c   3.96899600
_cell_angle_alpha   90.00000000
_cell_angle_beta   90.00000000
_cell_angle_gamma   120.00000182
_symmetry_Int_Tables_number   1
_chemical_formula_structural   Y4TmCo(P2Ru3)6
_chemical_formula_sum   'Y4 Tm1 Co1 P12 Ru18'
_cell_volume   535.74276716
_cell_formula_units_Z   1
loop_
 _symmetry_equiv_pos_site_id
 _symmetry_equiv_pos_as_xyz
  1  'x, y, z'
loop_
 _atom_site_type_symbol
 _atom_site_label
 _atom_site_symmetry_multiplicity
 _atom_site_fract_x
 _atom_site_fract_y
 _atom_site_fract_z
 _atom_site_occupancy
  Y  Y0  1  0.666667  0.333333  0.000000  1
  Y  Y1  1  0.182969  0.183009  0.500000  1
  Y  Y2  1  0.816991  0.999961  0.500000  1
  Y  Y3  1  0.000039  0.817031  0.500000  1
  Tm  Tm4  1  0.333333  0.666667  0.000000  1
  Co  Co5  1  0.000000  0.000000  0.000000  1
  P  P6  1  0.373403  0.373364  0.000000  1
  P  P7  1  0.626636  0.000039  0.000000  1
  P  P8  1  0.999961  0.626597  0.000000  1
  P  P9  1  0.830515  0.306355  0.500000  1
  P  P10  1  0.693645  0.524161  0.500000  1
  P  P11  1  0.475839  0.169485  0.500000  1
  P  P12  1  0.306383  0.829610  0.500000  1
  P  P13  1  0.523228  0.693617  0.500000  1
  P  P14  1  0.170390  0.476772  0.500000  1
  P  P15  1  0.822165  0.822416  0.000000  1
  P  P16  1  0.177584  0.999749  0.000000  1
  P  P17  1  0.000251  0.177835  0.000000  1
  Ru  Ru18  1  0.816155  0.191474  0.000000  1
  Ru  Ru19  1  0.808526  0.624681  0.000000  1
  Ru  Ru20  1  0.375319  0.183845  0.000000  1
  Ru  Ru21  1  0.191766  0.815308  0.000000  1
  Ru  Ru22  1  0.623542  0.808234  0.000000  1
  Ru  Ru23  1  0.184692  0.376458  0.000000  1
  Ru  Ru24  1  0.556186  0.556300  0.000000  1
  Ru  Ru25  1  0.443700  0.999886  0.000000  1
  Ru  Ru26  1  0.000114  0.443814  0.000000  1
  Ru  Ru27  1  0.634256  0.125343  0.500000  1
  Ru  Ru28  1  0.874657  0.508913  0.500000  1
  Ru  Ru29  1  0.491087  0.365744  0.500000  1
  Ru  Ru30  1  0.127097  0.634359  0.500000  1
  Ru  Ru31  1  0.507263  0.872903  0.500000  1
  Ru  Ru32  1  0.365641  0.492737  0.500000  1
  Ru  Ru33  1  0.719863  0.720357  0.500000  1
  Ru  Ru34  1  0.279643  0.999506  0.500000  1
  Ru  Ru35  1  0.000494  0.280137  0.500000  1
