# generated using pymatgen
data_BaAc2Ag11
_symmetry_space_group_name_H-M   'P 1'
_cell_length_a   9.08247601
_cell_length_b   9.08247671
_cell_length_c   9.08247688
_cell_angle_alpha   149.82835462
_cell_angle_beta   112.62274590
_cell_angle_gamma   75.57069241
_symmetry_Int_Tables_number   1
_chemical_formula_structural   BaAc2Ag11
_chemical_formula_sum   'Ba1 Ac2 Ag11'
_cell_volume   341.92432272
_cell_formula_units_Z   1
loop_
 _symmetry_equiv_pos_site_id
 _symmetry_equiv_pos_as_xyz
  1  'x, y, z'
loop_
 _atom_site_type_symbol
 _atom_site_label
 _atom_site_symmetry_multiplicity
 _atom_site_fract_x
 _atom_site_fract_y
 _atom_site_fract_z
 _atom_site_occupancy
  Ba  Ba0  1  0.000000  0.000000  0.000000  1
  Ac  Ac1  1  0.304057  0.304057  0.000000  1
  Ac  Ac2  1  0.695943  0.695943  0.000000  1
  Ag  Ag3  1  0.696327  0.500000  0.196327  1
  Ag  Ag4  1  0.414069  0.127000  0.287068  1
  Ag  Ag5  1  0.160068  0.873000  0.287069  1
  Ag  Ag6  1  0.683462  0.326925  0.356537  1
  Ag  Ag7  1  0.029612  0.673076  0.356537  1
  Ag  Ag8  1  0.500000  0.000000  0.500000  1
  Ag  Ag9  1  0.970388  0.326925  0.643464  1
  Ag  Ag10  1  0.316538  0.673076  0.643464  1
  Ag  Ag11  1  0.839932  0.127000  0.712932  1
  Ag  Ag12  1  0.585931  0.873000  0.712933  1
  Ag  Ag13  1  0.303673  0.500001  0.803674  1
