# generated using pymatgen
data_Sr2Hg(AsPd2)6
_symmetry_space_group_name_H-M   'P 1'
_cell_length_a   10.34069700
_cell_length_b   10.34069699
_cell_length_c   4.14398200
_cell_angle_alpha   90.00000000
_cell_angle_beta   90.00000000
_cell_angle_gamma   120.00000322
_symmetry_Int_Tables_number   1
_chemical_formula_structural   Sr2Hg(AsPd2)6
_chemical_formula_sum   'Sr2 Hg1 As6 Pd12'
_cell_volume   383.74974793
_cell_formula_units_Z   1
loop_
 _symmetry_equiv_pos_site_id
 _symmetry_equiv_pos_as_xyz
  1  'x, y, z'
loop_
 _atom_site_type_symbol
 _atom_site_label
 _atom_site_symmetry_multiplicity
 _atom_site_fract_x
 _atom_site_fract_y
 _atom_site_fract_z
 _atom_site_occupancy
  Sr  Sr0  1  0.666667  0.333333  0.242784  1
  Sr  Sr1  1  0.000000  0.000000  0.754429  1
  Hg  Hg2  1  0.333333  0.666667  0.471740  1
  As  As3  1  0.739104  0.782984  0.258025  1
  As  As4  1  0.043879  0.260896  0.258025  1
  As  As5  1  0.217016  0.956121  0.258025  1
  As  As6  1  0.927806  0.551305  0.739273  1
  As  As7  1  0.623497  0.072194  0.739273  1
  As  As8  1  0.448695  0.376503  0.739273  1
  Pd  Pd9  1  0.773759  0.050940  0.250670  1
  Pd  Pd10  1  0.277181  0.226241  0.250670  1
  Pd  Pd11  1  0.949060  0.722819  0.250670  1
  Pd  Pd12  1  0.893740  0.281429  0.745852  1
  Pd  Pd13  1  0.387688  0.106260  0.745852  1
  Pd  Pd14  1  0.718571  0.612312  0.745852  1
  Pd  Pd15  1  0.496870  0.543293  0.229305  1
  Pd  Pd16  1  0.046422  0.503130  0.229305  1
  Pd  Pd17  1  0.456707  0.953578  0.229305  1
  Pd  Pd18  1  0.174566  0.786762  0.771063  1
  Pd  Pd19  1  0.612197  0.825434  0.771063  1
  Pd  Pd20  1  0.213238  0.387803  0.771063  1
