# generated using pymatgen
data_Dy4Al14Ga4Ir5Au
_symmetry_space_group_name_H-M   'P 1'
_cell_length_a   7.58922009
_cell_length_b   7.58070347
_cell_length_c   9.47174930
_cell_angle_alpha   90.06474853
_cell_angle_beta   89.88139112
_cell_angle_gamma   119.49721879
_symmetry_Int_Tables_number   1
_chemical_formula_structural   Dy4Al14Ga4Ir5Au
_chemical_formula_sum   'Dy4 Al14 Ga4 Ir5 Au1'
_cell_volume   474.29071129
_cell_formula_units_Z   1
loop_
 _symmetry_equiv_pos_site_id
 _symmetry_equiv_pos_as_xyz
  1  'x, y, z'
loop_
 _atom_site_type_symbol
 _atom_site_label
 _atom_site_symmetry_multiplicity
 _atom_site_fract_x
 _atom_site_fract_y
 _atom_site_fract_z
 _atom_site_occupancy
  Dy  Dy0  1  0.994812  0.674641  0.746527  1
  Dy  Dy1  1  0.005188  0.325359  0.253473  1
  Dy  Dy2  1  0.677957  0.996916  0.749308  1
  Dy  Dy3  1  0.322043  0.003084  0.250692  1
  Al  Al4  1  0.998907  0.663848  0.071124  1
  Al  Al5  1  0.336626  0.999930  0.926029  1
  Al  Al6  1  0.001093  0.336152  0.928876  1
  Al  Al7  1  0.663374  0.000070  0.073971  1
  Al  Al8  1  0.654334  0.997242  0.420031  1
  Al  Al9  1  0.345666  0.002758  0.579969  1
  Al  Al10  1  0.333501  0.333211  0.055886  1
  Al  Al11  1  0.666499  0.666789  0.944114  1
  Al  Al12  1  0.657363  0.657387  0.560829  1
  Al  Al13  1  0.342637  0.342613  0.439171  1
  Al  Al14  1  0.338131  0.551953  0.751043  1
  Al  Al15  1  0.661869  0.448047  0.248957  1
  Al  Al16  1  0.550747  0.338320  0.751208  1
  Al  Al17  1  0.449253  0.661680  0.248792  1
  Ga  Ga18  1  0.142224  0.139011  0.756221  1
  Ga  Ga19  1  0.857776  0.860989  0.243779  1
  Ga  Ga20  1  0.999775  0.344212  0.586135  1
  Ga  Ga21  1  0.000225  0.655788  0.413865  1
  Ir  Ir22  1  0.666969  0.326377  0.499545  1
  Ir  Ir23  1  0.333031  0.673623  0.500455  1
  Ir  Ir24  1  0.327867  0.671038  0.000264  1
  Ir  Ir25  1  0.672133  0.328962  0.999736  1
  Ir  Ir26  1  0.000000  0.000000  0.000000  1
  Au  Au27  1  0.000000  0.000000  0.500000  1
