# generated using pymatgen
data_AcH11Ru2
_symmetry_space_group_name_H-M   'P 1'
_cell_length_a   4.84702565
_cell_length_b   4.82432451
_cell_length_c   6.41093370
_cell_angle_alpha   112.26494865
_cell_angle_beta   90.90317695
_cell_angle_gamma   119.58202422
_symmetry_Int_Tables_number   1
_chemical_formula_structural   AcH11Ru2
_chemical_formula_sum   'Ac1 H11 Ru2'
_cell_volume   116.75621723
_cell_formula_units_Z   1
loop_
 _symmetry_equiv_pos_site_id
 _symmetry_equiv_pos_as_xyz
  1  'x, y, z'
loop_
 _atom_site_type_symbol
 _atom_site_label
 _atom_site_symmetry_multiplicity
 _atom_site_fract_x
 _atom_site_fract_y
 _atom_site_fract_z
 _atom_site_occupancy
  Ac  Ac0  1  0.589230  0.113605  0.804408  1
  H  H1  1  0.420370  0.551813  0.388495  1
  H  H2  1  0.646809  0.765924  0.008588  1
  H  H3  1  0.408962  0.097140  0.236420  1
  H  H4  1  0.000737  0.470013  0.238378  1
  H  H5  1  0.729903  0.673658  0.228917  1
  H  H6  1  0.014868  0.531069  0.622990  1
  H  H7  1  0.541072  0.494448  0.631831  1
  H  H8  1  0.161014  0.689568  0.968302  1
  H  H9  1  0.179584  0.252712  0.991648  1
  H  H10  1  0.006003  0.959241  0.586196  1
  H  H11  1  0.709125  0.108952  0.389090  1
  Ru  Ru12  1  0.379327  0.684491  0.165913  1
  Ru  Ru13  1  0.764100  0.521025  0.439067  1
