# generated using pymatgen
data_Lu3Co9(GeB2)2
_symmetry_space_group_name_H-M   'P 1'
_cell_length_a   5.10053103
_cell_length_b   5.10352107
_cell_length_c   9.42758505
_cell_angle_alpha   89.99392320
_cell_angle_beta   90.01216073
_cell_angle_gamma   119.98061472
_symmetry_Int_Tables_number   1
_chemical_formula_structural   Lu3Co9(GeB2)2
_chemical_formula_sum   'Lu3 Co9 Ge2 B4'
_cell_volume   212.56961643
_cell_formula_units_Z   1
loop_
 _symmetry_equiv_pos_site_id
 _symmetry_equiv_pos_as_xyz
  1  'x, y, z'
loop_
 _atom_site_type_symbol
 _atom_site_label
 _atom_site_symmetry_multiplicity
 _atom_site_fract_x
 _atom_site_fract_y
 _atom_site_fract_z
 _atom_site_occupancy
  Lu  Lu0  1  0.999999  0.000000  0.000017  1
  Lu  Lu1  1  0.999974  0.000000  0.339590  1
  Lu  Lu2  1  0.999980  0.000000  0.660453  1
  Co  Co3  1  0.499996  0.000000  0.500041  1
  Co  Co4  1  0.499986  0.499998  0.500003  1
  Co  Co5  1  0.999988  0.500002  0.500003  1
  Co  Co6  1  0.499980  0.000000  0.203165  1
  Co  Co7  1  0.499982  0.499999  0.203176  1
  Co  Co8  1  0.999983  0.500001  0.203176  1
  Co  Co9  1  0.500058  0.000000  0.796825  1
  Co  Co10  1  0.500027  0.499990  0.796825  1
  Co  Co11  1  0.000037  0.500010  0.796825  1
  Ge  Ge12  1  0.333386  0.666812  0.999903  1
  Ge  Ge13  1  0.666573  0.333188  0.999903  1
  B  B14  1  0.333335  0.666714  0.348198  1
  B  B15  1  0.666621  0.333286  0.348198  1
  B  B16  1  0.666679  0.333365  0.651850  1
  B  B17  1  0.333314  0.666635  0.651850  1
