# generated using pymatgen
data_Ho5Er3(ReB6)4
_symmetry_space_group_name_H-M   'P 1'
_cell_length_a   3.66490000
_cell_length_b   9.14157800
_cell_length_c   11.51857200
_cell_angle_alpha   89.99864661
_cell_angle_beta   90.00000000
_cell_angle_gamma   90.00000000
_symmetry_Int_Tables_number   1
_chemical_formula_structural   Ho5Er3(ReB6)4
_chemical_formula_sum   'Ho5 Er3 Re4 B24'
_cell_volume   385.90636303
_cell_formula_units_Z   1
loop_
 _symmetry_equiv_pos_site_id
 _symmetry_equiv_pos_as_xyz
  1  'x, y, z'
loop_
 _atom_site_type_symbol
 _atom_site_label
 _atom_site_symmetry_multiplicity
 _atom_site_fract_x
 _atom_site_fract_y
 _atom_site_fract_z
 _atom_site_occupancy
  Ho  Ho0  1  0.000000  0.323504  0.413848  1
  Ho  Ho1  1  0.000000  0.676456  0.586260  1
  Ho  Ho2  1  0.000000  0.823453  0.086113  1
  Ho  Ho3  1  0.000000  0.176526  0.913766  1
  Ho  Ho4  1  0.000000  0.943529  0.370282  1
  Er  Er5  1  0.000000  0.056637  0.630043  1
  Er  Er6  1  0.000000  0.443460  0.129765  1
  Er  Er7  1  0.000000  0.556542  0.870118  1
  Re  Re8  1  0.000000  0.638745  0.320742  1
  Re  Re9  1  0.000000  0.361016  0.679289  1
  Re  Re10  1  0.000000  0.139179  0.179034  1
  Re  Re11  1  0.000000  0.860977  0.820808  1
  B  B12  1  0.500000  0.553347  0.433105  1
  B  B13  1  0.500000  0.446496  0.566943  1
  B  B14  1  0.500000  0.053502  0.066847  1
  B  B15  1  0.500000  0.946509  0.933056  1
  B  B16  1  0.500000  0.749476  0.419064  1
  B  B17  1  0.500000  0.250217  0.580983  1
  B  B18  1  0.500000  0.249880  0.080926  1
  B  B19  1  0.500000  0.750142  0.919022  1
  B  B20  1  0.500000  0.792560  0.265535  1
  B  B21  1  0.500000  0.207215  0.734372  1
  B  B22  1  0.500000  0.292924  0.234338  1
  B  B23  1  0.500000  0.707172  0.765635  1
  B  B24  1  0.500000  0.630971  0.185341  1
  B  B25  1  0.500000  0.368921  0.814566  1
  B  B26  1  0.500000  0.131362  0.314431  1
  B  B27  1  0.500000  0.868910  0.685445  1
  B  B28  1  0.500000  0.982481  0.211883  1
  B  B29  1  0.500000  0.017659  0.787925  1
  B  B30  1  0.500000  0.482247  0.287889  1
  B  B31  1  0.500000  0.517681  0.712067  1
  B  B32  1  0.500000  0.599868  0.027935  1
  B  B33  1  0.500000  0.400127  0.972028  1
  B  B34  1  0.500000  0.100353  0.472255  1
  B  B35  1  0.500000  0.899955  0.528341  1
