# generated using pymatgen
data_ErTmMnRe3
_symmetry_space_group_name_H-M   'P 1'
_cell_length_a   5.29414100
_cell_length_b   5.29414110
_cell_length_c   8.92579600
_cell_angle_alpha   90.00000000
_cell_angle_beta   90.00000000
_cell_angle_gamma   119.99999313
_symmetry_Int_Tables_number   1
_chemical_formula_structural   ErTmMnRe3
_chemical_formula_sum   'Er2 Tm2 Mn2 Re6'
_cell_volume   216.65495908
_cell_formula_units_Z   2
loop_
 _symmetry_equiv_pos_site_id
 _symmetry_equiv_pos_as_xyz
  1  'x, y, z'
loop_
 _atom_site_type_symbol
 _atom_site_label
 _atom_site_symmetry_multiplicity
 _atom_site_fract_x
 _atom_site_fract_y
 _atom_site_fract_z
 _atom_site_occupancy
  Er  Er0  1  0.333333  0.666667  0.436696  1
  Er  Er1  1  0.666667  0.333333  0.563304  1
  Tm  Tm2  1  0.666667  0.333333  0.936709  1
  Tm  Tm3  1  0.333333  0.666667  0.063291  1
  Mn  Mn4  1  0.000000  0.000000  0.500000  1
  Mn  Mn5  1  0.000000  0.000000  0.000000  1
  Re  Re6  1  0.831732  0.168268  0.249736  1
  Re  Re7  1  0.831732  0.663463  0.249736  1
  Re  Re8  1  0.336537  0.168268  0.249736  1
  Re  Re9  1  0.168268  0.831732  0.750264  1
  Re  Re10  1  0.168268  0.336537  0.750264  1
  Re  Re11  1  0.663463  0.831732  0.750264  1
