# generated using pymatgen
data_Li2Tm8Sc9Si16Mo
_symmetry_space_group_name_H-M   'P 1'
_cell_length_a   6.90360457
_cell_length_b   7.29594450
_cell_length_c   13.89010000
_cell_angle_alpha   90.00000000
_cell_angle_beta   90.00000000
_cell_angle_gamma   90.19947965
_symmetry_Int_Tables_number   1
_chemical_formula_structural   Li2Tm8Sc9Si16Mo
_chemical_formula_sum   'Li2 Tm8 Sc9 Si16 Mo1'
_cell_volume   699.61670325
_cell_formula_units_Z   1
loop_
 _symmetry_equiv_pos_site_id
 _symmetry_equiv_pos_as_xyz
  1  'x, y, z'
loop_
 _atom_site_type_symbol
 _atom_site_label
 _atom_site_symmetry_multiplicity
 _atom_site_fract_x
 _atom_site_fract_y
 _atom_site_fract_z
 _atom_site_occupancy
  Li  Li0  1  0.844302  0.492186  0.250000  1
  Li  Li1  1  0.343548  0.006250  0.250000  1
  Tm  Tm2  1  0.016275  0.182677  0.096297  1
  Tm  Tm3  1  0.990745  0.818169  0.901662  1
  Tm  Tm4  1  0.484437  0.675884  0.902212  1
  Tm  Tm5  1  0.990745  0.818169  0.598338  1
  Tm  Tm6  1  0.515915  0.317614  0.098253  1
  Tm  Tm7  1  0.016275  0.182677  0.403703  1
  Tm  Tm8  1  0.515915  0.317614  0.401747  1
  Tm  Tm9  1  0.484437  0.675884  0.597788  1
  Sc  Sc10  1  0.656805  0.994485  0.750000  1
  Sc  Sc11  1  0.325104  0.178808  0.626046  1
  Sc  Sc12  1  0.671510  0.822804  0.372775  1
  Sc  Sc13  1  0.172023  0.676204  0.373957  1
  Sc  Sc14  1  0.671510  0.822804  0.127225  1
  Sc  Sc15  1  0.826490  0.329182  0.627714  1
  Sc  Sc16  1  0.325104  0.178808  0.873954  1
  Sc  Sc17  1  0.826490  0.329182  0.872286  1
  Sc  Sc18  1  0.172023  0.676204  0.126043  1
  Si  Si19  1  0.029651  0.120547  0.750000  1
  Si  Si20  1  0.973983  0.899344  0.250000  1
  Si  Si21  1  0.472595  0.599429  0.250000  1
  Si  Si22  1  0.517875  0.399043  0.750000  1
  Si  Si23  1  0.281469  0.859604  0.750000  1
  Si  Si24  1  0.723184  0.124684  0.250000  1
  Si  Si25  1  0.219449  0.375019  0.250000  1
  Si  Si26  1  0.791222  0.629964  0.750000  1
  Si  Si27  1  0.152588  0.466313  0.544635  1
  Si  Si28  1  0.840817  0.537455  0.464106  1
  Si  Si29  1  0.342852  0.961966  0.464539  1
  Si  Si30  1  0.840817  0.537455  0.035894  1
  Si  Si31  1  0.658301  0.033827  0.538105  1
  Si  Si32  1  0.152588  0.466313  0.955365  1
  Si  Si33  1  0.658301  0.033827  0.961895  1
  Si  Si34  1  0.342852  0.961966  0.035461  1
  Mo  Mo35  1  0.151803  0.497639  0.750000  1
