# generated using pymatgen
data_GaBi3Te10
_symmetry_space_group_name_H-M   'P 1'
_cell_length_a   24.05067100
_cell_length_b   24.05067050
_cell_length_c   3.18328900
_cell_angle_alpha   90.00000000
_cell_angle_beta   90.00000000
_cell_angle_gamma   166.42274554
_symmetry_Int_Tables_number   1
_chemical_formula_structural   GaBi3Te10
_chemical_formula_sum   'Ga1 Bi3 Te10'
_cell_volume   432.26254013
_cell_formula_units_Z   1
loop_
 _symmetry_equiv_pos_site_id
 _symmetry_equiv_pos_as_xyz
  1  'x, y, z'
loop_
 _atom_site_type_symbol
 _atom_site_label
 _atom_site_symmetry_multiplicity
 _atom_site_fract_x
 _atom_site_fract_y
 _atom_site_fract_z
 _atom_site_occupancy
  Ga  Ga0  1  0.106559  0.893441  0.750000  1
  Bi  Bi1  1  0.672311  0.327689  0.250000  1
  Bi  Bi2  1  0.321557  0.678443  0.750000  1
  Bi  Bi3  1  0.887229  0.112771  0.250000  1
  Te  Te4  1  0.608137  0.391863  0.250000  1
  Te  Te5  1  0.387778  0.612222  0.750000  1
  Te  Te6  1  0.823077  0.176923  0.250000  1
  Te  Te7  1  0.173640  0.826360  0.750000  1
  Te  Te8  1  0.967570  0.032430  0.750000  1
  Te  Te9  1  0.043144  0.956856  0.250000  1
  Te  Te10  1  0.539240  0.460760  0.750000  1
  Te  Te11  1  0.471586  0.528414  0.250000  1
  Te  Te12  1  0.745890  0.254110  0.750000  1
  Te  Te13  1  0.252279  0.747721  0.250000  1
