# generated using pymatgen
data_ZnFe3(NO3)8
_symmetry_space_group_name_H-M   'P 1'
_cell_length_a   7.71401705
_cell_length_b   7.71401705
_cell_length_c   7.71401705
_cell_angle_alpha   90.12388306
_cell_angle_beta   89.87611694
_cell_angle_gamma   89.87611694
_symmetry_Int_Tables_number   1
_chemical_formula_structural   ZnFe3(NO3)8
_chemical_formula_sum   'Zn1 Fe3 N8 O24'
_cell_volume   459.02753109
_cell_formula_units_Z   1
loop_
 _symmetry_equiv_pos_site_id
 _symmetry_equiv_pos_as_xyz
  1  'x, y, z'
loop_
 _atom_site_type_symbol
 _atom_site_label
 _atom_site_symmetry_multiplicity
 _atom_site_fract_x
 _atom_site_fract_y
 _atom_site_fract_z
 _atom_site_occupancy
  Zn  Zn0  1  0.000000  0.000000  0.500000  1
  Fe  Fe1  1  0.500000  0.500000  0.500000  1
  Fe  Fe2  1  0.500000  0.000000  0.000000  1
  Fe  Fe3  1  0.000000  0.500000  0.000000  1
  N  N4  1  0.673484  0.169360  0.332494  1
  N  N5  1  0.670855  0.329145  0.829145  1
  N  N6  1  0.830640  0.832494  0.826516  1
  N  N7  1  0.832494  0.673484  0.330640  1
  N  N8  1  0.169360  0.167506  0.173484  1
  N  N9  1  0.167506  0.326516  0.669360  1
  N  N10  1  0.329145  0.670855  0.170855  1
  N  N11  1  0.326516  0.830640  0.667506  1
  O  O12  1  0.553444  0.214914  0.825387  1
  O  O13  1  0.555957  0.284539  0.330495  1
  O  O14  1  0.674613  0.446556  0.714914  1
  O  O15  1  0.674164  0.050770  0.219933  1
  O  O16  1  0.719933  0.674164  0.449230  1
  O  O17  1  0.715461  0.830495  0.944043  1
  O  O18  1  0.785086  0.325387  0.946556  1
  O  O19  1  0.788941  0.174529  0.448622  1
  O  O20  1  0.825471  0.948622  0.711059  1
  O  O21  1  0.830495  0.555957  0.215461  1
  O  O22  1  0.949230  0.719933  0.825836  1
  O  O23  1  0.948622  0.788941  0.325471  1
  O  O24  1  0.051378  0.211059  0.674529  1
  O  O25  1  0.050770  0.280067  0.174164  1
  O  O26  1  0.169505  0.444043  0.784539  1
  O  O27  1  0.174529  0.051378  0.288941  1
  O  O28  1  0.214914  0.674613  0.053444  1
  O  O29  1  0.211059  0.825471  0.551378  1
  O  O30  1  0.284539  0.169505  0.055957  1
  O  O31  1  0.280067  0.325836  0.550770  1
  O  O32  1  0.325387  0.553444  0.285086  1
  O  O33  1  0.325836  0.949230  0.780067  1
  O  O34  1  0.444043  0.715461  0.669505  1
  O  O35  1  0.446556  0.785086  0.174613  1
