# generated using pymatgen
data_Dy4Al4Pd3Ru
_symmetry_space_group_name_H-M   'P 1'
_cell_length_a   4.33798600
_cell_length_b   6.91194645
_cell_length_c   7.90198468
_cell_angle_alpha   90.09550086
_cell_angle_beta   90.00000000
_cell_angle_gamma   90.00000000
_symmetry_Int_Tables_number   1
_chemical_formula_structural   Dy4Al4Pd3Ru
_chemical_formula_sum   'Dy4 Al4 Pd3 Ru1'
_cell_volume   236.93220239
_cell_formula_units_Z   1
loop_
 _symmetry_equiv_pos_site_id
 _symmetry_equiv_pos_as_xyz
  1  'x, y, z'
loop_
 _atom_site_type_symbol
 _atom_site_label
 _atom_site_symmetry_multiplicity
 _atom_site_fract_x
 _atom_site_fract_y
 _atom_site_fract_z
 _atom_site_occupancy
  Dy  Dy0  1  0.250000  0.036721  0.322987  1
  Dy  Dy1  1  0.250000  0.531959  0.180381  1
  Dy  Dy2  1  0.750000  0.977968  0.678390  1
  Dy  Dy3  1  0.750000  0.463250  0.815543  1
  Al  Al4  1  0.250000  0.144379  0.936468  1
  Al  Al5  1  0.250000  0.635488  0.562365  1
  Al  Al6  1  0.750000  0.857934  0.060825  1
  Al  Al7  1  0.750000  0.356308  0.442053  1
  Pd  Pd8  1  0.250000  0.773049  0.881055  1
  Pd  Pd9  1  0.750000  0.729308  0.378169  1
  Pd  Pd10  1  0.750000  0.229106  0.121866  1
  Ru  Ru11  1  0.250000  0.264529  0.619900  1
