# generated using pymatgen
data_Zr10SnPb5
_symmetry_space_group_name_H-M   'P 1'
_cell_length_a   8.65891288
_cell_length_b   8.65891323
_cell_length_c   5.86133800
_cell_angle_alpha   90.00000000
_cell_angle_beta   90.00000000
_cell_angle_gamma   119.94846135
_symmetry_Int_Tables_number   1
_chemical_formula_structural   Zr10SnPb5
_chemical_formula_sum   'Zr10 Sn1 Pb5'
_cell_volume   380.78467965
_cell_formula_units_Z   1
loop_
 _symmetry_equiv_pos_site_id
 _symmetry_equiv_pos_as_xyz
  1  'x, y, z'
loop_
 _atom_site_type_symbol
 _atom_site_label
 _atom_site_symmetry_multiplicity
 _atom_site_fract_x
 _atom_site_fract_y
 _atom_site_fract_z
 _atom_site_occupancy
  Zr  Zr0  1  0.752131  0.752131  0.250000  1
  Zr  Zr1  1  0.000553  0.243840  0.250000  1
  Zr  Zr2  1  0.754462  0.995441  0.750000  1
  Zr  Zr3  1  0.335682  0.666204  0.500978  1
  Zr  Zr4  1  0.243840  0.000553  0.250000  1
  Zr  Zr5  1  0.666204  0.335682  0.500978  1
  Zr  Zr6  1  0.995441  0.754462  0.750000  1
  Zr  Zr7  1  0.335682  0.666204  0.999022  1
  Zr  Zr8  1  0.250119  0.250119  0.750000  1
  Zr  Zr9  1  0.666204  0.335682  0.999022  1
  Sn  Sn10  1  0.608602  0.608602  0.750000  1
  Pb  Pb11  1  0.389623  0.999150  0.750000  1
  Pb  Pb12  1  0.609319  0.001518  0.250000  1
  Pb  Pb13  1  0.999150  0.389623  0.750000  1
  Pb  Pb14  1  0.391470  0.391470  0.250000  1
  Pb  Pb15  1  0.001518  0.609319  0.250000  1
