# generated using pymatgen
data_La2DyEr(NiAs)4
_symmetry_space_group_name_H-M   'P 1'
_cell_length_a   4.10326100
_cell_length_b   4.10326189
_cell_length_c   15.99219100
_cell_angle_alpha   90.00000000
_cell_angle_beta   90.00000000
_cell_angle_gamma   120.00000091
_symmetry_Int_Tables_number   1
_chemical_formula_structural   La2DyEr(NiAs)4
_chemical_formula_sum   'La2 Dy1 Er1 Ni4 As4'
_cell_volume   233.18304786
_cell_formula_units_Z   1
loop_
 _symmetry_equiv_pos_site_id
 _symmetry_equiv_pos_as_xyz
  1  'x, y, z'
loop_
 _atom_site_type_symbol
 _atom_site_label
 _atom_site_symmetry_multiplicity
 _atom_site_fract_x
 _atom_site_fract_y
 _atom_site_fract_z
 _atom_site_occupancy
  La  La0  1  0.000000  0.000000  0.000054  1
  La  La1  1  0.000000  0.000000  0.499946  1
  Dy  Dy2  1  0.000000  0.000000  0.750000  1
  Er  Er3  1  0.000000  0.000000  0.250000  1
  Ni  Ni4  1  0.333333  0.666667  0.139771  1
  Ni  Ni5  1  0.666667  0.333333  0.860964  1
  Ni  Ni6  1  0.666667  0.333333  0.639036  1
  Ni  Ni7  1  0.333333  0.666667  0.360229  1
  As  As8  1  0.333333  0.666667  0.627601  1
  As  As9  1  0.666667  0.333333  0.372120  1
  As  As10  1  0.666667  0.333333  0.127880  1
  As  As11  1  0.333333  0.666667  0.872399  1
