# generated using pymatgen
data_Tb2Y6Be3Si12Pt
_symmetry_space_group_name_H-M   'P 1'
_cell_length_a   7.94814500
_cell_length_b   7.94814483
_cell_length_c   8.11635400
_cell_angle_alpha   90.00000000
_cell_angle_beta   90.00000000
_cell_angle_gamma   120.00000486
_symmetry_Int_Tables_number   1
_chemical_formula_structural   Tb2Y6Be3Si12Pt
_chemical_formula_sum   'Tb2 Y6 Be3 Si12 Pt1'
_cell_volume   444.04107454
_cell_formula_units_Z   1
loop_
 _symmetry_equiv_pos_site_id
 _symmetry_equiv_pos_as_xyz
  1  'x, y, z'
loop_
 _atom_site_type_symbol
 _atom_site_label
 _atom_site_symmetry_multiplicity
 _atom_site_fract_x
 _atom_site_fract_y
 _atom_site_fract_z
 _atom_site_occupancy
  Tb  Tb0  1  0.000000  0.000000  0.248005  1
  Tb  Tb1  1  0.000000  0.000000  0.751861  1
  Y  Y2  1  0.501205  0.002410  0.247576  1
  Y  Y3  1  0.501595  0.003192  0.752446  1
  Y  Y4  1  0.997590  0.498795  0.247576  1
  Y  Y5  1  0.996808  0.498405  0.752446  1
  Y  Y6  1  0.501205  0.498795  0.247576  1
  Y  Y7  1  0.501595  0.498405  0.752446  1
  Be  Be8  1  0.333333  0.666667  0.000846  1
  Be  Be9  1  0.666667  0.333333  0.000776  1
  Be  Be10  1  0.666667  0.333333  0.498579  1
  Si  Si11  1  0.172264  0.344526  0.999507  1
  Si  Si12  1  0.826666  0.653335  0.000350  1
  Si  Si13  1  0.655474  0.827736  0.999507  1
  Si  Si14  1  0.827929  0.655858  0.500091  1
  Si  Si15  1  0.346665  0.173334  0.000350  1
  Si  Si16  1  0.165632  0.331263  0.499716  1
  Si  Si17  1  0.172264  0.827736  0.999507  1
  Si  Si18  1  0.344142  0.172071  0.500091  1
  Si  Si19  1  0.826666  0.173334  0.000350  1
  Si  Si20  1  0.668737  0.834368  0.499716  1
  Si  Si21  1  0.827929  0.172071  0.500091  1
  Si  Si22  1  0.165632  0.834368  0.499716  1
  Pt  Pt23  1  0.333333  0.666667  0.500872  1
