# generated using pymatgen
data_Ca2ErTmPd4
_symmetry_space_group_name_H-M   'P 1'
_cell_length_a   4.47400500
_cell_length_b   5.68803676
_cell_length_c   7.31028100
_cell_angle_alpha   90.13909864
_cell_angle_beta   90.00000000
_cell_angle_gamma   90.00000000
_symmetry_Int_Tables_number   1
_chemical_formula_structural   Ca2ErTmPd4
_chemical_formula_sum   'Ca2 Er1 Tm1 Pd4'
_cell_volume   186.03371167
_cell_formula_units_Z   1
loop_
 _symmetry_equiv_pos_site_id
 _symmetry_equiv_pos_as_xyz
  1  'x, y, z'
loop_
 _atom_site_type_symbol
 _atom_site_label
 _atom_site_symmetry_multiplicity
 _atom_site_fract_x
 _atom_site_fract_y
 _atom_site_fract_z
 _atom_site_occupancy
  Ca  Ca0  1  0.250000  0.141016  0.185105  1
  Ca  Ca1  1  0.750000  0.640041  0.315867  1
  Er  Er2  1  0.250000  0.359615  0.684658  1
  Tm  Tm3  1  0.750000  0.859296  0.814697  1
  Pd  Pd4  1  0.250000  0.850350  0.562614  1
  Pd  Pd5  1  0.250000  0.650416  0.013670  1
  Pd  Pd6  1  0.750000  0.149527  0.486932  1
  Pd  Pd7  1  0.750000  0.349740  0.936456  1
