# generated using pymatgen
data_SmMg(NbSe2)8
_symmetry_space_group_name_H-M   'P 1'
_cell_length_a   7.02652100
_cell_length_b   7.02652289
_cell_length_c   14.18933800
_cell_angle_alpha   90.00000000
_cell_angle_beta   90.00000000
_cell_angle_gamma   120.00000524
_symmetry_Int_Tables_number   1
_chemical_formula_structural   SmMg(NbSe2)8
_chemical_formula_sum   'Sm1 Mg1 Nb8 Se16'
_cell_volume   606.69938767
_cell_formula_units_Z   1
loop_
 _symmetry_equiv_pos_site_id
 _symmetry_equiv_pos_as_xyz
  1  'x, y, z'
loop_
 _atom_site_type_symbol
 _atom_site_label
 _atom_site_symmetry_multiplicity
 _atom_site_fract_x
 _atom_site_fract_y
 _atom_site_fract_z
 _atom_site_occupancy
  Sm  Sm0  1  0.000000  0.000000  0.000000  1
  Mg  Mg1  1  0.000000  0.000000  0.500000  1
  Nb  Nb2  1  0.000000  0.000000  0.255997  1
  Nb  Nb3  1  0.000000  0.000000  0.744003  1
  Nb  Nb4  1  0.506898  0.013796  0.258380  1
  Nb  Nb5  1  0.493102  0.986204  0.741620  1
  Nb  Nb6  1  0.986204  0.493102  0.258380  1
  Nb  Nb7  1  0.013796  0.506898  0.741620  1
  Nb  Nb8  1  0.506898  0.493102  0.258380  1
  Nb  Nb9  1  0.493102  0.506898  0.741620  1
  Se  Se10  1  0.333333  0.666667  0.620852  1
  Se  Se11  1  0.666667  0.333333  0.379148  1
  Se  Se12  1  0.666667  0.333333  0.136016  1
  Se  Se13  1  0.333333  0.666667  0.863984  1
  Se  Se14  1  0.170481  0.340963  0.141019  1
  Se  Se15  1  0.829519  0.659037  0.858981  1
  Se  Se16  1  0.659037  0.829519  0.141019  1
  Se  Se17  1  0.832271  0.664542  0.625689  1
  Se  Se18  1  0.340963  0.170481  0.858981  1
  Se  Se19  1  0.167729  0.335458  0.374311  1
  Se  Se20  1  0.170481  0.829519  0.141019  1
  Se  Se21  1  0.335458  0.167729  0.625689  1
  Se  Se22  1  0.829519  0.170481  0.858981  1
  Se  Se23  1  0.664542  0.832271  0.374311  1
  Se  Se24  1  0.832271  0.167729  0.625689  1
  Se  Se25  1  0.167729  0.832271  0.374311  1
