# generated using pymatgen
data_Dy8Ho2BiPb7
_symmetry_space_group_name_H-M   'P 1'
_cell_length_a   8.24713400
_cell_length_b   15.58868971
_cell_length_c   8.29891000
_cell_angle_alpha   90.17827175
_cell_angle_beta   90.00000000
_cell_angle_gamma   90.00000000
_symmetry_Int_Tables_number   1
_chemical_formula_structural   Dy8Ho2BiPb7
_chemical_formula_sum   'Dy16 Ho4 Bi2 Pb14'
_cell_volume   1066.91941077
_cell_formula_units_Z   2
loop_
 _symmetry_equiv_pos_site_id
 _symmetry_equiv_pos_as_xyz
  1  'x, y, z'
loop_
 _atom_site_type_symbol
 _atom_site_label
 _atom_site_symmetry_multiplicity
 _atom_site_fract_x
 _atom_site_fract_y
 _atom_site_fract_z
 _atom_site_occupancy
  Dy  Dy0  1  0.619893  0.621593  0.160373  1
  Dy  Dy1  1  0.119893  0.878407  0.339627  1
  Dy  Dy2  1  0.379019  0.121611  0.844168  1
  Dy  Dy3  1  0.879019  0.378389  0.655832  1
  Dy  Dy4  1  0.375270  0.378702  0.840994  1
  Dy  Dy5  1  0.875270  0.121298  0.659006  1
  Dy  Dy6  1  0.622255  0.878725  0.158165  1
  Dy  Dy7  1  0.122255  0.621275  0.341835  1
  Dy  Dy8  1  0.455503  0.603538  0.668921  1
  Dy  Dy9  1  0.955503  0.896462  0.831079  1
  Dy  Dy10  1  0.545391  0.103223  0.324551  1
  Dy  Dy11  1  0.045391  0.396777  0.175449  1
  Dy  Dy12  1  0.540060  0.397941  0.330596  1
  Dy  Dy13  1  0.040060  0.102059  0.169404  1
  Dy  Dy14  1  0.463064  0.897206  0.676713  1
  Dy  Dy15  1  0.963064  0.602794  0.823287  1
  Ho  Ho16  1  0.790673  0.750435  0.498153  1
  Ho  Ho17  1  0.290673  0.749565  0.001847  1
  Ho  Ho18  1  0.209390  0.251673  0.501889  1
  Ho  Ho19  1  0.709390  0.248327  0.998111  1
  Bi  Bi20  1  0.723253  0.455283  0.971655  1
  Bi  Bi21  1  0.223253  0.044717  0.528345  1
  Pb  Pb22  1  0.278359  0.956524  0.030420  1
  Pb  Pb23  1  0.778359  0.543476  0.469580  1
  Pb  Pb24  1  0.278267  0.543215  0.030989  1
  Pb  Pb25  1  0.778267  0.956785  0.469011  1
  Pb  Pb26  1  0.719556  0.043274  0.968283  1
  Pb  Pb27  1  0.219556  0.456726  0.531717  1
  Pb  Pb28  1  0.427380  0.751629  0.372297  1
  Pb  Pb29  1  0.927380  0.748371  0.127703  1
  Pb  Pb30  1  0.571398  0.249996  0.628106  1
  Pb  Pb31  1  0.071398  0.250004  0.871894  1
  Pb  Pb32  1  0.648666  0.748545  0.846689  1
  Pb  Pb33  1  0.148666  0.751455  0.653311  1
  Pb  Pb34  1  0.352603  0.250348  0.154430  1
  Pb  Pb35  1  0.852603  0.249652  0.345570  1
