# generated using pymatgen
data_KSm(PS3)2
_symmetry_space_group_name_H-M   'P 1'
_cell_length_a   7.48422600
_cell_length_b   6.60632513
_cell_length_c   10.22134486
_cell_angle_alpha   86.82937569
_cell_angle_beta   90.00000000
_cell_angle_gamma   90.00000000
_symmetry_Int_Tables_number   1
_chemical_formula_structural   KSm(PS3)2
_chemical_formula_sum   'K2 Sm2 P4 S12'
_cell_volume   504.60270468
_cell_formula_units_Z   2
loop_
 _symmetry_equiv_pos_site_id
 _symmetry_equiv_pos_as_xyz
  1  'x, y, z'
loop_
 _atom_site_type_symbol
 _atom_site_label
 _atom_site_symmetry_multiplicity
 _atom_site_fract_x
 _atom_site_fract_y
 _atom_site_fract_z
 _atom_site_occupancy
  K  K0  1  0.474096  0.694520  0.500494  1
  K  K1  1  0.974096  0.305480  0.499506  1
  Sm  Sm2  1  0.198881  0.215095  0.997315  1
  Sm  Sm3  1  0.698881  0.784905  0.002685  1
  P  P4  1  0.685548  0.327550  0.832870  1
  P  P5  1  0.963388  0.798703  0.286809  1
  P  P6  1  0.185548  0.672450  0.167130  1
  P  P7  1  0.463388  0.201297  0.713191  1
  S  S8  1  0.771757  0.595716  0.753138  1
  S  S9  1  0.548387  0.170076  0.531569  1
  S  S10  1  0.762516  0.598332  0.265364  1
  S  S11  1  0.570278  0.367204  0.013177  1
  S  S12  1  0.396708  0.947804  0.830809  1
  S  S13  1  0.262516  0.401668  0.734636  1
  S  S14  1  0.070278  0.632796  0.986823  1
  S  S15  1  0.896708  0.052196  0.169191  1
  S  S16  1  0.048387  0.829924  0.468431  1
  S  S17  1  0.377333  0.897375  0.161637  1
  S  S18  1  0.877333  0.102625  0.838363  1
  S  S19  1  0.271757  0.404284  0.246862  1
