# generated using pymatgen
data_Tm4FeMoOs6
_symmetry_space_group_name_H-M   'P 1'
_cell_length_a   5.39906262
_cell_length_b   5.21728974
_cell_length_c   8.83068100
_cell_angle_alpha   90.00000000
_cell_angle_beta   90.00000000
_cell_angle_gamma   121.11895833
_symmetry_Int_Tables_number   1
_chemical_formula_structural   Tm4FeMoOs6
_chemical_formula_sum   'Tm4 Fe1 Mo1 Os6'
_cell_volume   212.95117881
_cell_formula_units_Z   1
loop_
 _symmetry_equiv_pos_site_id
 _symmetry_equiv_pos_as_xyz
  1  'x, y, z'
loop_
 _atom_site_type_symbol
 _atom_site_label
 _atom_site_symmetry_multiplicity
 _atom_site_fract_x
 _atom_site_fract_y
 _atom_site_fract_z
 _atom_site_occupancy
  Tm  Tm0  1  0.671959  0.344015  0.561331  1
  Tm  Tm1  1  0.331522  0.663143  0.432970  1
  Tm  Tm2  1  0.331522  0.663143  0.067030  1
  Tm  Tm3  1  0.671959  0.344015  0.938669  1
  Fe  Fe4  1  0.830805  0.662063  0.250000  1
  Mo  Mo5  1  0.162743  0.324858  0.750000  1
  Os  Os6  1  0.004340  0.008695  0.495402  1
  Os  Os7  1  0.004340  0.008695  0.004598  1
  Os  Os8  1  0.175194  0.825884  0.750000  1
  Os  Os9  1  0.650806  0.825981  0.750000  1
  Os  Os10  1  0.821226  0.164934  0.250000  1
  Os  Os11  1  0.343584  0.164571  0.250000  1
