# generated using pymatgen
data_YMn3As(PN2)6
_symmetry_space_group_name_H-M   'P 1'
_cell_length_a   7.36844046
_cell_length_b   7.36844048
_cell_length_c   7.32428000
_cell_angle_alpha   109.34986394
_cell_angle_beta   109.34986399
_cell_angle_gamma   109.59230801
_symmetry_Int_Tables_number   1
_chemical_formula_structural   YMn3As(PN2)6
_chemical_formula_sum   'Y1 Mn3 As1 P6 N12'
_cell_volume   306.57902559
_cell_formula_units_Z   1
loop_
 _symmetry_equiv_pos_site_id
 _symmetry_equiv_pos_as_xyz
  1  'x, y, z'
loop_
 _atom_site_type_symbol
 _atom_site_label
 _atom_site_symmetry_multiplicity
 _atom_site_fract_x
 _atom_site_fract_y
 _atom_site_fract_z
 _atom_site_occupancy
  Y  Y0  1  0.000000  0.000000  0.667232  1
  Mn  Mn1  1  0.352155  0.352155  0.346109  1
  Mn  Mn2  1  0.000000  0.647845  0.993954  1
  Mn  Mn3  1  0.647845  0.000000  0.993954  1
  As  As4  1  0.000000  0.000000  0.041726  1
  P  P5  1  0.503532  0.253094  0.748159  1
  P  P6  1  0.496468  0.749561  0.244625  1
  P  P7  1  0.746906  0.250439  0.495065  1
  P  P8  1  0.253094  0.503532  0.748159  1
  P  P9  1  0.749561  0.496468  0.244625  1
  P  P10  1  0.250439  0.746906  0.495065  1
  N  N11  1  0.000000  0.707650  0.426929  1
  N  N12  1  0.278308  0.706242  0.274990  1
  N  N13  1  0.293758  0.572067  0.568748  1
  N  N14  1  0.582215  0.582215  0.297261  1
  N  N15  1  0.572067  0.293758  0.568748  1
  N  N16  1  0.707650  0.000000  0.426929  1
  N  N17  1  0.417785  0.000000  0.715046  1
  N  N18  1  0.721692  0.427933  0.996682  1
  N  N19  1  0.292350  0.292350  0.719279  1
  N  N20  1  0.706242  0.278308  0.274990  1
  N  N21  1  0.000000  0.417785  0.715046  1
  N  N22  1  0.427933  0.721692  0.996682  1
