# generated using pymatgen
data_Sm3Lu(B4W)4
_symmetry_space_group_name_H-M   'P 1'
_cell_length_a   3.65310100
_cell_length_b   6.06687655
_cell_length_c   11.73132573
_cell_angle_alpha   89.86326555
_cell_angle_beta   90.00000000
_cell_angle_gamma   90.00000000
_symmetry_Int_Tables_number   1
_chemical_formula_structural   Sm3Lu(B4W)4
_chemical_formula_sum   'Sm3 Lu1 B16 W4'
_cell_volume   259.99960874
_cell_formula_units_Z   1
loop_
 _symmetry_equiv_pos_site_id
 _symmetry_equiv_pos_as_xyz
  1  'x, y, z'
loop_
 _atom_site_type_symbol
 _atom_site_label
 _atom_site_symmetry_multiplicity
 _atom_site_fract_x
 _atom_site_fract_y
 _atom_site_fract_z
 _atom_site_occupancy
  Sm  Sm0  1  0.000000  0.626260  0.349958  1
  Sm  Sm1  1  0.000000  0.373682  0.650699  1
  Sm  Sm2  1  0.000000  0.126238  0.149496  1
  Lu  Lu3  1  0.000000  0.873728  0.850891  1
  B  B4  1  0.500000  0.784528  0.184825  1
  B  B5  1  0.500000  0.211735  0.814589  1
  B  B6  1  0.500000  0.284381  0.314168  1
  B  B7  1  0.500000  0.715982  0.688112  1
  B  B8  1  0.500000  0.865876  0.029745  1
  B  B9  1  0.500000  0.133638  0.966199  1
  B  B10  1  0.500000  0.364726  0.468480  1
  B  B11  1  0.500000  0.635463  0.533150  1
  B  B12  1  0.500000  0.886952  0.454101  1
  B  B13  1  0.500000  0.112023  0.547751  1
  B  B14  1  0.500000  0.388134  0.045201  1
  B  B15  1  0.500000  0.616061  0.951149  1
  B  B16  1  0.500000  0.975641  0.308124  1
  B  B17  1  0.500000  0.022046  0.694811  1
  B  B18  1  0.500000  0.475893  0.191172  1
  B  B19  1  0.500000  0.526330  0.807657  1
  W  W20  1  0.000000  0.631042  0.082431  1
  W  W21  1  0.000000  0.370209  0.914740  1
  W  W22  1  0.000000  0.129545  0.416511  1
  W  W23  1  0.000000  0.869885  0.586041  1
