# generated using pymatgen
data_Dy10Y6MgHg3Ir4
_symmetry_space_group_name_H-M   'P 1'
_cell_length_a   9.62847070
_cell_length_b   9.62990164
_cell_length_c   9.62990100
_cell_angle_alpha   59.99999875
_cell_angle_beta   59.99508247
_cell_angle_gamma   59.99507905
_symmetry_Int_Tables_number   1
_chemical_formula_structural   Dy10Y6MgHg3Ir4
_chemical_formula_sum   'Dy10 Y6 Mg1 Hg3 Ir4'
_cell_volume   631.32601991
_cell_formula_units_Z   1
loop_
 _symmetry_equiv_pos_site_id
 _symmetry_equiv_pos_as_xyz
  1  'x, y, z'
loop_
 _atom_site_type_symbol
 _atom_site_label
 _atom_site_symmetry_multiplicity
 _atom_site_fract_x
 _atom_site_fract_y
 _atom_site_fract_z
 _atom_site_occupancy
  Dy  Dy0  1  0.600231  0.598325  0.598325  1
  Dy  Dy1  1  0.600231  0.598325  0.203119  1
  Dy  Dy2  1  0.600231  0.203119  0.598325  1
  Dy  Dy3  1  0.193868  0.602044  0.602044  1
  Dy  Dy4  1  0.059548  0.440270  0.440270  1
  Dy  Dy5  1  0.436790  0.062418  0.062418  1
  Dy  Dy6  1  0.436790  0.062418  0.438374  1
  Dy  Dy7  1  0.059548  0.440270  0.059912  1
  Dy  Dy8  1  0.436790  0.438374  0.062418  1
  Dy  Dy9  1  0.059548  0.059912  0.440270  1
  Y  Y10  1  0.185826  0.812803  0.812803  1
  Y  Y11  1  0.811794  0.187493  0.187493  1
  Y  Y12  1  0.811794  0.187493  0.813220  1
  Y  Y13  1  0.185826  0.812803  0.188569  1
  Y  Y14  1  0.811794  0.813220  0.187493  1
  Y  Y15  1  0.185826  0.188569  0.812803  1
  Mg  Mg16  1  0.536164  0.821279  0.821279  1
  Hg  Hg17  1  0.830896  0.836192  0.836192  1
  Hg  Hg18  1  0.830896  0.836192  0.496722  1
  Hg  Hg19  1  0.830896  0.496722  0.836192  1
  Ir  Ir20  1  0.390142  0.393099  0.393099  1
  Ir  Ir21  1  0.390142  0.393099  0.823659  1
  Ir  Ir22  1  0.390142  0.823659  0.393099  1
  Ir  Ir23  1  0.824291  0.391903  0.391903  1
