# generated using pymatgen
data_Lu3Sc(InRh2)4
_symmetry_space_group_name_H-M   'P 1'
_cell_length_a   6.30922400
_cell_length_b   6.30956400
_cell_length_c   7.03676601
_cell_angle_alpha   89.99896941
_cell_angle_beta   89.99571068
_cell_angle_gamma   89.99898291
_symmetry_Int_Tables_number   1
_chemical_formula_structural   Lu3Sc(InRh2)4
_chemical_formula_sum   'Lu3 Sc1 In4 Rh8'
_cell_volume   280.12276546
_cell_formula_units_Z   1
loop_
 _symmetry_equiv_pos_site_id
 _symmetry_equiv_pos_as_xyz
  1  'x, y, z'
loop_
 _atom_site_type_symbol
 _atom_site_label
 _atom_site_symmetry_multiplicity
 _atom_site_fract_x
 _atom_site_fract_y
 _atom_site_fract_z
 _atom_site_occupancy
  Lu  Lu0  1  0.750005  0.250007  0.999995  1
  Lu  Lu1  1  0.249987  0.750001  0.000010  1
  Lu  Lu2  1  0.749988  0.250003  0.499996  1
  Sc  Sc3  1  0.250014  0.750000  0.500009  1
  In  In4  1  0.250001  0.249999  0.999985  1
  In  In5  1  0.749995  0.750002  0.000013  1
  In  In6  1  0.750004  0.749995  0.499989  1
  In  In7  1  0.250001  0.250001  0.500040  1
  Rh  Rh8  1  0.497912  0.997940  0.252246  1
  Rh  Rh9  1  0.497931  0.502055  0.252249  1
  Rh  Rh10  1  0.002076  0.997934  0.252262  1
  Rh  Rh11  1  0.002072  0.502068  0.252263  1
  Rh  Rh12  1  0.002063  0.997933  0.747734  1
  Rh  Rh13  1  0.002072  0.502069  0.747728  1
  Rh  Rh14  1  0.497936  0.997906  0.747737  1
  Rh  Rh15  1  0.497940  0.502082  0.747744  1
