# generated using pymatgen
data_TbErFe14(SiC)3
_symmetry_space_group_name_H-M   'P 1'
_cell_length_a   6.43765050
_cell_length_b   6.43765062
_cell_length_c   6.43764915
_cell_angle_alpha   83.55789734
_cell_angle_beta   83.55789103
_cell_angle_gamma   83.55790283
_symmetry_Int_Tables_number   1
_chemical_formula_structural   TbErFe14(SiC)3
_chemical_formula_sum   'Tb1 Er1 Fe14 Si3 C3'
_cell_volume   262.09516940
_cell_formula_units_Z   1
loop_
 _symmetry_equiv_pos_site_id
 _symmetry_equiv_pos_as_xyz
  1  'x, y, z'
loop_
 _atom_site_type_symbol
 _atom_site_label
 _atom_site_symmetry_multiplicity
 _atom_site_fract_x
 _atom_site_fract_y
 _atom_site_fract_z
 _atom_site_occupancy
  Tb  Tb0  1  0.652663  0.652663  0.652663  1
  Er  Er1  1  0.346370  0.346370  0.346370  1
  Fe  Fe2  1  0.715047  0.284441  0.000684  1
  Fe  Fe3  1  0.000684  0.715047  0.284441  1
  Fe  Fe4  1  0.284441  0.000684  0.715047  1
  Fe  Fe5  1  0.000684  0.284441  0.715047  1
  Fe  Fe6  1  0.715047  0.000684  0.284441  1
  Fe  Fe7  1  0.284441  0.715047  0.000684  1
  Fe  Fe8  1  0.340096  0.863162  0.340096  1
  Fe  Fe9  1  0.340096  0.340096  0.863162  1
  Fe  Fe10  1  0.863162  0.340096  0.340096  1
  Fe  Fe11  1  0.659237  0.138042  0.659237  1
  Fe  Fe12  1  0.659237  0.659237  0.138042  1
  Fe  Fe13  1  0.138042  0.659237  0.659237  1
  Fe  Fe14  1  0.903371  0.903371  0.903371  1
  Fe  Fe15  1  0.097291  0.097291  0.097291  1
  Si  Si16  1  0.999945  0.999945  0.499867  1
  Si  Si17  1  0.499867  0.999945  0.999945  1
  Si  Si18  1  0.999945  0.499867  0.999945  1
  C  C19  1  0.498687  0.498687  0.002961  1
  C  C20  1  0.002961  0.498687  0.498687  1
  C  C21  1  0.498687  0.002961  0.498687  1
