# generated using pymatgen
data_BaPrErSe4
_symmetry_space_group_name_H-M   'P 1'
_cell_length_a   4.30436700
_cell_length_b   12.94483000
_cell_length_c   15.44590600
_cell_angle_alpha   90.00000000
_cell_angle_beta   90.00000000
_cell_angle_gamma   90.00000000
_symmetry_Int_Tables_number   1
_chemical_formula_structural   BaPrErSe4
_chemical_formula_sum   'Ba4 Pr4 Er4 Se16'
_cell_volume   860.63505586
_cell_formula_units_Z   4
loop_
 _symmetry_equiv_pos_site_id
 _symmetry_equiv_pos_as_xyz
  1  'x, y, z'
loop_
 _atom_site_type_symbol
 _atom_site_label
 _atom_site_symmetry_multiplicity
 _atom_site_fract_x
 _atom_site_fract_y
 _atom_site_fract_z
 _atom_site_occupancy
  Ba  Ba0  1  0.250000  0.758769  0.339312  1
  Ba  Ba1  1  0.250000  0.258769  0.160688  1
  Ba  Ba2  1  0.750000  0.241231  0.660688  1
  Ba  Ba3  1  0.750000  0.741231  0.839312  1
  Pr  Pr4  1  0.250000  0.428219  0.389938  1
  Pr  Pr5  1  0.250000  0.928219  0.110062  1
  Pr  Pr6  1  0.750000  0.571781  0.610062  1
  Pr  Pr7  1  0.750000  0.071781  0.889938  1
  Er  Er8  1  0.250000  0.424248  0.900524  1
  Er  Er9  1  0.250000  0.924248  0.599476  1
  Er  Er10  1  0.750000  0.575752  0.099476  1
  Er  Er11  1  0.750000  0.075752  0.400524  1
  Se  Se12  1  0.250000  0.216306  0.828792  1
  Se  Se13  1  0.250000  0.716306  0.671208  1
  Se  Se14  1  0.750000  0.783694  0.171208  1
  Se  Se15  1  0.750000  0.283694  0.328792  1
  Se  Se16  1  0.250000  0.125335  0.521883  1
  Se  Se17  1  0.250000  0.625335  0.978117  1
  Se  Se18  1  0.750000  0.874665  0.478117  1
  Se  Se19  1  0.750000  0.374665  0.021883  1
  Se  Se20  1  0.250000  0.522258  0.210798  1
  Se  Se21  1  0.250000  0.022258  0.289202  1
  Se  Se22  1  0.750000  0.477742  0.789202  1
  Se  Se23  1  0.750000  0.977742  0.710798  1
  Se  Se24  1  0.250000  0.415287  0.580688  1
  Se  Se25  1  0.250000  0.915287  0.919312  1
  Se  Se26  1  0.750000  0.584713  0.419312  1
  Se  Se27  1  0.750000  0.084713  0.080688  1
