# generated using pymatgen
data_DyY5Ho4(In2Pt)4
_symmetry_space_group_name_H-M   'P 1'
_cell_length_a   3.62414400
_cell_length_b   8.16856886
_cell_length_c   18.29143905
_cell_angle_alpha   89.94199989
_cell_angle_beta   90.00000000
_cell_angle_gamma   90.00000000
_symmetry_Int_Tables_number   1
_chemical_formula_structural   DyY5Ho4(In2Pt)4
_chemical_formula_sum   'Dy1 Y5 Ho4 In8 Pt4'
_cell_volume   541.50076095
_cell_formula_units_Z   1
loop_
 _symmetry_equiv_pos_site_id
 _symmetry_equiv_pos_as_xyz
  1  'x, y, z'
loop_
 _atom_site_type_symbol
 _atom_site_label
 _atom_site_symmetry_multiplicity
 _atom_site_fract_x
 _atom_site_fract_y
 _atom_site_fract_z
 _atom_site_occupancy
  Dy  Dy0  1  0.000000  0.743851  0.279165  1
  Y  Y1  1  0.000000  0.117202  0.415169  1
  Y  Y2  1  0.000000  0.882823  0.584771  1
  Y  Y3  1  0.000000  0.382888  0.915436  1
  Y  Y4  1  0.000000  0.999299  0.000195  1
  Y  Y5  1  0.000000  0.500110  0.499954  1
  Ho  Ho6  1  0.000000  0.616654  0.085624  1
  Ho  Ho7  1  0.000000  0.243676  0.220762  1
  Ho  Ho8  1  0.000000  0.756270  0.779083  1
  Ho  Ho9  1  0.000000  0.256290  0.720928  1
  In  In10  1  0.500000  0.424719  0.351205  1
  In  In11  1  0.500000  0.575216  0.648773  1
  In  In12  1  0.500000  0.075336  0.851286  1
  In  In13  1  0.500000  0.924577  0.148623  1
  In  In14  1  0.500000  0.292512  0.067235  1
  In  In15  1  0.500000  0.707636  0.932778  1
  In  In16  1  0.500000  0.207920  0.567459  1
  In  In17  1  0.500000  0.792172  0.432596  1
  Pt  Pt18  1  0.500000  0.024746  0.302541  1
  Pt  Pt19  1  0.500000  0.975969  0.697434  1
  Pt  Pt20  1  0.500000  0.475799  0.802647  1
  Pt  Pt21  1  0.500000  0.524331  0.196338  1
