# generated using pymatgen
data_Dy(ZrSe2)4
_symmetry_space_group_name_H-M   'P 1'
_cell_length_a   8.02407451
_cell_length_b   8.02407426
_cell_length_c   8.02407362
_cell_angle_alpha   56.33244293
_cell_angle_beta   56.33244553
_cell_angle_gamma   56.33244247
_symmetry_Int_Tables_number   1
_chemical_formula_structural   Dy(ZrSe2)4
_chemical_formula_sum   'Dy1 Zr4 Se8'
_cell_volume   334.32452800
_cell_formula_units_Z   1
loop_
 _symmetry_equiv_pos_site_id
 _symmetry_equiv_pos_as_xyz
  1  'x, y, z'
loop_
 _atom_site_type_symbol
 _atom_site_label
 _atom_site_symmetry_multiplicity
 _atom_site_fract_x
 _atom_site_fract_y
 _atom_site_fract_z
 _atom_site_occupancy
  Dy  Dy0  1  0.500000  0.500000  0.500000  1
  Zr  Zr1  1  0.000000  0.500000  0.500000  1
  Zr  Zr2  1  0.500000  0.000000  0.500000  1
  Zr  Zr3  1  0.500000  0.500000  0.000000  1
  Zr  Zr4  1  0.000000  0.000000  0.000000  1
  Se  Se5  1  0.242899  0.755189  0.755189  1
  Se  Se6  1  0.244811  0.244811  0.757101  1
  Se  Se7  1  0.757101  0.244811  0.244811  1
  Se  Se8  1  0.244811  0.757101  0.244811  1
  Se  Se9  1  0.254793  0.254793  0.254793  1
  Se  Se10  1  0.745207  0.745207  0.745207  1
  Se  Se11  1  0.755189  0.242899  0.755189  1
  Se  Se12  1  0.755189  0.755189  0.242899  1
