# generated using pymatgen
data_Ho20IrPd4Ru7
_symmetry_space_group_name_H-M   'P 1'
_cell_length_a   10.85495744
_cell_length_b   10.85495721
_cell_length_c   6.40677721
_cell_angle_alpha   89.91831624
_cell_angle_beta   89.91831321
_cell_angle_gamma   90.94280140
_symmetry_Int_Tables_number   1
_chemical_formula_structural   Ho20IrPd4Ru7
_chemical_formula_sum   'Ho20 Ir1 Pd4 Ru7'
_cell_volume   754.80742980
_cell_formula_units_Z   1
loop_
 _symmetry_equiv_pos_site_id
 _symmetry_equiv_pos_as_xyz
  1  'x, y, z'
loop_
 _atom_site_type_symbol
 _atom_site_label
 _atom_site_symmetry_multiplicity
 _atom_site_fract_x
 _atom_site_fract_y
 _atom_site_fract_z
 _atom_site_occupancy
  Ho  Ho0  1  0.296278  0.079114  0.368908  1
  Ho  Ho1  1  0.292511  0.908552  0.880580  1
  Ho  Ho2  1  0.707630  0.092359  0.880593  1
  Ho  Ho3  1  0.703943  0.920605  0.368232  1
  Ho  Ho4  1  0.579293  0.796822  0.869621  1
  Ho  Ho5  1  0.592290  0.206990  0.380197  1
  Ho  Ho6  1  0.408003  0.793194  0.380619  1
  Ho  Ho7  1  0.420775  0.204322  0.868409  1
  Ho  Ho8  1  0.203178  0.420707  0.630379  1
  Ho  Ho9  1  0.206806  0.591997  0.119381  1
  Ho  Ho10  1  0.793010  0.407710  0.119803  1
  Ho  Ho11  1  0.795678  0.579225  0.631591  1
  Ho  Ho12  1  0.920886  0.703722  0.131092  1
  Ho  Ho13  1  0.907641  0.292370  0.619407  1
  Ho  Ho14  1  0.091448  0.707489  0.619420  1
  Ho  Ho15  1  0.079395  0.296057  0.131768  1
  Ho  Ho16  1  0.000373  0.000113  0.496636  1
  Ho  Ho17  1  0.999887  0.999627  0.003364  1
  Ho  Ho18  1  0.501475  0.499954  0.997685  1
  Ho  Ho19  1  0.500046  0.498525  0.502315  1
  Ir  Ir20  1  0.350143  0.649857  0.750000  1
  Pd  Pd21  1  0.843713  0.843726  0.749924  1
  Pd  Pd22  1  0.156274  0.156287  0.750076  1
  Pd  Pd23  1  0.655565  0.656228  0.250604  1
  Pd  Pd24  1  0.343772  0.344435  0.249396  1
  Ru  Ru25  1  0.850764  0.149236  0.250000  1
  Ru  Ru26  1  0.150237  0.849763  0.250000  1
  Ru  Ru27  1  0.648695  0.351305  0.750000  1
  Ru  Ru28  1  0.500140  0.999834  0.122249  1
  Ru  Ru29  1  0.500219  0.000233  0.622913  1
  Ru  Ru30  1  0.999767  0.499781  0.877087  1
  Ru  Ru31  1  0.000166  0.499860  0.377751  1
