# generated using pymatgen
data_Rb8EuGd3F20
_symmetry_space_group_name_H-M   'P 1'
_cell_length_a   6.89493017
_cell_length_b   7.58973900
_cell_length_c   11.28308900
_cell_angle_alpha   90.00000000
_cell_angle_beta   89.87981467
_cell_angle_gamma   90.00000000
_symmetry_Int_Tables_number   1
_chemical_formula_structural   Rb8EuGd3F20
_chemical_formula_sum   'Rb8 Eu1 Gd3 F20'
_cell_volume   590.45087677
_cell_formula_units_Z   1
loop_
 _symmetry_equiv_pos_site_id
 _symmetry_equiv_pos_as_xyz
  1  'x, y, z'
loop_
 _atom_site_type_symbol
 _atom_site_label
 _atom_site_symmetry_multiplicity
 _atom_site_fract_x
 _atom_site_fract_y
 _atom_site_fract_z
 _atom_site_occupancy
  Rb  Rb0  1  0.963093  0.502980  0.670300  1
  Rb  Rb1  1  0.036707  0.001274  0.329829  1
  Rb  Rb2  1  0.536129  0.503321  0.170039  1
  Rb  Rb3  1  0.465771  0.002126  0.829757  1
  Rb  Rb4  1  0.963093  0.997020  0.670300  1
  Rb  Rb5  1  0.036707  0.498726  0.329829  1
  Rb  Rb6  1  0.536129  0.996679  0.170039  1
  Rb  Rb7  1  0.465771  0.497874  0.829757  1
  Eu  Eu8  1  0.942727  0.250000  0.998712  1
  Gd  Gd9  1  0.059342  0.750000  0.001854  1
  Gd  Gd10  1  0.559607  0.250000  0.497252  1
  Gd  Gd11  1  0.440338  0.750000  0.502678  1
  F  F12  1  0.855436  0.535739  0.925846  1
  F  F13  1  0.145093  0.030889  0.075166  1
  F  F14  1  0.645190  0.533965  0.427080  1
  F  F15  1  0.354899  0.033880  0.572911  1
  F  F16  1  0.855436  0.964261  0.925846  1
  F  F17  1  0.145093  0.469111  0.075166  1
  F  F18  1  0.645190  0.966035  0.427080  1
  F  F19  1  0.354899  0.466120  0.572911  1
  F  F20  1  0.627526  0.750000  0.664641  1
  F  F21  1  0.372877  0.250000  0.335016  1
  F  F22  1  0.871847  0.750000  0.164523  1
  F  F23  1  0.123792  0.250000  0.834939  1
  F  F24  1  0.116557  0.750000  0.514710  1
  F  F25  1  0.883293  0.250000  0.484779  1
  F  F26  1  0.383426  0.750000  0.014086  1
  F  F27  1  0.614119  0.250000  0.986462  1
  F  F28  1  0.156012  0.750000  0.811192  1
  F  F29  1  0.843868  0.250000  0.187432  1
  F  F30  1  0.346199  0.750000  0.312276  1
  F  F31  1  0.653837  0.250000  0.687589  1
