# generated using pymatgen
data_Tb3TmFeTc7
_symmetry_space_group_name_H-M   'P 1'
_cell_length_a   5.41106598
_cell_length_b   5.32005990
_cell_length_c   8.77437358
_cell_angle_alpha   89.99999797
_cell_angle_beta   89.94029718
_cell_angle_gamma   119.44521045
_symmetry_Int_Tables_number   1
_chemical_formula_structural   Tb3TmFeTc7
_chemical_formula_sum   'Tb3 Tm1 Fe1 Tc7'
_cell_volume   219.96148345
_cell_formula_units_Z   1
loop_
 _symmetry_equiv_pos_site_id
 _symmetry_equiv_pos_as_xyz
  1  'x, y, z'
loop_
 _atom_site_type_symbol
 _atom_site_label
 _atom_site_symmetry_multiplicity
 _atom_site_fract_x
 _atom_site_fract_y
 _atom_site_fract_z
 _atom_site_occupancy
  Tb  Tb0  1  0.669174  0.334587  0.562711  1
  Tb  Tb1  1  0.669319  0.334659  0.937179  1
  Tb  Tb2  1  0.333557  0.666779  0.061931  1
  Tm  Tm3  1  0.333022  0.666511  0.437668  1
  Fe  Fe4  1  0.655654  0.827827  0.748347  1
  Tc  Tc5  1  0.006904  0.003452  0.507155  1
  Tc  Tc6  1  0.005819  0.002910  0.993430  1
  Tc  Tc7  1  0.827819  0.167701  0.251405  1
  Tc  Tc8  1  0.827819  0.660117  0.251405  1
  Tc  Tc9  1  0.341016  0.170508  0.251396  1
  Tc  Tc10  1  0.164948  0.824773  0.748687  1
  Tc  Tc11  1  0.164948  0.340175  0.748687  1
