# generated using pymatgen
data_HfZrBiP
_symmetry_space_group_name_H-M   'P 1'
_cell_length_a   3.85143300
_cell_length_b   3.85143204
_cell_length_c   13.60290500
_cell_angle_alpha   90.00000000
_cell_angle_beta   90.00000000
_cell_angle_gamma   119.99999965
_symmetry_Int_Tables_number   1
_chemical_formula_structural   HfZrBiP
_chemical_formula_sum   'Hf2 Zr2 Bi2 P2'
_cell_volume   174.74585562
_cell_formula_units_Z   2
loop_
 _symmetry_equiv_pos_site_id
 _symmetry_equiv_pos_as_xyz
  1  'x, y, z'
loop_
 _atom_site_type_symbol
 _atom_site_label
 _atom_site_symmetry_multiplicity
 _atom_site_fract_x
 _atom_site_fract_y
 _atom_site_fract_z
 _atom_site_occupancy
  Hf  Hf0  1  0.666667  0.333333  0.596996  1
  Hf  Hf1  1  0.333333  0.666667  0.096996  1
  Zr  Zr2  1  0.666667  0.333333  0.902188  1
  Zr  Zr3  1  0.333333  0.666667  0.402188  1
  Bi  Bi4  1  0.333333  0.666667  0.748706  1
  Bi  Bi5  1  0.666667  0.333333  0.248706  1
  P  P6  1  0.000000  0.000000  0.002110  1
  P  P7  1  0.000000  0.000000  0.502110  1
