# generated using pymatgen
data_CaDy4Tl5
_symmetry_space_group_name_H-M   'P 1'
_cell_length_a   3.71876100
_cell_length_b   3.71876100
_cell_length_c   20.31654000
_cell_angle_alpha   90.00000000
_cell_angle_beta   90.00000000
_cell_angle_gamma   90.00000000
_symmetry_Int_Tables_number   1
_chemical_formula_structural   CaDy4Tl5
_chemical_formula_sum   'Ca1 Dy4 Tl5'
_cell_volume   280.96115721
_cell_formula_units_Z   1
loop_
 _symmetry_equiv_pos_site_id
 _symmetry_equiv_pos_as_xyz
  1  'x, y, z'
loop_
 _atom_site_type_symbol
 _atom_site_label
 _atom_site_symmetry_multiplicity
 _atom_site_fract_x
 _atom_site_fract_y
 _atom_site_fract_z
 _atom_site_occupancy
  Ca  Ca0  1  0.000000  0.000000  0.000000  1
  Dy  Dy1  1  0.000000  0.000000  0.203904  1
  Dy  Dy2  1  0.000000  0.000000  0.401821  1
  Dy  Dy3  1  0.000000  0.000000  0.598179  1
  Dy  Dy4  1  0.000000  0.000000  0.796096  1
  Tl  Tl5  1  0.500000  0.500000  0.104796  1
  Tl  Tl6  1  0.500000  0.500000  0.303346  1
  Tl  Tl7  1  0.500000  0.500000  0.500000  1
  Tl  Tl8  1  0.500000  0.500000  0.696654  1
  Tl  Tl9  1  0.500000  0.500000  0.895204  1
