# generated using pymatgen
data_Ba4SrTcN5
_symmetry_space_group_name_H-M   'P 1'
_cell_length_a   8.10638998
_cell_length_b   8.10638845
_cell_length_c   9.17123352
_cell_angle_alpha   76.37764320
_cell_angle_beta   76.37764684
_cell_angle_gamma   96.19923652
_symmetry_Int_Tables_number   1
_chemical_formula_structural   Ba4SrTcN5
_chemical_formula_sum   'Ba8 Sr2 Tc2 N10'
_cell_volume   560.65501306
_cell_formula_units_Z   2
loop_
 _symmetry_equiv_pos_site_id
 _symmetry_equiv_pos_as_xyz
  1  'x, y, z'
loop_
 _atom_site_type_symbol
 _atom_site_label
 _atom_site_symmetry_multiplicity
 _atom_site_fract_x
 _atom_site_fract_y
 _atom_site_fract_z
 _atom_site_occupancy
  Ba  Ba0  1  0.670393  0.670393  0.007655  1
  Ba  Ba1  1  0.329607  0.329607  0.992345  1
  Ba  Ba2  1  0.919254  0.919254  0.219077  1
  Ba  Ba3  1  0.080746  0.080746  0.780923  1
  Ba  Ba4  1  0.564476  0.093979  0.740323  1
  Ba  Ba5  1  0.906021  0.435524  0.259677  1
  Ba  Ba6  1  0.435524  0.906021  0.259677  1
  Ba  Ba7  1  0.093979  0.564476  0.740323  1
  Sr  Sr8  1  0.401348  0.401348  0.383043  1
  Sr  Sr9  1  0.598652  0.598652  0.616957  1
  Tc  Tc10  1  0.753607  0.246393  0.000000  1
  Tc  Tc11  1  0.246393  0.753607  0.000000  1
  N  N12  1  0.652635  0.652635  0.318743  1
  N  N13  1  0.347365  0.347365  0.681257  1
  N  N14  1  0.712385  0.019591  0.991911  1
  N  N15  1  0.980409  0.287615  0.008089  1
  N  N16  1  0.287615  0.980409  0.008089  1
  N  N17  1  0.019591  0.712385  0.991911  1
  N  N18  1  0.392345  0.723725  0.824837  1
  N  N19  1  0.276275  0.607655  0.175162  1
  N  N20  1  0.607655  0.276275  0.175162  1
  N  N21  1  0.723725  0.392345  0.824837  1
