# generated using pymatgen
data_SrPr2Hg(Ir2O7)2
_symmetry_space_group_name_H-M   'P 1'
_cell_length_a   7.32734409
_cell_length_b   7.32734488
_cell_length_c   7.30359368
_cell_angle_alpha   61.56467432
_cell_angle_beta   61.56466972
_cell_angle_gamma   61.84732078
_symmetry_Int_Tables_number   1
_chemical_formula_structural   SrPr2Hg(Ir2O7)2
_chemical_formula_sum   'Sr1 Pr2 Hg1 Ir4 O14'
_cell_volume   287.58682766
_cell_formula_units_Z   1
loop_
 _symmetry_equiv_pos_site_id
 _symmetry_equiv_pos_as_xyz
  1  'x, y, z'
loop_
 _atom_site_type_symbol
 _atom_site_label
 _atom_site_symmetry_multiplicity
 _atom_site_fract_x
 _atom_site_fract_y
 _atom_site_fract_z
 _atom_site_occupancy
  Sr  Sr0  1  0.125000  0.125000  0.625000  1
  Pr  Pr1  1  0.625000  0.125000  0.125000  1
  Pr  Pr2  1  0.125000  0.625000  0.125000  1
  Hg  Hg3  1  0.125000  0.125000  0.125000  1
  Ir  Ir4  1  0.625000  0.625000  0.625000  1
  Ir  Ir5  1  0.125000  0.625000  0.625000  1
  Ir  Ir6  1  0.625000  0.125000  0.625000  1
  Ir  Ir7  1  0.625000  0.625000  0.125000  1
  O  O8  1  0.951662  0.551636  0.540433  1
  O  O9  1  0.307726  0.307726  0.693197  1
  O  O10  1  0.944522  0.560226  0.946553  1
  O  O11  1  0.689774  0.305478  0.303447  1
  O  O12  1  0.542804  0.542804  0.955938  1
  O  O13  1  0.551636  0.951662  0.540433  1
  O  O14  1  0.560226  0.944522  0.946553  1
  O  O15  1  0.247438  0.247438  0.233179  1
  O  O16  1  0.298338  0.698364  0.709567  1
  O  O17  1  0.698364  0.298338  0.709567  1
  O  O18  1  0.002562  0.002562  0.016821  1
  O  O19  1  0.942274  0.942274  0.556803  1
  O  O20  1  0.305478  0.689774  0.303447  1
  O  O21  1  0.707196  0.707196  0.294062  1
