# generated using pymatgen
data_Cs3Pr(PS4)2
_symmetry_space_group_name_H-M   'P 1'
_cell_length_a   15.59911246
_cell_length_b   6.99888700
_cell_length_c   15.68962100
_cell_angle_alpha   90.00000000
_cell_angle_beta   99.27729625
_cell_angle_gamma   90.00000000
_symmetry_Int_Tables_number   1
_chemical_formula_structural   Cs3Pr(PS4)2
_chemical_formula_sum   'Cs12 Pr4 P8 S32'
_cell_volume   1690.53096764
_cell_formula_units_Z   4
loop_
 _symmetry_equiv_pos_site_id
 _symmetry_equiv_pos_as_xyz
  1  'x, y, z'
loop_
 _atom_site_type_symbol
 _atom_site_label
 _atom_site_symmetry_multiplicity
 _atom_site_fract_x
 _atom_site_fract_y
 _atom_site_fract_z
 _atom_site_occupancy
  Cs  Cs0  1  0.107847  0.745146  0.025435  1
  Cs  Cs1  1  0.548224  0.251925  0.110198  1
  Cs  Cs2  1  0.777067  0.758375  0.122142  1
  Cs  Cs3  1  0.722933  0.258375  0.377858  1
  Cs  Cs4  1  0.951775  0.751926  0.389803  1
  Cs  Cs5  1  0.392154  0.245147  0.474565  1
  Cs  Cs6  1  0.607847  0.754854  0.525434  1
  Cs  Cs7  1  0.048225  0.248075  0.610198  1
  Cs  Cs8  1  0.277068  0.741625  0.622142  1
  Cs  Cs9  1  0.222933  0.241626  0.877858  1
  Cs  Cs10  1  0.451776  0.748074  0.889803  1
  Cs  Cs11  1  0.892154  0.254854  0.974566  1
  Pr  Pr12  1  0.377353  0.731661  0.228789  1
  Pr  Pr13  1  0.122647  0.231661  0.271211  1
  Pr  Pr14  1  0.877353  0.768339  0.728789  1
  Pr  Pr15  1  0.622647  0.268338  0.771211  1
  P  P16  1  0.282907  0.273472  0.127954  1
  P  P17  1  0.916086  0.254865  0.223264  1
  P  P18  1  0.583913  0.754866  0.276736  1
  P  P19  1  0.217093  0.773473  0.372046  1
  P  P20  1  0.782908  0.226528  0.627954  1
  P  P21  1  0.416086  0.245134  0.723264  1
  P  P22  1  0.083913  0.745134  0.776736  1
  P  P23  1  0.717093  0.726527  0.872047  1
  S  S24  1  0.330827  0.504930  0.070044  1
  S  S25  1  0.150995  0.249578  0.091888  1
  S  S26  1  0.342494  0.031103  0.093347  1
  S  S27  1  0.551040  0.749849  0.144160  1
  S  S28  1  0.788339  0.261153  0.173718  1
  S  S29  1  0.975023  0.012936  0.182960  1
  S  S30  1  0.981447  0.488610  0.185735  1
  S  S31  1  0.195571  0.833164  0.241305  1
  S  S32  1  0.304429  0.333165  0.258695  1
  S  S33  1  0.518553  0.988610  0.314265  1
  S  S34  1  0.524977  0.512936  0.317039  1
  S  S35  1  0.711661  0.761152  0.326282  1
  S  S36  1  0.948960  0.249849  0.355840  1
  S  S37  1  0.157507  0.531103  0.406653  1
  S  S38  1  0.349005  0.749579  0.408113  1
  S  S39  1  0.169173  0.004931  0.429956  1
  S  S40  1  0.830827  0.995070  0.570044  1
  S  S41  1  0.650995  0.250422  0.591888  1
  S  S42  1  0.842494  0.468896  0.593347  1
  S  S43  1  0.051040  0.750151  0.644160  1
  S  S44  1  0.288339  0.238848  0.673718  1
  S  S45  1  0.475023  0.487065  0.682960  1
  S  S46  1  0.481446  0.011389  0.685735  1
  S  S47  1  0.695571  0.666836  0.741305  1
  S  S48  1  0.804430  0.166835  0.758695  1
  S  S49  1  0.018553  0.511390  0.814265  1
  S  S50  1  0.024977  0.987064  0.817039  1
  S  S51  1  0.211661  0.738848  0.826283  1
  S  S52  1  0.448959  0.250150  0.855840  1
  S  S53  1  0.657507  0.968897  0.906653  1
  S  S54  1  0.849005  0.750421  0.908112  1
  S  S55  1  0.669173  0.495069  0.929955  1
