# generated using pymatgen
data_LiTlSn4(AsO4)6
_symmetry_space_group_name_H-M   'P 1'
_cell_length_a   8.82302657
_cell_length_b   8.82302715
_cell_length_c   9.44406823
_cell_angle_alpha   62.15248673
_cell_angle_beta   62.15247796
_cell_angle_gamma   60.00000567
_symmetry_Int_Tables_number   1
_chemical_formula_structural   LiTlSn4(AsO4)6
_chemical_formula_sum   'Li1 Tl1 Sn4 As6 O24'
_cell_volume   536.12742118
_cell_formula_units_Z   1
loop_
 _symmetry_equiv_pos_site_id
 _symmetry_equiv_pos_as_xyz
  1  'x, y, z'
loop_
 _atom_site_type_symbol
 _atom_site_label
 _atom_site_symmetry_multiplicity
 _atom_site_fract_x
 _atom_site_fract_y
 _atom_site_fract_z
 _atom_site_occupancy
  Li  Li0  1  0.000000  0.000000  0.000000  1
  Tl  Tl1  1  0.500000  0.500000  0.500000  1
  Sn  Sn2  1  0.650519  0.650519  0.048445  1
  Sn  Sn3  1  0.143617  0.143617  0.569150  1
  Sn  Sn4  1  0.349481  0.349481  0.951555  1
  Sn  Sn5  1  0.856383  0.856383  0.430850  1
  As  As6  1  0.459800  0.031621  0.753940  1
  As  As7  1  0.031621  0.754639  0.753940  1
  As  As8  1  0.754639  0.459800  0.753940  1
  As  As9  1  0.968379  0.245361  0.246060  1
  As  As10  1  0.245361  0.540200  0.246060  1
  As  As11  1  0.540200  0.968379  0.246060  1
  O  O12  1  0.476427  0.820417  0.902942  1
  O  O13  1  0.820417  0.800213  0.902942  1
  O  O14  1  0.800213  0.476427  0.902942  1
  O  O15  1  0.976200  0.201306  0.440206  1
  O  O16  1  0.201306  0.382286  0.440206  1
  O  O17  1  0.382286  0.976200  0.440206  1
  O  O18  1  0.523573  0.179583  0.097058  1
  O  O19  1  0.179583  0.199787  0.097058  1
  O  O20  1  0.199787  0.523573  0.097058  1
  O  O21  1  0.023800  0.798694  0.559794  1
  O  O22  1  0.798694  0.617714  0.559794  1
  O  O23  1  0.617714  0.023800  0.559794  1
  O  O24  1  0.509386  0.816494  0.204745  1
  O  O25  1  0.816494  0.469375  0.204745  1
  O  O26  1  0.469375  0.509386  0.204745  1
  O  O27  1  0.118229  0.894957  0.747455  1
  O  O28  1  0.894957  0.239357  0.747455  1
  O  O29  1  0.239357  0.118229  0.747455  1
  O  O30  1  0.490614  0.183506  0.795255  1
  O  O31  1  0.183506  0.530625  0.795255  1
  O  O32  1  0.530625  0.490614  0.795255  1
  O  O33  1  0.881771  0.105043  0.252545  1
  O  O34  1  0.105043  0.760643  0.252545  1
  O  O35  1  0.760643  0.881771  0.252545  1
