# generated using pymatgen
data_Dy6Al19Co2Si5Os6
_symmetry_space_group_name_H-M   'P 1'
_cell_length_a   8.67352100
_cell_length_b   8.66128191
_cell_length_c   9.48955800
_cell_angle_alpha   90.00000000
_cell_angle_beta   90.00000000
_cell_angle_gamma   120.04675154
_symmetry_Int_Tables_number   1
_chemical_formula_structural   Dy6Al19Co2Si5Os6
_chemical_formula_sum   'Dy6 Al19 Co2 Si5 Os6'
_cell_volume   617.09131780
_cell_formula_units_Z   1
loop_
 _symmetry_equiv_pos_site_id
 _symmetry_equiv_pos_as_xyz
  1  'x, y, z'
loop_
 _atom_site_type_symbol
 _atom_site_label
 _atom_site_symmetry_multiplicity
 _atom_site_fract_x
 _atom_site_fract_y
 _atom_site_fract_z
 _atom_site_occupancy
  Dy  Dy0  1  0.195924  0.391849  0.250000  1
  Dy  Dy1  1  0.804857  0.609714  0.750000  1
  Dy  Dy2  1  0.606477  0.804951  0.250000  1
  Dy  Dy3  1  0.391477  0.195822  0.750000  1
  Dy  Dy4  1  0.198473  0.804951  0.250000  1
  Dy  Dy5  1  0.804345  0.195822  0.750000  1
  Al  Al6  1  0.160922  0.321845  0.577636  1
  Al  Al7  1  0.838837  0.677671  0.422113  1
  Al  Al8  1  0.677756  0.839043  0.576419  1
  Al  Al9  1  0.838837  0.677671  0.077887  1
  Al  Al10  1  0.321457  0.161784  0.422459  1
  Al  Al11  1  0.160922  0.321845  0.922364  1
  Al  Al12  1  0.161284  0.839043  0.576419  1
  Al  Al13  1  0.321457  0.161784  0.077541  1
  Al  Al14  1  0.840329  0.161784  0.422459  1
  Al  Al15  1  0.677756  0.839043  0.923581  1
  Al  Al16  1  0.840329  0.161784  0.077541  1
  Al  Al17  1  0.161284  0.839043  0.923581  1
  Al  Al18  1  0.436968  0.873936  0.750000  1
  Al  Al19  1  0.872079  0.432416  0.250000  1
  Al  Al20  1  0.127645  0.564227  0.750000  1
  Al  Al21  1  0.560337  0.432416  0.250000  1
  Al  Al22  1  0.436582  0.564227  0.750000  1
  Al  Al23  1  0.999801  0.999601  0.250000  1
  Al  Al24  1  0.000240  0.000481  0.750000  1
  Co  Co25  1  0.999905  0.999810  0.999697  1
  Co  Co26  1  0.999905  0.999810  0.500303  1
  Si  Si27  1  0.332762  0.665525  0.033184  1
  Si  Si28  1  0.667406  0.334811  0.964629  1
  Si  Si29  1  0.667406  0.334811  0.535371  1
  Si  Si30  1  0.332762  0.665525  0.466816  1
  Si  Si31  1  0.563425  0.126850  0.250000  1
  Os  Os32  1  0.500846  0.001691  0.005855  1
  Os  Os33  1  0.999022  0.499182  0.000509  1
  Os  Os34  1  0.500846  0.001691  0.494145  1
  Os  Os35  1  0.500160  0.499182  0.000509  1
  Os  Os36  1  0.999022  0.499182  0.499491  1
  Os  Os37  1  0.500160  0.499182  0.499491  1
