# generated using pymatgen
data_Y4NiOs5Ru2
_symmetry_space_group_name_H-M   'P 1'
_cell_length_a   5.21776600
_cell_length_b   5.28017618
_cell_length_c   8.94174800
_cell_angle_alpha   90.00000000
_cell_angle_beta   90.00000000
_cell_angle_gamma   119.60978364
_symmetry_Int_Tables_number   1
_chemical_formula_structural   Y4NiOs5Ru2
_chemical_formula_sum   'Y4 Ni1 Os5 Ru2'
_cell_volume   214.18071097
_cell_formula_units_Z   1
loop_
 _symmetry_equiv_pos_site_id
 _symmetry_equiv_pos_as_xyz
  1  'x, y, z'
loop_
 _atom_site_type_symbol
 _atom_site_label
 _atom_site_symmetry_multiplicity
 _atom_site_fract_x
 _atom_site_fract_y
 _atom_site_fract_z
 _atom_site_occupancy
  Y  Y0  1  0.331369  0.662739  0.437092  1
  Y  Y1  1  0.666296  0.332592  0.567177  1
  Y  Y2  1  0.666296  0.332592  0.932823  1
  Y  Y3  1  0.331369  0.662739  0.062908  1
  Ni  Ni4  1  0.168322  0.336643  0.750000  1
  Os  Os5  1  0.177846  0.837598  0.750000  1
  Os  Os6  1  0.345540  0.174205  0.250000  1
  Os  Os7  1  0.834608  0.669217  0.250000  1
  Os  Os8  1  0.659752  0.837598  0.750000  1
  Os  Os9  1  0.828665  0.174205  0.250000  1
  Ru  Ru10  1  0.994969  0.989938  0.997157  1
  Ru  Ru11  1  0.994969  0.989938  0.502843  1
