# generated using pymatgen
data_Sr10Cd2IrAu3
_symmetry_space_group_name_H-M   'P 1'
_cell_length_a   9.95250752
_cell_length_b   9.95250550
_cell_length_c   9.97867600
_cell_angle_alpha   129.13418837
_cell_angle_beta   129.13417891
_cell_angle_gamma   74.59758972
_symmetry_Int_Tables_number   1
_chemical_formula_structural   Sr10Cd2IrAu3
_chemical_formula_sum   'Sr10 Cd2 Ir1 Au3'
_cell_volume   580.03830028
_cell_formula_units_Z   1
loop_
 _symmetry_equiv_pos_site_id
 _symmetry_equiv_pos_as_xyz
  1  'x, y, z'
loop_
 _atom_site_type_symbol
 _atom_site_label
 _atom_site_symmetry_multiplicity
 _atom_site_fract_x
 _atom_site_fract_y
 _atom_site_fract_z
 _atom_site_occupancy
  Sr  Sr0  1  0.533789  0.021962  0.822554  1
  Sr  Sr1  1  0.211236  0.699407  0.177446  1
  Sr  Sr2  1  0.031314  0.199090  0.500000  1
  Sr  Sr3  1  0.689573  0.547528  0.500000  1
  Sr  Sr4  1  0.478038  0.966211  0.177446  1
  Sr  Sr5  1  0.800593  0.288764  0.822554  1
  Sr  Sr6  1  0.952472  0.810427  0.500000  1
  Sr  Sr7  1  0.300910  0.468686  0.500000  1
  Sr  Sr8  1  0.504031  0.506715  0.010747  1
  Sr  Sr9  1  0.993285  0.995969  0.989253  1
  Cd  Cd10  1  0.252460  0.247540  0.000000  1
  Cd  Cd11  1  0.752460  0.747540  0.000000  1
  Ir  Ir12  1  0.625055  0.874945  0.500000  1
  Au  Au13  1  0.375059  0.124941  0.500000  1
  Au  Au14  1  0.127584  0.627859  0.755443  1
  Au  Au15  1  0.872141  0.372416  0.244557  1
