# generated using pymatgen
data_Tb8Sc12Ga13Ge3
_symmetry_space_group_name_H-M   'P 1'
_cell_length_a   7.27425921
_cell_length_b   7.53216546
_cell_length_c   14.47945300
_cell_angle_alpha   90.00000000
_cell_angle_beta   90.00000000
_cell_angle_gamma   90.09031163
_symmetry_Int_Tables_number   1
_chemical_formula_structural   Tb8Sc12Ga13Ge3
_chemical_formula_sum   'Tb8 Sc12 Ga13 Ge3'
_cell_volume   793.34162305
_cell_formula_units_Z   1
loop_
 _symmetry_equiv_pos_site_id
 _symmetry_equiv_pos_as_xyz
  1  'x, y, z'
loop_
 _atom_site_type_symbol
 _atom_site_label
 _atom_site_symmetry_multiplicity
 _atom_site_fract_x
 _atom_site_fract_y
 _atom_site_fract_z
 _atom_site_occupancy
  Tb  Tb0  1  0.012219  0.177742  0.096083  1
  Tb  Tb1  1  0.988524  0.822148  0.904969  1
  Tb  Tb2  1  0.488412  0.676982  0.904900  1
  Tb  Tb3  1  0.988524  0.822148  0.595031  1
  Tb  Tb4  1  0.511898  0.321683  0.095647  1
  Tb  Tb5  1  0.012219  0.177742  0.403917  1
  Tb  Tb6  1  0.511898  0.321683  0.404353  1
  Tb  Tb7  1  0.488412  0.676982  0.595100  1
  Sc  Sc8  1  0.162562  0.502640  0.750000  1
  Sc  Sc9  1  0.836881  0.496488  0.250000  1
  Sc  Sc10  1  0.337446  0.003831  0.250000  1
  Sc  Sc11  1  0.663915  0.996137  0.750000  1
  Sc  Sc12  1  0.330834  0.174001  0.622612  1
  Sc  Sc13  1  0.669764  0.826824  0.377912  1
  Sc  Sc14  1  0.169908  0.673005  0.377393  1
  Sc  Sc15  1  0.669764  0.826824  0.122088  1
  Sc  Sc16  1  0.828976  0.327255  0.622802  1
  Sc  Sc17  1  0.330834  0.174001  0.877388  1
  Sc  Sc18  1  0.828976  0.327255  0.877198  1
  Sc  Sc19  1  0.169908  0.673005  0.122607  1
  Ga  Ga20  1  0.032881  0.119497  0.750000  1
  Ga  Ga21  1  0.969194  0.883953  0.250000  1
  Ga  Ga22  1  0.469354  0.616479  0.250000  1
  Ga  Ga23  1  0.530880  0.383526  0.750000  1
  Ga  Ga24  1  0.284834  0.873229  0.750000  1
  Ga  Ga25  1  0.158881  0.464192  0.540563  1
  Ga  Ga26  1  0.840293  0.534874  0.458158  1
  Ga  Ga27  1  0.340053  0.964330  0.458337  1
  Ga  Ga28  1  0.840293  0.534874  0.041842  1
  Ga  Ga29  1  0.660249  0.035714  0.540794  1
  Ga  Ga30  1  0.158881  0.464192  0.959437  1
  Ga  Ga31  1  0.660249  0.035714  0.959206  1
  Ga  Ga32  1  0.340053  0.964330  0.041663  1
  Ge  Ge33  1  0.712772  0.126589  0.250000  1
  Ge  Ge34  1  0.212761  0.373132  0.250000  1
  Ge  Ge35  1  0.786504  0.627003  0.750000  1
