# generated using pymatgen
data_Dy4Y3Er13Sn16
_symmetry_space_group_name_H-M   'P 1'
_cell_length_a   8.00077001
_cell_length_b   8.13305129
_cell_length_c   15.37530902
_cell_angle_alpha   90.01608530
_cell_angle_beta   90.09537654
_cell_angle_gamma   89.95200916
_symmetry_Int_Tables_number   1
_chemical_formula_structural   Dy4Y3Er13Sn16
_chemical_formula_sum   'Dy4 Y3 Er13 Sn16'
_cell_volume   1000.47992591
_cell_formula_units_Z   1
loop_
 _symmetry_equiv_pos_site_id
 _symmetry_equiv_pos_as_xyz
  1  'x, y, z'
loop_
 _atom_site_type_symbol
 _atom_site_label
 _atom_site_symmetry_multiplicity
 _atom_site_fract_x
 _atom_site_fract_y
 _atom_site_fract_z
 _atom_site_occupancy
  Dy  Dy0  1  0.479364  0.678849  0.096837  1
  Dy  Dy1  1  0.979742  0.820836  0.403353  1
  Dy  Dy2  1  0.520054  0.321162  0.596889  1
  Dy  Dy3  1  0.020636  0.179325  0.902916  1
  Y  Y4  1  0.020448  0.179251  0.597239  1
  Y  Y5  1  0.479699  0.679016  0.403294  1
  Y  Y6  1  0.979303  0.820799  0.096877  1
  Er  Er7  1  0.367132  0.837424  0.877164  1
  Er  Er8  1  0.866419  0.662730  0.622903  1
  Er  Er9  1  0.633115  0.162647  0.377320  1
  Er  Er10  1  0.132700  0.337562  0.122413  1
  Er  Er11  1  0.632591  0.162505  0.122506  1
  Er  Er12  1  0.133266  0.337297  0.377349  1
  Er  Er13  1  0.366815  0.837571  0.623061  1
  Er  Er14  1  0.867353  0.662585  0.877223  1
  Er  Er15  1  0.521630  0.321304  0.902577  1
  Er  Er16  1  0.198310  0.503545  0.750170  1
  Er  Er17  1  0.698143  0.996468  0.750155  1
  Er  Er18  1  0.801741  0.495975  0.249897  1
  Er  Er19  1  0.301870  0.003705  0.250061  1
  Sn  Sn20  1  0.293825  0.037640  0.041481  1
  Sn  Sn21  1  0.794416  0.461990  0.458550  1
  Sn  Sn22  1  0.705545  0.962236  0.541588  1
  Sn  Sn23  1  0.207243  0.536819  0.958046  1
  Sn  Sn24  1  0.705730  0.962676  0.958313  1
  Sn  Sn25  1  0.205127  0.538435  0.541574  1
  Sn  Sn26  1  0.294316  0.037935  0.458642  1
  Sn  Sn27  1  0.793188  0.461714  0.041060  1
  Sn  Sn28  1  0.564225  0.619228  0.750144  1
  Sn  Sn29  1  0.064207  0.880360  0.749972  1
  Sn  Sn30  1  0.435579  0.380394  0.249768  1
  Sn  Sn31  1  0.935696  0.119651  0.249827  1
  Sn  Sn32  1  0.331037  0.148839  0.750466  1
  Sn  Sn33  1  0.829927  0.351768  0.750116  1
  Sn  Sn34  1  0.669876  0.851342  0.250083  1
  Sn  Sn35  1  0.169731  0.648414  0.250164  1
