# generated using pymatgen
data_Ca5Yb5Bi5Pb
_symmetry_space_group_name_H-M   'P 1'
_cell_length_a   9.29657756
_cell_length_b   9.30029784
_cell_length_c   7.06994600
_cell_angle_alpha   90.00000000
_cell_angle_beta   90.00000000
_cell_angle_gamma   120.03450270
_symmetry_Int_Tables_number   1
_chemical_formula_structural   Ca5Yb5Bi5Pb
_chemical_formula_sum   'Ca5 Yb5 Bi5 Pb1'
_cell_volume   529.19482064
_cell_formula_units_Z   1
loop_
 _symmetry_equiv_pos_site_id
 _symmetry_equiv_pos_as_xyz
  1  'x, y, z'
loop_
 _atom_site_type_symbol
 _atom_site_label
 _atom_site_symmetry_multiplicity
 _atom_site_fract_x
 _atom_site_fract_y
 _atom_site_fract_z
 _atom_site_occupancy
  Ca  Ca0  1  0.739496  0.739745  0.250000  1
  Ca  Ca1  1  0.260464  0.000344  0.250000  1
  Ca  Ca2  1  0.000168  0.258877  0.250000  1
  Ca  Ca3  1  0.738963  0.004938  0.750000  1
  Ca  Ca4  1  0.000054  0.733127  0.750000  1
  Yb  Yb5  1  0.670450  0.333544  0.502042  1
  Yb  Yb6  1  0.329479  0.662669  0.502110  1
  Yb  Yb7  1  0.329479  0.662669  0.997890  1
  Yb  Yb8  1  0.670450  0.333544  0.997958  1
  Yb  Yb9  1  0.261667  0.267979  0.750000  1
  Bi  Bi10  1  0.387857  0.385375  0.250000  1
  Bi  Bi11  1  0.611729  0.997525  0.250000  1
  Bi  Bi12  1  0.999936  0.614710  0.250000  1
  Bi  Bi13  1  0.618389  0.619649  0.750000  1
  Bi  Bi14  1  0.381078  0.001262  0.750000  1
  Pb  Pb15  1  0.000340  0.384043  0.750000  1
