# generated using pymatgen
data_Al4Fe7Si4Ni
_symmetry_space_group_name_H-M   'P 1'
_cell_length_a   5.62330340
_cell_length_b   5.62330340
_cell_length_c   5.62330340
_cell_angle_alpha   89.88762157
_cell_angle_beta   89.88762157
_cell_angle_gamma   89.88762157
_symmetry_Int_Tables_number   1
_chemical_formula_structural   Al4Fe7Si4Ni
_chemical_formula_sum   'Al4 Fe7 Si4 Ni1'
_cell_volume   177.81649526
_cell_formula_units_Z   1
loop_
 _symmetry_equiv_pos_site_id
 _symmetry_equiv_pos_as_xyz
  1  'x, y, z'
loop_
 _atom_site_type_symbol
 _atom_site_label
 _atom_site_symmetry_multiplicity
 _atom_site_fract_x
 _atom_site_fract_y
 _atom_site_fract_z
 _atom_site_occupancy
  Al  Al0  1  0.502399  0.502399  0.998613  1
  Al  Al1  1  0.502399  0.998613  0.502399  1
  Al  Al2  1  0.998613  0.502399  0.502399  1
  Al  Al3  1  0.502804  0.502804  0.502804  1
  Fe  Fe4  1  0.762506  0.241780  0.241780  1
  Fe  Fe5  1  0.241780  0.762506  0.241780  1
  Fe  Fe6  1  0.757525  0.757525  0.242785  1
  Fe  Fe7  1  0.241780  0.241780  0.762506  1
  Fe  Fe8  1  0.757525  0.242785  0.757525  1
  Fe  Fe9  1  0.242785  0.757525  0.757525  1
  Fe  Fe10  1  0.755944  0.755944  0.755944  1
  Si  Si11  1  0.994508  0.994508  0.994508  1
  Si  Si12  1  0.506436  0.994169  0.994169  1
  Si  Si13  1  0.994169  0.506436  0.994169  1
  Si  Si14  1  0.994169  0.994169  0.506436  1
  Ni  Ni15  1  0.244665  0.244665  0.244665  1
