# generated using pymatgen
data_Ta(Nb5Pt2)2
_symmetry_space_group_name_H-M   'P 1'
_cell_length_a   10.05394100
_cell_length_b   10.05394100
_cell_length_c   5.23080000
_cell_angle_alpha   90.00000000
_cell_angle_beta   90.00000000
_cell_angle_gamma   90.00000000
_symmetry_Int_Tables_number   1
_chemical_formula_structural   Ta(Nb5Pt2)2
_chemical_formula_sum   'Ta2 Nb20 Pt8'
_cell_volume   528.73831136
_cell_formula_units_Z   2
loop_
 _symmetry_equiv_pos_site_id
 _symmetry_equiv_pos_as_xyz
  1  'x, y, z'
loop_
 _atom_site_type_symbol
 _atom_site_label
 _atom_site_symmetry_multiplicity
 _atom_site_fract_x
 _atom_site_fract_y
 _atom_site_fract_z
 _atom_site_occupancy
  Ta  Ta0  1  0.000000  0.000000  0.000000  1
  Ta  Ta1  1  0.500000  0.500000  0.500000  1
  Nb  Nb2  1  0.397221  0.397221  0.000000  1
  Nb  Nb3  1  0.897221  0.102779  0.500000  1
  Nb  Nb4  1  0.102779  0.897221  0.500000  1
  Nb  Nb5  1  0.602779  0.602779  0.000000  1
  Nb  Nb6  1  0.125811  0.460734  0.000000  1
  Nb  Nb7  1  0.960734  0.374189  0.500000  1
  Nb  Nb8  1  0.039266  0.625811  0.500000  1
  Nb  Nb9  1  0.874189  0.539266  0.000000  1
  Nb  Nb10  1  0.374189  0.960734  0.500000  1
  Nb  Nb11  1  0.625811  0.039266  0.500000  1
  Nb  Nb12  1  0.460734  0.125811  0.000000  1
  Nb  Nb13  1  0.539266  0.874189  0.000000  1
  Nb  Nb14  1  0.183922  0.183922  0.252781  1
  Nb  Nb15  1  0.683922  0.316078  0.752781  1
  Nb  Nb16  1  0.316078  0.683922  0.752781  1
  Nb  Nb17  1  0.816078  0.816078  0.252781  1
  Nb  Nb18  1  0.316078  0.683922  0.247219  1
  Nb  Nb19  1  0.683922  0.316078  0.247219  1
  Nb  Nb20  1  0.183922  0.183922  0.747219  1
  Nb  Nb21  1  0.816078  0.816078  0.747219  1
  Pt  Pt22  1  0.261923  0.933144  0.000000  1
  Pt  Pt23  1  0.433144  0.238077  0.500000  1
  Pt  Pt24  1  0.566856  0.761923  0.500000  1
  Pt  Pt25  1  0.738077  0.066856  0.000000  1
  Pt  Pt26  1  0.238077  0.433144  0.500000  1
  Pt  Pt27  1  0.761923  0.566856  0.500000  1
  Pt  Pt28  1  0.933144  0.261923  0.000000  1
  Pt  Pt29  1  0.066856  0.738077  0.000000  1
