# generated using pymatgen
data_Nd3Lu2P12Ru9Rh10
_symmetry_space_group_name_H-M   'P 1'
_cell_length_a   12.66371400
_cell_length_b   12.66371361
_cell_length_c   3.95946600
_cell_angle_alpha   90.00000000
_cell_angle_beta   90.00000000
_cell_angle_gamma   120.00000625
_symmetry_Int_Tables_number   1
_chemical_formula_structural   Nd3Lu2P12Ru9Rh10
_chemical_formula_sum   'Nd3 Lu2 P12 Ru9 Rh10'
_cell_volume   549.90718793
_cell_formula_units_Z   1
loop_
 _symmetry_equiv_pos_site_id
 _symmetry_equiv_pos_as_xyz
  1  'x, y, z'
loop_
 _atom_site_type_symbol
 _atom_site_label
 _atom_site_symmetry_multiplicity
 _atom_site_fract_x
 _atom_site_fract_y
 _atom_site_fract_z
 _atom_site_occupancy
  Nd  Nd0  1  0.000000  0.186339  0.500000  1
  Nd  Nd1  1  0.813661  0.813661  0.500000  1
  Nd  Nd2  1  0.186339  0.000000  0.500000  1
  Lu  Lu3  1  0.666667  0.333333  0.000000  1
  Lu  Lu4  1  0.333333  0.666667  0.000000  1
  P  P5  1  0.000000  0.814192  0.000000  1
  P  P6  1  0.185808  0.185808  0.000000  1
  P  P7  1  0.814192  0.000000  0.000000  1
  P  P8  1  0.689829  0.174816  0.500000  1
  P  P9  1  0.825184  0.515013  0.500000  1
  P  P10  1  0.484987  0.310171  0.500000  1
  P  P11  1  0.174816  0.689829  0.500000  1
  P  P12  1  0.515013  0.825184  0.500000  1
  P  P13  1  0.310171  0.484987  0.500000  1
  P  P14  1  0.000000  0.371848  0.000000  1
  P  P15  1  0.628152  0.628152  0.000000  1
  P  P16  1  0.371848  0.000000  0.000000  1
  Ru  Ru17  1  0.000000  0.711114  0.500000  1
  Ru  Ru18  1  0.288886  0.288886  0.500000  1
  Ru  Ru19  1  0.711114  0.000000  0.500000  1
  Ru  Ru20  1  0.872418  0.362983  0.500000  1
  Ru  Ru21  1  0.637017  0.509436  0.500000  1
  Ru  Ru22  1  0.490564  0.127582  0.500000  1
  Ru  Ru23  1  0.362983  0.872418  0.500000  1
  Ru  Ru24  1  0.509436  0.637017  0.500000  1
  Ru  Ru25  1  0.127582  0.490564  0.500000  1
  Rh  Rh26  1  0.000000  0.550789  0.000000  1
  Rh  Rh27  1  0.449211  0.449211  0.000000  1
  Rh  Rh28  1  0.550789  0.000000  0.000000  1
  Rh  Rh29  1  0.803722  0.183143  0.000000  1
  Rh  Rh30  1  0.816857  0.620580  0.000000  1
  Rh  Rh31  1  0.379420  0.196278  0.000000  1
  Rh  Rh32  1  0.183143  0.803722  0.000000  1
  Rh  Rh33  1  0.620580  0.816857  0.000000  1
  Rh  Rh34  1  0.196278  0.379420  0.000000  1
  Rh  Rh35  1  0.000000  0.000000  0.000000  1
