# generated using pymatgen
data_Tb3Dy3Mg2(Co4P3)4
_symmetry_space_group_name_H-M   'P 1'
_cell_length_a   3.73495200
_cell_length_b   10.63242700
_cell_length_c   12.28870800
_cell_angle_alpha   89.99819017
_cell_angle_beta   90.00000000
_cell_angle_gamma   90.00000000
_symmetry_Int_Tables_number   1
_chemical_formula_structural   Tb3Dy3Mg2(Co4P3)4
_chemical_formula_sum   'Tb3 Dy3 Mg2 Co16 P12'
_cell_volume   488.00431165
_cell_formula_units_Z   1
loop_
 _symmetry_equiv_pos_site_id
 _symmetry_equiv_pos_as_xyz
  1  'x, y, z'
loop_
 _atom_site_type_symbol
 _atom_site_label
 _atom_site_symmetry_multiplicity
 _atom_site_fract_x
 _atom_site_fract_y
 _atom_site_fract_z
 _atom_site_occupancy
  Tb  Tb0  1  0.000000  0.500023  0.525955  1
  Tb  Tb1  1  0.500000  0.000031  0.474004  1
  Tb  Tb2  1  0.000000  0.322274  0.793581  1
  Dy  Dy3  1  0.500000  0.822276  0.206358  1
  Dy  Dy4  1  0.500000  0.177704  0.206364  1
  Dy  Dy5  1  0.000000  0.677828  0.793672  1
  Mg  Mg6  1  0.500000  0.500015  0.156305  1
  Mg  Mg7  1  0.000000  0.999923  0.843689  1
  Co  Co8  1  0.500000  0.500398  0.705711  1
  Co  Co9  1  0.000000  0.999959  0.294154  1
  Co  Co10  1  0.000000  0.500160  0.989050  1
  Co  Co11  1  0.500000  0.999866  0.011166  1
  Co  Co12  1  0.500000  0.332496  0.997044  1
  Co  Co13  1  0.500000  0.667635  0.996933  1
  Co  Co14  1  0.000000  0.167370  0.003282  1
  Co  Co15  1  0.000000  0.832483  0.003141  1
  Co  Co16  1  0.500000  0.296415  0.431820  1
  Co  Co17  1  0.500000  0.703599  0.431926  1
  Co  Co18  1  0.000000  0.203475  0.567893  1
  Co  Co19  1  0.000000  0.796439  0.568068  1
  Co  Co20  1  0.500000  0.877823  0.705622  1
  Co  Co21  1  0.500000  0.121838  0.705408  1
  Co  Co22  1  0.000000  0.622153  0.294372  1
  Co  Co23  1  0.000000  0.377855  0.294395  1
  P  P24  1  0.500000  0.500344  0.885842  1
  P  P25  1  0.000000  0.999942  0.114379  1
  P  P26  1  0.500000  0.500005  0.354902  1
  P  P27  1  0.000000  0.000030  0.645093  1
  P  P28  1  0.500000  0.308937  0.615033  1
  P  P29  1  0.500000  0.691001  0.615416  1
  P  P30  1  0.000000  0.190914  0.384513  1
  P  P31  1  0.000000  0.809062  0.384571  1
  P  P32  1  0.500000  0.838877  0.892944  1
  P  P33  1  0.500000  0.160800  0.893291  1
  P  P34  1  0.000000  0.661166  0.107081  1
  P  P35  1  0.000000  0.338883  0.107024  1
