# generated using pymatgen
data_Ac5SnRuO12
_symmetry_space_group_name_H-M   'P 1'
_cell_length_a   7.35988476
_cell_length_b   7.35988541
_cell_length_c   7.87632500
_cell_angle_alpha   74.44907230
_cell_angle_beta   74.44907091
_cell_angle_gamma   50.91450479
_symmetry_Int_Tables_number   1
_chemical_formula_structural   Ac5SnRuO12
_chemical_formula_sum   'Ac5 Sn1 Ru1 O12'
_cell_volume   316.22854509
_cell_formula_units_Z   1
loop_
 _symmetry_equiv_pos_site_id
 _symmetry_equiv_pos_as_xyz
  1  'x, y, z'
loop_
 _atom_site_type_symbol
 _atom_site_label
 _atom_site_symmetry_multiplicity
 _atom_site_fract_x
 _atom_site_fract_y
 _atom_site_fract_z
 _atom_site_occupancy
  Ac  Ac0  1  0.303348  0.312602  0.357711  1
  Ac  Ac1  1  0.687398  0.696652  0.642289  1
  Ac  Ac2  1  0.690416  0.697975  0.165099  1
  Ac  Ac3  1  0.302025  0.309584  0.834901  1
  Ac  Ac4  1  0.003820  0.996180  0.500000  1
  Sn  Sn5  1  0.765755  0.234245  0.000000  1
  Ru  Ru6  1  0.249088  0.750912  0.000000  1
  O  O7  1  0.090660  0.598510  0.578847  1
  O  O8  1  0.018166  0.979097  0.174021  1
  O  O9  1  0.401490  0.909340  0.421153  1
  O  O10  1  0.489652  0.512387  0.170174  1
  O  O11  1  0.103007  0.587258  0.076389  1
  O  O12  1  0.902939  0.403796  0.421862  1
  O  O13  1  0.020903  0.981834  0.825979  1
  O  O14  1  0.596204  0.097060  0.578138  1
  O  O15  1  0.487613  0.510348  0.829826  1
  O  O16  1  0.578788  0.104013  0.077599  1
  O  O17  1  0.412742  0.896993  0.923611  1
  O  O18  1  0.895987  0.421212  0.922401  1
