# generated using pymatgen
data_Pr3NdTh2Cr2(Co4P3)4
_symmetry_space_group_name_H-M   'P 1'
_cell_length_a   3.79014300
_cell_length_b   10.65930903
_cell_length_c   12.38524100
_cell_angle_alpha   89.99545259
_cell_angle_beta   90.00000000
_cell_angle_gamma   90.00000000
_symmetry_Int_Tables_number   1
_chemical_formula_structural   Pr3NdTh2Cr2(Co4P3)4
_chemical_formula_sum   'Pr3 Nd1 Th2 Cr2 Co16 P12'
_cell_volume   500.36751874
_cell_formula_units_Z   1
loop_
 _symmetry_equiv_pos_site_id
 _symmetry_equiv_pos_as_xyz
  1  'x, y, z'
loop_
 _atom_site_type_symbol
 _atom_site_label
 _atom_site_symmetry_multiplicity
 _atom_site_fract_x
 _atom_site_fract_y
 _atom_site_fract_z
 _atom_site_occupancy
  Pr  Pr0  1  0.500000  0.183322  0.204722  1
  Pr  Pr1  1  0.000000  0.683671  0.795275  1
  Pr  Pr2  1  0.000000  0.316405  0.795379  1
  Nd  Nd3  1  0.500000  0.816277  0.204556  1
  Th  Th4  1  0.000000  0.500013  0.523985  1
  Th  Th5  1  0.500000  0.999847  0.475787  1
  Cr  Cr6  1  0.500000  0.500221  0.153048  1
  Cr  Cr7  1  0.000000  0.999925  0.847071  1
  Co  Co8  1  0.500000  0.500038  0.698846  1
  Co  Co9  1  0.000000  0.999448  0.300804  1
  Co  Co10  1  0.000000  0.500303  0.987454  1
  Co  Co11  1  0.500000  0.999684  0.013092  1
  Co  Co12  1  0.500000  0.333173  0.994603  1
  Co  Co13  1  0.500000  0.667094  0.994810  1
  Co  Co14  1  0.000000  0.166538  0.005632  1
  Co  Co15  1  0.000000  0.833131  0.005900  1
  Co  Co16  1  0.500000  0.298510  0.431285  1
  Co  Co17  1  0.500000  0.701607  0.430800  1
  Co  Co18  1  0.000000  0.201405  0.568706  1
  Co  Co19  1  0.000000  0.798620  0.568473  1
  Co  Co20  1  0.500000  0.882935  0.711081  1
  Co  Co21  1  0.500000  0.117109  0.711158  1
  Co  Co22  1  0.000000  0.617592  0.288485  1
  Co  Co23  1  0.000000  0.383029  0.288870  1
  P  P24  1  0.500000  0.500140  0.885725  1
  P  P25  1  0.000000  0.999352  0.115062  1
  P  P26  1  0.500000  0.500082  0.339653  1
  P  P27  1  0.000000  0.999981  0.660372  1
  P  P28  1  0.500000  0.304555  0.614366  1
  P  P29  1  0.500000  0.695550  0.614134  1
  P  P30  1  0.000000  0.195249  0.385584  1
  P  P31  1  0.000000  0.804794  0.384792  1
  P  P32  1  0.500000  0.849100  0.895766  1
  P  P33  1  0.500000  0.150748  0.895947  1
  P  P34  1  0.000000  0.651522  0.104579  1
  P  P35  1  0.000000  0.349029  0.104200  1
