# generated using pymatgen
data_Dy2ErPaPt4
_symmetry_space_group_name_H-M   'P 1'
_cell_length_a   4.53989000
_cell_length_b   5.59538402
_cell_length_c   6.98024605
_cell_angle_alpha   89.08706509
_cell_angle_beta   90.00000000
_cell_angle_gamma   90.00000000
_symmetry_Int_Tables_number   1
_chemical_formula_structural   Dy2ErPaPt4
_chemical_formula_sum   'Dy2 Er1 Pa1 Pt4'
_cell_volume   177.29268932
_cell_formula_units_Z   1
loop_
 _symmetry_equiv_pos_site_id
 _symmetry_equiv_pos_as_xyz
  1  'x, y, z'
loop_
 _atom_site_type_symbol
 _atom_site_label
 _atom_site_symmetry_multiplicity
 _atom_site_fract_x
 _atom_site_fract_y
 _atom_site_fract_z
 _atom_site_occupancy
  Dy  Dy0  1  0.750000  0.355172  0.815417  1
  Dy  Dy1  1  0.250000  0.858308  0.683833  1
  Er  Er2  1  0.750000  0.144581  0.320272  1
  Pa  Pa3  1  0.250000  0.643870  0.182732  1
  Pt  Pt4  1  0.250000  0.161187  0.052414  1
  Pt  Pt5  1  0.750000  0.832476  0.964166  1
  Pt  Pt6  1  0.750000  0.657724  0.445113  1
  Pt  Pt7  1  0.250000  0.346683  0.536054  1
