# generated using pymatgen
data_Nd3Al12NiRu3
_symmetry_space_group_name_H-M   'P 1'
_cell_length_a   8.86816791
_cell_length_b   8.86816879
_cell_length_c   9.62124600
_cell_angle_alpha   90.00000000
_cell_angle_beta   90.00000000
_cell_angle_gamma   119.55487984
_symmetry_Int_Tables_number   1
_chemical_formula_structural   Nd3Al12NiRu3
_chemical_formula_sum   'Nd6 Al24 Ni2 Ru6'
_cell_volume   658.20372887
_cell_formula_units_Z   2
loop_
 _symmetry_equiv_pos_site_id
 _symmetry_equiv_pos_as_xyz
  1  'x, y, z'
loop_
 _atom_site_type_symbol
 _atom_site_label
 _atom_site_symmetry_multiplicity
 _atom_site_fract_x
 _atom_site_fract_y
 _atom_site_fract_z
 _atom_site_occupancy
  Nd  Nd0  1  0.190216  0.383838  0.250000  1
  Nd  Nd1  1  0.809784  0.616162  0.750000  1
  Nd  Nd2  1  0.616162  0.809784  0.250000  1
  Nd  Nd3  1  0.383838  0.190216  0.750000  1
  Nd  Nd4  1  0.193489  0.806511  0.250000  1
  Nd  Nd5  1  0.806511  0.193489  0.750000  1
  Al  Al6  1  0.334589  0.665411  0.011705  1
  Al  Al7  1  0.665411  0.334589  0.988295  1
  Al  Al8  1  0.665411  0.334589  0.511705  1
  Al  Al9  1  0.334589  0.665411  0.488295  1
  Al  Al10  1  0.163373  0.325784  0.575806  1
  Al  Al11  1  0.836627  0.674216  0.424194  1
  Al  Al12  1  0.674216  0.836627  0.575806  1
  Al  Al13  1  0.836627  0.674216  0.075806  1
  Al  Al14  1  0.325784  0.163373  0.424194  1
  Al  Al15  1  0.163373  0.325784  0.924194  1
  Al  Al16  1  0.163199  0.836801  0.575714  1
  Al  Al17  1  0.325784  0.163373  0.075806  1
  Al  Al18  1  0.836801  0.163199  0.424286  1
  Al  Al19  1  0.674216  0.836627  0.924194  1
  Al  Al20  1  0.836801  0.163199  0.075714  1
  Al  Al21  1  0.163199  0.836801  0.924286  1
  Al  Al22  1  0.562110  0.126042  0.250000  1
  Al  Al23  1  0.437890  0.873958  0.750000  1
  Al  Al24  1  0.873958  0.437890  0.250000  1
  Al  Al25  1  0.126042  0.562110  0.750000  1
  Al  Al26  1  0.560987  0.439013  0.250000  1
  Al  Al27  1  0.439013  0.560987  0.750000  1
  Al  Al28  1  0.998920  0.001080  0.250000  1
  Al  Al29  1  0.001080  0.998920  0.750000  1
  Ni  Ni30  1  0.500000  0.500000  0.000000  1
  Ni  Ni31  1  0.500000  0.500000  0.500000  1
  Ru  Ru32  1  0.500000  0.000000  0.000000  1
  Ru  Ru33  1  0.000000  0.500000  0.000000  1
  Ru  Ru34  1  0.500000  0.000000  0.500000  1
  Ru  Ru35  1  0.000000  0.500000  0.500000  1
  Ru  Ru36  1  0.000000  0.000000  0.000000  1
  Ru  Ru37  1  0.000000  0.000000  0.500000  1
