# generated using pymatgen
data_Er3Th(CI)2
_symmetry_space_group_name_H-M   'P 1'
_cell_length_a   3.74199800
_cell_length_b   3.74199945
_cell_length_c   15.03013300
_cell_angle_alpha   90.00000000
_cell_angle_beta   90.00000000
_cell_angle_gamma   119.99998721
_symmetry_Int_Tables_number   1
_chemical_formula_structural   Er3Th(CI)2
_chemical_formula_sum   'Er3 Th1 C2 I2'
_cell_volume   182.26395141
_cell_formula_units_Z   1
loop_
 _symmetry_equiv_pos_site_id
 _symmetry_equiv_pos_as_xyz
  1  'x, y, z'
loop_
 _atom_site_type_symbol
 _atom_site_label
 _atom_site_symmetry_multiplicity
 _atom_site_fract_x
 _atom_site_fract_y
 _atom_site_fract_z
 _atom_site_occupancy
  Er  Er0  1  0.333333  0.666667  0.580435  1
  Er  Er1  1  0.666667  0.333333  0.415837  1
  Er  Er2  1  0.666667  0.333333  0.089927  1
  Th  Th3  1  0.333333  0.666667  0.913755  1
  C  C4  1  0.000000  0.000000  0.010557  1
  C  C5  1  0.000000  0.000000  0.497675  1
  I  I6  1  0.333333  0.666667  0.252310  1
  I  I7  1  0.666667  0.333333  0.739504  1
