# generated using pymatgen
data_Er2Tc6Ni6P7
_symmetry_space_group_name_H-M   'P 1'
_cell_length_a   9.34896000
_cell_length_b   9.34896135
_cell_length_c   3.70872400
_cell_angle_alpha   90.00000000
_cell_angle_beta   90.00000000
_cell_angle_gamma   119.99999426
_symmetry_Int_Tables_number   1
_chemical_formula_structural   Er2Tc6Ni6P7
_chemical_formula_sum   'Er2 Tc6 Ni6 P7'
_cell_volume   280.72548298
_cell_formula_units_Z   1
loop_
 _symmetry_equiv_pos_site_id
 _symmetry_equiv_pos_as_xyz
  1  'x, y, z'
loop_
 _atom_site_type_symbol
 _atom_site_label
 _atom_site_symmetry_multiplicity
 _atom_site_fract_x
 _atom_site_fract_y
 _atom_site_fract_z
 _atom_site_occupancy
  Er  Er0  1  0.000000  0.000000  0.000000  1
  Er  Er1  1  0.333333  0.666667  0.500000  1
  Tc  Tc2  1  0.058406  0.768910  0.500000  1
  Tc  Tc3  1  0.710504  0.941594  0.500000  1
  Tc  Tc4  1  0.231090  0.289496  0.500000  1
  Tc  Tc5  1  0.876863  0.419785  0.500000  1
  Tc  Tc6  1  0.542922  0.123137  0.500000  1
  Tc  Tc7  1  0.580215  0.457078  0.500000  1
  Ni  Ni8  1  0.096122  0.399062  0.000000  1
  Ni  Ni9  1  0.302939  0.903878  0.000000  1
  Ni  Ni10  1  0.600938  0.697061  0.000000  1
  Ni  Ni11  1  0.825139  0.609795  0.000000  1
  Ni  Ni12  1  0.784657  0.174861  0.000000  1
  Ni  Ni13  1  0.390205  0.215343  0.000000  1
  P  P14  1  0.078827  0.627728  0.000000  1
  P  P15  1  0.548900  0.921173  0.000000  1
  P  P16  1  0.372272  0.451100  0.000000  1
  P  P17  1  0.787980  0.738803  0.500000  1
  P  P18  1  0.950824  0.212020  0.500000  1
  P  P19  1  0.261197  0.049176  0.500000  1
  P  P20  1  0.666667  0.333333  0.000000  1
