# generated using pymatgen
data_LiNd3In3AgPt
_symmetry_space_group_name_H-M   'P 1'
_cell_length_a   7.94192500
_cell_length_b   7.94192355
_cell_length_c   4.00566200
_cell_angle_alpha   90.00000000
_cell_angle_beta   90.00000000
_cell_angle_gamma   119.99999353
_symmetry_Int_Tables_number   1
_chemical_formula_structural   LiNd3In3AgPt
_chemical_formula_sum   'Li1 Nd3 In3 Ag1 Pt1'
_cell_volume   218.80459809
_cell_formula_units_Z   1
loop_
 _symmetry_equiv_pos_site_id
 _symmetry_equiv_pos_as_xyz
  1  'x, y, z'
loop_
 _atom_site_type_symbol
 _atom_site_label
 _atom_site_symmetry_multiplicity
 _atom_site_fract_x
 _atom_site_fract_y
 _atom_site_fract_z
 _atom_site_occupancy
  Li  Li0  1  0.000000  0.000000  0.500000  1
  Nd  Nd1  1  0.017666  0.593685  0.500000  1
  Nd  Nd2  1  0.576020  0.982334  0.500000  1
  Nd  Nd3  1  0.406315  0.423980  0.500000  1
  In  In4  1  0.996551  0.247069  0.000000  1
  In  In5  1  0.250519  0.003449  0.000000  1
  In  In6  1  0.752931  0.749481  0.000000  1
  Ag  Ag7  1  0.666667  0.333333  0.000000  1
  Pt  Pt8  1  0.333333  0.666667  0.000000  1
