# generated using pymatgen
data_HoTmNb4C5
_symmetry_space_group_name_H-M   'P 1'
_cell_length_a   5.72041002
_cell_length_b   5.72041018
_cell_length_c   5.60895782
_cell_angle_alpha   81.74554727
_cell_angle_beta   81.74553996
_cell_angle_gamma   121.35157094
_symmetry_Int_Tables_number   1
_chemical_formula_structural   HoTmNb4C5
_chemical_formula_sum   'Ho1 Tm1 Nb4 C5'
_cell_volume   149.85735811
_cell_formula_units_Z   1
loop_
 _symmetry_equiv_pos_site_id
 _symmetry_equiv_pos_as_xyz
  1  'x, y, z'
loop_
 _atom_site_type_symbol
 _atom_site_label
 _atom_site_symmetry_multiplicity
 _atom_site_fract_x
 _atom_site_fract_y
 _atom_site_fract_z
 _atom_site_occupancy
  Ho  Ho0  1  0.760001  0.760001  0.756720  1
  Tm  Tm1  1  0.241036  0.241036  0.244118  1
  Nb  Nb2  1  0.100588  0.452951  0.741054  1
  Nb  Nb3  1  0.547136  0.899540  0.258817  1
  Nb  Nb4  1  0.899540  0.547136  0.258817  1
  Nb  Nb5  1  0.452951  0.100588  0.741054  1
  C  C6  1  0.499170  0.499170  0.499442  1
  C  C7  1  0.677416  0.320352  0.000862  1
  C  C8  1  0.320352  0.677416  0.000862  1
  C  C9  1  0.822368  0.179441  0.499127  1
  C  C10  1  0.179441  0.822368  0.499127  1
