# generated using pymatgen
data_AcLaPr10(Si7Br3)2
_symmetry_space_group_name_H-M   'P 1'
_cell_length_a   4.12860600
_cell_length_b   11.90597733
_cell_length_c   16.69837155
_cell_angle_alpha   90.15111548
_cell_angle_beta   90.00000000
_cell_angle_gamma   90.00000000
_symmetry_Int_Tables_number   1
_chemical_formula_structural   AcLaPr10(Si7Br3)2
_chemical_formula_sum   'Ac1 La1 Pr10 Si14 Br6'
_cell_volume   820.80709226
_cell_formula_units_Z   1
loop_
 _symmetry_equiv_pos_site_id
 _symmetry_equiv_pos_as_xyz
  1  'x, y, z'
loop_
 _atom_site_type_symbol
 _atom_site_label
 _atom_site_symmetry_multiplicity
 _atom_site_fract_x
 _atom_site_fract_y
 _atom_site_fract_z
 _atom_site_occupancy
  Ac  Ac0  1  0.500000  0.334755  0.499593  1
  La  La1  1  0.500000  0.065457  0.120035  1
  Pr  Pr2  1  0.000000  0.657072  0.000295  1
  Pr  Pr3  1  0.500000  0.360501  0.757386  1
  Pr  Pr4  1  0.000000  0.642423  0.745321  1
  Pr  Pr5  1  0.500000  0.360546  0.242025  1
  Pr  Pr6  1  0.000000  0.642149  0.255324  1
  Pr  Pr7  1  0.500000  0.067333  0.880023  1
  Pr  Pr8  1  0.000000  0.931288  0.621004  1
  Pr  Pr9  1  0.000000  0.930882  0.379904  1
  Pr  Pr10  1  0.500000  0.356741  0.999491  1
  Pr  Pr11  1  0.000000  0.643886  0.500135  1
  Si  Si12  1  0.000000  0.153734  0.999391  1
  Si  Si13  1  0.500000  0.847048  0.500268  1
  Si  Si14  1  0.500000  0.566006  0.877058  1
  Si  Si15  1  0.000000  0.438049  0.626129  1
  Si  Si16  1  0.500000  0.566188  0.123060  1
  Si  Si17  1  0.000000  0.437752  0.373744  1
  Si  Si18  1  0.000000  0.254365  0.873465  1
  Si  Si19  1  0.500000  0.746384  0.626594  1
  Si  Si20  1  0.000000  0.254954  0.125164  1
  Si  Si21  1  0.500000  0.746298  0.373745  1
  Si  Si22  1  0.000000  0.458059  0.876976  1
  Si  Si23  1  0.500000  0.544443  0.625030  1
  Si  Si24  1  0.500000  0.544161  0.375066  1
  Si  Si25  1  0.000000  0.458349  0.122637  1
  Br  Br26  1  0.500000  0.109094  0.692338  1
  Br  Br27  1  0.000000  0.892757  0.807285  1
  Br  Br28  1  0.000000  0.128632  0.500290  1
  Br  Br29  1  0.500000  0.860371  0.999245  1
  Br  Br30  1  0.500000  0.109645  0.308625  1
  Br  Br31  1  0.000000  0.890678  0.193359  1
