# generated using pymatgen
data_Tb5Gd(CBr5)2
_symmetry_space_group_name_H-M   'P 1'
_cell_length_a   7.40873269
_cell_length_b   8.93219058
_cell_length_c   9.05540300
_cell_angle_alpha   107.11836128
_cell_angle_beta   96.35704085
_cell_angle_gamma   104.57770138
_symmetry_Int_Tables_number   1
_chemical_formula_structural   Tb5Gd(CBr5)2
_chemical_formula_sum   'Tb5 Gd1 C2 Br10'
_cell_volume   543.09092033
_cell_formula_units_Z   1
loop_
 _symmetry_equiv_pos_site_id
 _symmetry_equiv_pos_as_xyz
  1  'x, y, z'
loop_
 _atom_site_type_symbol
 _atom_site_label
 _atom_site_symmetry_multiplicity
 _atom_site_fract_x
 _atom_site_fract_y
 _atom_site_fract_z
 _atom_site_occupancy
  Tb  Tb0  1  0.111501  0.043915  0.772608  1
  Tb  Tb1  1  0.029030  0.727658  0.919484  1
  Tb  Tb2  1  0.971014  0.272539  0.080104  1
  Tb  Tb3  1  0.616245  0.857333  0.808625  1
  Tb  Tb4  1  0.384033  0.142860  0.190858  1
  Gd  Gd5  1  0.887981  0.955795  0.230768  1
  C  C6  1  0.905464  0.968041  0.955348  1
  C  C7  1  0.094118  0.031815  0.044835  1
  Br  Br8  1  0.753800  0.917820  0.542388  1
  Br  Br9  1  0.250477  0.083768  0.460546  1
  Br  Br10  1  0.456053  0.814996  0.086448  1
  Br  Br11  1  0.540631  0.183764  0.910719  1
  Br  Br12  1  0.805431  0.264375  0.350149  1
  Br  Br13  1  0.192849  0.738987  0.649877  1
  Br  Br14  1  0.911679  0.626254  0.173049  1
  Br  Br15  1  0.089184  0.369801  0.825403  1
  Br  Br16  1  0.661942  0.545308  0.725613  1
  Br  Br17  1  0.338569  0.454971  0.273175  1
