# generated using pymatgen
data_Er3LuTc3Ru5
_symmetry_space_group_name_H-M   'P 1'
_cell_length_a   5.24347859
_cell_length_b   5.26275117
_cell_length_c   8.98508705
_cell_angle_alpha   89.99987023
_cell_angle_beta   90.01094883
_cell_angle_gamma   120.12150910
_symmetry_Int_Tables_number   1
_chemical_formula_structural   Er3LuTc3Ru5
_chemical_formula_sum   'Er3 Lu1 Tc3 Ru5'
_cell_volume   214.46290775
_cell_formula_units_Z   1
loop_
 _symmetry_equiv_pos_site_id
 _symmetry_equiv_pos_as_xyz
  1  'x, y, z'
loop_
 _atom_site_type_symbol
 _atom_site_label
 _atom_site_symmetry_multiplicity
 _atom_site_fract_x
 _atom_site_fract_y
 _atom_site_fract_z
 _atom_site_occupancy
  Er  Er0  1  0.336954  0.668480  0.432998  1
  Er  Er1  1  0.669313  0.334657  0.564433  1
  Er  Er2  1  0.669399  0.334700  0.936046  1
  Lu  Lu3  1  0.337066  0.668533  0.067101  1
  Tc  Tc4  1  0.163211  0.335900  0.750856  1
  Tc  Tc5  1  0.163208  0.827308  0.750857  1
  Tc  Tc6  1  0.329936  0.164969  0.248857  1
  Ru  Ru7  1  0.817879  0.650751  0.248861  1
  Ru  Ru8  1  0.646953  0.823477  0.750830  1
  Ru  Ru9  1  0.024239  0.012119  0.001952  1
  Ru  Ru10  1  0.817880  0.167128  0.248861  1
  Ru  Ru11  1  0.023963  0.011979  0.498346  1
