# generated using pymatgen
data_YLu15MgIn3Pt4
_symmetry_space_group_name_H-M   'P 1'
_cell_length_a   9.56837495
_cell_length_b   9.51893207
_cell_length_c   9.53529200
_cell_angle_alpha   59.94313046
_cell_angle_beta   60.11430844
_cell_angle_gamma   60.08578551
_symmetry_Int_Tables_number   1
_chemical_formula_structural   YLu15MgIn3Pt4
_chemical_formula_sum   'Y1 Lu15 Mg1 In3 Pt4'
_cell_volume   614.77030917
_cell_formula_units_Z   1
loop_
 _symmetry_equiv_pos_site_id
 _symmetry_equiv_pos_as_xyz
  1  'x, y, z'
loop_
 _atom_site_type_symbol
 _atom_site_label
 _atom_site_symmetry_multiplicity
 _atom_site_fract_x
 _atom_site_fract_y
 _atom_site_fract_z
 _atom_site_occupancy
  Y  Y0  1  0.185275  0.185338  0.814693  1
  Lu  Lu1  1  0.600749  0.599888  0.599626  1
  Lu  Lu2  1  0.600749  0.599888  0.199737  1
  Lu  Lu3  1  0.601773  0.198747  0.599740  1
  Lu  Lu4  1  0.194812  0.602118  0.601535  1
  Lu  Lu5  1  0.058557  0.441970  0.439845  1
  Lu  Lu6  1  0.438877  0.061214  0.061301  1
  Lu  Lu7  1  0.438877  0.061214  0.438608  1
  Lu  Lu8  1  0.058557  0.441970  0.059628  1
  Lu  Lu9  1  0.437748  0.439210  0.061521  1
  Lu  Lu10  1  0.058915  0.059196  0.440945  1
  Lu  Lu11  1  0.185646  0.812843  0.814220  1
  Lu  Lu12  1  0.812647  0.186750  0.187955  1
  Lu  Lu13  1  0.812647  0.186750  0.812648  1
  Lu  Lu14  1  0.185646  0.812843  0.187292  1
  Lu  Lu15  1  0.814790  0.813307  0.185952  1
  Mg  Mg16  1  0.515851  0.828395  0.827876  1
  In  In17  1  0.832663  0.834658  0.834702  1
  In  In18  1  0.832663  0.834658  0.497975  1
  In  In19  1  0.833270  0.498773  0.833978  1
  Pt  Pt20  1  0.392596  0.393109  0.391968  1
  Pt  Pt21  1  0.392596  0.393109  0.822330  1
  Pt  Pt22  1  0.391125  0.822125  0.393376  1
  Pt  Pt23  1  0.822976  0.391928  0.392549  1
