# generated using pymatgen
data_Ce3Tm4Lu(ReB6)4
_symmetry_space_group_name_H-M   'P 1'
_cell_length_a   3.68987600
_cell_length_b   9.14286007
_cell_length_c   11.53284606
_cell_angle_alpha   90.07197168
_cell_angle_beta   90.00000000
_cell_angle_gamma   90.00000000
_symmetry_Int_Tables_number   1
_chemical_formula_structural   Ce3Tm4Lu(ReB6)4
_chemical_formula_sum   'Ce3 Tm4 Lu1 Re4 B24'
_cell_volume   389.07201779
_cell_formula_units_Z   1
loop_
 _symmetry_equiv_pos_site_id
 _symmetry_equiv_pos_as_xyz
  1  'x, y, z'
loop_
 _atom_site_type_symbol
 _atom_site_label
 _atom_site_symmetry_multiplicity
 _atom_site_fract_x
 _atom_site_fract_y
 _atom_site_fract_z
 _atom_site_occupancy
  Ce  Ce0  1  0.000000  0.321444  0.414525  1
  Ce  Ce1  1  0.000000  0.678222  0.586545  1
  Ce  Ce2  1  0.000000  0.823375  0.085245  1
  Tm  Tm3  1  0.000000  0.177794  0.913940  1
  Tm  Tm4  1  0.000000  0.944795  0.372259  1
  Tm  Tm5  1  0.000000  0.056123  0.628764  1
  Tm  Tm6  1  0.000000  0.443125  0.127093  1
  Lu  Lu7  1  0.000000  0.555645  0.871767  1
  Re  Re8  1  0.000000  0.638932  0.320165  1
  Re  Re9  1  0.000000  0.362020  0.679757  1
  Re  Re10  1  0.000000  0.139112  0.179225  1
  Re  Re11  1  0.000000  0.860315  0.820841  1
  B  B12  1  0.500000  0.554653  0.431474  1
  B  B13  1  0.500000  0.445168  0.569083  1
  B  B14  1  0.500000  0.054639  0.066741  1
  B  B15  1  0.500000  0.946239  0.932294  1
  B  B16  1  0.500000  0.750114  0.418078  1
  B  B17  1  0.500000  0.249660  0.582824  1
  B  B18  1  0.500000  0.249769  0.079965  1
  B  B19  1  0.500000  0.750152  0.918124  1
  B  B20  1  0.500000  0.792112  0.265413  1
  B  B21  1  0.500000  0.207161  0.735726  1
  B  B22  1  0.500000  0.291905  0.233066  1
  B  B23  1  0.500000  0.707721  0.766265  1
  B  B24  1  0.500000  0.630623  0.184869  1
  B  B25  1  0.500000  0.368690  0.816123  1
  B  B26  1  0.500000  0.131087  0.314124  1
  B  B27  1  0.500000  0.869659  0.686168  1
  B  B28  1  0.500000  0.983772  0.212197  1
  B  B29  1  0.500000  0.018261  0.787792  1
  B  B30  1  0.500000  0.483076  0.286400  1
  B  B31  1  0.500000  0.516586  0.714319  1
  B  B32  1  0.500000  0.600627  0.027200  1
  B  B33  1  0.500000  0.397252  0.970846  1
  B  B34  1  0.500000  0.103284  0.471907  1
  B  B35  1  0.500000  0.896887  0.528875  1
