# generated using pymatgen
data_Ca5Tb2Yb(Si3Au)4
_symmetry_space_group_name_H-M   'P 1'
_cell_length_a   8.30955000
_cell_length_b   8.28863492
_cell_length_c   8.36154200
_cell_angle_alpha   90.00000000
_cell_angle_beta   90.00000000
_cell_angle_gamma   120.08351469
_symmetry_Int_Tables_number   1
_chemical_formula_structural   Ca5Tb2Yb(Si3Au)4
_chemical_formula_sum   'Ca5 Tb2 Yb1 Si12 Au4'
_cell_volume   498.32356899
_cell_formula_units_Z   1
loop_
 _symmetry_equiv_pos_site_id
 _symmetry_equiv_pos_as_xyz
  1  'x, y, z'
loop_
 _atom_site_type_symbol
 _atom_site_label
 _atom_site_symmetry_multiplicity
 _atom_site_fract_x
 _atom_site_fract_y
 _atom_site_fract_z
 _atom_site_occupancy
  Ca  Ca0  1  0.498355  0.996712  0.750000  1
  Ca  Ca1  1  0.996672  0.498343  0.250000  1
  Ca  Ca2  1  0.003316  0.501631  0.750000  1
  Ca  Ca3  1  0.501672  0.498343  0.250000  1
  Ca  Ca4  1  0.498314  0.501631  0.750000  1
  Tb  Tb5  1  0.999993  0.999986  0.250000  1
  Tb  Tb6  1  0.000067  0.000134  0.750000  1
  Yb  Yb7  1  0.501484  0.002969  0.250000  1
  Si  Si8  1  0.162053  0.324106  0.001178  1
  Si  Si9  1  0.838004  0.676008  0.998110  1
  Si  Si10  1  0.676761  0.838104  0.002538  1
  Si  Si11  1  0.838004  0.676008  0.501890  1
  Si  Si12  1  0.323202  0.161900  0.999474  1
  Si  Si13  1  0.162053  0.324106  0.498822  1
  Si  Si14  1  0.161343  0.838104  0.002538  1
  Si  Si15  1  0.323202  0.161900  0.500526  1
  Si  Si16  1  0.838698  0.161900  0.999474  1
  Si  Si17  1  0.676761  0.838104  0.497462  1
  Si  Si18  1  0.838698  0.161900  0.500526  1
  Si  Si19  1  0.161343  0.838104  0.497462  1
  Au  Au20  1  0.334161  0.668324  0.006636  1
  Au  Au21  1  0.665840  0.331679  0.998455  1
  Au  Au22  1  0.665840  0.331679  0.501545  1
  Au  Au23  1  0.334161  0.668324  0.493364  1
