# generated using pymatgen
data_EuCrP2Os
_symmetry_space_group_name_H-M   'P 1'
_cell_length_a   6.26973655
_cell_length_b   6.26973680
_cell_length_c   6.26973653
_cell_angle_alpha   142.98306725
_cell_angle_beta   142.98307283
_cell_angle_gamma   53.35070907
_symmetry_Int_Tables_number   1
_chemical_formula_structural   EuCrP2Os
_chemical_formula_sum   'Eu1 Cr1 P2 Os1'
_cell_volume   88.77080409
_cell_formula_units_Z   1
loop_
 _symmetry_equiv_pos_site_id
 _symmetry_equiv_pos_as_xyz
  1  'x, y, z'
loop_
 _atom_site_type_symbol
 _atom_site_label
 _atom_site_symmetry_multiplicity
 _atom_site_fract_x
 _atom_site_fract_y
 _atom_site_fract_z
 _atom_site_occupancy
  Eu  Eu0  1  0.000000  0.000000  0.000000  1
  Cr  Cr1  1  0.250000  0.750000  0.500000  1
  P  P2  1  0.637997  0.637997  0.000000  1
  P  P3  1  0.362003  0.362003  0.000000  1
  Os  Os4  1  0.750000  0.250000  0.500000  1
