# generated using pymatgen
data_Y6PdPt
_symmetry_space_group_name_H-M   'P 1'
_cell_length_a   6.55412800
_cell_length_b   7.05890400
_cell_length_c   9.69841000
_cell_angle_alpha   90.00000000
_cell_angle_beta   90.00000000
_cell_angle_gamma   90.00000000
_symmetry_Int_Tables_number   1
_chemical_formula_structural   Y6PdPt
_chemical_formula_sum   'Y12 Pd2 Pt2'
_cell_volume   448.69655416
_cell_formula_units_Z   2
loop_
 _symmetry_equiv_pos_site_id
 _symmetry_equiv_pos_as_xyz
  1  'x, y, z'
loop_
 _atom_site_type_symbol
 _atom_site_label
 _atom_site_symmetry_multiplicity
 _atom_site_fract_x
 _atom_site_fract_y
 _atom_site_fract_z
 _atom_site_occupancy
  Y  Y0  1  0.134212  0.022396  0.250000  1
  Y  Y1  1  0.634212  0.477604  0.750000  1
  Y  Y2  1  0.369128  0.527755  0.250000  1
  Y  Y3  1  0.869128  0.972245  0.750000  1
  Y  Y4  1  0.678563  0.177563  0.061422  1
  Y  Y5  1  0.178563  0.322437  0.938578  1
  Y  Y6  1  0.819167  0.681400  0.439002  1
  Y  Y7  1  0.319167  0.818600  0.560998  1
  Y  Y8  1  0.319167  0.818600  0.939002  1
  Y  Y9  1  0.819167  0.681400  0.060998  1
  Y  Y10  1  0.178563  0.322437  0.561422  1
  Y  Y11  1  0.678563  0.177563  0.438578  1
  Pd  Pd12  1  0.949617  0.391361  0.250000  1
  Pd  Pd13  1  0.449617  0.108639  0.750000  1
  Pt  Pt14  1  0.551584  0.888828  0.250000  1
  Pt  Pt15  1  0.051584  0.611172  0.750000  1
