# generated using pymatgen
data_Dy3Zr(Co4P3)2
_symmetry_space_group_name_H-M   'P 1'
_cell_length_a   3.72208800
_cell_length_b   10.70082800
_cell_length_c   12.42267800
_cell_angle_alpha   90.00000000
_cell_angle_beta   90.00000000
_cell_angle_gamma   90.00000000
_symmetry_Int_Tables_number   1
_chemical_formula_structural   Dy3Zr(Co4P3)2
_chemical_formula_sum   'Dy6 Zr2 Co16 P12'
_cell_volume   494.78810293
_cell_formula_units_Z   2
loop_
 _symmetry_equiv_pos_site_id
 _symmetry_equiv_pos_as_xyz
  1  'x, y, z'
loop_
 _atom_site_type_symbol
 _atom_site_label
 _atom_site_symmetry_multiplicity
 _atom_site_fract_x
 _atom_site_fract_y
 _atom_site_fract_z
 _atom_site_occupancy
  Dy  Dy0  1  0.000000  0.500000  0.529217  1
  Dy  Dy1  1  0.500000  0.000000  0.470783  1
  Dy  Dy2  1  0.500000  0.821915  0.204902  1
  Dy  Dy3  1  0.500000  0.178085  0.204902  1
  Dy  Dy4  1  0.000000  0.678085  0.795098  1
  Dy  Dy5  1  0.000000  0.321915  0.795098  1
  Zr  Zr6  1  0.500000  0.500000  0.158279  1
  Zr  Zr7  1  0.000000  0.000000  0.841721  1
  Co  Co8  1  0.000000  0.500000  0.985919  1
  Co  Co9  1  0.500000  0.000000  0.014081  1
  Co  Co10  1  0.500000  0.294957  0.433313  1
  Co  Co11  1  0.500000  0.705043  0.433313  1
  Co  Co12  1  0.000000  0.205043  0.566687  1
  Co  Co13  1  0.000000  0.794957  0.566687  1
  Co  Co14  1  0.500000  0.877421  0.701371  1
  Co  Co15  1  0.500000  0.122579  0.701371  1
  Co  Co16  1  0.000000  0.622579  0.298629  1
  Co  Co17  1  0.000000  0.377421  0.298629  1
  Co  Co18  1  0.500000  0.332073  0.992736  1
  Co  Co19  1  0.500000  0.667927  0.992736  1
  Co  Co20  1  0.000000  0.167927  0.007264  1
  Co  Co21  1  0.000000  0.832073  0.007264  1
  Co  Co22  1  0.500000  0.500000  0.703178  1
  Co  Co23  1  0.000000  0.000000  0.296822  1
  P  P24  1  0.500000  0.309985  0.615289  1
  P  P25  1  0.500000  0.690015  0.615289  1
  P  P26  1  0.000000  0.190015  0.384711  1
  P  P27  1  0.000000  0.809985  0.384711  1
  P  P28  1  0.500000  0.500000  0.883293  1
  P  P29  1  0.000000  0.000000  0.116707  1
  P  P30  1  0.500000  0.838177  0.894016  1
  P  P31  1  0.500000  0.161823  0.894016  1
  P  P32  1  0.000000  0.661823  0.105984  1
  P  P33  1  0.000000  0.338177  0.105984  1
  P  P34  1  0.500000  0.500000  0.363333  1
  P  P35  1  0.000000  0.000000  0.636667  1
