# generated using pymatgen
data_PrEr3(AuCl6)4
_symmetry_space_group_name_H-M   'P 1'
_cell_length_a   7.95882025
_cell_length_b   9.93370722
_cell_length_c   14.16191716
_cell_angle_alpha   103.02322480
_cell_angle_beta   97.09678946
_cell_angle_gamma   112.91653853
_symmetry_Int_Tables_number   1
_chemical_formula_structural   PrEr3(AuCl6)4
_chemical_formula_sum   'Pr1 Er3 Au4 Cl24'
_cell_volume   976.50481857
_cell_formula_units_Z   1
loop_
 _symmetry_equiv_pos_site_id
 _symmetry_equiv_pos_as_xyz
  1  'x, y, z'
loop_
 _atom_site_type_symbol
 _atom_site_label
 _atom_site_symmetry_multiplicity
 _atom_site_fract_x
 _atom_site_fract_y
 _atom_site_fract_z
 _atom_site_occupancy
  Pr  Pr0  1  0.578704  0.927919  0.622663  1
  Er  Er1  1  0.032023  0.687110  0.128338  1
  Er  Er2  1  0.419462  0.070123  0.373258  1
  Er  Er3  1  0.971943  0.317667  0.875873  1
  Au  Au4  1  0.289000  0.632741  0.766518  1
  Au  Au5  1  0.496672  0.494674  0.497527  1
  Au  Au6  1  0.710853  0.368025  0.235100  1
  Au  Au7  1  0.001321  0.001290  0.001394  1
  Cl  Cl8  1  0.789587  0.104560  0.973040  1
  Cl  Cl9  1  0.718883  0.150847  0.265091  1
  Cl  Cl10  1  0.275009  0.848558  0.736484  1
  Cl  Cl11  1  0.779002  0.790787  0.031764  1
  Cl  Cl12  1  0.628205  0.203155  0.753419  1
  Cl  Cl13  1  0.297101  0.413449  0.793779  1
  Cl  Cl14  1  0.705254  0.589513  0.209494  1
  Cl  Cl15  1  0.302606  0.619274  0.496065  1
  Cl  Cl16  1  0.224276  0.213167  0.972841  1
  Cl  Cl17  1  0.754604  0.728354  0.526902  1
  Cl  Cl18  1  0.211576  0.896275  0.027987  1
  Cl  Cl19  1  0.714604  0.047120  0.474260  1
  Cl  Cl20  1  0.597697  0.726923  0.750771  1
  Cl  Cl21  1  0.947388  0.068409  0.737321  1
  Cl  Cl22  1  0.242517  0.260016  0.466212  1
  Cl  Cl23  1  0.375564  0.806973  0.252626  1
  Cl  Cl24  1  0.978742  0.534821  0.778598  1
  Cl  Cl25  1  0.777961  0.440962  0.981254  1
  Cl  Cl26  1  0.227618  0.564600  0.023226  1
  Cl  Cl27  1  0.021065  0.465217  0.222166  1
  Cl  Cl28  1  0.402896  0.268496  0.251872  1
  Cl  Cl29  1  0.278521  0.953580  0.510018  1
  Cl  Cl30  1  0.683921  0.364442  0.498221  1
  Cl  Cl31  1  0.065423  0.940952  0.265916  1
