# generated using pymatgen
data_Ce2Fe8Ni4P7
_symmetry_space_group_name_H-M   'P 1'
_cell_length_a   9.06782308
_cell_length_b   9.07055424
_cell_length_c   3.69263100
_cell_angle_alpha   90.00000000
_cell_angle_beta   90.00000000
_cell_angle_gamma   120.38407548
_symmetry_Int_Tables_number   1
_chemical_formula_structural   Ce2Fe8Ni4P7
_chemical_formula_sum   'Ce2 Fe8 Ni4 P7'
_cell_volume   262.00498581
_cell_formula_units_Z   1
loop_
 _symmetry_equiv_pos_site_id
 _symmetry_equiv_pos_as_xyz
  1  'x, y, z'
loop_
 _atom_site_type_symbol
 _atom_site_label
 _atom_site_symmetry_multiplicity
 _atom_site_fract_x
 _atom_site_fract_y
 _atom_site_fract_z
 _atom_site_occupancy
  Ce  Ce0  1  0.998602  0.002031  0.000000  1
  Ce  Ce1  1  0.334494  0.665551  0.500000  1
  Fe  Fe2  1  0.820766  0.608215  0.000000  1
  Fe  Fe3  1  0.786149  0.180982  0.000000  1
  Fe  Fe4  1  0.394681  0.212524  0.000000  1
  Fe  Fe5  1  0.715183  0.947895  0.500000  1
  Fe  Fe6  1  0.232431  0.283869  0.500000  1
  Fe  Fe7  1  0.883135  0.429867  0.500000  1
  Fe  Fe8  1  0.551281  0.121036  0.500000  1
  Fe  Fe9  1  0.570577  0.450940  0.500000  1
  Ni  Ni10  1  0.097980  0.395682  0.000000  1
  Ni  Ni11  1  0.297066  0.899283  0.000000  1
  Ni  Ni12  1  0.601601  0.700358  0.000000  1
  Ni  Ni13  1  0.052746  0.769567  0.500000  1
  P  P14  1  0.068645  0.628111  0.000000  1
  P  P15  1  0.564064  0.929553  0.000000  1
  P  P16  1  0.364907  0.434346  0.000000  1
  P  P17  1  0.773892  0.730723  0.500000  1
  P  P18  1  0.951024  0.220215  0.500000  1
  P  P19  1  0.272691  0.054268  0.500000  1
  P  P20  1  0.668085  0.334983  0.000000  1
