# generated using pymatgen
data_Nd2Si7(NiRu3)3
_symmetry_space_group_name_H-M   'P 1'
_cell_length_a   9.60989300
_cell_length_b   9.60989408
_cell_length_c   3.87064200
_cell_angle_alpha   90.00000000
_cell_angle_beta   90.00000000
_cell_angle_gamma   119.99999284
_symmetry_Int_Tables_number   1
_chemical_formula_structural   Nd2Si7(NiRu3)3
_chemical_formula_sum   'Nd2 Si7 Ni3 Ru9'
_cell_volume   309.56426449
_cell_formula_units_Z   1
loop_
 _symmetry_equiv_pos_site_id
 _symmetry_equiv_pos_as_xyz
  1  'x, y, z'
loop_
 _atom_site_type_symbol
 _atom_site_label
 _atom_site_symmetry_multiplicity
 _atom_site_fract_x
 _atom_site_fract_y
 _atom_site_fract_z
 _atom_site_occupancy
  Nd  Nd0  1  0.000000  0.000000  0.000000  1
  Nd  Nd1  1  0.333333  0.666667  0.500000  1
  Si  Si2  1  0.768269  0.720908  0.500000  1
  Si  Si3  1  0.279092  0.047362  0.500000  1
  Si  Si4  1  0.952638  0.231731  0.500000  1
  Si  Si5  1  0.666667  0.333333  0.000000  1
  Si  Si6  1  0.064500  0.626115  0.000000  1
  Si  Si7  1  0.373885  0.438385  0.000000  1
  Si  Si8  1  0.561615  0.935500  0.000000  1
  Ni  Ni9  1  0.816900  0.605509  0.000000  1
  Ni  Ni10  1  0.394491  0.211391  0.000000  1
  Ni  Ni11  1  0.788609  0.183100  0.000000  1
  Ru  Ru12  1  0.094082  0.390826  0.000000  1
  Ru  Ru13  1  0.609174  0.703255  0.000000  1
  Ru  Ru14  1  0.296745  0.905918  0.000000  1
  Ru  Ru15  1  0.045288  0.768723  0.500000  1
  Ru  Ru16  1  0.231277  0.276563  0.500000  1
  Ru  Ru17  1  0.723437  0.954712  0.500000  1
  Ru  Ru18  1  0.871352  0.431390  0.500000  1
  Ru  Ru19  1  0.568610  0.439962  0.500000  1
  Ru  Ru20  1  0.560038  0.128648  0.500000  1
