# generated using pymatgen
data_ScPaCrB6
_symmetry_space_group_name_H-M   'P 1'
_cell_length_a   3.53155000
_cell_length_b   8.96798800
_cell_length_c   11.33914700
_cell_angle_alpha   90.00000000
_cell_angle_beta   90.00000000
_cell_angle_gamma   90.00000000
_symmetry_Int_Tables_number   1
_chemical_formula_structural   ScPaCrB6
_chemical_formula_sum   'Sc4 Pa4 Cr4 B24'
_cell_volume   359.12096829
_cell_formula_units_Z   4
loop_
 _symmetry_equiv_pos_site_id
 _symmetry_equiv_pos_as_xyz
  1  'x, y, z'
loop_
 _atom_site_type_symbol
 _atom_site_label
 _atom_site_symmetry_multiplicity
 _atom_site_fract_x
 _atom_site_fract_y
 _atom_site_fract_z
 _atom_site_occupancy
  Sc  Sc0  1  0.000000  0.444414  0.127698  1
  Sc  Sc1  1  0.000000  0.555586  0.872302  1
  Sc  Sc2  1  0.000000  0.944414  0.372302  1
  Sc  Sc3  1  0.000000  0.055586  0.627698  1
  Pa  Pa4  1  0.000000  0.821410  0.085556  1
  Pa  Pa5  1  0.000000  0.178590  0.914444  1
  Pa  Pa6  1  0.000000  0.321410  0.414444  1
  Pa  Pa7  1  0.000000  0.678590  0.585556  1
  Cr  Cr8  1  0.000000  0.140892  0.181179  1
  Cr  Cr9  1  0.000000  0.859108  0.818821  1
  Cr  Cr10  1  0.000000  0.640892  0.318821  1
  Cr  Cr11  1  0.000000  0.359108  0.681179  1
  B  B12  1  0.500000  0.055354  0.068378  1
  B  B13  1  0.500000  0.944646  0.931622  1
  B  B14  1  0.500000  0.555354  0.431622  1
  B  B15  1  0.500000  0.444646  0.568378  1
  B  B16  1  0.500000  0.252973  0.082302  1
  B  B17  1  0.500000  0.747027  0.917698  1
  B  B18  1  0.500000  0.752973  0.417698  1
  B  B19  1  0.500000  0.247027  0.582302  1
  B  B20  1  0.500000  0.293451  0.234824  1
  B  B21  1  0.500000  0.706549  0.765176  1
  B  B22  1  0.500000  0.793451  0.265176  1
  B  B23  1  0.500000  0.206549  0.734824  1
  B  B24  1  0.500000  0.129607  0.316074  1
  B  B25  1  0.500000  0.870393  0.683926  1
  B  B26  1  0.500000  0.629607  0.183926  1
  B  B27  1  0.500000  0.370393  0.816074  1
  B  B28  1  0.500000  0.483063  0.286065  1
  B  B29  1  0.500000  0.516937  0.713935  1
  B  B30  1  0.500000  0.983063  0.213935  1
  B  B31  1  0.500000  0.016937  0.786065  1
  B  B32  1  0.500000  0.099627  0.472954  1
  B  B33  1  0.500000  0.900373  0.527046  1
  B  B34  1  0.500000  0.599627  0.027046  1
  B  B35  1  0.500000  0.400373  0.972954  1
