# generated using pymatgen
data_DyEr4CdAu4
_symmetry_space_group_name_H-M   'P 1'
_cell_length_a   7.95651900
_cell_length_b   7.95651900
_cell_length_c   3.78558400
_cell_angle_alpha   90.00000000
_cell_angle_beta   90.00000000
_cell_angle_gamma   90.00000000
_symmetry_Int_Tables_number   1
_chemical_formula_structural   DyEr4CdAu4
_chemical_formula_sum   'Dy1 Er4 Cd1 Au4'
_cell_volume   239.65091737
_cell_formula_units_Z   1
loop_
 _symmetry_equiv_pos_site_id
 _symmetry_equiv_pos_as_xyz
  1  'x, y, z'
loop_
 _atom_site_type_symbol
 _atom_site_label
 _atom_site_symmetry_multiplicity
 _atom_site_fract_x
 _atom_site_fract_y
 _atom_site_fract_z
 _atom_site_occupancy
  Dy  Dy0  1  0.500000  0.500000  0.000000  1
  Er  Er1  1  0.687265  0.138189  0.500000  1
  Er  Er2  1  0.312735  0.861811  0.500000  1
  Er  Er3  1  0.138189  0.312735  0.500000  1
  Er  Er4  1  0.861811  0.687265  0.500000  1
  Cd  Cd5  1  0.000000  0.000000  0.000000  1
  Au  Au6  1  0.145245  0.620341  0.000000  1
  Au  Au7  1  0.854755  0.379659  0.000000  1
  Au  Au8  1  0.620341  0.854755  0.000000  1
  Au  Au9  1  0.379659  0.145245  0.000000  1
