# generated using pymatgen
data_Cs2Li2TiSe4
_symmetry_space_group_name_H-M   'P 1'
_cell_length_a   6.32892300
_cell_length_b   6.32892300
_cell_length_c   14.12669400
_cell_angle_alpha   90.00000000
_cell_angle_beta   90.00000000
_cell_angle_gamma   90.00000000
_symmetry_Int_Tables_number   1
_chemical_formula_structural   Cs2Li2TiSe4
_chemical_formula_sum   'Cs4 Li4 Ti2 Se8'
_cell_volume   565.84849067
_cell_formula_units_Z   2
loop_
 _symmetry_equiv_pos_site_id
 _symmetry_equiv_pos_as_xyz
  1  'x, y, z'
loop_
 _atom_site_type_symbol
 _atom_site_label
 _atom_site_symmetry_multiplicity
 _atom_site_fract_x
 _atom_site_fract_y
 _atom_site_fract_z
 _atom_site_occupancy
  Cs  Cs0  1  0.764489  0.764489  0.000000  1
  Cs  Cs1  1  0.235511  0.764489  0.500000  1
  Cs  Cs2  1  0.764489  0.235511  0.500000  1
  Cs  Cs3  1  0.235511  0.235511  0.000000  1
  Li  Li4  1  0.000000  0.500000  0.750000  1
  Li  Li5  1  0.500000  0.000000  0.750000  1
  Li  Li6  1  0.000000  0.500000  0.250000  1
  Li  Li7  1  0.500000  0.000000  0.250000  1
  Ti  Ti8  1  0.500000  0.500000  0.750000  1
  Ti  Ti9  1  0.500000  0.500000  0.250000  1
  Se  Se10  1  0.721756  0.721756  0.654439  1
  Se  Se11  1  0.278244  0.278244  0.654439  1
  Se  Se12  1  0.721756  0.721756  0.345561  1
  Se  Se13  1  0.721756  0.278244  0.154439  1
  Se  Se14  1  0.278244  0.721756  0.845561  1
  Se  Se15  1  0.278244  0.278244  0.345561  1
  Se  Se16  1  0.278244  0.721756  0.154439  1
  Se  Se17  1  0.721756  0.278244  0.845561  1
