# generated using pymatgen
data_Ho8Tm12Bi7Sb5
_symmetry_space_group_name_H-M   'P 1'
_cell_length_a   8.12727301
_cell_length_b   9.37066758
_cell_length_c   11.95390900
_cell_angle_alpha   90.04242765
_cell_angle_beta   89.93636835
_cell_angle_gamma   90.00321436
_symmetry_Int_Tables_number   1
_chemical_formula_structural   Ho8Tm12Bi7Sb5
_chemical_formula_sum   'Ho8 Tm12 Bi7 Sb5'
_cell_volume   910.38467548
_cell_formula_units_Z   1
loop_
 _symmetry_equiv_pos_site_id
 _symmetry_equiv_pos_as_xyz
  1  'x, y, z'
loop_
 _atom_site_type_symbol
 _atom_site_label
 _atom_site_symmetry_multiplicity
 _atom_site_fract_x
 _atom_site_fract_y
 _atom_site_fract_z
 _atom_site_occupancy
  Ho  Ho0  1  0.186009  0.753543  0.717673  1
  Ho  Ho1  1  0.681674  0.752366  0.781145  1
  Ho  Ho2  1  0.816621  0.250131  0.282075  1
  Ho  Ho3  1  0.316960  0.249976  0.218190  1
  Ho  Ho4  1  0.353165  0.749890  0.214093  1
  Ho  Ho5  1  0.853132  0.749949  0.286303  1
  Ho  Ho6  1  0.643936  0.246928  0.785103  1
  Ho  Ho7  1  0.149525  0.247276  0.713367  1
  Tm  Tm8  1  0.027294  0.749988  0.988384  1
  Tm  Tm9  1  0.526777  0.752331  0.512602  1
  Tm  Tm10  1  0.972804  0.249891  0.011032  1
  Tm  Tm11  1  0.472085  0.247736  0.490456  1
  Tm  Tm12  1  0.310966  0.435859  0.941679  1
  Tm  Tm13  1  0.808882  0.063128  0.558929  1
  Tm  Tm14  1  0.688916  0.936215  0.058182  1
  Tm  Tm15  1  0.189447  0.564096  0.442079  1
  Tm  Tm16  1  0.688818  0.563986  0.058058  1
  Tm  Tm17  1  0.190229  0.936804  0.443737  1
  Tm  Tm18  1  0.312243  0.063457  0.939556  1
  Tm  Tm19  1  0.810441  0.436056  0.558365  1
  Bi  Bi20  1  0.933560  0.496141  0.826838  1
  Bi  Bi21  1  0.565986  0.503719  0.328127  1
  Bi  Bi22  1  0.066525  0.996221  0.172718  1
  Bi  Bi23  1  0.566338  0.996204  0.327094  1
  Bi  Bi24  1  0.066383  0.503832  0.172678  1
  Bi  Bi25  1  0.433699  0.496372  0.672692  1
  Bi  Bi26  1  0.933552  0.003835  0.827464  1
  Sb  Sb27  1  0.434362  0.004193  0.671151  1
  Sb  Sb28  1  0.406494  0.749835  0.958644  1
  Sb  Sb29  1  0.906841  0.749917  0.541767  1
  Sb  Sb30  1  0.593584  0.250034  0.041345  1
  Sb  Sb31  1  0.092752  0.250090  0.458474  1
