# generated using pymatgen
data_Lu8MgCdPd2
_symmetry_space_group_name_H-M   'P 1'
_cell_length_a   9.45406988
_cell_length_b   9.45406886
_cell_length_c   9.47601900
_cell_angle_alpha   59.92317032
_cell_angle_beta   59.92317391
_cell_angle_gamma   59.81765056
_symmetry_Int_Tables_number   1
_chemical_formula_structural   Lu8MgCdPd2
_chemical_formula_sum   'Lu16 Mg2 Cd2 Pd4'
_cell_volume   597.36875169
_cell_formula_units_Z   2
loop_
 _symmetry_equiv_pos_site_id
 _symmetry_equiv_pos_as_xyz
  1  'x, y, z'
loop_
 _atom_site_type_symbol
 _atom_site_label
 _atom_site_symmetry_multiplicity
 _atom_site_fract_x
 _atom_site_fract_y
 _atom_site_fract_z
 _atom_site_occupancy
  Lu  Lu0  1  0.354145  0.354145  0.352126  1
  Lu  Lu1  1  0.354145  0.354145  0.939584  1
  Lu  Lu2  1  0.355165  0.937953  0.353440  1
  Lu  Lu3  1  0.937953  0.355165  0.353440  1
  Lu  Lu4  1  0.811151  0.190101  0.187887  1
  Lu  Lu5  1  0.190101  0.811151  0.810861  1
  Lu  Lu6  1  0.190101  0.811151  0.187887  1
  Lu  Lu7  1  0.811151  0.190101  0.810861  1
  Lu  Lu8  1  0.191458  0.191458  0.808542  1
  Lu  Lu9  1  0.812292  0.812292  0.187708  1
  Lu  Lu10  1  0.934912  0.565919  0.565812  1
  Lu  Lu11  1  0.565919  0.934912  0.933358  1
  Lu  Lu12  1  0.565919  0.934912  0.565812  1
  Lu  Lu13  1  0.934912  0.565919  0.933358  1
  Lu  Lu14  1  0.567568  0.567568  0.932432  1
  Lu  Lu15  1  0.935012  0.935012  0.564988  1
  Mg  Mg16  1  0.577077  0.577077  0.582130  1
  Mg  Mg17  1  0.577077  0.577077  0.263717  1
  Cd  Cd18  1  0.582560  0.251447  0.582996  1
  Cd  Cd19  1  0.251447  0.582560  0.582996  1
  Pd  Pd20  1  0.144818  0.144818  0.144994  1
  Pd  Pd21  1  0.144818  0.144818  0.565370  1
  Pd  Pd22  1  0.144027  0.566272  0.144850  1
  Pd  Pd23  1  0.566272  0.144027  0.144850  1
