# generated using pymatgen
data_Hf5Sc3(V3Si4)4
_symmetry_space_group_name_H-M   'P 1'
_cell_length_a   6.61175291
_cell_length_b   6.61257297
_cell_length_c   12.24273319
_cell_angle_alpha   90.01792362
_cell_angle_beta   89.99038414
_cell_angle_gamma   89.94059207
_symmetry_Int_Tables_number   1
_chemical_formula_structural   Hf5Sc3(V3Si4)4
_chemical_formula_sum   'Hf5 Sc3 V12 Si16'
_cell_volume   535.26052632
_cell_formula_units_Z   1
loop_
 _symmetry_equiv_pos_site_id
 _symmetry_equiv_pos_as_xyz
  1  'x, y, z'
loop_
 _atom_site_type_symbol
 _atom_site_label
 _atom_site_symmetry_multiplicity
 _atom_site_fract_x
 _atom_site_fract_y
 _atom_site_fract_z
 _atom_site_occupancy
  Hf  Hf0  1  0.003083  0.661003  0.030016  1
  Hf  Hf1  1  0.837555  0.502540  0.280218  1
  Hf  Hf2  1  0.161743  0.497503  0.780148  1
  Hf  Hf3  1  0.502311  0.837741  0.719597  1
  Hf  Hf4  1  0.497338  0.162124  0.219619  1
  Sc  Sc5  1  0.998365  0.337896  0.529517  1
  Sc  Sc6  1  0.662373  0.001267  0.970446  1
  Sc  Sc7  1  0.337878  0.998460  0.470464  1
  V  V8  1  0.331034  0.333850  0.999937  1
  V  V9  1  0.167638  0.832274  0.249536  1
  V  V10  1  0.832541  0.167881  0.750094  1
  V  V11  1  0.667523  0.667473  0.500014  1
  V  V12  1  0.004984  0.158911  0.126715  1
  V  V13  1  0.342898  0.505282  0.375363  1
  V  V14  1  0.657894  0.495619  0.876071  1
  V  V15  1  0.505241  0.343180  0.624586  1
  V  V16  1  0.495205  0.657643  0.123946  1
  V  V17  1  0.994759  0.841346  0.627616  1
  V  V18  1  0.157968  0.004438  0.873315  1
  V  V19  1  0.841466  0.994329  0.372649  1
  Si  Si20  1  0.292928  0.960795  0.063905  1
  Si  Si21  1  0.538630  0.793382  0.315484  1
  Si  Si22  1  0.461046  0.206793  0.815323  1
  Si  Si23  1  0.793471  0.538984  0.684493  1
  Si  Si24  1  0.207855  0.460082  0.185542  1
  Si  Si25  1  0.707957  0.039812  0.563820  1
  Si  Si26  1  0.958910  0.290486  0.935467  1
  Si  Si27  1  0.039889  0.707814  0.436182  1
  Si  Si28  1  0.704055  0.370853  0.070883  1
  Si  Si29  1  0.128639  0.203610  0.320960  1
  Si  Si30  1  0.870556  0.795789  0.821386  1
  Si  Si31  1  0.204063  0.128956  0.678969  1
  Si  Si32  1  0.795017  0.872283  0.179184  1
  Si  Si33  1  0.295818  0.628856  0.570620  1
  Si  Si34  1  0.372541  0.705079  0.928565  1
  Si  Si35  1  0.628829  0.295665  0.429351  1
