# generated using pymatgen
data_Hf2Fe11CoP7
_symmetry_space_group_name_H-M   'P 1'
_cell_length_a   8.85353610
_cell_length_b   8.85252720
_cell_length_c   3.56778100
_cell_angle_alpha   90.00000000
_cell_angle_beta   90.00000000
_cell_angle_gamma   119.84580752
_symmetry_Int_Tables_number   1
_chemical_formula_structural   Hf2Fe11CoP7
_chemical_formula_sum   'Hf2 Fe11 Co1 P7'
_cell_volume   242.54121037
_cell_formula_units_Z   1
loop_
 _symmetry_equiv_pos_site_id
 _symmetry_equiv_pos_as_xyz
  1  'x, y, z'
loop_
 _atom_site_type_symbol
 _atom_site_label
 _atom_site_symmetry_multiplicity
 _atom_site_fract_x
 _atom_site_fract_y
 _atom_site_fract_z
 _atom_site_occupancy
  Hf  Hf0  1  0.999328  0.998886  0.000000  1
  Hf  Hf1  1  0.335196  0.668885  0.500000  1
  Fe  Fe2  1  0.297203  0.900611  0.000000  1
  Fe  Fe3  1  0.603118  0.702539  0.000000  1
  Fe  Fe4  1  0.821800  0.608410  0.000000  1
  Fe  Fe5  1  0.786970  0.177470  0.000000  1
  Fe  Fe6  1  0.389238  0.212492  0.000000  1
  Fe  Fe7  1  0.052418  0.771871  0.500000  1
  Fe  Fe8  1  0.718745  0.946368  0.500000  1
  Fe  Fe9  1  0.226962  0.281643  0.500000  1
  Fe  Fe10  1  0.895240  0.434742  0.500000  1
  Fe  Fe11  1  0.542676  0.110179  0.500000  1
  Fe  Fe12  1  0.566419  0.455863  0.500000  1
  Co  Co13  1  0.100386  0.398327  0.000000  1
  P  P14  1  0.079434  0.632690  0.000000  1
  P  P15  1  0.552103  0.921255  0.000000  1
  P  P16  1  0.370124  0.448827  0.000000  1
  P  P17  1  0.783254  0.738178  0.500000  1
  P  P18  1  0.953181  0.213125  0.500000  1
  P  P19  1  0.260378  0.044940  0.500000  1
  P  P20  1  0.665823  0.332696  0.000000  1
