# generated using pymatgen
data_Lu12TcNi4Bi
_symmetry_space_group_name_H-M   'P 1'
_cell_length_a   8.17069543
_cell_length_b   8.17069617
_cell_length_c   8.17069600
_cell_angle_alpha   111.40747648
_cell_angle_beta   110.80260418
_cell_angle_gamma   106.25138376
_symmetry_Int_Tables_number   1
_chemical_formula_structural   Lu12TcNi4Bi
_chemical_formula_sum   'Lu12 Tc1 Ni4 Bi1'
_cell_volume   418.90924284
_cell_formula_units_Z   1
loop_
 _symmetry_equiv_pos_site_id
 _symmetry_equiv_pos_as_xyz
  1  'x, y, z'
loop_
 _atom_site_type_symbol
 _atom_site_label
 _atom_site_symmetry_multiplicity
 _atom_site_fract_x
 _atom_site_fract_y
 _atom_site_fract_z
 _atom_site_occupancy
  Lu  Lu0  1  0.683352  0.875137  0.191785  1
  Lu  Lu1  1  0.316648  0.508433  0.191785  1
  Lu  Lu2  1  0.819967  0.777258  0.597225  1
  Lu  Lu3  1  0.180033  0.777258  0.957291  1
  Lu  Lu4  1  0.819967  0.222742  0.042709  1
  Lu  Lu5  1  0.180033  0.222742  0.402775  1
  Lu  Lu6  1  0.683352  0.491567  0.808215  1
  Lu  Lu7  1  0.316648  0.124863  0.808215  1
  Lu  Lu8  1  0.585195  0.279759  0.305435  1
  Lu  Lu9  1  0.414805  0.720241  0.694565  1
  Lu  Lu10  1  0.025676  0.720241  0.305435  1
  Lu  Lu11  1  0.974324  0.279759  0.694565  1
  Tc  Tc12  1  0.000000  0.500000  0.500000  1
  Ni  Ni13  1  0.358721  0.500000  0.858721  1
  Ni  Ni14  1  0.641279  0.500000  0.141279  1
  Ni  Ni15  1  0.881599  0.881599  0.000000  1
  Ni  Ni16  1  0.118401  0.118401  0.000000  1
  Bi  Bi17  1  0.500000  0.000000  0.500000  1
