# generated using pymatgen
data_Nd8Cu3Si12Ni
_symmetry_space_group_name_H-M   'P 1'
_cell_length_a   8.10733100
_cell_length_b   8.10733109
_cell_length_c   8.56404200
_cell_angle_alpha   90.00000000
_cell_angle_beta   90.00000000
_cell_angle_gamma   119.99999554
_symmetry_Int_Tables_number   1
_chemical_formula_structural   Nd8Cu3Si12Ni
_chemical_formula_sum   'Nd8 Cu3 Si12 Ni1'
_cell_volume   487.48948622
_cell_formula_units_Z   1
loop_
 _symmetry_equiv_pos_site_id
 _symmetry_equiv_pos_as_xyz
  1  'x, y, z'
loop_
 _atom_site_type_symbol
 _atom_site_label
 _atom_site_symmetry_multiplicity
 _atom_site_fract_x
 _atom_site_fract_y
 _atom_site_fract_z
 _atom_site_occupancy
  Nd  Nd0  1  0.000000  0.000000  0.750281  1
  Nd  Nd1  1  0.000000  0.000000  0.249819  1
  Nd  Nd2  1  0.498712  0.501288  0.751534  1
  Nd  Nd3  1  0.498712  0.997426  0.751534  1
  Nd  Nd4  1  0.002574  0.501288  0.751534  1
  Nd  Nd5  1  0.499213  0.500787  0.248516  1
  Nd  Nd6  1  0.001576  0.500787  0.248516  1
  Nd  Nd7  1  0.499213  0.998424  0.248516  1
  Cu  Cu8  1  0.666667  0.333333  0.997908  1
  Cu  Cu9  1  0.666667  0.333333  0.501513  1
  Cu  Cu10  1  0.333333  0.666667  0.498844  1
  Si  Si11  1  0.832111  0.167889  0.999793  1
  Si  Si12  1  0.832111  0.664223  0.999793  1
  Si  Si13  1  0.335777  0.167889  0.999793  1
  Si  Si14  1  0.830962  0.169038  0.500237  1
  Si  Si15  1  0.830962  0.661925  0.500237  1
  Si  Si16  1  0.338075  0.169038  0.500237  1
  Si  Si17  1  0.169110  0.830890  0.499828  1
  Si  Si18  1  0.661780  0.830890  0.499828  1
  Si  Si19  1  0.169110  0.338220  0.499828  1
  Si  Si20  1  0.172343  0.827657  0.000407  1
  Si  Si21  1  0.655315  0.827657  0.000407  1
  Si  Si22  1  0.172343  0.344685  0.000407  1
  Ni  Ni23  1  0.333333  0.666667  0.000689  1
