# generated using pymatgen
data_La2Dy3Ta2BiO14
_symmetry_space_group_name_H-M   'P 1'
_cell_length_a   6.57817236
_cell_length_b   6.62636543
_cell_length_c   7.65195600
_cell_angle_alpha   90.00000000
_cell_angle_beta   90.00000000
_cell_angle_gamma   110.19786921
_symmetry_Int_Tables_number   1
_chemical_formula_structural   La2Dy3Ta2BiO14
_chemical_formula_sum   'La2 Dy3 Ta2 Bi1 O14'
_cell_volume   313.03297240
_cell_formula_units_Z   1
loop_
 _symmetry_equiv_pos_site_id
 _symmetry_equiv_pos_as_xyz
  1  'x, y, z'
loop_
 _atom_site_type_symbol
 _atom_site_label
 _atom_site_symmetry_multiplicity
 _atom_site_fract_x
 _atom_site_fract_y
 _atom_site_fract_z
 _atom_site_occupancy
  La  La0  1  0.993047  0.001397  0.003058  1
  La  La1  1  0.993047  0.001397  0.496942  1
  Dy  Dy2  1  0.511048  0.054392  0.250000  1
  Dy  Dy3  1  0.951448  0.492951  0.750000  1
  Dy  Dy4  1  0.049875  0.518083  0.250000  1
  Ta  Ta5  1  0.505367  0.504674  0.001738  1
  Ta  Ta6  1  0.505367  0.504674  0.498262  1
  Bi  Bi7  1  0.475821  0.967020  0.750000  1
  O  O8  1  0.839314  0.133749  0.750000  1
  O  O9  1  0.154672  0.880030  0.250000  1
  O  O10  1  0.094152  0.849842  0.750000  1
  O  O11  1  0.877344  0.166011  0.250000  1
  O  O12  1  0.434764  0.173745  0.971603  1
  O  O13  1  0.568041  0.809982  0.451773  1
  O  O14  1  0.189686  0.447713  0.532223  1
  O  O15  1  0.822945  0.556277  0.033008  1
  O  O16  1  0.437664  0.409911  0.250000  1
  O  O17  1  0.580960  0.540435  0.750000  1
  O  O18  1  0.189686  0.447713  0.967777  1
  O  O19  1  0.822945  0.556277  0.466992  1
  O  O20  1  0.434764  0.173745  0.528397  1
  O  O21  1  0.568041  0.809982  0.048227  1
