# generated using pymatgen
data_Hf6TiZn22Si
_symmetry_space_group_name_H-M   'P 1'
_cell_length_a   8.76582910
_cell_length_b   8.76582956
_cell_length_c   8.76583000
_cell_angle_alpha   60.00000589
_cell_angle_beta   60.00000414
_cell_angle_gamma   59.99999797
_symmetry_Int_Tables_number   1
_chemical_formula_structural   Hf6TiZn22Si
_chemical_formula_sum   'Hf6 Ti1 Zn22 Si1'
_cell_volume   476.28191782
_cell_formula_units_Z   1
loop_
 _symmetry_equiv_pos_site_id
 _symmetry_equiv_pos_as_xyz
  1  'x, y, z'
loop_
 _atom_site_type_symbol
 _atom_site_label
 _atom_site_symmetry_multiplicity
 _atom_site_fract_x
 _atom_site_fract_y
 _atom_site_fract_z
 _atom_site_occupancy
  Hf  Hf0  1  0.709152  0.290848  0.290848  1
  Hf  Hf1  1  0.290848  0.709152  0.709152  1
  Hf  Hf2  1  0.290848  0.709152  0.290848  1
  Hf  Hf3  1  0.709152  0.290848  0.709152  1
  Hf  Hf4  1  0.290848  0.290848  0.709152  1
  Hf  Hf5  1  0.709152  0.709152  0.290848  1
  Ti  Ti6  1  0.000000  0.000000  0.000000  1
  Zn  Zn7  1  0.122527  0.122527  0.122527  1
  Zn  Zn8  1  0.877473  0.877473  0.877473  1
  Zn  Zn9  1  0.122527  0.122527  0.632421  1
  Zn  Zn10  1  0.122527  0.632421  0.122527  1
  Zn  Zn11  1  0.877473  0.877473  0.367579  1
  Zn  Zn12  1  0.877473  0.367579  0.877473  1
  Zn  Zn13  1  0.632421  0.122527  0.122527  1
  Zn  Zn14  1  0.367579  0.877473  0.877473  1
  Zn  Zn15  1  0.500000  0.000000  0.000000  1
  Zn  Zn16  1  0.000000  0.500000  0.500000  1
  Zn  Zn17  1  0.000000  0.500000  0.000000  1
  Zn  Zn18  1  0.500000  0.000000  0.500000  1
  Zn  Zn19  1  0.000000  0.000000  0.500000  1
  Zn  Zn20  1  0.500000  0.500000  0.000000  1
  Zn  Zn21  1  0.335874  0.335874  0.335874  1
  Zn  Zn22  1  0.664126  0.664126  0.664126  1
  Zn  Zn23  1  0.335874  0.335874  0.992380  1
  Zn  Zn24  1  0.335874  0.992380  0.335874  1
  Zn  Zn25  1  0.664126  0.664126  0.007620  1
  Zn  Zn26  1  0.664126  0.007620  0.664126  1
  Zn  Zn27  1  0.992380  0.335874  0.335874  1
  Zn  Zn28  1  0.007620  0.664126  0.664126  1
  Si  Si29  1  0.500000  0.500000  0.500000  1
