# generated using pymatgen
data_Dy3Zr2Bi3Se
_symmetry_space_group_name_H-M   'P 1'
_cell_length_a   9.10791000
_cell_length_b   9.10791049
_cell_length_c   6.33623200
_cell_angle_alpha   90.00000000
_cell_angle_beta   90.00000000
_cell_angle_gamma   119.99999822
_symmetry_Int_Tables_number   1
_chemical_formula_structural   Dy3Zr2Bi3Se
_chemical_formula_sum   'Dy6 Zr4 Bi6 Se2'
_cell_volume   455.19679359
_cell_formula_units_Z   2
loop_
 _symmetry_equiv_pos_site_id
 _symmetry_equiv_pos_as_xyz
  1  'x, y, z'
loop_
 _atom_site_type_symbol
 _atom_site_label
 _atom_site_symmetry_multiplicity
 _atom_site_fract_x
 _atom_site_fract_y
 _atom_site_fract_z
 _atom_site_occupancy
  Dy  Dy0  1  0.738841  0.738841  0.750000  1
  Dy  Dy1  1  0.261159  0.000000  0.750000  1
  Dy  Dy2  1  0.000000  0.261159  0.750000  1
  Dy  Dy3  1  0.261159  0.261159  0.250000  1
  Dy  Dy4  1  0.738841  0.000000  0.250000  1
  Dy  Dy5  1  0.000000  0.738841  0.250000  1
  Zr  Zr6  1  0.666667  0.333333  0.000000  1
  Zr  Zr7  1  0.333333  0.666667  0.000000  1
  Zr  Zr8  1  0.333333  0.666667  0.500000  1
  Zr  Zr9  1  0.666667  0.333333  0.500000  1
  Bi  Bi10  1  0.395634  0.395634  0.750000  1
  Bi  Bi11  1  0.604366  0.000000  0.750000  1
  Bi  Bi12  1  0.000000  0.604366  0.750000  1
  Bi  Bi13  1  0.604366  0.604366  0.250000  1
  Bi  Bi14  1  0.395634  0.000000  0.250000  1
  Bi  Bi15  1  0.000000  0.395634  0.250000  1
  Se  Se16  1  0.000000  0.000000  0.000000  1
  Se  Se17  1  0.000000  0.000000  0.500000  1
