# generated using pymatgen
data_Y3ScGa2Pt3
_symmetry_space_group_name_H-M   'P 1'
_cell_length_a   7.27134200
_cell_length_b   7.28692398
_cell_length_c   4.09445200
_cell_angle_alpha   90.00000000
_cell_angle_beta   90.00000000
_cell_angle_gamma   119.92928921
_symmetry_Int_Tables_number   1
_chemical_formula_structural   Y3ScGa2Pt3
_chemical_formula_sum   'Y3 Sc1 Ga2 Pt3'
_cell_volume   188.01575056
_cell_formula_units_Z   1
loop_
 _symmetry_equiv_pos_site_id
 _symmetry_equiv_pos_as_xyz
  1  'x, y, z'
loop_
 _atom_site_type_symbol
 _atom_site_label
 _atom_site_symmetry_multiplicity
 _atom_site_fract_x
 _atom_site_fract_y
 _atom_site_fract_z
 _atom_site_occupancy
  Y  Y0  1  0.386555  0.000000  0.500000  1
  Y  Y1  1  0.015164  0.427733  0.500000  1
  Y  Y2  1  0.587432  0.572267  0.500000  1
  Sc  Sc3  1  0.760322  0.000000  0.000000  1
  Ga  Ga4  1  0.247681  0.251178  0.000000  1
  Ga  Ga5  1  0.996501  0.748822  0.000000  1
  Pt  Pt6  1  0.995142  0.000000  0.500000  1
  Pt  Pt7  1  0.669179  0.327153  0.000000  1
  Pt  Pt8  1  0.342024  0.672847  0.000000  1
