# generated using pymatgen
data_Er4InPd4Pb
_symmetry_space_group_name_H-M   'P 1'
_cell_length_a   7.80880100
_cell_length_b   7.80880100
_cell_length_c   3.62783600
_cell_angle_alpha   90.00000000
_cell_angle_beta   90.00000000
_cell_angle_gamma   90.00000000
_symmetry_Int_Tables_number   1
_chemical_formula_structural   Er4InPd4Pb
_chemical_formula_sum   'Er4 In1 Pd4 Pb1'
_cell_volume   221.21590916
_cell_formula_units_Z   1
loop_
 _symmetry_equiv_pos_site_id
 _symmetry_equiv_pos_as_xyz
  1  'x, y, z'
loop_
 _atom_site_type_symbol
 _atom_site_label
 _atom_site_symmetry_multiplicity
 _atom_site_fract_x
 _atom_site_fract_y
 _atom_site_fract_z
 _atom_site_occupancy
  Er  Er0  1  0.331430  0.825578  0.500000  1
  Er  Er1  1  0.825578  0.668570  0.500000  1
  Er  Er2  1  0.174422  0.331430  0.500000  1
  Er  Er3  1  0.668570  0.174422  0.500000  1
  In  In4  1  0.500000  0.500000  0.000000  1
  Pd  Pd5  1  0.375540  0.129340  0.000000  1
  Pd  Pd6  1  0.870660  0.375540  0.000000  1
  Pd  Pd7  1  0.129340  0.624460  0.000000  1
  Pd  Pd8  1  0.624460  0.870660  0.000000  1
  Pb  Pb9  1  0.000000  0.000000  0.000000  1
