# generated using pymatgen
data_Pr5Hf2ThSb10
_symmetry_space_group_name_H-M   'P 1'
_cell_length_a   9.54921100
_cell_length_b   9.54410362
_cell_length_c   6.34374000
_cell_angle_alpha   90.00000000
_cell_angle_beta   90.00000000
_cell_angle_gamma   120.01770716
_symmetry_Int_Tables_number   1
_chemical_formula_structural   Pr5Hf2ThSb10
_chemical_formula_sum   'Pr5 Hf2 Th1 Sb10'
_cell_volume   500.61184769
_cell_formula_units_Z   1
loop_
 _symmetry_equiv_pos_site_id
 _symmetry_equiv_pos_as_xyz
  1  'x, y, z'
loop_
 _atom_site_type_symbol
 _atom_site_label
 _atom_site_symmetry_multiplicity
 _atom_site_fract_x
 _atom_site_fract_y
 _atom_site_fract_z
 _atom_site_occupancy
  Pr  Pr0  1  0.381692  0.000000  0.750000  1
  Pr  Pr1  1  0.000692  0.617998  0.250000  1
  Pr  Pr2  1  0.999854  0.383602  0.750000  1
  Pr  Pr3  1  0.382693  0.382002  0.250000  1
  Pr  Pr4  1  0.616252  0.616398  0.750000  1
  Hf  Hf5  1  0.000871  0.000000  0.998592  1
  Hf  Hf6  1  0.000871  0.000000  0.501408  1
  Th  Th7  1  0.616774  0.000000  0.250000  1
  Sb  Sb8  1  0.262700  0.000000  0.250000  1
  Sb  Sb9  1  0.736903  0.000000  0.750000  1
  Sb  Sb10  1  0.999002  0.261190  0.250000  1
  Sb  Sb11  1  0.999710  0.737798  0.750000  1
  Sb  Sb12  1  0.737812  0.738810  0.250000  1
  Sb  Sb13  1  0.261913  0.262202  0.750000  1
  Sb  Sb14  1  0.334605  0.668081  0.000562  1
  Sb  Sb15  1  0.666525  0.331919  0.000562  1
  Sb  Sb16  1  0.666525  0.331919  0.499438  1
  Sb  Sb17  1  0.334605  0.668081  0.499438  1
