# generated using pymatgen
data_Dy3Y2Sc3(P3Ir4)4
_symmetry_space_group_name_H-M   'P 1'
_cell_length_a   12.86295600
_cell_length_b   12.86295629
_cell_length_c   3.96620100
_cell_angle_alpha   90.00000000
_cell_angle_beta   90.00000000
_cell_angle_gamma   119.99999925
_symmetry_Int_Tables_number   1
_chemical_formula_structural   Dy3Y2Sc3(P3Ir4)4
_chemical_formula_sum   'Dy3 Y2 Sc3 P12 Ir16'
_cell_volume   568.31213908
_cell_formula_units_Z   1
loop_
 _symmetry_equiv_pos_site_id
 _symmetry_equiv_pos_as_xyz
  1  'x, y, z'
loop_
 _atom_site_type_symbol
 _atom_site_label
 _atom_site_symmetry_multiplicity
 _atom_site_fract_x
 _atom_site_fract_y
 _atom_site_fract_z
 _atom_site_occupancy
  Dy  Dy0  1  0.000000  0.811786  0.000000  1
  Dy  Dy1  1  0.188214  0.188214  0.000000  1
  Dy  Dy2  1  0.811786  0.000000  0.000000  1
  Y  Y3  1  0.333333  0.666667  0.500000  1
  Y  Y4  1  0.666667  0.333333  0.500000  1
  Sc  Sc5  1  0.000000  0.444742  0.500000  1
  Sc  Sc6  1  0.555258  0.555258  0.500000  1
  Sc  Sc7  1  0.444742  0.000000  0.500000  1
  P  P8  1  0.000000  0.645574  0.500000  1
  P  P9  1  0.354426  0.354426  0.500000  1
  P  P10  1  0.645574  0.000000  0.500000  1
  P  P11  1  0.517053  0.686588  0.000000  1
  P  P12  1  0.313412  0.830465  0.000000  1
  P  P13  1  0.169535  0.482947  0.000000  1
  P  P14  1  0.482947  0.169535  0.000000  1
  P  P15  1  0.686588  0.517053  0.000000  1
  P  P16  1  0.830465  0.313412  0.000000  1
  P  P17  1  0.000000  0.176929  0.500000  1
  P  P18  1  0.823071  0.823071  0.500000  1
  P  P19  1  0.176929  0.000000  0.500000  1
  Ir  Ir20  1  0.510118  0.867931  0.000000  1
  Ir  Ir21  1  0.132069  0.642188  0.000000  1
  Ir  Ir22  1  0.357812  0.489882  0.000000  1
  Ir  Ir23  1  0.489882  0.357812  0.000000  1
  Ir  Ir24  1  0.867931  0.510118  0.000000  1
  Ir  Ir25  1  0.642188  0.132069  0.000000  1
  Ir  Ir26  1  0.000000  0.277874  0.000000  1
  Ir  Ir27  1  0.722126  0.722126  0.000000  1
  Ir  Ir28  1  0.277874  0.000000  0.000000  1
  Ir  Ir29  1  0.627954  0.806826  0.500000  1
  Ir  Ir30  1  0.193174  0.821128  0.500000  1
  Ir  Ir31  1  0.178872  0.372046  0.500000  1
  Ir  Ir32  1  0.372046  0.178872  0.500000  1
  Ir  Ir33  1  0.806826  0.627954  0.500000  1
  Ir  Ir34  1  0.821128  0.193174  0.500000  1
  Ir  Ir35  1  0.000000  0.000000  0.500000  1
