# generated using pymatgen
data_Tb5Pr3MgCdIr2
_symmetry_space_group_name_H-M   'P 1'
_cell_length_a   9.84302529
_cell_length_b   9.84302595
_cell_length_c   9.85114700
_cell_angle_alpha   59.97270698
_cell_angle_beta   59.97270476
_cell_angle_gamma   59.86697947
_symmetry_Int_Tables_number   1
_chemical_formula_structural   Tb5Pr3MgCdIr2
_chemical_formula_sum   'Tb10 Pr6 Mg2 Cd2 Ir4'
_cell_volume   673.92505262
_cell_formula_units_Z   2
loop_
 _symmetry_equiv_pos_site_id
 _symmetry_equiv_pos_as_xyz
  1  'x, y, z'
loop_
 _atom_site_type_symbol
 _atom_site_label
 _atom_site_symmetry_multiplicity
 _atom_site_fract_x
 _atom_site_fract_y
 _atom_site_fract_z
 _atom_site_occupancy
  Tb  Tb0  1  0.346785  0.346785  0.345803  1
  Tb  Tb1  1  0.346785  0.346785  0.960627  1
  Tb  Tb2  1  0.346683  0.961726  0.345795  1
  Tb  Tb3  1  0.961726  0.346683  0.345795  1
  Tb  Tb4  1  0.812428  0.186377  0.187873  1
  Tb  Tb5  1  0.186377  0.812428  0.813322  1
  Tb  Tb6  1  0.186377  0.812428  0.187873  1
  Tb  Tb7  1  0.812428  0.186377  0.813322  1
  Tb  Tb8  1  0.188433  0.188433  0.811567  1
  Tb  Tb9  1  0.813790  0.813790  0.186210  1
  Pr  Pr10  1  0.942520  0.558156  0.558788  1
  Pr  Pr11  1  0.558156  0.942520  0.940535  1
  Pr  Pr12  1  0.558156  0.942520  0.558788  1
  Pr  Pr13  1  0.942520  0.558156  0.940535  1
  Pr  Pr14  1  0.559895  0.559895  0.940105  1
  Pr  Pr15  1  0.942271  0.942271  0.557729  1
  Mg  Mg16  1  0.575400  0.575400  0.579676  1
  Mg  Mg17  1  0.575400  0.575400  0.269523  1
  Cd  Cd18  1  0.580129  0.260604  0.579632  1
  Cd  Cd19  1  0.260604  0.580129  0.579632  1
  Ir  Ir20  1  0.142006  0.142006  0.139594  1
  Ir  Ir21  1  0.142006  0.142006  0.576393  1
  Ir  Ir22  1  0.142744  0.576377  0.140439  1
  Ir  Ir23  1  0.576377  0.142744  0.140439  1
