# generated using pymatgen
data_Tb15Tm(InPt)4
_symmetry_space_group_name_H-M   'P 1'
_cell_length_a   9.76588663
_cell_length_b   9.76588632
_cell_length_c   9.76499700
_cell_angle_alpha   60.00301570
_cell_angle_beta   60.00301676
_cell_angle_gamma   60.00584305
_symmetry_Int_Tables_number   1
_chemical_formula_structural   Tb15Tm(InPt)4
_chemical_formula_sum   'Tb15 Tm1 In4 Pt4'
_cell_volume   658.59652253
_cell_formula_units_Z   1
loop_
 _symmetry_equiv_pos_site_id
 _symmetry_equiv_pos_as_xyz
  1  'x, y, z'
loop_
 _atom_site_type_symbol
 _atom_site_label
 _atom_site_symmetry_multiplicity
 _atom_site_fract_x
 _atom_site_fract_y
 _atom_site_fract_z
 _atom_site_occupancy
  Tb  Tb0  1  0.809239  0.189764  0.810399  1
  Tb  Tb1  1  0.190444  0.190444  0.809556  1
  Tb  Tb2  1  0.649687  0.051954  0.649178  1
  Tb  Tb3  1  0.062373  0.062373  0.437627  1
  Tb  Tb4  1  0.437428  0.437428  0.062572  1
  Tb  Tb5  1  0.649805  0.649805  0.648432  1
  Tb  Tb6  1  0.809239  0.189764  0.190598  1
  Tb  Tb7  1  0.189764  0.809239  0.810399  1
  Tb  Tb8  1  0.051954  0.649687  0.649178  1
  Tb  Tb9  1  0.438161  0.062290  0.062496  1
  Tb  Tb10  1  0.438161  0.062290  0.437055  1
  Tb  Tb11  1  0.062290  0.438161  0.062496  1
  Tb  Tb12  1  0.649805  0.649805  0.051956  1
  Tb  Tb13  1  0.189764  0.809239  0.190598  1
  Tb  Tb14  1  0.062290  0.438161  0.437055  1
  Tm  Tm15  1  0.809669  0.809669  0.190331  1
  In  In16  1  0.417146  0.417146  0.416823  1
  In  In17  1  0.417146  0.417146  0.748883  1
  In  In18  1  0.417467  0.748343  0.417095  1
  In  In19  1  0.748343  0.417467  0.417095  1
  Pt  Pt20  1  0.857304  0.429017  0.856840  1
  Pt  Pt21  1  0.856750  0.856750  0.859150  1
  Pt  Pt22  1  0.856750  0.856750  0.427349  1
  Pt  Pt23  1  0.429017  0.857304  0.856840  1
