# generated using pymatgen
data_SrTh3(SiPd14)2
_symmetry_space_group_name_H-M   'P 1'
_cell_length_a   9.04443600
_cell_length_b   9.04443600
_cell_length_c   7.12027700
_cell_angle_alpha   90.00000000
_cell_angle_beta   90.00000000
_cell_angle_gamma   90.00000000
_symmetry_Int_Tables_number   1
_chemical_formula_structural   SrTh3(SiPd14)2
_chemical_formula_sum   'Sr1 Th3 Si2 Pd28'
_cell_volume   582.45163572
_cell_formula_units_Z   1
loop_
 _symmetry_equiv_pos_site_id
 _symmetry_equiv_pos_as_xyz
  1  'x, y, z'
loop_
 _atom_site_type_symbol
 _atom_site_label
 _atom_site_symmetry_multiplicity
 _atom_site_fract_x
 _atom_site_fract_y
 _atom_site_fract_z
 _atom_site_occupancy
  Sr  Sr0  1  0.500000  0.000000  0.937142  1
  Th  Th1  1  0.000000  0.500000  0.067448  1
  Th  Th2  1  0.000000  0.000000  0.500049  1
  Th  Th3  1  0.500000  0.500000  0.500049  1
  Si  Si4  1  0.500000  0.000000  0.448188  1
  Si  Si5  1  0.000000  0.500000  0.552747  1
  Pd  Pd6  1  0.334055  0.834055  0.611433  1
  Pd  Pd7  1  0.334055  0.165945  0.611433  1
  Pd  Pd8  1  0.665945  0.834055  0.611433  1
  Pd  Pd9  1  0.665945  0.165945  0.611433  1
  Pd  Pd10  1  0.164027  0.664027  0.385243  1
  Pd  Pd11  1  0.164027  0.335973  0.385243  1
  Pd  Pd12  1  0.835973  0.664027  0.385243  1
  Pd  Pd13  1  0.835973  0.335973  0.385243  1
  Pd  Pd14  1  0.500000  0.766928  0.261775  1
  Pd  Pd15  1  0.500000  0.233072  0.261775  1
  Pd  Pd16  1  0.266928  0.000000  0.261775  1
  Pd  Pd17  1  0.733072  0.000000  0.261775  1
  Pd  Pd18  1  0.000000  0.728803  0.743187  1
  Pd  Pd19  1  0.000000  0.271197  0.743187  1
  Pd  Pd20  1  0.228803  0.500000  0.743187  1
  Pd  Pd21  1  0.771197  0.500000  0.743187  1
  Pd  Pd22  1  0.500000  0.350087  0.850901  1
  Pd  Pd23  1  0.500000  0.649913  0.850901  1
  Pd  Pd24  1  0.850087  0.000000  0.850901  1
  Pd  Pd25  1  0.149913  0.000000  0.850901  1
  Pd  Pd26  1  0.000000  0.150743  0.147552  1
  Pd  Pd27  1  0.000000  0.849257  0.147552  1
  Pd  Pd28  1  0.650743  0.500000  0.147552  1
  Pd  Pd29  1  0.349257  0.500000  0.147552  1
  Pd  Pd30  1  0.247079  0.747079  0.998504  1
  Pd  Pd31  1  0.247079  0.252921  0.998504  1
  Pd  Pd32  1  0.752921  0.747079  0.998504  1
  Pd  Pd33  1  0.752921  0.252921  0.998504  1
