# generated using pymatgen
data_Ce2Ti3Co9P7
_symmetry_space_group_name_H-M   'P 1'
_cell_length_a   9.20484100
_cell_length_b   9.20484139
_cell_length_c   3.68019000
_cell_angle_alpha   90.00000000
_cell_angle_beta   90.00000000
_cell_angle_gamma   120.00000603
_symmetry_Int_Tables_number   1
_chemical_formula_structural   Ce2Ti3Co9P7
_chemical_formula_sum   'Ce2 Ti3 Co9 P7'
_cell_volume   270.04332515
_cell_formula_units_Z   1
loop_
 _symmetry_equiv_pos_site_id
 _symmetry_equiv_pos_as_xyz
  1  'x, y, z'
loop_
 _atom_site_type_symbol
 _atom_site_label
 _atom_site_symmetry_multiplicity
 _atom_site_fract_x
 _atom_site_fract_y
 _atom_site_fract_z
 _atom_site_occupancy
  Ce  Ce0  1  0.000000  0.000000  0.000000  1
  Ce  Ce1  1  0.333333  0.666667  0.500000  1
  Ti  Ti2  1  0.887920  0.440118  0.500000  1
  Ti  Ti3  1  0.552198  0.112080  0.500000  1
  Ti  Ti4  1  0.559882  0.447802  0.500000  1
  Co  Co5  1  0.098930  0.397240  0.000000  1
  Co  Co6  1  0.298310  0.901070  0.000000  1
  Co  Co7  1  0.602760  0.701690  0.000000  1
  Co  Co8  1  0.824910  0.614456  0.000000  1
  Co  Co9  1  0.789546  0.175090  0.000000  1
  Co  Co10  1  0.385544  0.210454  0.000000  1
  Co  Co11  1  0.053288  0.772639  0.500000  1
  Co  Co12  1  0.719351  0.946712  0.500000  1
  Co  Co13  1  0.227361  0.280649  0.500000  1
  P  P14  1  0.078165  0.640448  0.000000  1
  P  P15  1  0.562283  0.921835  0.000000  1
  P  P16  1  0.359552  0.437717  0.000000  1
  P  P17  1  0.782757  0.739348  0.500000  1
  P  P18  1  0.956592  0.217243  0.500000  1
  P  P19  1  0.260652  0.043408  0.500000  1
  P  P20  1  0.666667  0.333333  0.000000  1
