# generated using pymatgen
data_Nd6GaCoOs
_symmetry_space_group_name_H-M   'P 1'
_cell_length_a   8.60976997
_cell_length_b   8.60966310
_cell_length_c   8.60976888
_cell_angle_alpha   112.29530584
_cell_angle_beta   110.10828395
_cell_angle_gamma   106.07124348
_symmetry_Int_Tables_number   1
_chemical_formula_structural   Nd6GaCoOs
_chemical_formula_sum   'Nd12 Ga2 Co2 Os2'
_cell_volume   489.81947301
_cell_formula_units_Z   2
loop_
 _symmetry_equiv_pos_site_id
 _symmetry_equiv_pos_as_xyz
  1  'x, y, z'
loop_
 _atom_site_type_symbol
 _atom_site_label
 _atom_site_symmetry_multiplicity
 _atom_site_fract_x
 _atom_site_fract_y
 _atom_site_fract_z
 _atom_site_occupancy
  Nd  Nd0  1  0.049587  0.742622  0.306956  1
  Nd  Nd1  1  0.950413  0.257378  0.693044  1
  Nd  Nd2  1  0.564333  0.257378  0.306964  1
  Nd  Nd3  1  0.435667  0.742622  0.693036  1
  Nd  Nd4  1  0.673838  0.858233  0.184396  1
  Nd  Nd5  1  0.326168  0.510567  0.184399  1
  Nd  Nd6  1  0.326162  0.141767  0.815604  1
  Nd  Nd7  1  0.673832  0.489433  0.815601  1
  Nd  Nd8  1  0.179692  0.221569  0.401250  1
  Nd  Nd9  1  0.820318  0.221569  0.041877  1
  Nd  Nd10  1  0.179682  0.778431  0.958123  1
  Nd  Nd11  1  0.820308  0.778431  0.598750  1
  Ga  Ga12  1  0.000000  0.500000  0.500000  1
  Ga  Ga13  1  0.500000  0.000000  0.500000  1
  Co  Co14  1  0.891242  0.891240  0.999998  1
  Co  Co15  1  0.108758  0.108760  0.000002  1
  Os  Os16  1  0.673092  0.500000  0.173092  1
  Os  Os17  1  0.326908  0.500000  0.826908  1
