# generated using pymatgen
data_Rb(AuO2)2
_symmetry_space_group_name_H-M   'P 1'
_cell_length_a   7.04842584
_cell_length_b   7.04842613
_cell_length_c   7.04842660
_cell_angle_alpha   122.11288910
_cell_angle_beta   122.11288675
_cell_angle_gamma   86.37773984
_symmetry_Int_Tables_number   1
_chemical_formula_structural   Rb(AuO2)2
_chemical_formula_sum   'Rb2 Au4 O8'
_cell_volume   239.17814271
_cell_formula_units_Z   2
loop_
 _symmetry_equiv_pos_site_id
 _symmetry_equiv_pos_as_xyz
  1  'x, y, z'
loop_
 _atom_site_type_symbol
 _atom_site_label
 _atom_site_symmetry_multiplicity
 _atom_site_fract_x
 _atom_site_fract_y
 _atom_site_fract_z
 _atom_site_occupancy
  Rb  Rb0  1  0.750000  0.250000  0.500000  1
  Rb  Rb1  1  0.000000  0.000000  0.000000  1
  Au  Au2  1  0.375000  0.625000  0.750000  1
  Au  Au3  1  0.375000  0.125000  0.750000  1
  Au  Au4  1  0.875000  0.625000  0.250000  1
  Au  Au5  1  0.375000  0.625000  0.250000  1
  O  O6  1  0.058026  0.460658  0.104867  1
  O  O7  1  0.703160  0.308026  0.097369  1
  O  O8  1  0.210658  0.605791  0.902631  1
  O  O9  1  0.355791  0.953160  0.895133  1
  O  O10  1  0.691974  0.789342  0.395133  1
  O  O11  1  0.046840  0.941974  0.402631  1
  O  O12  1  0.394209  0.296840  0.604867  1
  O  O13  1  0.539342  0.644209  0.597369  1
