# generated using pymatgen
data_Ho2Er8(IrRh)3
_symmetry_space_group_name_H-M   'P 1'
_cell_length_a   10.80162604
_cell_length_b   10.79916500
_cell_length_c   6.33765001
_cell_angle_alpha   90.00000000
_cell_angle_beta   89.97208619
_cell_angle_gamma   90.00000000
_symmetry_Int_Tables_number   1
_chemical_formula_structural   Ho2Er8(IrRh)3
_chemical_formula_sum   'Ho4 Er16 Ir6 Rh6'
_cell_volume   739.27754470
_cell_formula_units_Z   2
loop_
 _symmetry_equiv_pos_site_id
 _symmetry_equiv_pos_as_xyz
  1  'x, y, z'
loop_
 _atom_site_type_symbol
 _atom_site_label
 _atom_site_symmetry_multiplicity
 _atom_site_fract_x
 _atom_site_fract_y
 _atom_site_fract_z
 _atom_site_occupancy
  Ho  Ho0  1  0.290113  0.088584  0.378720  1
  Ho  Ho1  1  0.290113  0.911416  0.878720  1
  Ho  Ho2  1  0.708431  0.090018  0.878192  1
  Ho  Ho3  1  0.708431  0.909982  0.378192  1
  Er  Er4  1  0.586979  0.789964  0.879037  1
  Er  Er5  1  0.586979  0.210036  0.379037  1
  Er  Er6  1  0.410875  0.790482  0.378834  1
  Er  Er7  1  0.410875  0.209518  0.878834  1
  Er  Er8  1  0.209844  0.411079  0.620973  1
  Er  Er9  1  0.209844  0.588921  0.120973  1
  Er  Er10  1  0.790232  0.412832  0.121634  1
  Er  Er11  1  0.790232  0.587168  0.621634  1
  Er  Er12  1  0.912085  0.709155  0.121649  1
  Er  Er13  1  0.912085  0.290845  0.621649  1
  Er  Er14  1  0.090329  0.708811  0.620887  1
  Er  Er15  1  0.090329  0.291189  0.120887  1
  Er  Er16  1  0.000135  0.999719  0.499839  1
  Er  Er17  1  0.000135  0.000281  0.999839  1
  Er  Er18  1  0.500241  0.499518  0.000148  1
  Er  Er19  1  0.500241  0.500482  0.500148  1
  Ir  Ir20  1  0.152963  0.154206  0.749956  1
  Ir  Ir21  1  0.152963  0.845794  0.249956  1
  Ir  Ir22  1  0.654903  0.345766  0.749632  1
  Ir  Ir23  1  0.654903  0.654234  0.249632  1
  Ir  Ir24  1  0.346460  0.345975  0.250389  1
  Ir  Ir25  1  0.346460  0.654025  0.750389  1
  Rh  Rh26  1  0.845797  0.153502  0.250030  1
  Rh  Rh27  1  0.845797  0.846498  0.750030  1
  Rh  Rh28  1  0.501040  0.000023  0.123965  1
  Rh  Rh29  1  0.501040  0.999977  0.623965  1
  Rh  Rh30  1  0.999573  0.500130  0.876113  1
  Rh  Rh31  1  0.999573  0.499870  0.376113  1
