# generated using pymatgen
data_Y4Ti5Nb3Sn10
_symmetry_space_group_name_H-M   'P 1'
_cell_length_a   10.89761821
_cell_length_b   10.89761843
_cell_length_c   10.90392600
_cell_angle_alpha   149.12715243
_cell_angle_beta   131.73008643
_cell_angle_gamma   58.34435772
_symmetry_Int_Tables_number   1
_chemical_formula_structural   Y4Ti5Nb3Sn10
_chemical_formula_sum   'Y4 Ti5 Nb3 Sn10'
_cell_volume   492.21994165
_cell_formula_units_Z   1
loop_
 _symmetry_equiv_pos_site_id
 _symmetry_equiv_pos_as_xyz
  1  'x, y, z'
loop_
 _atom_site_type_symbol
 _atom_site_label
 _atom_site_symmetry_multiplicity
 _atom_site_fract_x
 _atom_site_fract_y
 _atom_site_fract_z
 _atom_site_occupancy
  Y  Y0  1  0.260548  0.146167  0.117203  1
  Y  Y1  1  0.741139  0.854374  0.885057  1
  Y  Y2  1  0.028962  0.643345  0.382797  1
  Y  Y3  1  0.969317  0.356081  0.614943  1
  Ti  Ti4  1  0.311615  0.061615  0.750000  1
  Ti  Ti5  1  0.675158  0.437585  0.240263  1
  Ti  Ti6  1  0.325882  0.563285  0.760961  1
  Ti  Ti7  1  0.197321  0.934895  0.259737  1
  Ti  Ti8  1  0.802324  0.064922  0.739039  1
  Nb  Nb9  1  0.311233  0.561233  0.250000  1
  Nb  Nb10  1  0.688405  0.438405  0.750000  1
  Nb  Nb11  1  0.689126  0.939126  0.250000  1
  Sn  Sn12  1  0.583398  0.289800  0.294023  1
  Sn  Sn13  1  0.415315  0.711422  0.705263  1
  Sn  Sn14  1  0.995778  0.789376  0.205977  1
  Sn  Sn15  1  0.006159  0.210052  0.794737  1
  Sn  Sn16  1  0.000158  0.250158  0.250000  1
  Sn  Sn17  1  0.000202  0.750202  0.750000  1
  Sn  Sn18  1  0.468996  0.064142  0.403049  1
  Sn  Sn19  1  0.529847  0.936999  0.598975  1
  Sn  Sn20  1  0.661092  0.565945  0.096951  1
  Sn  Sn21  1  0.338025  0.430874  0.901025  1
