# generated using pymatgen
data_Gd3Er3TcOs
_symmetry_space_group_name_H-M   'P 1'
_cell_length_a   6.27343956
_cell_length_b   7.44102200
_cell_length_c   9.04814200
_cell_angle_alpha   90.00000000
_cell_angle_beta   90.25382719
_cell_angle_gamma   90.00000000
_symmetry_Int_Tables_number   1
_chemical_formula_structural   Gd3Er3TcOs
_chemical_formula_sum   'Gd6 Er6 Tc2 Os2'
_cell_volume   422.37037852
_cell_formula_units_Z   2
loop_
 _symmetry_equiv_pos_site_id
 _symmetry_equiv_pos_as_xyz
  1  'x, y, z'
loop_
 _atom_site_type_symbol
 _atom_site_label
 _atom_site_symmetry_multiplicity
 _atom_site_fract_x
 _atom_site_fract_y
 _atom_site_fract_z
 _atom_site_occupancy
  Gd  Gd0  1  0.338852  0.675394  0.063014  1
  Gd  Gd1  1  0.161148  0.175394  0.436986  1
  Gd  Gd2  1  0.875170  0.540737  0.250770  1
  Gd  Gd3  1  0.624830  0.040737  0.249230  1
  Gd  Gd4  1  0.128144  0.458875  0.749959  1
  Gd  Gd5  1  0.371856  0.958875  0.750041  1
  Er  Er6  1  0.663639  0.325847  0.563905  1
  Er  Er7  1  0.836361  0.825847  0.936095  1
  Er  Er8  1  0.663690  0.324544  0.936120  1
  Er  Er9  1  0.836310  0.824544  0.563880  1
  Er  Er10  1  0.339706  0.674296  0.438539  1
  Er  Er11  1  0.160294  0.174296  0.061461  1
  Tc  Tc12  1  0.037014  0.882411  0.250576  1
  Tc  Tc13  1  0.462986  0.382411  0.249424  1
  Os  Os14  1  0.954807  0.117898  0.752599  1
  Os  Os15  1  0.545193  0.617898  0.747401  1
