# generated using pymatgen
data_Tb8Si12Ni3Au
_symmetry_space_group_name_H-M   'P 1'
_cell_length_a   8.01101700
_cell_length_b   8.01101818
_cell_length_c   8.16512500
_cell_angle_alpha   89.99999392
_cell_angle_beta   90.00000000
_cell_angle_gamma   120.00006804
_symmetry_Int_Tables_number   1
_chemical_formula_structural   Tb8Si12Ni3Au
_chemical_formula_sum   'Tb8 Si12 Ni3 Au1'
_cell_volume   453.80423291
_cell_formula_units_Z   1
loop_
 _symmetry_equiv_pos_site_id
 _symmetry_equiv_pos_as_xyz
  1  'x, y, z'
loop_
 _atom_site_type_symbol
 _atom_site_label
 _atom_site_symmetry_multiplicity
 _atom_site_fract_x
 _atom_site_fract_y
 _atom_site_fract_z
 _atom_site_occupancy
  Tb  Tb0  1  0.502536  0.005072  0.246315  1
  Tb  Tb1  1  0.502221  0.004444  0.753695  1
  Tb  Tb2  1  0.994927  0.497464  0.246314  1
  Tb  Tb3  1  0.995556  0.497778  0.753695  1
  Tb  Tb4  1  0.502536  0.497464  0.246314  1
  Tb  Tb5  1  0.502221  0.497778  0.753695  1
  Tb  Tb6  1  0.000000  0.000000  0.247074  1
  Tb  Tb7  1  0.000000  0.000000  0.752903  1
  Si  Si8  1  0.171567  0.343134  0.000251  1
  Si  Si9  1  0.829385  0.658771  0.999810  1
  Si  Si10  1  0.656866  0.828433  0.000251  1
  Si  Si11  1  0.826458  0.652916  0.500149  1
  Si  Si12  1  0.341229  0.170615  0.999810  1
  Si  Si13  1  0.160611  0.321222  0.499826  1
  Si  Si14  1  0.171566  0.828433  0.000251  1
  Si  Si15  1  0.347084  0.173542  0.500149  1
  Si  Si16  1  0.829386  0.170614  0.999810  1
  Si  Si17  1  0.678778  0.839389  0.499826  1
  Si  Si18  1  0.826458  0.173542  0.500149  1
  Si  Si19  1  0.160611  0.839389  0.499826  1
  Ni  Ni20  1  0.333333  0.666667  0.000311  1
  Ni  Ni21  1  0.666667  0.333333  0.999247  1
  Ni  Ni22  1  0.666667  0.333334  0.500717  1
  Au  Au23  1  0.333333  0.666667  0.499607  1
