# generated using pymatgen
data_DyTh2AlC3
_symmetry_space_group_name_H-M   'P 1'
_cell_length_a   3.63466700
_cell_length_b   7.49285841
_cell_length_c   9.92854982
_cell_angle_alpha   88.45393940
_cell_angle_beta   90.00000000
_cell_angle_gamma   90.00000000
_symmetry_Int_Tables_number   1
_chemical_formula_structural   DyTh2AlC3
_chemical_formula_sum   'Dy2 Th4 Al2 C6'
_cell_volume   270.29613954
_cell_formula_units_Z   2
loop_
 _symmetry_equiv_pos_site_id
 _symmetry_equiv_pos_as_xyz
  1  'x, y, z'
loop_
 _atom_site_type_symbol
 _atom_site_label
 _atom_site_symmetry_multiplicity
 _atom_site_fract_x
 _atom_site_fract_y
 _atom_site_fract_z
 _atom_site_occupancy
  Dy  Dy0  1  0.500000  0.984336  0.198526  1
  Dy  Dy1  1  0.500000  0.015664  0.801474  1
  Th  Th2  1  0.500000  0.514639  0.191424  1
  Th  Th3  1  0.500000  0.485361  0.808576  1
  Th  Th4  1  0.000000  0.749269  0.472347  1
  Th  Th5  1  0.000000  0.250731  0.527653  1
  Al  Al6  1  0.000000  0.776565  0.000715  1
  Al  Al7  1  0.000000  0.223435  0.999285  1
  C  C8  1  0.500000  0.509211  0.569723  1
  C  C9  1  0.500000  0.490789  0.430277  1
  C  C10  1  0.500000  0.996741  0.568485  1
  C  C11  1  0.500000  0.003259  0.431515  1
  C  C12  1  0.000000  0.749457  0.208336  1
  C  C13  1  0.000000  0.250543  0.791664  1
