# generated using pymatgen
data_Lu8Sc2AlBi5
_symmetry_space_group_name_H-M   'P 1'
_cell_length_a   7.97642398
_cell_length_b   9.25749500
_cell_length_c   11.66245221
_cell_angle_alpha   90.00000000
_cell_angle_beta   89.44894739
_cell_angle_gamma   90.00000000
_symmetry_Int_Tables_number   1
_chemical_formula_structural   Lu8Sc2AlBi5
_chemical_formula_sum   'Lu16 Sc4 Al2 Bi10'
_cell_volume   861.13552788
_cell_formula_units_Z   2
loop_
 _symmetry_equiv_pos_site_id
 _symmetry_equiv_pos_as_xyz
  1  'x, y, z'
loop_
 _atom_site_type_symbol
 _atom_site_label
 _atom_site_symmetry_multiplicity
 _atom_site_fract_x
 _atom_site_fract_y
 _atom_site_fract_z
 _atom_site_occupancy
  Lu  Lu0  1  0.351846  0.250000  0.293391  1
  Lu  Lu1  1  0.648154  0.750000  0.706609  1
  Lu  Lu2  1  0.148695  0.750000  0.783260  1
  Lu  Lu3  1  0.851305  0.250000  0.216740  1
  Lu  Lu4  1  0.194951  0.250000  0.775936  1
  Lu  Lu5  1  0.805049  0.750000  0.224064  1
  Lu  Lu6  1  0.322276  0.750000  0.286837  1
  Lu  Lu7  1  0.677724  0.250000  0.713163  1
  Lu  Lu8  1  0.196461  0.067590  0.060131  1
  Lu  Lu9  1  0.803539  0.932410  0.939869  1
  Lu  Lu10  1  0.313120  0.938543  0.553618  1
  Lu  Lu11  1  0.803539  0.567590  0.939869  1
  Lu  Lu12  1  0.686880  0.061457  0.446382  1
  Lu  Lu13  1  0.196461  0.432410  0.060131  1
  Lu  Lu14  1  0.686880  0.438543  0.446382  1
  Lu  Lu15  1  0.313120  0.561457  0.553618  1
  Sc  Sc16  1  0.033415  0.250000  0.510519  1
  Sc  Sc17  1  0.966585  0.750000  0.489481  1
  Sc  Sc18  1  0.475256  0.750000  0.012186  1
  Sc  Sc19  1  0.524744  0.250000  0.987814  1
  Al  Al20  1  0.401034  0.250000  0.542633  1
  Al  Al21  1  0.598966  0.750000  0.457367  1
  Bi  Bi22  1  0.097687  0.750000  0.045779  1
  Bi  Bi23  1  0.902313  0.250000  0.954221  1
  Bi  Bi24  1  0.060489  0.002236  0.327363  1
  Bi  Bi25  1  0.939511  0.997764  0.672637  1
  Bi  Bi26  1  0.437543  0.995522  0.827836  1
  Bi  Bi27  1  0.939511  0.502236  0.672637  1
  Bi  Bi28  1  0.562457  0.004478  0.172164  1
  Bi  Bi29  1  0.060489  0.497764  0.327363  1
  Bi  Bi30  1  0.562457  0.495522  0.172164  1
  Bi  Bi31  1  0.437543  0.504478  0.827836  1
