# generated using pymatgen
data_Ac5Pr5Ir8
_symmetry_space_group_name_H-M   'P 1'
_cell_length_a   7.79361000
_cell_length_b   7.90392400
_cell_length_c   15.46219217
_cell_angle_alpha   89.93362552
_cell_angle_beta   90.00000000
_cell_angle_gamma   90.00000000
_symmetry_Int_Tables_number   1
_chemical_formula_structural   Ac5Pr5Ir8
_chemical_formula_sum   'Ac10 Pr10 Ir16'
_cell_volume   952.47196199
_cell_formula_units_Z   2
loop_
 _symmetry_equiv_pos_site_id
 _symmetry_equiv_pos_as_xyz
  1  'x, y, z'
loop_
 _atom_site_type_symbol
 _atom_site_label
 _atom_site_symmetry_multiplicity
 _atom_site_fract_x
 _atom_site_fract_y
 _atom_site_fract_z
 _atom_site_occupancy
  Ac  Ac0  1  0.503722  0.818487  0.907862  1
  Ac  Ac1  1  0.003722  0.681513  0.592138  1
  Ac  Ac2  1  0.497169  0.181246  0.405042  1
  Ac  Ac3  1  0.997169  0.318754  0.094958  1
  Ac  Ac4  1  0.495174  0.180477  0.097434  1
  Ac  Ac5  1  0.995174  0.319523  0.402566  1
  Ac  Ac6  1  0.505352  0.816920  0.592808  1
  Ac  Ac7  1  0.005352  0.683080  0.907192  1
  Ac  Ac8  1  0.648199  0.327219  0.879794  1
  Ac  Ac9  1  0.148199  0.172781  0.620206  1
  Pr  Pr10  1  0.352554  0.673279  0.376525  1
  Pr  Pr11  1  0.852554  0.826721  0.123475  1
  Pr  Pr12  1  0.350700  0.673794  0.123027  1
  Pr  Pr13  1  0.850700  0.826206  0.376973  1
  Pr  Pr14  1  0.648879  0.327385  0.622892  1
  Pr  Pr15  1  0.148879  0.172615  0.877108  1
  Pr  Pr16  1  0.314977  0.511757  0.749958  1
  Pr  Pr17  1  0.814977  0.988243  0.750042  1
  Pr  Pr18  1  0.683012  0.494045  0.249486  1
  Pr  Pr19  1  0.183012  0.005955  0.250514  1
  Ir  Ir20  1  0.179323  0.967959  0.041377  1
  Ir  Ir21  1  0.679323  0.532041  0.458623  1
  Ir  Ir22  1  0.816025  0.033286  0.539095  1
  Ir  Ir23  1  0.316025  0.466714  0.960905  1
  Ir  Ir24  1  0.827673  0.027567  0.959808  1
  Ir  Ir25  1  0.327673  0.472433  0.540192  1
  Ir  Ir26  1  0.177703  0.965665  0.455688  1
  Ir  Ir27  1  0.677703  0.534335  0.044312  1
  Ir  Ir28  1  0.696455  0.634837  0.749296  1
  Ir  Ir29  1  0.196455  0.865163  0.750704  1
  Ir  Ir30  1  0.301715  0.367496  0.250210  1
  Ir  Ir31  1  0.801715  0.132504  0.249790  1
  Ir  Ir32  1  0.444212  0.097210  0.749963  1
  Ir  Ir33  1  0.944212  0.402790  0.750037  1
  Ir  Ir34  1  0.557157  0.897855  0.250523  1
  Ir  Ir35  1  0.057157  0.602145  0.249477  1
