# generated using pymatgen
data_Tb2CePr(Al8Pt3)3
_symmetry_space_group_name_H-M   'P 1'
_cell_length_a   7.56118666
_cell_length_b   7.56906797
_cell_length_c   13.23438246
_cell_angle_alpha   84.50796662
_cell_angle_beta   79.01134671
_cell_angle_gamma   59.93154246
_symmetry_Int_Tables_number   1
_chemical_formula_structural   Tb2CePr(Al8Pt3)3
_chemical_formula_sum   'Tb2 Ce1 Pr1 Al24 Pt9'
_cell_volume   643.47243933
_cell_formula_units_Z   1
loop_
 _symmetry_equiv_pos_site_id
 _symmetry_equiv_pos_as_xyz
  1  'x, y, z'
loop_
 _atom_site_type_symbol
 _atom_site_label
 _atom_site_symmetry_multiplicity
 _atom_site_fract_x
 _atom_site_fract_y
 _atom_site_fract_z
 _atom_site_occupancy
  Tb  Tb0  1  0.733264  0.498633  0.807429  1
  Tb  Tb1  1  0.266666  0.501313  0.192565  1
  Ce  Ce2  1  0.605566  0.832362  0.193515  1
  Pr  Pr3  1  0.393871  0.167641  0.808710  1
  Al  Al4  1  0.686270  0.831777  0.946117  1
  Al  Al5  1  0.314667  0.167233  0.055531  1
  Al  Al6  1  0.146210  0.832743  0.560601  1
  Al  Al7  1  0.853407  0.167426  0.439412  1
  Al  Al8  1  0.480111  0.167360  0.557782  1
  Al  Al9  1  0.520225  0.832858  0.441620  1
  Al  Al10  1  0.215330  0.166782  0.332208  1
  Al  Al11  1  0.784589  0.833393  0.667031  1
  Al  Al12  1  0.437755  0.507667  0.667630  1
  Al  Al13  1  0.562196  0.492305  0.331560  1
  Al  Al14  1  0.109162  0.159732  0.666738  1
  Al  Al15  1  0.891161  0.840301  0.332578  1
  Al  Al16  1  0.351823  0.501345  0.946028  1
  Al  Al17  1  0.647631  0.499863  0.054861  1
  Al  Al18  1  0.013219  0.167279  0.954692  1
  Al  Al19  1  0.985598  0.832533  0.046170  1
  Al  Al20  1  0.186250  0.499641  0.441547  1
  Al  Al21  1  0.814129  0.499869  0.558309  1
  Al  Al22  1  0.735869  0.164581  0.183572  1
  Al  Al23  1  0.265308  0.833477  0.815968  1
  Al  Al24  1  0.059242  0.632928  0.815013  1
  Al  Al25  1  0.939106  0.367842  0.184711  1
  Al  Al26  1  0.857740  0.041379  0.815982  1
  Al  Al27  1  0.143371  0.959463  0.183762  1
  Pt  Pt28  1  0.119596  0.493222  0.637543  1
  Pt  Pt29  1  0.880246  0.507204  0.361601  1
  Pt  Pt30  1  0.657376  0.171392  0.000576  1
  Pt  Pt31  1  0.342309  0.828652  0.000157  1
  Pt  Pt32  1  0.537946  0.167348  0.361667  1
  Pt  Pt33  1  0.462243  0.832534  0.637129  1
  Pt  Pt34  1  0.780087  0.174657  0.636507  1
  Pt  Pt35  1  0.220283  0.825256  0.362701  1
  Pt  Pt36  1  0.000180  0.500008  0.000478  1
