# generated using pymatgen
data_Be8ReMo2W
_symmetry_space_group_name_H-M   'P 1'
_cell_length_a   4.43263500
_cell_length_b   4.43263567
_cell_length_c   7.28740200
_cell_angle_alpha   90.00000000
_cell_angle_beta   90.00000000
_cell_angle_gamma   120.00000247
_symmetry_Int_Tables_number   1
_chemical_formula_structural   Be8ReMo2W
_chemical_formula_sum   'Be8 Re1 Mo2 W1'
_cell_volume   124.00161932
_cell_formula_units_Z   1
loop_
 _symmetry_equiv_pos_site_id
 _symmetry_equiv_pos_as_xyz
  1  'x, y, z'
loop_
 _atom_site_type_symbol
 _atom_site_label
 _atom_site_symmetry_multiplicity
 _atom_site_fract_x
 _atom_site_fract_y
 _atom_site_fract_z
 _atom_site_occupancy
  Be  Be0  1  0.000000  0.000000  0.501328  1
  Be  Be1  1  0.000000  0.000000  0.000457  1
  Be  Be2  1  0.661441  0.830720  0.248866  1
  Be  Be3  1  0.169280  0.830720  0.248866  1
  Be  Be4  1  0.169280  0.338559  0.248866  1
  Be  Be5  1  0.339152  0.169577  0.751087  1
  Be  Be6  1  0.830423  0.169577  0.751087  1
  Be  Be7  1  0.830423  0.660848  0.751087  1
  Re  Re8  1  0.333333  0.666667  0.937375  1
  Mo  Mo9  1  0.666667  0.333333  0.437180  1
  Mo  Mo10  1  0.333333  0.666667  0.563861  1
  W  W11  1  0.666667  0.333333  0.059943  1
