# generated using pymatgen
data_Tm3Lu3Al24Ru5Au3
_symmetry_space_group_name_H-M   'P 1'
_cell_length_a   8.86112621
_cell_length_b   8.81812397
_cell_length_c   9.50845029
_cell_angle_alpha   89.99708199
_cell_angle_beta   90.04316339
_cell_angle_gamma   119.33373827
_symmetry_Int_Tables_number   1
_chemical_formula_structural   Tm3Lu3Al24Ru5Au3
_chemical_formula_sum   'Tm3 Lu3 Al24 Ru5 Au3'
_cell_volume   647.71221275
_cell_formula_units_Z   1
loop_
 _symmetry_equiv_pos_site_id
 _symmetry_equiv_pos_as_xyz
  1  'x, y, z'
loop_
 _atom_site_type_symbol
 _atom_site_label
 _atom_site_symmetry_multiplicity
 _atom_site_fract_x
 _atom_site_fract_y
 _atom_site_fract_z
 _atom_site_occupancy
  Tm  Tm0  1  0.615018  0.807932  0.249074  1
  Tm  Tm1  1  0.808729  0.613923  0.745098  1
  Tm  Tm2  1  0.191145  0.385931  0.254900  1
  Lu  Lu3  1  0.806672  0.196339  0.749642  1
  Lu  Lu4  1  0.193150  0.803643  0.250379  1
  Lu  Lu5  1  0.386215  0.192338  0.750619  1
  Al  Al6  1  0.678478  0.339302  0.966417  1
  Al  Al7  1  0.321138  0.660485  0.033293  1
  Al  Al8  1  0.327759  0.672708  0.469866  1
  Al  Al9  1  0.671957  0.327215  0.530382  1
  Al  Al10  1  0.836234  0.163497  0.421577  1
  Al  Al11  1  0.163853  0.836772  0.578629  1
  Al  Al12  1  0.320663  0.149960  0.422760  1
  Al  Al13  1  0.152444  0.829141  0.916337  1
  Al  Al14  1  0.679304  0.850064  0.577517  1
  Al  Al15  1  0.847683  0.171090  0.083479  1
  Al  Al16  1  0.848494  0.677873  0.420288  1
  Al  Al17  1  0.683958  0.841568  0.915011  1
  Al  Al18  1  0.151634  0.322013  0.579904  1
  Al  Al19  1  0.316078  0.158429  0.084734  1
  Al  Al20  1  0.150837  0.321332  0.918720  1
  Al  Al21  1  0.849299  0.678544  0.081051  1
  Al  Al22  1  0.432743  0.565191  0.749770  1
  Al  Al23  1  0.567119  0.434401  0.250205  1
  Al  Al24  1  0.119278  0.560189  0.749776  1
  Al  Al25  1  0.880739  0.439797  0.250230  1
  Al  Al26  1  0.435567  0.874071  0.742560  1
  Al  Al27  1  0.564300  0.126128  0.257572  1
  Al  Al28  1  0.003389  0.001128  0.749444  1
  Al  Al29  1  0.997374  0.999280  0.250539  1
  Ru  Ru30  1  0.999724  0.499861  0.999865  1
  Ru  Ru31  1  0.999713  0.499875  0.500158  1
  Ru  Ru32  1  0.499840  0.000261  0.500347  1
  Ru  Ru33  1  0.999963  0.999980  0.000029  1
  Ru  Ru34  1  0.999898  0.999946  0.499972  1
  Au  Au35  1  0.499831  0.499817  0.999839  1
  Au  Au36  1  0.499892  0.499917  0.500173  1
  Au  Au37  1  0.499890  0.000060  0.999847  1
