# generated using pymatgen
data_Y7Ho13(Ir2Ru)4
_symmetry_space_group_name_H-M   'P 1'
_cell_length_a   10.82719117
_cell_length_b   10.82651005
_cell_length_c   6.42751559
_cell_angle_alpha   90.04774423
_cell_angle_beta   89.98863116
_cell_angle_gamma   90.01668277
_symmetry_Int_Tables_number   1
_chemical_formula_structural   Y7Ho13(Ir2Ru)4
_chemical_formula_sum   'Y7 Ho13 Ir8 Ru4'
_cell_volume   753.43753004
_cell_formula_units_Z   1
loop_
 _symmetry_equiv_pos_site_id
 _symmetry_equiv_pos_as_xyz
  1  'x, y, z'
loop_
 _atom_site_type_symbol
 _atom_site_label
 _atom_site_symmetry_multiplicity
 _atom_site_fract_x
 _atom_site_fract_y
 _atom_site_fract_z
 _atom_site_occupancy
  Y  Y0  1  0.292498  0.087039  0.376856  1
  Y  Y1  1  0.292541  0.913305  0.876874  1
  Y  Y2  1  0.707303  0.087092  0.876954  1
  Y  Y3  1  0.707447  0.913078  0.376970  1
  Y  Y4  1  0.587020  0.792481  0.876918  1
  Y  Y5  1  0.586786  0.207626  0.376827  1
  Y  Y6  1  0.413316  0.792561  0.377195  1
  Ho  Ho7  1  0.413405  0.206725  0.877800  1
  Ho  Ho8  1  0.206249  0.413464  0.622282  1
  Ho  Ho9  1  0.205883  0.586153  0.122094  1
  Ho  Ho10  1  0.793963  0.413844  0.122197  1
  Ho  Ho11  1  0.793923  0.586084  0.622126  1
  Ho  Ho12  1  0.913895  0.706074  0.122215  1
  Ho  Ho13  1  0.913779  0.294083  0.622161  1
  Ho  Ho14  1  0.086249  0.705958  0.622077  1
  Ho  Ho15  1  0.086236  0.294061  0.122061  1
  Ho  Ho16  1  0.999986  0.999980  0.500354  1
  Ho  Ho17  1  0.000048  0.000143  0.000146  1
  Ho  Ho18  1  0.499944  0.499713  0.000215  1
  Ho  Ho19  1  0.499883  0.499848  0.500086  1
  Ir  Ir20  1  0.849546  0.153118  0.250671  1
  Ir  Ir21  1  0.849539  0.846759  0.750531  1
  Ir  Ir22  1  0.151402  0.153196  0.751397  1
  Ir  Ir23  1  0.150433  0.846926  0.250711  1
  Ir  Ir24  1  0.652485  0.349113  0.751123  1
  Ir  Ir25  1  0.653058  0.650359  0.250690  1
  Ir  Ir26  1  0.347196  0.349068  0.249218  1
  Ir  Ir27  1  0.346801  0.650400  0.750675  1
  Ru  Ru28  1  0.499546  0.001041  0.121546  1
  Ru  Ru29  1  0.499457  0.000769  0.623601  1
  Ru  Ru30  1  0.000138  0.499984  0.877614  1
  Ru  Ru31  1  0.000044  0.499956  0.377817  1
