# generated using pymatgen
data_Cs12MgScSe8
_symmetry_space_group_name_H-M   'P 1'
_cell_length_a   11.33184300
_cell_length_b   11.33184419
_cell_length_c   8.78174500
_cell_angle_alpha   90.00000000
_cell_angle_beta   90.00000000
_cell_angle_gamma   119.99999943
_symmetry_Int_Tables_number   1
_chemical_formula_structural   Cs12MgScSe8
_chemical_formula_sum   'Cs12 Mg1 Sc1 Se8'
_cell_volume   976.59073494
_cell_formula_units_Z   1
loop_
 _symmetry_equiv_pos_site_id
 _symmetry_equiv_pos_as_xyz
  1  'x, y, z'
loop_
 _atom_site_type_symbol
 _atom_site_label
 _atom_site_symmetry_multiplicity
 _atom_site_fract_x
 _atom_site_fract_y
 _atom_site_fract_z
 _atom_site_occupancy
  Cs  Cs0  1  0.142794  0.857206  0.546670  1
  Cs  Cs1  1  0.276910  0.138455  0.042751  1
  Cs  Cs2  1  0.861545  0.723090  0.042751  1
  Cs  Cs3  1  0.142794  0.285588  0.546670  1
  Cs  Cs4  1  0.714412  0.857206  0.546670  1
  Cs  Cs5  1  0.861545  0.138455  0.042751  1
  Cs  Cs6  1  0.526293  0.473707  0.355081  1
  Cs  Cs7  1  0.070039  0.535020  0.866715  1
  Cs  Cs8  1  0.464980  0.929961  0.866715  1
  Cs  Cs9  1  0.526293  0.052587  0.355081  1
  Cs  Cs10  1  0.947413  0.473707  0.355081  1
  Cs  Cs11  1  0.464980  0.535020  0.866715  1
  Mg  Mg12  1  0.333333  0.666667  0.256348  1
  Sc  Sc13  1  0.666667  0.333333  0.755218  1
  Se  Se14  1  0.333333  0.666667  0.560037  1
  Se  Se15  1  0.666667  0.333333  0.053166  1
  Se  Se16  1  0.203228  0.796772  0.161360  1
  Se  Se17  1  0.415464  0.207732  0.658969  1
  Se  Se18  1  0.792268  0.584536  0.658969  1
  Se  Se19  1  0.203228  0.406457  0.161360  1
  Se  Se20  1  0.593543  0.796772  0.161360  1
  Se  Se21  1  0.792268  0.207732  0.658969  1
