# generated using pymatgen
data_Os(IF3)2
_symmetry_space_group_name_H-M   'P 1'
_cell_length_a   6.18814797
_cell_length_b   8.24860408
_cell_length_c   8.37327907
_cell_angle_alpha   77.83861165
_cell_angle_beta   81.17959916
_cell_angle_gamma   82.46811216
_symmetry_Int_Tables_number   1
_chemical_formula_structural   Os(IF3)2
_chemical_formula_sum   'Os2 I4 F12'
_cell_volume   410.70531540
_cell_formula_units_Z   2
loop_
 _symmetry_equiv_pos_site_id
 _symmetry_equiv_pos_as_xyz
  1  'x, y, z'
loop_
 _atom_site_type_symbol
 _atom_site_label
 _atom_site_symmetry_multiplicity
 _atom_site_fract_x
 _atom_site_fract_y
 _atom_site_fract_z
 _atom_site_occupancy
  Os  Os0  1  0.564380  0.700119  0.687388  1
  Os  Os1  1  0.435620  0.299881  0.312612  1
  I  I2  1  0.104998  0.914642  0.233710  1
  I  I3  1  0.895002  0.085358  0.766290  1
  I  I4  1  0.899142  0.758242  0.068251  1
  I  I5  1  0.100858  0.241758  0.931749  1
  F  F6  1  0.730160  0.533911  0.580073  1
  F  F7  1  0.269840  0.466089  0.419927  1
  F  F8  1  0.430535  0.797024  0.494944  1
  F  F9  1  0.569465  0.202976  0.505056  1
  F  F10  1  0.410084  0.867837  0.802337  1
  F  F11  1  0.589916  0.132163  0.197663  1
  F  F12  1  0.200277  0.157606  0.387023  1
  F  F13  1  0.799723  0.842394  0.612977  1
  F  F14  1  0.669378  0.436361  0.232781  1
  F  F15  1  0.330622  0.563639  0.767219  1
  F  F16  1  0.291969  0.393077  0.117825  1
  F  F17  1  0.708031  0.606923  0.882175  1
