# generated using pymatgen
data_Hf3TaIr2N
_symmetry_space_group_name_H-M   'P 1'
_cell_length_a   8.65470801
_cell_length_b   8.65470760
_cell_length_c   8.65470900
_cell_angle_alpha   59.99999847
_cell_angle_beta   60.00000003
_cell_angle_gamma   59.99999846
_symmetry_Int_Tables_number   1
_chemical_formula_structural   Hf3TaIr2N
_chemical_formula_sum   'Hf12 Ta4 Ir8 N4'
_cell_volume   458.39754421
_cell_formula_units_Z   4
loop_
 _symmetry_equiv_pos_site_id
 _symmetry_equiv_pos_as_xyz
  1  'x, y, z'
loop_
 _atom_site_type_symbol
 _atom_site_label
 _atom_site_symmetry_multiplicity
 _atom_site_fract_x
 _atom_site_fract_y
 _atom_site_fract_z
 _atom_site_occupancy
  Hf  Hf0  1  0.814831  0.814831  0.185169  1
  Hf  Hf1  1  0.185169  0.185169  0.814831  1
  Hf  Hf2  1  0.814831  0.185169  0.814831  1
  Hf  Hf3  1  0.185169  0.814831  0.185169  1
  Hf  Hf4  1  0.185169  0.814831  0.814831  1
  Hf  Hf5  1  0.814831  0.185169  0.185169  1
  Hf  Hf6  1  0.435169  0.435169  0.064831  1
  Hf  Hf7  1  0.064831  0.064831  0.435169  1
  Hf  Hf8  1  0.435169  0.064831  0.435169  1
  Hf  Hf9  1  0.064831  0.435169  0.064831  1
  Hf  Hf10  1  0.064831  0.435169  0.435169  1
  Hf  Hf11  1  0.435169  0.064831  0.064831  1
  Ta  Ta12  1  0.125000  0.625000  0.625000  1
  Ta  Ta13  1  0.625000  0.125000  0.625000  1
  Ta  Ta14  1  0.625000  0.625000  0.125000  1
  Ta  Ta15  1  0.625000  0.625000  0.625000  1
  Ir  Ir16  1  0.764966  0.411678  0.411678  1
  Ir  Ir17  1  0.411678  0.764966  0.411678  1
  Ir  Ir18  1  0.411678  0.411678  0.764966  1
  Ir  Ir19  1  0.411678  0.411678  0.411678  1
  Ir  Ir20  1  0.485034  0.838322  0.838322  1
  Ir  Ir21  1  0.838322  0.485034  0.838322  1
  Ir  Ir22  1  0.838322  0.838322  0.485034  1
  Ir  Ir23  1  0.838322  0.838322  0.838322  1
  N  N24  1  0.625000  0.125000  0.125000  1
  N  N25  1  0.125000  0.625000  0.125000  1
  N  N26  1  0.125000  0.125000  0.625000  1
  N  N27  1  0.125000  0.125000  0.125000  1
