# generated using pymatgen
data_LiPr16Mg(HgIr2)2
_symmetry_space_group_name_H-M   'P 1'
_cell_length_a   10.01938397
_cell_length_b   10.05742943
_cell_length_c   10.04751400
_cell_angle_alpha   60.03261389
_cell_angle_beta   59.90708972
_cell_angle_gamma   60.16965147
_symmetry_Int_Tables_number   1
_chemical_formula_structural   LiPr16Mg(HgIr2)2
_chemical_formula_sum   'Li1 Pr16 Mg1 Hg2 Ir4'
_cell_volume   716.51579764
_cell_formula_units_Z   1
loop_
 _symmetry_equiv_pos_site_id
 _symmetry_equiv_pos_as_xyz
  1  'x, y, z'
loop_
 _atom_site_type_symbol
 _atom_site_label
 _atom_site_symmetry_multiplicity
 _atom_site_fract_x
 _atom_site_fract_y
 _atom_site_fract_z
 _atom_site_occupancy
  Li  Li0  1  0.577641  0.283406  0.569477  1
  Pr  Pr1  1  0.347299  0.347544  0.345864  1
  Pr  Pr2  1  0.347299  0.347544  0.959293  1
  Pr  Pr3  1  0.348151  0.954325  0.348762  1
  Pr  Pr4  1  0.952322  0.349302  0.349188  1
  Pr  Pr5  1  0.809843  0.188203  0.190082  1
  Pr  Pr6  1  0.189872  0.808236  0.810526  1
  Pr  Pr7  1  0.189872  0.808236  0.191366  1
  Pr  Pr8  1  0.809843  0.188203  0.811872  1
  Pr  Pr9  1  0.185928  0.187599  0.813236  1
  Pr  Pr10  1  0.803863  0.802591  0.196773  1
  Pr  Pr11  1  0.939138  0.560859  0.560938  1
  Pr  Pr12  1  0.558928  0.939085  0.940564  1
  Pr  Pr13  1  0.558928  0.939085  0.561423  1
  Pr  Pr14  1  0.939138  0.560859  0.939065  1
  Pr  Pr15  1  0.560135  0.561084  0.939391  1
  Pr  Pr16  1  0.940185  0.937692  0.561062  1
  Mg  Mg17  1  0.279695  0.576585  0.571860  1
  Hg  Hg18  1  0.581164  0.580073  0.588201  1
  Hg  Hg19  1  0.581164  0.580073  0.250564  1
  Ir  Ir20  1  0.141468  0.142025  0.141025  1
  Ir  Ir21  1  0.141468  0.142025  0.575483  1
  Ir  Ir22  1  0.141702  0.574429  0.141934  1
  Ir  Ir23  1  0.574955  0.140939  0.142053  1
