# generated using pymatgen
data_HoTm3Co6(Ni4B3)2
_symmetry_space_group_name_H-M   'P 1'
_cell_length_a   4.95862000
_cell_length_b   4.95862010
_cell_length_c   12.94497700
_cell_angle_alpha   90.00000000
_cell_angle_beta   90.00000000
_cell_angle_gamma   119.99999935
_symmetry_Int_Tables_number   1
_chemical_formula_structural   HoTm3Co6(Ni4B3)2
_chemical_formula_sum   'Ho1 Tm3 Co6 Ni8 B6'
_cell_volume   275.64719769
_cell_formula_units_Z   1
loop_
 _symmetry_equiv_pos_site_id
 _symmetry_equiv_pos_as_xyz
  1  'x, y, z'
loop_
 _atom_site_type_symbol
 _atom_site_label
 _atom_site_symmetry_multiplicity
 _atom_site_fract_x
 _atom_site_fract_y
 _atom_site_fract_z
 _atom_site_occupancy
  Ho  Ho0  1  0.000000  0.000000  0.000000  1
  Tm  Tm1  1  0.000000  0.000000  0.500000  1
  Tm  Tm2  1  0.000000  0.000000  0.736743  1
  Tm  Tm3  1  0.000000  0.000000  0.263257  1
  Co  Co4  1  0.500000  0.500000  0.616376  1
  Co  Co5  1  0.500000  0.000000  0.616376  1
  Co  Co6  1  0.000000  0.500000  0.616376  1
  Co  Co7  1  0.500000  0.500000  0.383624  1
  Co  Co8  1  0.500000  0.000000  0.383624  1
  Co  Co9  1  0.000000  0.500000  0.383624  1
  Ni  Ni10  1  0.666667  0.333333  0.000000  1
  Ni  Ni11  1  0.333333  0.666667  0.000000  1
  Ni  Ni12  1  0.500000  0.500000  0.843094  1
  Ni  Ni13  1  0.500000  0.000000  0.843094  1
  Ni  Ni14  1  0.000000  0.500000  0.843094  1
  Ni  Ni15  1  0.500000  0.500000  0.156906  1
  Ni  Ni16  1  0.500000  0.000000  0.156906  1
  Ni  Ni17  1  0.000000  0.500000  0.156906  1
  B  B18  1  0.666667  0.333333  0.500000  1
  B  B19  1  0.333333  0.666667  0.500000  1
  B  B20  1  0.666667  0.333333  0.729733  1
  B  B21  1  0.333333  0.666667  0.729733  1
  B  B22  1  0.333333  0.666667  0.270267  1
  B  B23  1  0.666667  0.333333  0.270267  1
