# generated using pymatgen
data_V5NiGe2P
_symmetry_space_group_name_H-M   'P 1'
_cell_length_a   6.52994079
_cell_length_b   6.52994094
_cell_length_c   3.25266400
_cell_angle_alpha   90.00000000
_cell_angle_beta   90.00000000
_cell_angle_gamma   120.58051446
_symmetry_Int_Tables_number   1
_chemical_formula_structural   V5NiGe2P
_chemical_formula_sum   'V5 Ni1 Ge2 P1'
_cell_volume   119.40376548
_cell_formula_units_Z   1
loop_
 _symmetry_equiv_pos_site_id
 _symmetry_equiv_pos_as_xyz
  1  'x, y, z'
loop_
 _atom_site_type_symbol
 _atom_site_label
 _atom_site_symmetry_multiplicity
 _atom_site_fract_x
 _atom_site_fract_y
 _atom_site_fract_z
 _atom_site_occupancy
  V  V0  1  0.751819  0.003169  0.000000  1
  V  V1  1  0.003169  0.751819  0.000000  1
  V  V2  1  0.393843  0.975242  0.500000  1
  V  V3  1  0.975242  0.393843  0.500000  1
  V  V4  1  0.631539  0.631539  0.500000  1
  Ni  Ni5  1  0.248995  0.248995  0.000000  1
  Ge  Ge6  1  0.328557  0.645764  0.000000  1
  Ge  Ge7  1  0.645764  0.328557  0.000000  1
  P  P8  1  0.021071  0.021071  0.500000  1
