# generated using pymatgen
data_La2Be(SiIr2)3
_symmetry_space_group_name_H-M   'P 1'
_cell_length_a   6.66869745
_cell_length_b   6.68788949
_cell_length_c   6.66869700
_cell_angle_alpha   130.40842349
_cell_angle_beta   114.66393542
_cell_angle_gamma   86.14686972
_symmetry_Int_Tables_number   1
_chemical_formula_structural   La2Be(SiIr2)3
_chemical_formula_sum   'La2 Be1 Si3 Ir6'
_cell_volume   196.72520519
_cell_formula_units_Z   1
loop_
 _symmetry_equiv_pos_site_id
 _symmetry_equiv_pos_as_xyz
  1  'x, y, z'
loop_
 _atom_site_type_symbol
 _atom_site_label
 _atom_site_symmetry_multiplicity
 _atom_site_fract_x
 _atom_site_fract_y
 _atom_site_fract_z
 _atom_site_occupancy
  La  La0  1  0.245976  0.981670  0.735693  1
  La  La1  1  0.754756  0.030859  0.276103  1
  Be  Be2  1  0.074380  0.278056  0.203676  1
  Si  Si3  1  0.916890  0.709003  0.792113  1
  Si  Si4  1  0.423810  0.631491  0.207681  1
  Si  Si5  1  0.582267  0.371863  0.789596  1
  Ir  Ir6  1  0.488909  0.499004  0.491397  1
  Ir  Ir7  1  0.007608  0.499004  0.010096  1
  Ir  Ir8  1  0.273210  0.000810  0.273665  1
  Ir  Ir9  1  0.727146  0.000810  0.727600  1
  Ir  Ir10  1  0.224515  0.498715  0.718183  1
  Ir  Ir11  1  0.780532  0.498715  0.274199  1
