# generated using pymatgen
data_Ac9La7(ErSn4)4
_symmetry_space_group_name_H-M   'P 1'
_cell_length_a   8.56412636
_cell_length_b   8.61337054
_cell_length_c   16.53045812
_cell_angle_alpha   90.06035960
_cell_angle_beta   90.15295290
_cell_angle_gamma   90.37517688
_symmetry_Int_Tables_number   1
_chemical_formula_structural   Ac9La7(ErSn4)4
_chemical_formula_sum   'Ac9 La7 Er4 Sn16'
_cell_volume   1219.35448308
_cell_formula_units_Z   1
loop_
 _symmetry_equiv_pos_site_id
 _symmetry_equiv_pos_as_xyz
  1  'x, y, z'
loop_
 _atom_site_type_symbol
 _atom_site_label
 _atom_site_symmetry_multiplicity
 _atom_site_fract_x
 _atom_site_fract_y
 _atom_site_fract_z
 _atom_site_occupancy
  Ac  Ac0  1  0.975342  0.819678  0.901324  1
  Ac  Ac1  1  0.474379  0.680698  0.599394  1
  Ac  Ac2  1  0.524256  0.319232  0.097352  1
  Ac  Ac3  1  0.026513  0.180206  0.400885  1
  Ac  Ac4  1  0.974204  0.820868  0.600399  1
  Ac  Ac5  1  0.475700  0.680377  0.901717  1
  Ac  Ac6  1  0.525984  0.319105  0.401361  1
  Ac  Ac7  1  0.024750  0.179678  0.097435  1
  Ac  Ac8  1  0.873352  0.656767  0.382362  1
  La  La9  1  0.371274  0.844188  0.117363  1
  La  La10  1  0.625659  0.155604  0.619891  1
  La  La11  1  0.127639  0.343281  0.880942  1
  La  La12  1  0.127660  0.343400  0.619504  1
  La  La13  1  0.628082  0.155851  0.881536  1
  La  La14  1  0.371837  0.844091  0.381318  1
  La  La15  1  0.872296  0.656514  0.118516  1
  Er  Er16  1  0.288694  0.005508  0.750238  1
  Er  Er17  1  0.789183  0.495606  0.750501  1
  Er  Er18  1  0.212439  0.503458  0.249066  1
  Er  Er19  1  0.709483  0.995084  0.249251  1
  Sn  Sn20  1  0.788917  0.461528  0.552138  1
  Sn  Sn21  1  0.289871  0.037711  0.951767  1
  Sn  Sn22  1  0.707784  0.969011  0.453162  1
  Sn  Sn23  1  0.209112  0.536329  0.047615  1
  Sn  Sn24  1  0.216863  0.533685  0.452833  1
  Sn  Sn25  1  0.709745  0.962499  0.047649  1
  Sn  Sn26  1  0.288078  0.036570  0.547607  1
  Sn  Sn27  1  0.790464  0.463537  0.951798  1
  Sn  Sn28  1  0.170353  0.643780  0.750528  1
  Sn  Sn29  1  0.671329  0.856682  0.750621  1
  Sn  Sn30  1  0.330195  0.143378  0.249357  1
  Sn  Sn31  1  0.829745  0.351750  0.248002  1
  Sn  Sn32  1  0.928325  0.125388  0.750348  1
  Sn  Sn33  1  0.429546  0.373995  0.750637  1
  Sn  Sn34  1  0.567126  0.626458  0.247637  1
  Sn  Sn35  1  0.073823  0.878505  0.247946  1
