# generated using pymatgen
data_Li2HoEr(Co4P3)2
_symmetry_space_group_name_H-M   'P 1'
_cell_length_a   3.69061600
_cell_length_b   10.25307200
_cell_length_c   11.90624800
_cell_angle_alpha   90.00000000
_cell_angle_beta   90.00000000
_cell_angle_gamma   90.00000000
_symmetry_Int_Tables_number   1
_chemical_formula_structural   Li2HoEr(Co4P3)2
_chemical_formula_sum   'Li4 Ho2 Er2 Co16 P12'
_cell_volume   450.53422898
_cell_formula_units_Z   2
loop_
 _symmetry_equiv_pos_site_id
 _symmetry_equiv_pos_as_xyz
  1  'x, y, z'
loop_
 _atom_site_type_symbol
 _atom_site_label
 _atom_site_symmetry_multiplicity
 _atom_site_fract_x
 _atom_site_fract_y
 _atom_site_fract_z
 _atom_site_occupancy
  Li  Li0  1  0.250000  0.702254  0.993215  1
  Li  Li1  1  0.250000  0.797746  0.493215  1
  Li  Li2  1  0.750000  0.297888  0.007516  1
  Li  Li3  1  0.750000  0.202112  0.507516  1
  Ho  Ho4  1  0.750000  0.422782  0.298016  1
  Ho  Ho5  1  0.750000  0.077218  0.798016  1
  Er  Er6  1  0.250000  0.577006  0.701912  1
  Er  Er7  1  0.250000  0.922994  0.201912  1
  Co  Co8  1  0.250000  0.406260  0.484837  1
  Co  Co9  1  0.250000  0.093740  0.984837  1
  Co  Co10  1  0.750000  0.594210  0.515604  1
  Co  Co11  1  0.750000  0.905790  0.015604  1
  Co  Co12  1  0.250000  0.223068  0.172493  1
  Co  Co13  1  0.250000  0.276932  0.672493  1
  Co  Co14  1  0.750000  0.776494  0.827392  1
  Co  Co15  1  0.750000  0.723506  0.327392  1
  Co  Co16  1  0.250000  0.877222  0.700253  1
  Co  Co17  1  0.250000  0.622778  0.200253  1
  Co  Co18  1  0.750000  0.122309  0.299403  1
  Co  Co19  1  0.750000  0.377691  0.799403  1
  Co  Co20  1  0.250000  0.464509  0.932344  1
  Co  Co21  1  0.250000  0.035491  0.432344  1
  Co  Co22  1  0.750000  0.535760  0.067426  1
  Co  Co23  1  0.750000  0.964240  0.567426  1
  P  P24  1  0.250000  0.426429  0.115382  1
  P  P25  1  0.250000  0.073571  0.615382  1
  P  P26  1  0.750000  0.573623  0.884228  1
  P  P27  1  0.750000  0.926377  0.384228  1
  P  P28  1  0.250000  0.268358  0.859103  1
  P  P29  1  0.250000  0.231642  0.359103  1
  P  P30  1  0.750000  0.732207  0.140791  1
  P  P31  1  0.750000  0.767793  0.640791  1
  P  P32  1  0.250000  0.602621  0.393470  1
  P  P33  1  0.250000  0.897379  0.893470  1
  P  P34  1  0.750000  0.398014  0.606616  1
  P  P35  1  0.750000  0.101986  0.106616  1
