# generated using pymatgen
data_Tb3HoMnGa12
_symmetry_space_group_name_H-M   'P 1'
_cell_length_a   7.49718607
_cell_length_b   7.47553499
_cell_length_c   7.47553611
_cell_angle_alpha   109.41246459
_cell_angle_beta   109.52990148
_cell_angle_gamma   109.52990485
_symmetry_Int_Tables_number   1
_chemical_formula_structural   Tb3HoMnGa12
_chemical_formula_sum   'Tb3 Ho1 Mn1 Ga12'
_cell_volume   322.28941011
_cell_formula_units_Z   1
loop_
 _symmetry_equiv_pos_site_id
 _symmetry_equiv_pos_as_xyz
  1  'x, y, z'
loop_
 _atom_site_type_symbol
 _atom_site_label
 _atom_site_symmetry_multiplicity
 _atom_site_fract_x
 _atom_site_fract_y
 _atom_site_fract_z
 _atom_site_occupancy
  Tb  Tb0  1  0.000000  0.000000  0.500000  1
  Tb  Tb1  1  0.000000  0.500000  0.000000  1
  Tb  Tb2  1  0.500000  0.500000  0.500000  1
  Ho  Ho3  1  0.500000  0.000000  0.000000  1
  Mn  Mn4  1  0.000000  0.000000  0.000000  1
  Ga  Ga5  1  0.749626  0.249626  0.499251  1
  Ga  Ga6  1  0.749626  0.499251  0.249626  1
  Ga  Ga7  1  0.500000  0.249626  0.750374  1
  Ga  Ga8  1  0.250374  0.500749  0.750374  1
  Ga  Ga9  1  0.250374  0.750374  0.500749  1
  Ga  Ga10  1  0.500000  0.750374  0.249626  1
  Ga  Ga11  1  0.712337  0.712890  0.000000  1
  Ga  Ga12  1  0.287663  0.000000  0.287110  1
  Ga  Ga13  1  0.999447  0.287110  0.287110  1
  Ga  Ga14  1  0.287663  0.287110  0.000000  1
  Ga  Ga15  1  0.712337  0.000000  0.712890  1
  Ga  Ga16  1  0.000553  0.712890  0.712890  1
