# generated using pymatgen
data_Tb2Yb6Si13Sn
_symmetry_space_group_name_H-M   'P 1'
_cell_length_a   7.98460184
_cell_length_b   7.84982725
_cell_length_c   8.60688696
_cell_angle_alpha   89.84630137
_cell_angle_beta   90.15091778
_cell_angle_gamma   120.94737360
_symmetry_Int_Tables_number   1
_chemical_formula_structural   Tb2Yb6Si13Sn
_chemical_formula_sum   'Tb2 Yb6 Si13 Sn1'
_cell_volume   462.66054529
_cell_formula_units_Z   1
loop_
 _symmetry_equiv_pos_site_id
 _symmetry_equiv_pos_as_xyz
  1  'x, y, z'
loop_
 _atom_site_type_symbol
 _atom_site_label
 _atom_site_symmetry_multiplicity
 _atom_site_fract_x
 _atom_site_fract_y
 _atom_site_fract_z
 _atom_site_occupancy
  Tb  Tb0  1  0.266156  0.255192  0.991579  1
  Tb  Tb1  1  0.745526  0.747740  0.001718  1
  Yb  Yb2  1  0.750762  0.753984  0.497879  1
  Yb  Yb3  1  0.262824  0.251711  0.508271  1
  Yb  Yb4  1  0.252220  0.748476  0.493178  1
  Yb  Yb5  1  0.739267  0.254963  0.513532  1
  Yb  Yb6  1  0.739530  0.255293  0.986567  1
  Yb  Yb7  1  0.251725  0.747225  0.007417  1
  Si  Si8  1  0.944243  0.636550  0.752159  1
  Si  Si9  1  0.586073  0.421371  0.247863  1
  Si  Si10  1  0.415016  0.584262  0.751991  1
  Si  Si11  1  0.415954  0.589503  0.249238  1
  Si  Si12  1  0.593069  0.419889  0.750269  1
  Si  Si13  1  0.068480  0.942995  0.244732  1
  Si  Si14  1  0.937551  0.064803  0.754965  1
  Si  Si15  1  0.625557  0.944234  0.245920  1
  Si  Si16  1  0.379145  0.060236  0.752337  1
  Si  Si17  1  0.925318  0.590647  0.247201  1
  Si  Si18  1  0.070508  0.416275  0.751436  1
  Si  Si19  1  0.412350  0.073465  0.248026  1
  Si  Si20  1  0.592278  0.930773  0.751895  1
  Sn  Sn21  1  0.026449  0.310411  0.251826  1
