# generated using pymatgen
data_BaSc2(H6Rh)2
_symmetry_space_group_name_H-M   'P 1'
_cell_length_a   4.78504100
_cell_length_b   4.78504206
_cell_length_c   8.41433000
_cell_angle_alpha   90.00000000
_cell_angle_beta   90.00000000
_cell_angle_gamma   119.99999958
_symmetry_Int_Tables_number   1
_chemical_formula_structural   BaSc2(H6Rh)2
_chemical_formula_sum   'Ba1 Sc2 H12 Rh2'
_cell_volume   166.84822736
_cell_formula_units_Z   1
loop_
 _symmetry_equiv_pos_site_id
 _symmetry_equiv_pos_as_xyz
  1  'x, y, z'
loop_
 _atom_site_type_symbol
 _atom_site_label
 _atom_site_symmetry_multiplicity
 _atom_site_fract_x
 _atom_site_fract_y
 _atom_site_fract_z
 _atom_site_occupancy
  Ba  Ba0  1  0.000000  0.000000  0.000000  1
  Sc  Sc1  1  0.666667  0.333333  0.369618  1
  Sc  Sc2  1  0.333333  0.666667  0.630382  1
  H  H3  1  0.164539  0.835461  0.395612  1
  H  H4  1  0.670922  0.835461  0.395612  1
  H  H5  1  0.164539  0.329078  0.395612  1
  H  H6  1  0.835461  0.164539  0.604388  1
  H  H7  1  0.329078  0.164539  0.604388  1
  H  H8  1  0.835461  0.670922  0.604388  1
  H  H9  1  0.494856  0.989711  0.830143  1
  H  H10  1  0.494856  0.505144  0.830143  1
  H  H11  1  0.010289  0.505144  0.830143  1
  H  H12  1  0.505144  0.010289  0.169857  1
  H  H13  1  0.505144  0.494856  0.169857  1
  H  H14  1  0.989711  0.494856  0.169857  1
  Rh  Rh15  1  0.666667  0.333333  0.715924  1
  Rh  Rh16  1  0.333333  0.666667  0.284076  1
