# generated using pymatgen
data_NaSb4
_symmetry_space_group_name_H-M   'P 1'
_cell_length_a   9.80407562
_cell_length_b   9.80407620
_cell_length_c   9.80407502
_cell_angle_alpha   26.49004046
_cell_angle_beta   26.49003473
_cell_angle_gamma   26.49003527
_symmetry_Int_Tables_number   1
_chemical_formula_structural   NaSb4
_chemical_formula_sum   'Na1 Sb4'
_cell_volume   165.25851168
_cell_formula_units_Z   1
loop_
 _symmetry_equiv_pos_site_id
 _symmetry_equiv_pos_as_xyz
  1  'x, y, z'
loop_
 _atom_site_type_symbol
 _atom_site_label
 _atom_site_symmetry_multiplicity
 _atom_site_fract_x
 _atom_site_fract_y
 _atom_site_fract_z
 _atom_site_occupancy
  Na  Na0  1  0.000000  0.000000  0.000000  1
  Sb  Sb1  1  0.411236  0.411236  0.411236  1
  Sb  Sb2  1  0.588764  0.588764  0.588764  1
  Sb  Sb3  1  0.207006  0.207006  0.207006  1
  Sb  Sb4  1  0.792994  0.792994  0.792994  1
