# generated using pymatgen
data_CaHoTh2Al3(Ga5Ir2)3
_symmetry_space_group_name_H-M   'P 1'
_cell_length_a   7.61428500
_cell_length_b   7.61489637
_cell_length_c   9.52457700
_cell_angle_alpha   90.00000000
_cell_angle_beta   90.00000000
_cell_angle_gamma   119.46124888
_symmetry_Int_Tables_number   1
_chemical_formula_structural   CaHoTh2Al3(Ga5Ir2)3
_chemical_formula_sum   'Ca1 Ho1 Th2 Al3 Ga15 Ir6'
_cell_volume   480.84117641
_cell_formula_units_Z   1
loop_
 _symmetry_equiv_pos_site_id
 _symmetry_equiv_pos_as_xyz
  1  'x, y, z'
loop_
 _atom_site_type_symbol
 _atom_site_label
 _atom_site_symmetry_multiplicity
 _atom_site_fract_x
 _atom_site_fract_y
 _atom_site_fract_z
 _atom_site_occupancy
  Ca  Ca0  1  0.000524  0.328831  0.749343  1
  Ho  Ho1  1  0.328633  0.998465  0.749061  1
  Th  Th2  1  0.997992  0.671620  0.250278  1
  Th  Th3  1  0.672962  0.999138  0.250378  1
  Al  Al4  1  0.660107  0.660275  0.457827  1
  Al  Al5  1  0.664183  0.664370  0.042613  1
  Al  Al6  1  0.330290  0.330487  0.942516  1
  Ga  Ga7  1  0.135248  0.135867  0.249384  1
  Ga  Ga8  1  0.876085  0.875839  0.749562  1
  Ga  Ga9  1  0.005600  0.336145  0.072205  1
  Ga  Ga10  1  0.000779  0.663147  0.913730  1
  Ga  Ga11  1  0.000105  0.662842  0.586268  1
  Ga  Ga12  1  0.336245  0.007037  0.424481  1
  Ga  Ga13  1  0.007467  0.336524  0.426155  1
  Ga  Ga14  1  0.664930  0.001325  0.585984  1
  Ga  Ga15  1  0.664895  0.001900  0.913971  1
  Ga  Ga16  1  0.335896  0.005184  0.073849  1
  Ga  Ga17  1  0.326669  0.327180  0.569190  1
  Ga  Ga18  1  0.347402  0.546517  0.249776  1
  Ga  Ga19  1  0.653859  0.446488  0.750085  1
  Ga  Ga20  1  0.545773  0.347493  0.249762  1
  Ga  Ga21  1  0.447925  0.656540  0.750163  1
  Ir  Ir22  1  0.669025  0.330748  0.001595  1
  Ir  Ir23  1  0.331977  0.672141  0.001369  1
  Ir  Ir24  1  0.331855  0.675379  0.497300  1
  Ir  Ir25  1  0.672337  0.330452  0.496918  1
  Ir  Ir26  1  0.997982  0.996413  0.002015  1
  Ir  Ir27  1  0.993261  0.991656  0.494221  1
