# generated using pymatgen
data_Dy2Pa3O10
_symmetry_space_group_name_H-M   'P 1'
_cell_length_a   6.63665306
_cell_length_b   6.63665350
_cell_length_c   8.53753825
_cell_angle_alpha   49.73640064
_cell_angle_beta   49.73640160
_cell_angle_gamma   48.08897001
_symmetry_Int_Tables_number   1
_chemical_formula_structural   Dy2Pa3O10
_chemical_formula_sum   'Dy2 Pa3 O10'
_cell_volume   197.70711510
_cell_formula_units_Z   1
loop_
 _symmetry_equiv_pos_site_id
 _symmetry_equiv_pos_as_xyz
  1  'x, y, z'
loop_
 _atom_site_type_symbol
 _atom_site_label
 _atom_site_symmetry_multiplicity
 _atom_site_fract_x
 _atom_site_fract_y
 _atom_site_fract_z
 _atom_site_occupancy
  Dy  Dy0  1  0.301342  0.301342  0.096677  1
  Dy  Dy1  1  0.698658  0.698658  0.903323  1
  Pa  Pa2  1  0.096324  0.096324  0.704216  1
  Pa  Pa3  1  0.500000  0.500000  0.500000  1
  Pa  Pa4  1  0.903676  0.903676  0.295784  1
  O  O5  1  0.655791  0.155594  0.790522  1
  O  O6  1  0.155594  0.655791  0.790522  1
  O  O7  1  0.454037  0.946189  0.403573  1
  O  O8  1  0.946189  0.454037  0.403573  1
  O  O9  1  0.844406  0.344209  0.209478  1
  O  O10  1  0.241731  0.758269  0.000000  1
  O  O11  1  0.344209  0.844406  0.209478  1
  O  O12  1  0.758269  0.241731  0.000000  1
  O  O13  1  0.053811  0.545963  0.596427  1
  O  O14  1  0.545963  0.053811  0.596427  1
