# generated using pymatgen
data_Tb3YPd4F28
_symmetry_space_group_name_H-M   'P 1'
_cell_length_a   5.53457716
_cell_length_b   8.89058052
_cell_length_c   11.97805333
_cell_angle_alpha   62.33835445
_cell_angle_beta   90.01593834
_cell_angle_gamma   90.00252062
_symmetry_Int_Tables_number   1
_chemical_formula_structural   Tb3YPd4F28
_chemical_formula_sum   'Tb3 Y1 Pd4 F28'
_cell_volume   522.02306114
_cell_formula_units_Z   1
loop_
 _symmetry_equiv_pos_site_id
 _symmetry_equiv_pos_as_xyz
  1  'x, y, z'
loop_
 _atom_site_type_symbol
 _atom_site_label
 _atom_site_symmetry_multiplicity
 _atom_site_fract_x
 _atom_site_fract_y
 _atom_site_fract_z
 _atom_site_occupancy
  Tb  Tb0  1  0.738868  0.186951  0.735888  1
  Tb  Tb1  1  0.761108  0.186710  0.235916  1
  Tb  Tb2  1  0.238831  0.813015  0.764112  1
  Y  Y3  1  0.261482  0.813337  0.263975  1
  Pd  Pd4  1  0.758878  0.727344  0.042814  1
  Pd  Pd5  1  0.241483  0.272610  0.957519  1
  Pd  Pd6  1  0.258626  0.273053  0.457352  1
  Pd  Pd7  1  0.741221  0.727270  0.542315  1
  F  F8  1  0.933766  0.703661  0.415531  1
  F  F9  1  0.065831  0.295941  0.584385  1
  F  F10  1  0.434345  0.295571  0.084589  1
  F  F11  1  0.565916  0.704307  0.915830  1
  F  F12  1  0.466793  0.725882  0.134021  1
  F  F13  1  0.533267  0.273894  0.866272  1
  F  F14  1  0.966801  0.273918  0.366158  1
  F  F15  1  0.033111  0.726251  0.633563  1
  F  F16  1  0.947318  0.742491  0.175088  1
  F  F17  1  0.053046  0.257590  0.825317  1
  F  F18  1  0.447037  0.257655  0.325271  1
  F  F19  1  0.552822  0.742744  0.674414  1
  F  F20  1  0.770497  0.480338  0.141030  1
  F  F21  1  0.229875  0.519646  0.859323  1
  F  F22  1  0.270319  0.520103  0.358827  1
  F  F23  1  0.729581  0.480373  0.640817  1
  F  F24  1  0.942847  0.281189  0.041238  1
  F  F25  1  0.057313  0.718740  0.958999  1
  F  F26  1  0.442222  0.718463  0.458843  1
  F  F27  1  0.557304  0.281609  0.541064  1
  F  F28  1  0.741758  0.973760  0.450583  1
  F  F29  1  0.258170  0.026612  0.549139  1
  F  F30  1  0.241880  0.026178  0.048883  1
  F  F31  1  0.758365  0.973798  0.950907  1
  F  F32  1  0.589015  0.968046  0.231306  1
  F  F33  1  0.410411  0.031680  0.768716  1
  F  F34  1  0.089519  0.030988  0.268739  1
  F  F35  1  0.910372  0.968279  0.731261  1
