# generated using pymatgen
data_Tb3Tm(LuSb)6
_symmetry_space_group_name_H-M   'P 1'
_cell_length_a   8.07926300
_cell_length_b   9.14118900
_cell_length_c   11.76032200
_cell_angle_alpha   90.00000000
_cell_angle_beta   90.00000000
_cell_angle_gamma   90.00000000
_symmetry_Int_Tables_number   1
_chemical_formula_structural   Tb3Tm(LuSb)6
_chemical_formula_sum   'Tb6 Tm2 Lu12 Sb12'
_cell_volume   868.54764496
_cell_formula_units_Z   2
loop_
 _symmetry_equiv_pos_site_id
 _symmetry_equiv_pos_as_xyz
  1  'x, y, z'
loop_
 _atom_site_type_symbol
 _atom_site_label
 _atom_site_symmetry_multiplicity
 _atom_site_fract_x
 _atom_site_fract_y
 _atom_site_fract_z
 _atom_site_occupancy
  Tb  Tb0  1  0.175676  0.750000  0.228476  1
  Tb  Tb1  1  0.675676  0.250000  0.271524  1
  Tb  Tb2  1  0.823751  0.250000  0.771129  1
  Tb  Tb3  1  0.323751  0.750000  0.728871  1
  Tb  Tb4  1  0.659383  0.750000  0.290946  1
  Tb  Tb5  1  0.159383  0.250000  0.209054  1
  Tm  Tm6  1  0.339743  0.250000  0.709354  1
  Tm  Tm7  1  0.839743  0.750000  0.790646  1
  Lu  Lu8  1  0.810209  0.938565  0.065288  1
  Lu  Lu9  1  0.310209  0.061435  0.434712  1
  Lu  Lu10  1  0.190173  0.438220  0.933506  1
  Lu  Lu11  1  0.690173  0.561780  0.566494  1
  Lu  Lu12  1  0.190173  0.061780  0.933506  1
  Lu  Lu13  1  0.690173  0.938220  0.566494  1
  Lu  Lu14  1  0.810209  0.561435  0.065288  1
  Lu  Lu15  1  0.310209  0.438565  0.434712  1
  Lu  Lu16  1  0.524742  0.250000  0.994745  1
  Lu  Lu17  1  0.024742  0.750000  0.505255  1
  Lu  Lu18  1  0.475184  0.750000  0.003625  1
  Lu  Lu19  1  0.975184  0.250000  0.496375  1
  Sb  Sb20  1  0.937859  0.991560  0.327966  1
  Sb  Sb21  1  0.437859  0.008440  0.172034  1
  Sb  Sb22  1  0.063232  0.491237  0.673040  1
  Sb  Sb23  1  0.563232  0.508763  0.826960  1
  Sb  Sb24  1  0.063232  0.008763  0.673040  1
  Sb  Sb25  1  0.563232  0.991237  0.826960  1
  Sb  Sb26  1  0.937859  0.508440  0.327966  1
  Sb  Sb27  1  0.437859  0.491560  0.172034  1
  Sb  Sb28  1  0.901093  0.250000  0.025292  1
  Sb  Sb29  1  0.401093  0.750000  0.474708  1
  Sb  Sb30  1  0.097483  0.750000  0.972671  1
  Sb  Sb31  1  0.597483  0.250000  0.527329  1
