# generated using pymatgen
data_Y8Lu12(Bi3Sb)3
_symmetry_space_group_name_H-M   'P 1'
_cell_length_a   8.12452660
_cell_length_b   9.35880000
_cell_length_c   11.94832887
_cell_angle_alpha   90.00000000
_cell_angle_beta   90.04392583
_cell_angle_gamma   90.00000000
_symmetry_Int_Tables_number   1
_chemical_formula_structural   Y8Lu12(Bi3Sb)3
_chemical_formula_sum   'Y8 Lu12 Bi9 Sb3'
_cell_volume   908.50071108
_cell_formula_units_Z   1
loop_
 _symmetry_equiv_pos_site_id
 _symmetry_equiv_pos_as_xyz
  1  'x, y, z'
loop_
 _atom_site_type_symbol
 _atom_site_label
 _atom_site_symmetry_multiplicity
 _atom_site_fract_x
 _atom_site_fract_y
 _atom_site_fract_z
 _atom_site_occupancy
  Y  Y0  1  0.183039  0.750000  0.717812  1
  Y  Y1  1  0.682637  0.750000  0.782120  1
  Y  Y2  1  0.812614  0.250000  0.279164  1
  Y  Y3  1  0.318695  0.250000  0.216027  1
  Y  Y4  1  0.352553  0.750000  0.213715  1
  Y  Y5  1  0.852686  0.750000  0.285871  1
  Y  Y6  1  0.647413  0.250000  0.786105  1
  Y  Y7  1  0.148377  0.250000  0.717044  1
  Lu  Lu8  1  0.025857  0.750000  0.989458  1
  Lu  Lu9  1  0.526694  0.750000  0.510973  1
  Lu  Lu10  1  0.974505  0.250000  0.010402  1
  Lu  Lu11  1  0.477913  0.250000  0.489591  1
  Lu  Lu12  1  0.312275  0.434972  0.942635  1
  Lu  Lu13  1  0.809484  0.062715  0.559148  1
  Lu  Lu14  1  0.687817  0.934632  0.057559  1
  Lu  Lu15  1  0.189064  0.568953  0.442334  1
  Lu  Lu16  1  0.687817  0.565368  0.057559  1
  Lu  Lu17  1  0.189064  0.931047  0.442334  1
  Lu  Lu18  1  0.312275  0.065028  0.942635  1
  Lu  Lu19  1  0.809484  0.437285  0.559148  1
  Bi  Bi20  1  0.433893  0.003907  0.671784  1
  Bi  Bi21  1  0.934023  0.496496  0.828525  1
  Bi  Bi22  1  0.565552  0.504192  0.328410  1
  Bi  Bi23  1  0.065894  0.996417  0.171565  1
  Bi  Bi24  1  0.565552  0.995808  0.328410  1
  Bi  Bi25  1  0.065894  0.503583  0.171565  1
  Bi  Bi26  1  0.433893  0.496093  0.671784  1
  Bi  Bi27  1  0.934023  0.003504  0.828525  1
  Bi  Bi28  1  0.096066  0.250000  0.456624  1
  Sb  Sb29  1  0.403782  0.750000  0.957893  1
  Sb  Sb30  1  0.904232  0.750000  0.541858  1
  Sb  Sb31  1  0.596935  0.250000  0.041424  1
