# generated using pymatgen
data_Pr7Nd(Si3Pt)4
_symmetry_space_group_name_H-M   'P 1'
_cell_length_a   8.26246311
_cell_length_b   8.26246346
_cell_length_c   8.69692300
_cell_angle_alpha   90.00000000
_cell_angle_beta   90.00000000
_cell_angle_gamma   120.01206267
_symmetry_Int_Tables_number   1
_chemical_formula_structural   Pr7Nd(Si3Pt)4
_chemical_formula_sum   'Pr7 Nd1 Si12 Pt4'
_cell_volume   514.11768100
_cell_formula_units_Z   1
loop_
 _symmetry_equiv_pos_site_id
 _symmetry_equiv_pos_as_xyz
  1  'x, y, z'
loop_
 _atom_site_type_symbol
 _atom_site_label
 _atom_site_symmetry_multiplicity
 _atom_site_fract_x
 _atom_site_fract_y
 _atom_site_fract_z
 _atom_site_occupancy
  Pr  Pr0  1  0.500161  0.499839  0.250000  1
  Pr  Pr1  1  0.000347  0.500164  0.750000  1
  Pr  Pr2  1  0.999672  0.499840  0.250000  1
  Pr  Pr3  1  0.499836  0.999653  0.750000  1
  Pr  Pr4  1  0.500160  0.000328  0.250000  1
  Pr  Pr5  1  0.000001  0.999999  0.750000  1
  Pr  Pr6  1  0.999997  0.000003  0.250000  1
  Nd  Nd7  1  0.499827  0.500173  0.750000  1
  Si  Si8  1  0.833985  0.166015  0.000167  1
  Si  Si9  1  0.166012  0.833988  0.999935  1
  Si  Si10  1  0.331957  0.166182  0.999669  1
  Si  Si11  1  0.166012  0.833988  0.500065  1
  Si  Si12  1  0.668041  0.833813  0.999379  1
  Si  Si13  1  0.833985  0.166015  0.499833  1
  Si  Si14  1  0.833818  0.668043  0.999669  1
  Si  Si15  1  0.668041  0.833813  0.500621  1
  Si  Si16  1  0.166187  0.331959  0.999379  1
  Si  Si17  1  0.331957  0.166182  0.500331  1
  Si  Si18  1  0.166187  0.331959  0.500621  1
  Si  Si19  1  0.833818  0.668043  0.500331  1
  Pt  Pt20  1  0.666499  0.333501  0.998486  1
  Pt  Pt21  1  0.333500  0.666500  0.999645  1
  Pt  Pt22  1  0.333500  0.666500  0.500355  1
  Pt  Pt23  1  0.666499  0.333501  0.501514  1
