# generated using pymatgen
data_Sm4Co16Si5Tc4P7
_symmetry_space_group_name_H-M   'P 1'
_cell_length_a   3.75284700
_cell_length_b   10.49699205
_cell_length_c   11.95520805
_cell_angle_alpha   89.98903321
_cell_angle_beta   90.00000000
_cell_angle_gamma   90.00000000
_symmetry_Int_Tables_number   1
_chemical_formula_structural   Sm4Co16Si5Tc4P7
_chemical_formula_sum   'Sm4 Co16 Si5 Tc4 P7'
_cell_volume   470.95873657
_cell_formula_units_Z   1
loop_
 _symmetry_equiv_pos_site_id
 _symmetry_equiv_pos_as_xyz
  1  'x, y, z'
loop_
 _atom_site_type_symbol
 _atom_site_label
 _atom_site_symmetry_multiplicity
 _atom_site_fract_x
 _atom_site_fract_y
 _atom_site_fract_z
 _atom_site_occupancy
  Sm  Sm0  1  0.250000  0.582503  0.701523  1
  Sm  Sm1  1  0.250000  0.916414  0.201724  1
  Sm  Sm2  1  0.750000  0.416642  0.298091  1
  Sm  Sm3  1  0.750000  0.080977  0.798223  1
  Co  Co4  1  0.250000  0.406930  0.487874  1
  Co  Co5  1  0.250000  0.089938  0.992023  1
  Co  Co6  1  0.750000  0.593879  0.510185  1
  Co  Co7  1  0.750000  0.904986  0.011142  1
  Co  Co8  1  0.250000  0.214772  0.176677  1
  Co  Co9  1  0.250000  0.286015  0.672061  1
  Co  Co10  1  0.750000  0.784899  0.824041  1
  Co  Co11  1  0.750000  0.715385  0.324087  1
  Co  Co12  1  0.250000  0.882209  0.700518  1
  Co  Co13  1  0.250000  0.617606  0.201429  1
  Co  Co14  1  0.750000  0.116682  0.299040  1
  Co  Co15  1  0.750000  0.385019  0.797909  1
  Co  Co16  1  0.250000  0.469833  0.933096  1
  Co  Co17  1  0.250000  0.034412  0.431502  1
  Co  Co18  1  0.750000  0.535862  0.069465  1
  Co  Co19  1  0.750000  0.965075  0.568482  1
  Si  Si20  1  0.250000  0.417823  0.112241  1
  Si  Si21  1  0.250000  0.082549  0.612852  1
  Si  Si22  1  0.750000  0.581807  0.887579  1
  Si  Si23  1  0.750000  0.917931  0.387437  1
  Si  Si24  1  0.250000  0.273736  0.865837  1
  Tc  Tc25  1  0.250000  0.708163  0.989032  1
  Tc  Tc26  1  0.250000  0.792527  0.488074  1
  Tc  Tc27  1  0.750000  0.293152  0.012290  1
  Tc  Tc28  1  0.750000  0.207347  0.510448  1
  P  P29  1  0.250000  0.225575  0.364567  1
  P  P30  1  0.750000  0.726155  0.135379  1
  P  P31  1  0.750000  0.774080  0.635364  1
  P  P32  1  0.250000  0.600361  0.392050  1
  P  P33  1  0.250000  0.899454  0.892720  1
  P  P34  1  0.750000  0.398997  0.607748  1
  P  P35  1  0.750000  0.100306  0.107291  1
