# generated using pymatgen
data_Pr4Ga9GeIr6
_symmetry_space_group_name_H-M   'P 1'
_cell_length_a   8.64706552
_cell_length_b   8.70615848
_cell_length_c   8.70615818
_cell_angle_alpha   140.67154344
_cell_angle_beta   108.27805061
_cell_angle_gamma   85.08908601
_symmetry_Int_Tables_number   1
_chemical_formula_structural   Pr4Ga9GeIr6
_chemical_formula_sum   'Pr4 Ga9 Ge1 Ir6'
_cell_volume   380.76827610
_cell_formula_units_Z   1
loop_
 _symmetry_equiv_pos_site_id
 _symmetry_equiv_pos_as_xyz
  1  'x, y, z'
loop_
 _atom_site_type_symbol
 _atom_site_label
 _atom_site_symmetry_multiplicity
 _atom_site_fract_x
 _atom_site_fract_y
 _atom_site_fract_z
 _atom_site_occupancy
  Pr  Pr0  1  0.866461  0.636446  0.230015  1
  Pr  Pr1  1  0.134477  0.364490  0.769988  1
  Pr  Pr2  1  0.404224  0.135844  0.268380  1
  Pr  Pr3  1  0.591161  0.862412  0.728749  1
  Ga  Ga4  1  0.501467  0.751084  0.251731  1
  Ga  Ga5  1  0.501467  0.249736  0.750383  1
  Ga  Ga6  1  0.208053  0.959032  0.749019  1
  Ga  Ga7  1  0.791489  0.542128  0.750194  1
  Ga  Ga8  1  0.791489  0.041296  0.249361  1
  Ga  Ga9  1  0.208053  0.459033  0.249021  1
  Ga  Ga10  1  0.078258  0.907484  0.170774  1
  Ga  Ga11  1  0.919888  0.089229  0.830659  1
  Ga  Ga12  1  0.739881  0.409670  0.330211  1
  Ge  Ge13  1  0.259627  0.591335  0.668292  1
  Ir  Ir14  1  0.002781  0.750217  0.752974  1
  Ir  Ir15  1  0.002781  0.249807  0.252564  1
  Ir  Ir16  1  0.256739  0.852822  0.403917  1
  Ir  Ir17  1  0.745595  0.148467  0.597128  1
  Ir  Ir18  1  0.448633  0.352839  0.095794  1
  Ir  Ir19  1  0.547475  0.646629  0.900847  1
