# generated using pymatgen
data_PaTa3(TiTc2)4
_symmetry_space_group_name_H-M   'P 1'
_cell_length_a   6.35588800
_cell_length_b   4.49625700
_cell_length_c   8.97420000
_cell_angle_alpha   90.00000000
_cell_angle_beta   89.99787007
_cell_angle_gamma   90.00000000
_symmetry_Int_Tables_number   1
_chemical_formula_structural   PaTa3(TiTc2)4
_chemical_formula_sum   'Pa1 Ta3 Ti4 Tc8'
_cell_volume   256.46204830
_cell_formula_units_Z   1
loop_
 _symmetry_equiv_pos_site_id
 _symmetry_equiv_pos_as_xyz
  1  'x, y, z'
loop_
 _atom_site_type_symbol
 _atom_site_label
 _atom_site_symmetry_multiplicity
 _atom_site_fract_x
 _atom_site_fract_y
 _atom_site_fract_z
 _atom_site_occupancy
  Pa  Pa0  1  0.750032  0.250000  0.125001  1
  Ta  Ta1  1  0.250036  0.750001  0.378286  1
  Ta  Ta2  1  0.749962  0.250000  0.624986  1
  Ta  Ta3  1  0.249967  0.750001  0.871735  1
  Ti  Ti4  1  0.250045  0.250000  0.125005  1
  Ti  Ti5  1  0.750055  0.750001  0.387890  1
  Ti  Ti6  1  0.249954  0.250000  0.625010  1
  Ti  Ti7  1  0.749939  0.750001  0.862107  1
  Tc  Tc8  1  0.500721  0.750001  0.124988  1
  Tc  Tc9  1  0.999351  0.750001  0.125008  1
  Tc  Tc10  1  0.500039  0.250000  0.374101  1
  Tc  Tc11  1  0.000061  0.250000  0.374142  1
  Tc  Tc12  1  0.001657  0.750001  0.625006  1
  Tc  Tc13  1  0.498298  0.750001  0.624992  1
  Tc  Tc14  1  0.999953  0.250000  0.875889  1
  Tc  Tc15  1  0.499931  0.250000  0.875854  1
