# generated using pymatgen
data_Ti3GaRhO
_symmetry_space_group_name_H-M   'P 1'
_cell_length_a   6.84590700
_cell_length_b   6.84590700
_cell_length_c   6.84590700
_cell_angle_alpha   90.00000000
_cell_angle_beta   90.00000000
_cell_angle_gamma   90.00000000
_symmetry_Int_Tables_number   1
_chemical_formula_structural   Ti3GaRhO
_chemical_formula_sum   'Ti12 Ga4 Rh4 O4'
_cell_volume   320.84330782
_cell_formula_units_Z   4
loop_
 _symmetry_equiv_pos_site_id
 _symmetry_equiv_pos_as_xyz
  1  'x, y, z'
loop_
 _atom_site_type_symbol
 _atom_site_label
 _atom_site_symmetry_multiplicity
 _atom_site_fract_x
 _atom_site_fract_y
 _atom_site_fract_z
 _atom_site_occupancy
  Ti  Ti0  1  0.795972  0.959105  0.374043  1
  Ti  Ti1  1  0.704028  0.040895  0.874043  1
  Ti  Ti2  1  0.204028  0.459105  0.125957  1
  Ti  Ti3  1  0.295972  0.540895  0.625957  1
  Ti  Ti4  1  0.959105  0.374043  0.795972  1
  Ti  Ti5  1  0.040895  0.874043  0.704028  1
  Ti  Ti6  1  0.459105  0.125957  0.204028  1
  Ti  Ti7  1  0.540895  0.625957  0.295972  1
  Ti  Ti8  1  0.374043  0.795972  0.959105  1
  Ti  Ti9  1  0.874043  0.704028  0.040895  1
  Ti  Ti10  1  0.125957  0.204028  0.459105  1
  Ti  Ti11  1  0.625957  0.295972  0.540895  1
  Ga  Ga12  1  0.569197  0.430803  0.930803  1
  Ga  Ga13  1  0.430803  0.930803  0.569197  1
  Ga  Ga14  1  0.930803  0.569197  0.430803  1
  Ga  Ga15  1  0.069197  0.069197  0.069197  1
  Rh  Rh16  1  0.179319  0.820681  0.320681  1
  Rh  Rh17  1  0.320681  0.179319  0.820681  1
  Rh  Rh18  1  0.820681  0.320681  0.179319  1
  Rh  Rh19  1  0.679319  0.679319  0.679319  1
  O  O20  1  0.873496  0.126504  0.626504  1
  O  O21  1  0.626504  0.873496  0.126504  1
  O  O22  1  0.126504  0.626504  0.873496  1
  O  O23  1  0.373496  0.373496  0.373496  1
