# generated using pymatgen
data_Y3Ho5Cd2CoPd
_symmetry_space_group_name_H-M   'P 1'
_cell_length_a   9.56507998
_cell_length_b   9.56508021
_cell_length_c   9.58762300
_cell_angle_alpha   59.92200420
_cell_angle_beta   59.92200343
_cell_angle_gamma   60.01520788
_symmetry_Int_Tables_number   1
_chemical_formula_structural   Y3Ho5Cd2CoPd
_chemical_formula_sum   'Y6 Ho10 Cd4 Co2 Pd2'
_cell_volume   619.59790794
_cell_formula_units_Z   2
loop_
 _symmetry_equiv_pos_site_id
 _symmetry_equiv_pos_as_xyz
  1  'x, y, z'
loop_
 _atom_site_type_symbol
 _atom_site_label
 _atom_site_symmetry_multiplicity
 _atom_site_fract_x
 _atom_site_fract_y
 _atom_site_fract_z
 _atom_site_occupancy
  Y  Y0  1  0.936395  0.561046  0.564886  1
  Y  Y1  1  0.561046  0.936395  0.937674  1
  Y  Y2  1  0.561046  0.936395  0.564886  1
  Y  Y3  1  0.936395  0.561046  0.937674  1
  Y  Y4  1  0.561879  0.561879  0.938121  1
  Y  Y5  1  0.936212  0.936212  0.563788  1
  Ho  Ho6  1  0.345797  0.345797  0.360049  1
  Ho  Ho7  1  0.345797  0.345797  0.948355  1
  Ho  Ho8  1  0.339606  0.957549  0.351422  1
  Ho  Ho9  1  0.957549  0.339606  0.351422  1
  Ho  Ho10  1  0.820346  0.188050  0.189652  1
  Ho  Ho11  1  0.188050  0.820346  0.801951  1
  Ho  Ho12  1  0.188050  0.820346  0.189652  1
  Ho  Ho13  1  0.820346  0.188050  0.801951  1
  Ho  Ho14  1  0.188316  0.188316  0.811684  1
  Ho  Ho15  1  0.810285  0.810285  0.189715  1
  Cd  Cd16  1  0.580344  0.580344  0.579314  1
  Cd  Cd17  1  0.580344  0.580344  0.260000  1
  Cd  Cd18  1  0.582976  0.255449  0.580788  1
  Cd  Cd19  1  0.255449  0.582976  0.580788  1
  Co  Co20  1  0.143353  0.143353  0.140833  1
  Co  Co21  1  0.143353  0.143353  0.572459  1
  Pd  Pd22  1  0.145638  0.571428  0.141467  1
  Pd  Pd23  1  0.571428  0.145638  0.141467  1
