# generated using pymatgen
data_Sc20Bi8AsSe3
_symmetry_space_group_name_H-M   'P 1'
_cell_length_a   11.30351681
_cell_length_b   8.66545300
_cell_length_c   7.54755000
_cell_angle_alpha   90.00000000
_cell_angle_beta   89.56564647
_cell_angle_gamma   90.00000000
_symmetry_Int_Tables_number   1
_chemical_formula_structural   Sc20Bi8AsSe3
_chemical_formula_sum   'Sc20 Bi8 As1 Se3'
_cell_volume   739.26198581
_cell_formula_units_Z   1
loop_
 _symmetry_equiv_pos_site_id
 _symmetry_equiv_pos_as_xyz
  1  'x, y, z'
loop_
 _atom_site_type_symbol
 _atom_site_label
 _atom_site_symmetry_multiplicity
 _atom_site_fract_x
 _atom_site_fract_y
 _atom_site_fract_z
 _atom_site_occupancy
  Sc  Sc0  1  0.060654  0.558031  0.813385  1
  Sc  Sc1  1  0.560417  0.939846  0.682695  1
  Sc  Sc2  1  0.940681  0.061408  0.181978  1
  Sc  Sc3  1  0.439133  0.440705  0.317329  1
  Sc  Sc4  1  0.940681  0.438592  0.181978  1
  Sc  Sc5  1  0.439133  0.059295  0.317329  1
  Sc  Sc6  1  0.060654  0.941969  0.813385  1
  Sc  Sc7  1  0.560417  0.560154  0.682695  1
  Sc  Sc8  1  0.000342  0.750000  0.467424  1
  Sc  Sc9  1  0.502504  0.750000  0.028161  1
  Sc  Sc10  1  0.998320  0.250000  0.532064  1
  Sc  Sc11  1  0.498071  0.250000  0.969420  1
  Sc  Sc12  1  0.208325  0.750000  0.154090  1
  Sc  Sc13  1  0.707758  0.750000  0.346117  1
  Sc  Sc14  1  0.796588  0.250000  0.849519  1
  Sc  Sc15  1  0.282100  0.250000  0.663390  1
  Sc  Sc16  1  0.293333  0.750000  0.642314  1
  Sc  Sc17  1  0.791807  0.750000  0.858591  1
  Sc  Sc18  1  0.705204  0.250000  0.361168  1
  Sc  Sc19  1  0.210680  0.250000  0.142829  1
  Bi  Bi20  1  0.326421  0.510557  0.929747  1
  Bi  Bi21  1  0.824530  0.991327  0.570382  1
  Bi  Bi22  1  0.674567  0.009329  0.071994  1
  Bi  Bi23  1  0.174987  0.492108  0.428299  1
  Bi  Bi24  1  0.674567  0.490671  0.071994  1
  Bi  Bi25  1  0.174987  0.007892  0.428299  1
  Bi  Bi26  1  0.326421  0.989443  0.929747  1
  Bi  Bi27  1  0.824530  0.508673  0.570382  1
  As  As28  1  0.031452  0.250000  0.906900  1
  Se  Se29  1  0.476393  0.750000  0.409945  1
  Se  Se30  1  0.977197  0.750000  0.085825  1
  Se  Se31  1  0.517141  0.250000  0.590624  1
