# generated using pymatgen
data_NaTl(PO3)4
_symmetry_space_group_name_H-M   'P 1'
_cell_length_a   7.42608702
_cell_length_b   7.44706272
_cell_length_c   10.03665200
_cell_angle_alpha   80.83826829
_cell_angle_beta   70.17717927
_cell_angle_gamma   109.02138015
_symmetry_Int_Tables_number   1
_chemical_formula_structural   NaTl(PO3)4
_chemical_formula_sum   'Na2 Tl2 P8 O24'
_cell_volume   470.39853201
_cell_formula_units_Z   2
loop_
 _symmetry_equiv_pos_site_id
 _symmetry_equiv_pos_as_xyz
  1  'x, y, z'
loop_
 _atom_site_type_symbol
 _atom_site_label
 _atom_site_symmetry_multiplicity
 _atom_site_fract_x
 _atom_site_fract_y
 _atom_site_fract_z
 _atom_site_occupancy
  Na  Na0  1  0.000608  0.500065  0.999645  1
  Na  Na1  1  0.000647  0.000160  0.499644  1
  Tl  Tl2  1  0.210149  0.959677  0.749685  1
  Tl  Tl3  1  0.791040  0.040505  0.249652  1
  P  P4  1  0.007787  0.695078  0.303313  1
  P  P5  1  0.264986  0.712137  0.479275  1
  P  P6  1  0.692002  0.743668  0.020631  1
  P  P7  1  0.501591  0.688501  0.803438  1
  P  P8  1  0.499688  0.311791  0.195894  1
  P  P9  1  0.309340  0.256651  0.978616  1
  P  P10  1  0.736073  0.288013  0.520005  1
  P  P11  1  0.993270  0.305074  0.696021  1
  O  O12  1  0.040065  0.639588  0.166486  1
  O  O13  1  0.141177  0.795438  0.585355  1
  O  O14  1  0.213761  0.728090  0.336343  1
  O  O15  1  0.499042  0.796632  0.426710  1
  O  O16  1  0.305804  0.719188  0.813289  1
  O  O17  1  0.182451  0.476733  0.548026  1
  O  O18  1  0.119248  0.273113  0.085176  1
  O  O19  1  0.723184  0.924828  0.073025  1
  O  O20  1  0.523763  0.727754  0.952445  1
  O  O21  1  0.695002  0.793089  0.667439  1
  O  O22  1  0.566710  0.550237  0.163632  1
  O  O23  1  0.034001  0.119854  0.685412  1
  O  O24  1  0.967208  0.880379  0.313960  1
  O  O25  1  0.434698  0.450113  0.835692  1
  O  O26  1  0.306207  0.207341  0.331940  1
  O  O27  1  0.477518  0.272559  0.046884  1
  O  O28  1  0.278340  0.075540  0.926195  1
  O  O29  1  0.882016  0.727055  0.914042  1
  O  O30  1  0.818580  0.523442  0.451392  1
  O  O31  1  0.695446  0.281013  0.186059  1
  O  O32  1  0.502032  0.203538  0.572506  1
  O  O33  1  0.787264  0.271874  0.662957  1
  O  O34  1  0.859947  0.204807  0.413868  1
  O  O35  1  0.960686  0.360497  0.832886  1
