# generated using pymatgen
data_Dy6Y14Si15Rh
_symmetry_space_group_name_H-M   'P 1'
_cell_length_a   7.45518766
_cell_length_b   7.68676506
_cell_length_c   14.61429062
_cell_angle_alpha   89.68265654
_cell_angle_beta   89.64470624
_cell_angle_gamma   90.19151735
_symmetry_Int_Tables_number   1
_chemical_formula_structural   Dy6Y14Si15Rh
_chemical_formula_sum   'Dy6 Y14 Si15 Rh1'
_cell_volume   837.45684808
_cell_formula_units_Z   1
loop_
 _symmetry_equiv_pos_site_id
 _symmetry_equiv_pos_as_xyz
  1  'x, y, z'
loop_
 _atom_site_type_symbol
 _atom_site_label
 _atom_site_symmetry_multiplicity
 _atom_site_fract_x
 _atom_site_fract_y
 _atom_site_fract_z
 _atom_site_occupancy
  Dy  Dy0  1  0.817505  0.333700  0.117962  1
  Dy  Dy1  1  0.316087  0.178000  0.376330  1
  Dy  Dy2  1  0.320974  0.179202  0.123343  1
  Dy  Dy3  1  0.819243  0.319220  0.377408  1
  Dy  Dy4  1  0.176186  0.675690  0.878506  1
  Dy  Dy5  1  0.683048  0.819129  0.622412  1
  Y  Y6  1  0.648478  0.993088  0.248729  1
  Y  Y7  1  0.147824  0.510156  0.247708  1
  Y  Y8  1  0.848028  0.488410  0.757506  1
  Y  Y9  1  0.352395  0.010143  0.752047  1
  Y  Y10  1  0.973911  0.816855  0.097866  1
  Y  Y11  1  0.470924  0.682738  0.401253  1
  Y  Y12  1  0.528249  0.321654  0.900678  1
  Y  Y13  1  0.029596  0.184030  0.599557  1
  Y  Y14  1  0.028651  0.184362  0.901958  1
  Y  Y15  1  0.529956  0.317748  0.598857  1
  Y  Y16  1  0.473641  0.682153  0.099341  1
  Y  Y17  1  0.969847  0.817407  0.400544  1
  Y  Y18  1  0.683173  0.812614  0.882263  1
  Y  Y19  1  0.179253  0.681272  0.621818  1
  Si  Si20  1  0.764385  0.628396  0.251725  1
  Si  Si21  1  0.265299  0.873007  0.250740  1
  Si  Si22  1  0.733337  0.123279  0.748591  1
  Si  Si23  1  0.235308  0.373569  0.746845  1
  Si  Si24  1  0.020424  0.106348  0.248931  1
  Si  Si25  1  0.523195  0.396364  0.251475  1
  Si  Si26  1  0.472520  0.605735  0.746755  1
  Si  Si27  1  0.976928  0.897427  0.748614  1
  Si  Si28  1  0.354941  0.972037  0.539861  1
  Si  Si29  1  0.646288  0.027776  0.041759  1
  Si  Si30  1  0.146675  0.470323  0.459925  1
  Si  Si31  1  0.154955  0.472009  0.041101  1
  Si  Si32  1  0.643410  0.028450  0.459529  1
  Si  Si33  1  0.353350  0.969254  0.961173  1
  Si  Si34  1  0.855027  0.528641  0.538882  1
  Rh  Rh35  1  0.856984  0.519814  0.958014  1
