# generated using pymatgen
data_Nd3HoSn10(PtRh2)2
_symmetry_space_group_name_H-M   'P 1'
_cell_length_a   13.61669700
_cell_length_b   13.61669719
_cell_length_c   7.34928632
_cell_angle_alpha   90.11314648
_cell_angle_beta   89.88685293
_cell_angle_gamma   161.01099095
_symmetry_Int_Tables_number   1
_chemical_formula_structural   Nd3HoSn10(PtRh2)2
_chemical_formula_sum   'Nd3 Ho1 Sn10 Pt2 Rh4'
_cell_volume   443.39188722
_cell_formula_units_Z   1
loop_
 _symmetry_equiv_pos_site_id
 _symmetry_equiv_pos_as_xyz
  1  'x, y, z'
loop_
 _atom_site_type_symbol
 _atom_site_label
 _atom_site_symmetry_multiplicity
 _atom_site_fract_x
 _atom_site_fract_y
 _atom_site_fract_z
 _atom_site_occupancy
  Nd  Nd0  1  0.173804  0.826196  0.747866  1
  Nd  Nd1  1  0.826042  0.173958  0.247196  1
  Nd  Nd2  1  0.476660  0.523340  0.762290  1
  Ho  Ho3  1  0.524466  0.475534  0.261863  1
  Sn  Sn4  1  0.878390  0.121610  0.771248  1
  Sn  Sn5  1  0.121159  0.878841  0.271184  1
  Sn  Sn6  1  0.703566  0.296434  0.451259  1
  Sn  Sn7  1  0.295850  0.704150  0.951027  1
  Sn  Sn8  1  0.598014  0.401986  0.884846  1
  Sn  Sn9  1  0.402348  0.597652  0.384286  1
  Sn  Sn10  1  0.951806  0.048194  0.099996  1
  Sn  Sn11  1  0.048958  0.951042  0.597567  1
  Sn  Sn12  1  0.289471  0.710529  0.525437  1
  Sn  Sn13  1  0.710348  0.289652  0.026091  1
  Pt  Pt14  1  0.050158  0.949842  0.987507  1
  Pt  Pt15  1  0.950558  0.049442  0.478317  1
  Rh  Rh16  1  0.776728  0.223272  0.734069  1
  Rh  Rh17  1  0.222923  0.777077  0.234384  1
  Rh  Rh18  1  0.395533  0.604467  0.015637  1
  Rh  Rh19  1  0.603216  0.396784  0.511931  1
