# generated using pymatgen
data_Ce3ThRe8
_symmetry_space_group_name_H-M   'P 1'
_cell_length_a   5.36757574
_cell_length_b   5.36757497
_cell_length_c   8.91563606
_cell_angle_alpha   89.94747252
_cell_angle_beta   89.94747172
_cell_angle_gamma   64.52358540
_symmetry_Int_Tables_number   1
_chemical_formula_structural   Ce3ThRe8
_chemical_formula_sum   'Ce3 Th1 Re8'
_cell_volume   231.88990960
_cell_formula_units_Z   1
loop_
 _symmetry_equiv_pos_site_id
 _symmetry_equiv_pos_as_xyz
  1  'x, y, z'
loop_
 _atom_site_type_symbol
 _atom_site_label
 _atom_site_symmetry_multiplicity
 _atom_site_fract_x
 _atom_site_fract_y
 _atom_site_fract_z
 _atom_site_occupancy
  Ce  Ce0  1  0.668955  0.668955  0.570726  1
  Ce  Ce1  1  0.333646  0.333646  0.064761  1
  Ce  Ce2  1  0.666628  0.666628  0.931797  1
  Th  Th3  1  0.332061  0.332061  0.433570  1
  Re  Re4  1  0.998795  0.998795  0.500846  1
  Re  Re5  1  0.999923  0.999923  0.999298  1
  Re  Re6  1  0.828462  0.828462  0.248643  1
  Re  Re7  1  0.171285  0.171285  0.751241  1
  Re  Re8  1  0.339753  0.829730  0.248119  1
  Re  Re9  1  0.170099  0.660663  0.751442  1
  Re  Re10  1  0.660663  0.170099  0.751442  1
  Re  Re11  1  0.829730  0.339753  0.248119  1
