# generated using pymatgen
data_LiEr15TmTl3Rh4
_symmetry_space_group_name_H-M   'P 1'
_cell_length_a   9.59241433
_cell_length_b   9.59257064
_cell_length_c   9.61150300
_cell_angle_alpha   59.93468727
_cell_angle_beta   59.93414682
_cell_angle_gamma   59.91234077
_symmetry_Int_Tables_number   1
_chemical_formula_structural   LiEr15TmTl3Rh4
_chemical_formula_sum   'Li1 Er15 Tm1 Tl3 Rh4'
_cell_volume   624.33840743
_cell_formula_units_Z   1
loop_
 _symmetry_equiv_pos_site_id
 _symmetry_equiv_pos_as_xyz
  1  'x, y, z'
loop_
 _atom_site_type_symbol
 _atom_site_label
 _atom_site_symmetry_multiplicity
 _atom_site_fract_x
 _atom_site_fract_y
 _atom_site_fract_z
 _atom_site_occupancy
  Li  Li0  1  0.428807  0.714150  0.428520  1
  Er  Er1  1  0.437008  0.060635  0.064510  1
  Er  Er2  1  0.437008  0.060635  0.437848  1
  Er  Er3  1  0.062864  0.436611  0.063190  1
  Er  Er4  1  0.647927  0.054188  0.648943  1
  Er  Er5  1  0.186126  0.815872  0.812480  1
  Er  Er6  1  0.063618  0.059621  0.438380  1
  Er  Er7  1  0.811112  0.190781  0.187860  1
  Er  Er8  1  0.812968  0.814356  0.186337  1
  Er  Er9  1  0.652255  0.649906  0.043540  1
  Er  Er10  1  0.652255  0.649906  0.654299  1
  Er  Er11  1  0.062864  0.436611  0.437337  1
  Er  Er12  1  0.047404  0.648065  0.652265  1
  Er  Er13  1  0.811112  0.190781  0.810245  1
  Er  Er14  1  0.436839  0.435500  0.063831  1
  Er  Er15  1  0.186126  0.815872  0.185521  1
  Tm  Tm16  1  0.188609  0.190968  0.810211  1
  Tl  Tl17  1  0.413018  0.421814  0.752466  1
  Tl  Tl18  1  0.752237  0.421859  0.412951  1
  Tl  Tl19  1  0.413018  0.421814  0.412702  1
  Rh  Rh20  1  0.858037  0.427594  0.857184  1
  Rh  Rh21  1  0.855915  0.860722  0.427875  1
  Rh  Rh22  1  0.426954  0.861017  0.856014  1
  Rh  Rh23  1  0.855915  0.860722  0.855488  1
