# generated using pymatgen
data_Tb3ThInRh
_symmetry_space_group_name_H-M   'P 1'
_cell_length_a   9.81237163
_cell_length_b   9.81237190
_cell_length_c   9.81237100
_cell_angle_alpha   59.99999967
_cell_angle_beta   59.99999876
_cell_angle_gamma   59.99999813
_symmetry_Int_Tables_number   1
_chemical_formula_structural   Tb3ThInRh
_chemical_formula_sum   'Tb12 Th4 In4 Rh4'
_cell_volume   668.04687934
_cell_formula_units_Z   4
loop_
 _symmetry_equiv_pos_site_id
 _symmetry_equiv_pos_as_xyz
  1  'x, y, z'
loop_
 _atom_site_type_symbol
 _atom_site_label
 _atom_site_symmetry_multiplicity
 _atom_site_fract_x
 _atom_site_fract_y
 _atom_site_fract_z
 _atom_site_occupancy
  Tb  Tb0  1  0.810612  0.189388  0.189388  1
  Tb  Tb1  1  0.189388  0.810612  0.810612  1
  Tb  Tb2  1  0.189388  0.810612  0.189388  1
  Tb  Tb3  1  0.810612  0.189388  0.810612  1
  Tb  Tb4  1  0.189388  0.189388  0.810612  1
  Tb  Tb5  1  0.810612  0.810612  0.189388  1
  Tb  Tb6  1  0.936589  0.563411  0.563411  1
  Tb  Tb7  1  0.563411  0.936589  0.936589  1
  Tb  Tb8  1  0.563411  0.936589  0.563411  1
  Tb  Tb9  1  0.936589  0.563411  0.936589  1
  Tb  Tb10  1  0.563411  0.563411  0.936589  1
  Tb  Tb11  1  0.936589  0.936589  0.563411  1
  Th  Th12  1  0.348455  0.348455  0.348455  1
  Th  Th13  1  0.348455  0.348455  0.954635  1
  Th  Th14  1  0.348455  0.954635  0.348455  1
  Th  Th15  1  0.954635  0.348455  0.348455  1
  In  In16  1  0.583813  0.583813  0.583813  1
  In  In17  1  0.583813  0.583813  0.248561  1
  In  In18  1  0.583813  0.248561  0.583813  1
  In  In19  1  0.248561  0.583813  0.583813  1
  Rh  Rh20  1  0.144415  0.144415  0.144415  1
  Rh  Rh21  1  0.144415  0.144415  0.566754  1
  Rh  Rh22  1  0.144415  0.566754  0.144415  1
  Rh  Rh23  1  0.566754  0.144415  0.144415  1
