# generated using pymatgen
data_GdTh3(Ge2Ir)4
_symmetry_space_group_name_H-M   'P 1'
_cell_length_a   9.56617891
_cell_length_b   9.56617812
_cell_length_c   9.56617800
_cell_angle_alpha   153.30736139
_cell_angle_beta   124.33596162
_cell_angle_gamma   62.77580515
_symmetry_Int_Tables_number   1
_chemical_formula_structural   GdTh3(Ge2Ir)4
_chemical_formula_sum   'Gd1 Th3 Ge8 Ir4'
_cell_volume   322.15965747
_cell_formula_units_Z   1
loop_
 _symmetry_equiv_pos_site_id
 _symmetry_equiv_pos_as_xyz
  1  'x, y, z'
loop_
 _atom_site_type_symbol
 _atom_site_label
 _atom_site_symmetry_multiplicity
 _atom_site_fract_x
 _atom_site_fract_y
 _atom_site_fract_z
 _atom_site_occupancy
  Gd  Gd0  1  0.706471  0.206471  0.500000  1
  Th  Th1  1  0.292651  0.792651  0.500000  1
  Th  Th2  1  0.271809  0.000552  0.271257  1
  Th  Th3  1  0.729296  0.000552  0.728743  1
  Ge  Ge4  1  0.579303  0.579303  0.000000  1
  Ge  Ge5  1  0.952127  0.800124  0.152002  1
  Ge  Ge6  1  0.648121  0.800124  0.847998  1
  Ge  Ge7  1  0.039091  0.198183  0.840908  1
  Ge  Ge8  1  0.922114  0.422114  0.500000  1
  Ge  Ge9  1  0.425022  0.425022  0.000000  1
  Ge  Ge10  1  0.076266  0.576266  0.500000  1
  Ge  Ge11  1  0.357274  0.198183  0.159092  1
  Ir  Ir12  1  0.900307  0.646575  0.253732  1
  Ir  Ir13  1  0.101205  0.353654  0.747552  1
  Ir  Ir14  1  0.606100  0.353654  0.252448  1
  Ir  Ir15  1  0.392844  0.646575  0.746268  1
