# generated using pymatgen
data_Nd4TlCd3Rh4
_symmetry_space_group_name_H-M   'P 1'
_cell_length_a   4.17651800
_cell_length_b   7.30512358
_cell_length_c   8.80843700
_cell_angle_alpha   89.91744995
_cell_angle_beta   90.00000000
_cell_angle_gamma   90.00000000
_symmetry_Int_Tables_number   1
_chemical_formula_structural   Nd4TlCd3Rh4
_chemical_formula_sum   'Nd4 Tl1 Cd3 Rh4'
_cell_volume   268.74495894
_cell_formula_units_Z   1
loop_
 _symmetry_equiv_pos_site_id
 _symmetry_equiv_pos_as_xyz
  1  'x, y, z'
loop_
 _atom_site_type_symbol
 _atom_site_label
 _atom_site_symmetry_multiplicity
 _atom_site_fract_x
 _atom_site_fract_y
 _atom_site_fract_z
 _atom_site_occupancy
  Nd  Nd0  1  0.750000  0.954783  0.317631  1
  Nd  Nd1  1  0.250000  0.041853  0.683695  1
  Nd  Nd2  1  0.250000  0.546560  0.820465  1
  Nd  Nd3  1  0.750000  0.454969  0.178814  1
  Tl  Tl4  1  0.750000  0.361763  0.558822  1
  Cd  Cd5  1  0.750000  0.867216  0.942966  1
  Cd  Cd6  1  0.250000  0.133283  0.059192  1
  Cd  Cd7  1  0.250000  0.638772  0.439376  1
  Rh  Rh8  1  0.750000  0.760855  0.634071  1
  Rh  Rh9  1  0.250000  0.241919  0.365398  1
  Rh  Rh10  1  0.250000  0.737997  0.131966  1
  Rh  Rh11  1  0.750000  0.260028  0.867604  1
