# generated using pymatgen
data_Y5V3(P3Ir4)4
_symmetry_space_group_name_H-M   'P 1'
_cell_length_a   12.68696000
_cell_length_b   12.68696030
_cell_length_c   3.96266200
_cell_angle_alpha   90.00000000
_cell_angle_beta   90.00000000
_cell_angle_gamma   119.99999923
_symmetry_Int_Tables_number   1
_chemical_formula_structural   Y5V3(P3Ir4)4
_chemical_formula_sum   'Y5 V3 P12 Ir16'
_cell_volume   552.37347647
_cell_formula_units_Z   1
loop_
 _symmetry_equiv_pos_site_id
 _symmetry_equiv_pos_as_xyz
  1  'x, y, z'
loop_
 _atom_site_type_symbol
 _atom_site_label
 _atom_site_symmetry_multiplicity
 _atom_site_fract_x
 _atom_site_fract_y
 _atom_site_fract_z
 _atom_site_occupancy
  Y  Y0  1  0.333333  0.666667  0.500000  1
  Y  Y1  1  0.666667  0.333333  0.500000  1
  Y  Y2  1  0.000000  0.811461  0.000000  1
  Y  Y3  1  0.188539  0.188539  0.000000  1
  Y  Y4  1  0.811461  0.000000  0.000000  1
  V  V5  1  0.000000  0.451042  0.500000  1
  V  V6  1  0.548958  0.548958  0.500000  1
  V  V7  1  0.451042  0.000000  0.500000  1
  P  P8  1  0.000000  0.635669  0.500000  1
  P  P9  1  0.364331  0.364331  0.500000  1
  P  P10  1  0.635669  0.000000  0.500000  1
  P  P11  1  0.516834  0.683765  0.000000  1
  P  P12  1  0.316235  0.833068  0.000000  1
  P  P13  1  0.166932  0.483166  0.000000  1
  P  P14  1  0.483166  0.166932  0.000000  1
  P  P15  1  0.683765  0.516834  0.000000  1
  P  P16  1  0.833068  0.316235  0.000000  1
  P  P17  1  0.000000  0.177209  0.500000  1
  P  P18  1  0.822791  0.822791  0.500000  1
  P  P19  1  0.177209  0.000000  0.500000  1
  Ir  Ir20  1  0.509483  0.867527  0.000000  1
  Ir  Ir21  1  0.132473  0.641956  0.000000  1
  Ir  Ir22  1  0.358044  0.490517  0.000000  1
  Ir  Ir23  1  0.490517  0.358044  0.000000  1
  Ir  Ir24  1  0.867527  0.509483  0.000000  1
  Ir  Ir25  1  0.641956  0.132473  0.000000  1
  Ir  Ir26  1  0.000000  0.285391  0.000000  1
  Ir  Ir27  1  0.714609  0.714609  0.000000  1
  Ir  Ir28  1  0.285391  0.000000  0.000000  1
  Ir  Ir29  1  0.625306  0.803895  0.500000  1
  Ir  Ir30  1  0.196105  0.821411  0.500000  1
  Ir  Ir31  1  0.178589  0.374694  0.500000  1
  Ir  Ir32  1  0.374694  0.178589  0.500000  1
  Ir  Ir33  1  0.803895  0.625306  0.500000  1
  Ir  Ir34  1  0.821411  0.196105  0.500000  1
  Ir  Ir35  1  0.000000  0.000000  0.500000  1
