# generated using pymatgen
data_YbHo2(MnC3)2
_symmetry_space_group_name_H-M   'P 1'
_cell_length_a   8.07700215
_cell_length_b   8.04547532
_cell_length_c   4.96036100
_cell_angle_alpha   90.00000000
_cell_angle_beta   90.00000000
_cell_angle_gamma   120.11495807
_symmetry_Int_Tables_number   1
_chemical_formula_structural   YbHo2(MnC3)2
_chemical_formula_sum   'Yb2 Ho4 Mn4 C12'
_cell_volume   278.83133042
_cell_formula_units_Z   2
loop_
 _symmetry_equiv_pos_site_id
 _symmetry_equiv_pos_as_xyz
  1  'x, y, z'
loop_
 _atom_site_type_symbol
 _atom_site_label
 _atom_site_symmetry_multiplicity
 _atom_site_fract_x
 _atom_site_fract_y
 _atom_site_fract_z
 _atom_site_occupancy
  Yb  Yb0  1  0.612484  0.682363  0.750000  1
  Yb  Yb1  1  0.928342  0.613716  0.250000  1
  Ho  Ho2  1  0.685756  0.067103  0.250000  1
  Ho  Ho3  1  0.309653  0.932413  0.750000  1
  Ho  Ho4  1  0.066078  0.381932  0.750000  1
  Ho  Ho5  1  0.379577  0.314228  0.250000  1
  Mn  Mn6  1  0.997217  0.996839  0.500322  1
  Mn  Mn7  1  0.997217  0.996839  0.999678  1
  Mn  Mn8  1  0.666370  0.329285  0.750000  1
  Mn  Mn9  1  0.337073  0.668394  0.250000  1
  C  C10  1  0.959024  0.771798  0.750000  1
  C  C11  1  0.191714  0.963858  0.250000  1
  C  C12  1  0.777380  0.820154  0.250000  1
  C  C13  1  0.229160  0.195408  0.750000  1
  C  C14  1  0.818496  0.039680  0.750000  1
  C  C15  1  0.034617  0.228387  0.250000  1
  C  C16  1  0.858542  0.576937  0.750000  1
  C  C17  1  0.283413  0.861080  0.250000  1
  C  C18  1  0.583297  0.719431  0.250000  1
  C  C19  1  0.424000  0.282526  0.750000  1
  C  C20  1  0.142630  0.424077  0.250000  1
  C  C21  1  0.717960  0.133552  0.750000  1
