# generated using pymatgen
data_YbNp(B4Ru)2
_symmetry_space_group_name_H-M   'P 1'
_cell_length_a   3.52821100
_cell_length_b   5.96475330
_cell_length_c   11.51022469
_cell_angle_alpha   90.12044334
_cell_angle_beta   90.00000000
_cell_angle_gamma   90.00000000
_symmetry_Int_Tables_number   1
_chemical_formula_structural   YbNp(B4Ru)2
_chemical_formula_sum   'Yb2 Np2 B16 Ru4'
_cell_volume   242.23108673
_cell_formula_units_Z   2
loop_
 _symmetry_equiv_pos_site_id
 _symmetry_equiv_pos_as_xyz
  1  'x, y, z'
loop_
 _atom_site_type_symbol
 _atom_site_label
 _atom_site_symmetry_multiplicity
 _atom_site_fract_x
 _atom_site_fract_y
 _atom_site_fract_z
 _atom_site_occupancy
  Yb  Yb0  1  0.500000  0.127936  0.351737  1
  Yb  Yb1  1  0.500000  0.872064  0.648263  1
  Np  Np2  1  0.500000  0.628153  0.152289  1
  Np  Np3  1  0.500000  0.371847  0.847711  1
  B  B4  1  0.000000  0.973840  0.192181  1
  B  B5  1  0.000000  0.026160  0.807819  1
  B  B6  1  0.000000  0.476833  0.308279  1
  B  B7  1  0.000000  0.523167  0.691721  1
  B  B8  1  0.000000  0.788119  0.314432  1
  B  B9  1  0.000000  0.211881  0.685568  1
  B  B10  1  0.000000  0.288773  0.186382  1
  B  B11  1  0.000000  0.711227  0.813618  1
  B  B12  1  0.000000  0.863510  0.469588  1
  B  B13  1  0.000000  0.136490  0.530412  1
  B  B14  1  0.000000  0.366321  0.031471  1
  B  B15  1  0.000000  0.633679  0.968529  1
  B  B16  1  0.000000  0.887269  0.047496  1
  B  B17  1  0.000000  0.112731  0.952504  1
  B  B18  1  0.000000  0.386417  0.453984  1
  B  B19  1  0.000000  0.613583  0.546016  1
  Ru  Ru20  1  0.500000  0.636897  0.407454  1
  Ru  Ru21  1  0.500000  0.363103  0.592546  1
  Ru  Ru22  1  0.500000  0.140730  0.091517  1
  Ru  Ru23  1  0.500000  0.859270  0.908483  1
