# generated using pymatgen
data_Tb2V3Co9As7
_symmetry_space_group_name_H-M   'P 1'
_cell_length_a   3.77642500
_cell_length_b   9.41125259
_cell_length_c   9.41125400
_cell_angle_alpha   119.99999791
_cell_angle_beta   90.00000000
_cell_angle_gamma   90.00000000
_symmetry_Int_Tables_number   1
_chemical_formula_structural   Tb2V3Co9As7
_chemical_formula_sum   'Tb2 V3 Co9 As7'
_cell_volume   289.67194103
_cell_formula_units_Z   1
loop_
 _symmetry_equiv_pos_site_id
 _symmetry_equiv_pos_as_xyz
  1  'x, y, z'
loop_
 _atom_site_type_symbol
 _atom_site_label
 _atom_site_symmetry_multiplicity
 _atom_site_fract_x
 _atom_site_fract_y
 _atom_site_fract_z
 _atom_site_occupancy
  Tb  Tb0  1  0.000000  0.666667  0.333333  1
  Tb  Tb1  1  0.500000  0.333333  0.666667  1
  V  V2  1  0.500000  0.782157  0.898811  1
  V  V3  1  0.500000  0.116654  0.217843  1
  V  V4  1  0.500000  0.101189  0.883346  1
  Co  Co5  1  0.000000  0.569925  0.941518  1
  Co  Co6  1  0.000000  0.371592  0.430075  1
  Co  Co7  1  0.000000  0.058482  0.628408  1
  Co  Co8  1  0.000000  0.878078  0.157368  1
  Co  Co9  1  0.000000  0.279290  0.121922  1
  Co  Co10  1  0.000000  0.842632  0.720710  1
  Co  Co11  1  0.500000  0.950291  0.382803  1
  Co  Co12  1  0.500000  0.432512  0.049709  1
  Co  Co13  1  0.500000  0.617197  0.567488  1
  As  As14  1  0.000000  0.000000  0.000000  1
  As  As15  1  0.500000  0.708052  0.118009  1
  As  As16  1  0.500000  0.409957  0.291948  1
  As  As17  1  0.500000  0.881991  0.590043  1
  As  As18  1  0.000000  0.587391  0.702061  1
  As  As19  1  0.000000  0.114670  0.412609  1
  As  As20  1  0.000000  0.297939  0.885330  1
