# generated using pymatgen
data_La2Co9Tc3As7
_symmetry_space_group_name_H-M   'P 1'
_cell_length_a   3.89146800
_cell_length_b   9.46006235
_cell_length_c   9.46006300
_cell_angle_alpha   119.99999782
_cell_angle_beta   90.00000000
_cell_angle_gamma   90.00000000
_symmetry_Int_Tables_number   1
_chemical_formula_structural   La2Co9Tc3As7
_chemical_formula_sum   'La2 Co9 Tc3 As7'
_cell_volume   301.60055223
_cell_formula_units_Z   1
loop_
 _symmetry_equiv_pos_site_id
 _symmetry_equiv_pos_as_xyz
  1  'x, y, z'
loop_
 _atom_site_type_symbol
 _atom_site_label
 _atom_site_symmetry_multiplicity
 _atom_site_fract_x
 _atom_site_fract_y
 _atom_site_fract_z
 _atom_site_occupancy
  La  La0  1  0.000000  0.666667  0.333333  1
  La  La1  1  0.500000  0.333333  0.666667  1
  Co  Co2  1  0.000000  0.571095  0.940869  1
  Co  Co3  1  0.000000  0.369774  0.428905  1
  Co  Co4  1  0.000000  0.059131  0.630226  1
  Co  Co5  1  0.000000  0.874155  0.152065  1
  Co  Co6  1  0.000000  0.277908  0.125845  1
  Co  Co7  1  0.000000  0.847935  0.722092  1
  Co  Co8  1  0.500000  0.946327  0.377451  1
  Co  Co9  1  0.500000  0.431124  0.053673  1
  Co  Co10  1  0.500000  0.622549  0.568876  1
  Tc  Tc11  1  0.500000  0.785764  0.899055  1
  Tc  Tc12  1  0.500000  0.113291  0.214236  1
  Tc  Tc13  1  0.500000  0.100945  0.886709  1
  As  As14  1  0.000000  0.000000  0.000000  1
  As  As15  1  0.500000  0.705050  0.108736  1
  As  As16  1  0.500000  0.403688  0.294950  1
  As  As17  1  0.500000  0.891264  0.596312  1
  As  As18  1  0.000000  0.593753  0.700498  1
  As  As19  1  0.000000  0.106745  0.406247  1
  As  As20  1  0.000000  0.299502  0.893255  1
