# generated using pymatgen
data_Nd8CoNiHg2
_symmetry_space_group_name_H-M   'P 1'
_cell_length_a   9.81712549
_cell_length_b   9.81793389
_cell_length_c   9.83406266
_cell_angle_alpha   60.05902990
_cell_angle_beta   60.03130830
_cell_angle_gamma   59.99953263
_symmetry_Int_Tables_number   1
_chemical_formula_structural   Nd8CoNiHg2
_chemical_formula_sum   'Nd16 Co2 Ni2 Hg4'
_cell_volume   670.68254142
_cell_formula_units_Z   2
loop_
 _symmetry_equiv_pos_site_id
 _symmetry_equiv_pos_as_xyz
  1  'x, y, z'
loop_
 _atom_site_type_symbol
 _atom_site_label
 _atom_site_symmetry_multiplicity
 _atom_site_fract_x
 _atom_site_fract_y
 _atom_site_fract_z
 _atom_site_occupancy
  Nd  Nd0  1  0.596569  0.596360  0.600866  1
  Nd  Nd1  1  0.598026  0.598098  0.202994  1
  Nd  Nd2  1  0.596009  0.205673  0.599699  1
  Nd  Nd3  1  0.205850  0.595978  0.599535  1
  Nd  Nd4  1  0.065058  0.439554  0.439144  1
  Nd  Nd5  1  0.437652  0.063942  0.055690  1
  Nd  Nd6  1  0.439534  0.064942  0.439295  1
  Nd  Nd7  1  0.063874  0.437828  0.055697  1
  Nd  Nd8  1  0.438937  0.439061  0.061321  1
  Nd  Nd9  1  0.058729  0.058844  0.439320  1
  Nd  Nd10  1  0.188920  0.811391  0.813767  1
  Nd  Nd11  1  0.808884  0.188083  0.189332  1
  Nd  Nd12  1  0.811427  0.189016  0.813707  1
  Nd  Nd13  1  0.188079  0.808747  0.189437  1
  Nd  Nd14  1  0.811716  0.811622  0.190241  1
  Nd  Nd15  1  0.187976  0.188047  0.810694  1
  Co  Co16  1  0.392613  0.392840  0.391457  1
  Co  Co17  1  0.392785  0.392733  0.824899  1
  Ni  Ni18  1  0.393158  0.824777  0.391406  1
  Ni  Ni19  1  0.824813  0.393044  0.391443  1
  Hg  Hg20  1  0.832621  0.832619  0.833260  1
  Hg  Hg21  1  0.833559  0.833593  0.499715  1
  Hg  Hg22  1  0.834104  0.499096  0.833555  1
  Hg  Hg23  1  0.499109  0.834115  0.833522  1
