# generated using pymatgen
data_Er3Zr2BiPb2
_symmetry_space_group_name_H-M   'P 1'
_cell_length_a   8.94183704
_cell_length_b   8.94321542
_cell_length_c   6.09405600
_cell_angle_alpha   90.00000000
_cell_angle_beta   90.00000000
_cell_angle_gamma   120.00511000
_symmetry_Int_Tables_number   1
_chemical_formula_structural   Er3Zr2BiPb2
_chemical_formula_sum   'Er6 Zr4 Bi2 Pb4'
_cell_volume   422.02205714
_cell_formula_units_Z   2
loop_
 _symmetry_equiv_pos_site_id
 _symmetry_equiv_pos_as_xyz
  1  'x, y, z'
loop_
 _atom_site_type_symbol
 _atom_site_label
 _atom_site_symmetry_multiplicity
 _atom_site_fract_x
 _atom_site_fract_y
 _atom_site_fract_z
 _atom_site_occupancy
  Er  Er0  1  0.759856  0.759303  0.250000  1
  Er  Er1  1  0.000000  0.240195  0.250000  1
  Er  Er2  1  0.760771  0.001691  0.750000  1
  Er  Er3  1  0.240144  0.999447  0.250000  1
  Er  Er4  1  0.000000  0.759338  0.750000  1
  Er  Er5  1  0.239229  0.240920  0.750000  1
  Zr  Zr6  1  0.333212  0.666454  0.498341  1
  Zr  Zr7  1  0.666788  0.333241  0.498341  1
  Zr  Zr8  1  0.333212  0.666454  0.001659  1
  Zr  Zr9  1  0.666788  0.333241  0.001659  1
  Bi  Bi10  1  0.602668  0.602640  0.750000  1
  Bi  Bi11  1  0.397332  0.999972  0.750000  1
  Pb  Pb12  1  0.602731  0.999739  0.250000  1
  Pb  Pb13  1  0.000000  0.397846  0.750000  1
  Pb  Pb14  1  0.397269  0.397008  0.250000  1
  Pb  Pb15  1  0.000000  0.602512  0.250000  1
