# generated using pymatgen
data_YbDy19(SnPb)8
_symmetry_space_group_name_H-M   'P 1'
_cell_length_a   8.13502800
_cell_length_b   8.20971513
_cell_length_c   15.57735000
_cell_angle_alpha   90.00000000
_cell_angle_beta   90.00000000
_cell_angle_gamma   90.01030802
_symmetry_Int_Tables_number   1
_chemical_formula_structural   YbDy19(SnPb)8
_chemical_formula_sum   'Yb1 Dy19 Sn8 Pb8'
_cell_volume   1040.35296897
_cell_formula_units_Z   1
loop_
 _symmetry_equiv_pos_site_id
 _symmetry_equiv_pos_as_xyz
  1  'x, y, z'
loop_
 _atom_site_type_symbol
 _atom_site_label
 _atom_site_symmetry_multiplicity
 _atom_site_fract_x
 _atom_site_fract_y
 _atom_site_fract_z
 _atom_site_occupancy
  Yb  Yb0  1  0.290107  0.004444  0.250000  1
  Dy  Dy1  1  0.378019  0.839176  0.877090  1
  Dy  Dy2  1  0.878369  0.660425  0.622900  1
  Dy  Dy3  1  0.620376  0.160300  0.377902  1
  Dy  Dy4  1  0.122215  0.338817  0.122154  1
  Dy  Dy5  1  0.620376  0.160300  0.122098  1
  Dy  Dy6  1  0.122215  0.338817  0.377846  1
  Dy  Dy7  1  0.378019  0.839176  0.622910  1
  Dy  Dy8  1  0.878369  0.660425  0.877100  1
  Dy  Dy9  1  0.534678  0.323121  0.896720  1
  Dy  Dy10  1  0.034977  0.176318  0.603034  1
  Dy  Dy11  1  0.465230  0.677347  0.397697  1
  Dy  Dy12  1  0.965813  0.823194  0.102344  1
  Dy  Dy13  1  0.465230  0.677347  0.102303  1
  Dy  Dy14  1  0.965813  0.823194  0.397656  1
  Dy  Dy15  1  0.534678  0.323121  0.603280  1
  Dy  Dy16  1  0.034977  0.176318  0.896966  1
  Dy  Dy17  1  0.209499  0.503840  0.750000  1
  Dy  Dy18  1  0.709619  0.996724  0.750000  1
  Dy  Dy19  1  0.790802  0.496410  0.250000  1
  Sn  Sn20  1  0.574791  0.622377  0.750000  1
  Sn  Sn21  1  0.074744  0.878053  0.750000  1
  Sn  Sn22  1  0.423802  0.382109  0.250000  1
  Sn  Sn23  1  0.922650  0.120632  0.250000  1
  Sn  Sn24  1  0.342579  0.148196  0.750000  1
  Sn  Sn25  1  0.842448  0.350995  0.750000  1
  Sn  Sn26  1  0.661936  0.851927  0.250000  1
  Sn  Sn27  1  0.157390  0.645209  0.250000  1
  Pb  Pb28  1  0.282369  0.034109  0.040803  1
  Pb  Pb29  1  0.781987  0.466956  0.458247  1
  Pb  Pb30  1  0.717749  0.966570  0.541769  1
  Pb  Pb31  1  0.218036  0.533209  0.958260  1
  Pb  Pb32  1  0.717749  0.966570  0.958231  1
  Pb  Pb33  1  0.218036  0.533209  0.541740  1
  Pb  Pb34  1  0.282369  0.034109  0.459197  1
  Pb  Pb35  1  0.781987  0.466956  0.041753  1
