# generated using pymatgen
data_Ho3Zr2Sn3
_symmetry_space_group_name_H-M   'P 1'
_cell_length_a   6.09804800
_cell_length_b   8.82073959
_cell_length_c   8.82074025
_cell_angle_alpha   59.99781397
_cell_angle_beta   90.00000000
_cell_angle_gamma   90.00000000
_symmetry_Int_Tables_number   1
_chemical_formula_structural   Ho3Zr2Sn3
_chemical_formula_sum   'Ho6 Zr4 Sn6'
_cell_volume   410.88656124
_cell_formula_units_Z   2
loop_
 _symmetry_equiv_pos_site_id
 _symmetry_equiv_pos_as_xyz
  1  'x, y, z'
loop_
 _atom_site_type_symbol
 _atom_site_label
 _atom_site_symmetry_multiplicity
 _atom_site_fract_x
 _atom_site_fract_y
 _atom_site_fract_z
 _atom_site_occupancy
  Ho  Ho0  1  0.749995  0.240528  0.759472  1
  Ho  Ho1  1  0.750005  0.759454  0.999995  1
  Ho  Ho2  1  0.750005  0.000005  0.240546  1
  Ho  Ho3  1  0.249995  0.759472  0.240528  1
  Ho  Ho4  1  0.250005  0.240546  0.000005  1
  Ho  Ho5  1  0.250005  0.999995  0.759454  1
  Zr  Zr6  1  0.500000  0.333341  0.333336  1
  Zr  Zr7  1  0.500000  0.666664  0.666659  1
  Zr  Zr8  1  0.000000  0.666659  0.666664  1
  Zr  Zr9  1  0.000000  0.333336  0.333341  1
  Sn  Sn10  1  0.749996  0.599960  0.400040  1
  Sn  Sn11  1  0.749999  0.400083  0.000002  1
  Sn  Sn12  1  0.749999  0.999998  0.599917  1
  Sn  Sn13  1  0.249996  0.400040  0.599960  1
  Sn  Sn14  1  0.249999  0.599917  0.999998  1
  Sn  Sn15  1  0.249999  0.000002  0.400083  1
