# generated using pymatgen
data_DyFe3P3Ir2
_symmetry_space_group_name_H-M   'P 1'
_cell_length_a   3.80584900
_cell_length_b   10.27326100
_cell_length_c   12.21407000
_cell_angle_alpha   90.00000000
_cell_angle_beta   90.00000000
_cell_angle_gamma   90.00000000
_symmetry_Int_Tables_number   1
_chemical_formula_structural   DyFe3P3Ir2
_chemical_formula_sum   'Dy4 Fe12 P12 Ir8'
_cell_volume   477.55157288
_cell_formula_units_Z   4
loop_
 _symmetry_equiv_pos_site_id
 _symmetry_equiv_pos_as_xyz
  1  'x, y, z'
loop_
 _atom_site_type_symbol
 _atom_site_label
 _atom_site_symmetry_multiplicity
 _atom_site_fract_x
 _atom_site_fract_y
 _atom_site_fract_z
 _atom_site_occupancy
  Dy  Dy0  1  0.250000  0.581005  0.713020  1
  Dy  Dy1  1  0.250000  0.918995  0.213020  1
  Dy  Dy2  1  0.750000  0.418995  0.286980  1
  Dy  Dy3  1  0.750000  0.081005  0.786980  1
  Fe  Fe4  1  0.250000  0.222917  0.170419  1
  Fe  Fe5  1  0.250000  0.277083  0.670419  1
  Fe  Fe6  1  0.750000  0.777083  0.829581  1
  Fe  Fe7  1  0.750000  0.722917  0.329581  1
  Fe  Fe8  1  0.250000  0.877240  0.695497  1
  Fe  Fe9  1  0.250000  0.622760  0.195497  1
  Fe  Fe10  1  0.750000  0.122760  0.304503  1
  Fe  Fe11  1  0.750000  0.377240  0.804503  1
  Fe  Fe12  1  0.250000  0.457880  0.937252  1
  Fe  Fe13  1  0.250000  0.042120  0.437252  1
  Fe  Fe14  1  0.750000  0.542120  0.062748  1
  Fe  Fe15  1  0.750000  0.957880  0.562748  1
  P  P16  1  0.250000  0.428580  0.113306  1
  P  P17  1  0.250000  0.071420  0.613306  1
  P  P18  1  0.750000  0.571420  0.886694  1
  P  P19  1  0.750000  0.928580  0.386694  1
  P  P20  1  0.250000  0.273238  0.852018  1
  P  P21  1  0.250000  0.226762  0.352018  1
  P  P22  1  0.750000  0.726762  0.147982  1
  P  P23  1  0.750000  0.773238  0.647982  1
  P  P24  1  0.250000  0.604267  0.375282  1
  P  P25  1  0.250000  0.895733  0.875282  1
  P  P26  1  0.750000  0.395733  0.624718  1
  P  P27  1  0.750000  0.104267  0.124718  1
  Ir  Ir28  1  0.250000  0.709168  0.983832  1
  Ir  Ir29  1  0.250000  0.790832  0.483832  1
  Ir  Ir30  1  0.750000  0.290832  0.016168  1
  Ir  Ir31  1  0.750000  0.209168  0.516168  1
  Ir  Ir32  1  0.250000  0.405379  0.476250  1
  Ir  Ir33  1  0.250000  0.094621  0.976250  1
  Ir  Ir34  1  0.750000  0.594621  0.523750  1
  Ir  Ir35  1  0.750000  0.905379  0.023750  1
