# generated using pymatgen
data_Yb9Th(Sn3H)2
_symmetry_space_group_name_H-M   'P 1'
_cell_length_a   9.38297359
_cell_length_b   9.38297380
_cell_length_c   9.38690239
_cell_angle_alpha   128.65506472
_cell_angle_beta   128.65506762
_cell_angle_gamma   75.50040735
_symmetry_Int_Tables_number   1
_chemical_formula_structural   Yb9Th(Sn3H)2
_chemical_formula_sum   'Yb9 Th1 Sn6 H2'
_cell_volume   490.56485033
_cell_formula_units_Z   1
loop_
 _symmetry_equiv_pos_site_id
 _symmetry_equiv_pos_as_xyz
  1  'x, y, z'
loop_
 _atom_site_type_symbol
 _atom_site_label
 _atom_site_symmetry_multiplicity
 _atom_site_fract_x
 _atom_site_fract_y
 _atom_site_fract_z
 _atom_site_occupancy
  Yb  Yb0  1  0.498563  0.504154  0.000228  1
  Yb  Yb1  1  0.004154  0.998563  0.000228  1
  Yb  Yb2  1  0.183618  0.683618  0.169094  1
  Yb  Yb3  1  0.009307  0.187838  0.500966  1
  Yb  Yb4  1  0.687838  0.509307  0.500966  1
  Yb  Yb5  1  0.489008  0.989008  0.180420  1
  Yb  Yb6  1  0.812097  0.312097  0.822983  1
  Yb  Yb7  1  0.986961  0.811095  0.497163  1
  Yb  Yb8  1  0.311095  0.486961  0.497163  1
  Th  Th9  1  0.519461  0.019461  0.835980  1
  Sn  Sn10  1  0.253944  0.244667  0.993213  1
  Sn  Sn11  1  0.744667  0.753944  0.993213  1
  Sn  Sn12  1  0.870042  0.370042  0.241848  1
  Sn  Sn13  1  0.126529  0.626529  0.753057  1
  Sn  Sn14  1  0.369857  0.127963  0.503011  1
  Sn  Sn15  1  0.627963  0.869857  0.503011  1
  H  H16  1  0.255278  0.755278  0.505290  1
  H  H17  1  0.749616  0.249616  0.502163  1
