# generated using pymatgen
data_YErRe7Si4W
_symmetry_space_group_name_H-M   'P 1'
_cell_length_a   7.16539527
_cell_length_b   7.67239043
_cell_length_c   4.16808400
_cell_angle_alpha   90.00000000
_cell_angle_beta   90.00000000
_cell_angle_gamma   90.11010913
_symmetry_Int_Tables_number   1
_chemical_formula_structural   YErRe7Si4W
_chemical_formula_sum   'Y1 Er1 Re7 Si4 W1'
_cell_volume   229.14295428
_cell_formula_units_Z   1
loop_
 _symmetry_equiv_pos_site_id
 _symmetry_equiv_pos_as_xyz
  1  'x, y, z'
loop_
 _atom_site_type_symbol
 _atom_site_label
 _atom_site_symmetry_multiplicity
 _atom_site_fract_x
 _atom_site_fract_y
 _atom_site_fract_z
 _atom_site_occupancy
  Y  Y0  1  0.999317  0.999721  0.500000  1
  Er  Er1  1  0.500793  0.498001  0.000000  1
  Re  Re2  1  0.156077  0.604189  0.500000  1
  Re  Re3  1  0.083909  0.341316  0.000000  1
  Re  Re4  1  0.917347  0.658565  0.000000  1
  Re  Re5  1  0.417519  0.839127  0.500000  1
  Re  Re6  1  0.582800  0.164184  0.500000  1
  Re  Re7  1  0.342394  0.107077  0.000000  1
  Re  Re8  1  0.846137  0.394344  0.500000  1
  Si  Si9  1  0.222898  0.805020  0.000000  1
  Si  Si10  1  0.779544  0.197227  0.000000  1
  Si  Si11  1  0.722399  0.691869  0.500000  1
  Si  Si12  1  0.278614  0.305272  0.500000  1
  W  W13  1  0.650254  0.894086  0.000000  1
