# generated using pymatgen
data_Tb5YFe2(Co4P3)4
_symmetry_space_group_name_H-M   'P 1'
_cell_length_a   3.70368800
_cell_length_b   10.53717102
_cell_length_c   12.19278502
_cell_angle_alpha   90.00699422
_cell_angle_beta   90.00000000
_cell_angle_gamma   90.00000000
_symmetry_Int_Tables_number   1
_chemical_formula_structural   Tb5YFe2(Co4P3)4
_chemical_formula_sum   'Tb5 Y1 Fe2 Co16 P12'
_cell_volume   475.84042699
_cell_formula_units_Z   1
loop_
 _symmetry_equiv_pos_site_id
 _symmetry_equiv_pos_as_xyz
  1  'x, y, z'
loop_
 _atom_site_type_symbol
 _atom_site_label
 _atom_site_symmetry_multiplicity
 _atom_site_fract_x
 _atom_site_fract_y
 _atom_site_fract_z
 _atom_site_occupancy
  Tb  Tb0  1  0.000000  0.499981  0.521293  1
  Tb  Tb1  1  0.500000  0.000042  0.478898  1
  Tb  Tb2  1  0.500000  0.817805  0.205138  1
  Tb  Tb3  1  0.500000  0.182196  0.205142  1
  Tb  Tb4  1  0.000000  0.682084  0.794767  1
  Y  Y5  1  0.000000  0.317613  0.794916  1
  Fe  Fe6  1  0.500000  0.499890  0.156649  1
  Fe  Fe7  1  0.000000  0.000007  0.843293  1
  Co  Co8  1  0.500000  0.499966  0.702185  1
  Co  Co9  1  0.000000  0.000073  0.297825  1
  Co  Co10  1  0.000000  0.499866  0.986385  1
  Co  Co11  1  0.500000  0.000108  0.013370  1
  Co  Co12  1  0.500000  0.333063  0.994236  1
  Co  Co13  1  0.500000  0.666788  0.994403  1
  Co  Co14  1  0.000000  0.167026  0.005437  1
  Co  Co15  1  0.000000  0.833060  0.005493  1
  Co  Co16  1  0.500000  0.296898  0.430674  1
  Co  Co17  1  0.500000  0.703062  0.430560  1
  Co  Co18  1  0.000000  0.203116  0.569680  1
  Co  Co19  1  0.000000  0.796981  0.569540  1
  Co  Co20  1  0.500000  0.879297  0.709529  1
  Co  Co21  1  0.500000  0.120885  0.709626  1
  Co  Co22  1  0.000000  0.620794  0.290472  1
  Co  Co23  1  0.000000  0.379285  0.290539  1
  P  P24  1  0.500000  0.499851  0.882661  1
  P  P25  1  0.000000  0.000060  0.117037  1
  P  P26  1  0.500000  0.500105  0.341775  1
  P  P27  1  0.000000  0.999913  0.658261  1
  P  P28  1  0.500000  0.309845  0.616033  1
  P  P29  1  0.500000  0.690273  0.615736  1
  P  P30  1  0.000000  0.190354  0.384364  1
  P  P31  1  0.000000  0.809742  0.384299  1
  P  P32  1  0.500000  0.847490  0.893088  1
  P  P33  1  0.500000  0.152553  0.892939  1
  P  P34  1  0.000000  0.652328  0.106839  1
  P  P35  1  0.000000  0.347601  0.106918  1
