# generated using pymatgen
data_Er4TaSi8Tc5
_symmetry_space_group_name_H-M   'P 1'
_cell_length_a   6.83723275
_cell_length_b   6.71155618
_cell_length_c   6.81926102
_cell_angle_alpha   70.58925951
_cell_angle_beta   89.95091420
_cell_angle_gamma   90.06598555
_symmetry_Int_Tables_number   1
_chemical_formula_structural   Er4TaSi8Tc5
_chemical_formula_sum   'Er4 Ta1 Si8 Tc5'
_cell_volume   295.13844928
_cell_formula_units_Z   1
loop_
 _symmetry_equiv_pos_site_id
 _symmetry_equiv_pos_as_xyz
  1  'x, y, z'
loop_
 _atom_site_type_symbol
 _atom_site_label
 _atom_site_symmetry_multiplicity
 _atom_site_fract_x
 _atom_site_fract_y
 _atom_site_fract_z
 _atom_site_occupancy
  Er  Er0  1  0.669789  0.438627  0.194568  1
  Er  Er1  1  0.168246  0.058731  0.811875  1
  Er  Er2  1  0.332224  0.560223  0.809408  1
  Er  Er3  1  0.830857  0.939374  0.193915  1
  Ta  Ta4  1  0.339437  0.745618  0.247233  1
  Si  Si5  1  0.453194  0.132863  0.092229  1
  Si  Si6  1  0.950990  0.379506  0.896010  1
  Si  Si7  1  0.550658  0.876136  0.897322  1
  Si  Si8  1  0.040487  0.623790  0.092715  1
  Si  Si9  1  0.861031  0.132503  0.510936  1
  Si  Si10  1  0.363901  0.358739  0.493116  1
  Si  Si11  1  0.130572  0.874327  0.497133  1
  Si  Si12  1  0.642737  0.625067  0.514691  1
  Tc  Tc13  1  0.499845  0.995329  0.495635  1
  Tc  Tc14  1  0.003564  0.500147  0.500015  1
  Tc  Tc15  1  0.156634  0.247258  0.233030  1
  Tc  Tc16  1  0.658368  0.252792  0.764095  1
  Tc  Tc17  1  0.847465  0.758970  0.756072  1
