# generated using pymatgen
data_Tb7DyRe(B8Ru)3
_symmetry_space_group_name_H-M   'P 1'
_cell_length_a   3.68865100
_cell_length_b   9.17683628
_cell_length_c   11.56247000
_cell_angle_alpha   90.14079169
_cell_angle_beta   90.00000000
_cell_angle_gamma   90.00000000
_symmetry_Int_Tables_number   1
_chemical_formula_structural   Tb7DyRe(B8Ru)3
_chemical_formula_sum   'Tb7 Dy1 Re1 B24 Ru3'
_cell_volume   391.39011985
_cell_formula_units_Z   1
loop_
 _symmetry_equiv_pos_site_id
 _symmetry_equiv_pos_as_xyz
  1  'x, y, z'
loop_
 _atom_site_type_symbol
 _atom_site_label
 _atom_site_symmetry_multiplicity
 _atom_site_fract_x
 _atom_site_fract_y
 _atom_site_fract_z
 _atom_site_occupancy
  Tb  Tb0  1  0.000000  0.323497  0.415064  1
  Tb  Tb1  1  0.000000  0.679302  0.588067  1
  Tb  Tb2  1  0.000000  0.823219  0.083582  1
  Tb  Tb3  1  0.000000  0.175780  0.913431  1
  Tb  Tb4  1  0.000000  0.943058  0.370709  1
  Tb  Tb5  1  0.000000  0.056461  0.627904  1
  Tb  Tb6  1  0.000000  0.442658  0.128827  1
  Dy  Dy7  1  0.000000  0.555940  0.872205  1
  Re  Re8  1  0.000000  0.861937  0.821376  1
  B  B9  1  0.500000  0.554365  0.432859  1
  B  B10  1  0.500000  0.445873  0.567460  1
  B  B11  1  0.500000  0.054109  0.067783  1
  B  B12  1  0.500000  0.946731  0.932936  1
  B  B13  1  0.500000  0.747902  0.419155  1
  B  B14  1  0.500000  0.252461  0.580638  1
  B  B15  1  0.500000  0.247706  0.081043  1
  B  B16  1  0.500000  0.751525  0.919039  1
  B  B17  1  0.500000  0.789717  0.266085  1
  B  B18  1  0.500000  0.209791  0.733021  1
  B  B19  1  0.500000  0.290197  0.233977  1
  B  B20  1  0.500000  0.708560  0.766214  1
  B  B21  1  0.500000  0.631412  0.185716  1
  B  B22  1  0.500000  0.368216  0.814032  1
  B  B23  1  0.500000  0.132209  0.314430  1
  B  B24  1  0.500000  0.868264  0.685904  1
  B  B25  1  0.500000  0.984618  0.212189  1
  B  B26  1  0.500000  0.016772  0.787610  1
  B  B27  1  0.500000  0.484322  0.288271  1
  B  B28  1  0.500000  0.515840  0.712581  1
  B  B29  1  0.500000  0.606299  0.029982  1
  B  B30  1  0.500000  0.392024  0.970436  1
  B  B31  1  0.500000  0.108303  0.469496  1
  B  B32  1  0.500000  0.892530  0.529031  1
  Ru  Ru33  1  0.000000  0.637809  0.321347  1
  Ru  Ru34  1  0.000000  0.362500  0.678446  1
  Ru  Ru35  1  0.000000  0.138092  0.179156  1
