# generated using pymatgen
data_Tm6Lu2ReOs3C8
_symmetry_space_group_name_H-M   'P 1'
_cell_length_a   5.02468900
_cell_length_b   6.43506889
_cell_length_c   9.64382802
_cell_angle_alpha   89.90663266
_cell_angle_beta   90.00000000
_cell_angle_gamma   90.00000000
_symmetry_Int_Tables_number   1
_chemical_formula_structural   Tm6Lu2ReOs3C8
_chemical_formula_sum   'Tm6 Lu2 Re1 Os3 C8'
_cell_volume   311.82524129
_cell_formula_units_Z   1
loop_
 _symmetry_equiv_pos_site_id
 _symmetry_equiv_pos_as_xyz
  1  'x, y, z'
loop_
 _atom_site_type_symbol
 _atom_site_label
 _atom_site_symmetry_multiplicity
 _atom_site_fract_x
 _atom_site_fract_y
 _atom_site_fract_z
 _atom_site_occupancy
  Tm  Tm0  1  0.750000  0.177449  0.054089  1
  Tm  Tm1  1  0.750000  0.679655  0.445397  1
  Tm  Tm2  1  0.250000  0.470200  0.217538  1
  Tm  Tm3  1  0.250000  0.968694  0.280835  1
  Tm  Tm4  1  0.750000  0.530276  0.785288  1
  Tm  Tm5  1  0.750000  0.029907  0.715527  1
  Lu  Lu6  1  0.250000  0.825333  0.945473  1
  Lu  Lu7  1  0.250000  0.325409  0.554683  1
  Re  Re8  1  0.750000  0.219459  0.368986  1
  Os  Os9  1  0.250000  0.280607  0.866450  1
  Os  Os10  1  0.250000  0.780860  0.633356  1
  Os  Os11  1  0.750000  0.719956  0.130589  1
  C  C12  1  0.250000  0.046050  0.740973  1
  C  C13  1  0.250000  0.546008  0.758717  1
  C  C14  1  0.750000  0.952777  0.260130  1
  C  C15  1  0.750000  0.453862  0.241366  1
  C  C16  1  0.250000  0.669805  0.444601  1
  C  C17  1  0.250000  0.169061  0.055517  1
  C  C18  1  0.750000  0.326767  0.557621  1
  C  C19  1  0.750000  0.827864  0.942863  1
