# generated using pymatgen
data_Pr3Pa(InPd2)2
_symmetry_space_group_name_H-M   'P 1'
_cell_length_a   7.95191363
_cell_length_b   7.95191363
_cell_length_c   3.82023800
_cell_angle_alpha   90.00000000
_cell_angle_beta   90.00000000
_cell_angle_gamma   91.79230049
_symmetry_Int_Tables_number   1
_chemical_formula_structural   Pr3Pa(InPd2)2
_chemical_formula_sum   'Pr3 Pa1 In2 Pd4'
_cell_volume   241.44666350
_cell_formula_units_Z   1
loop_
 _symmetry_equiv_pos_site_id
 _symmetry_equiv_pos_as_xyz
  1  'x, y, z'
loop_
 _atom_site_type_symbol
 _atom_site_label
 _atom_site_symmetry_multiplicity
 _atom_site_fract_x
 _atom_site_fract_y
 _atom_site_fract_z
 _atom_site_occupancy
  Pr  Pr0  1  0.823715  0.673698  0.500000  1
  Pr  Pr1  1  0.173698  0.323715  0.500000  1
  Pr  Pr2  1  0.676646  0.176646  0.500000  1
  Pa  Pa3  1  0.329611  0.829611  0.500000  1
  In  In4  1  0.001694  0.995887  0.000000  1
  In  In5  1  0.495887  0.501694  0.000000  1
  Pd  Pd6  1  0.363639  0.107935  0.000000  1
  Pd  Pd7  1  0.881337  0.381337  0.000000  1
  Pd  Pd8  1  0.145838  0.645838  0.000000  1
  Pd  Pd9  1  0.607935  0.863639  0.000000  1
