# generated using pymatgen
data_Sc4FeReOs6
_symmetry_space_group_name_H-M   'P 1'
_cell_length_a   5.16706236
_cell_length_b   5.20080937
_cell_length_c   8.63597800
_cell_angle_alpha   90.00000000
_cell_angle_beta   90.00000000
_cell_angle_gamma   120.85848936
_symmetry_Int_Tables_number   1
_chemical_formula_structural   Sc4FeReOs6
_chemical_formula_sum   'Sc4 Fe1 Re1 Os6'
_cell_volume   199.22070031
_cell_formula_units_Z   1
loop_
 _symmetry_equiv_pos_site_id
 _symmetry_equiv_pos_as_xyz
  1  'x, y, z'
loop_
 _atom_site_type_symbol
 _atom_site_label
 _atom_site_symmetry_multiplicity
 _atom_site_fract_x
 _atom_site_fract_y
 _atom_site_fract_z
 _atom_site_occupancy
  Sc  Sc0  1  0.335994  0.664280  0.436633  1
  Sc  Sc1  1  0.666424  0.334405  0.566939  1
  Sc  Sc2  1  0.666424  0.334405  0.933061  1
  Sc  Sc3  1  0.335994  0.664280  0.063367  1
  Fe  Fe4  1  0.167090  0.338959  0.750000  1
  Re  Re5  1  0.336513  0.167609  0.250000  1
  Os  Os6  1  0.172963  0.829521  0.750000  1
  Os  Os7  1  0.826115  0.656318  0.250000  1
  Os  Os8  1  0.651164  0.828107  0.750000  1
  Os  Os9  1  0.009183  0.005507  0.996255  1
  Os  Os10  1  0.822951  0.171104  0.250000  1
  Os  Os11  1  0.009183  0.005507  0.503745  1
