# generated using pymatgen
data_Er4TcBr4
_symmetry_space_group_name_H-M   'P 1'
_cell_length_a   8.86683566
_cell_length_b   8.86683593
_cell_length_c   6.57068756
_cell_angle_alpha   89.45373413
_cell_angle_beta   89.45373506
_cell_angle_gamma   89.36084235
_symmetry_Int_Tables_number   1
_chemical_formula_structural   Er4TcBr4
_chemical_formula_sum   'Er8 Tc2 Br8'
_cell_volume   516.51398015
_cell_formula_units_Z   2
loop_
 _symmetry_equiv_pos_site_id
 _symmetry_equiv_pos_as_xyz
  1  'x, y, z'
loop_
 _atom_site_type_symbol
 _atom_site_label
 _atom_site_symmetry_multiplicity
 _atom_site_fract_x
 _atom_site_fract_y
 _atom_site_fract_z
 _atom_site_occupancy
  Er  Er0  1  0.248776  0.901274  0.010511  1
  Er  Er1  1  0.751224  0.098726  0.989489  1
  Er  Er2  1  0.098726  0.751224  0.489489  1
  Er  Er3  1  0.901274  0.248776  0.510511  1
  Er  Er4  1  0.751824  0.902579  0.508920  1
  Er  Er5  1  0.248176  0.097421  0.491080  1
  Er  Er6  1  0.097421  0.248176  0.991080  1
  Er  Er7  1  0.902579  0.751824  0.008920  1
  Tc  Tc8  1  0.993943  0.006057  0.250000  1
  Tc  Tc9  1  0.006057  0.993943  0.750000  1
  Br  Br10  1  0.421964  0.815861  0.403642  1
  Br  Br11  1  0.578036  0.184139  0.596358  1
  Br  Br12  1  0.184139  0.578036  0.096358  1
  Br  Br13  1  0.815861  0.421964  0.903642  1
  Br  Br14  1  0.417607  0.193527  0.098124  1
  Br  Br15  1  0.582393  0.806473  0.901876  1
  Br  Br16  1  0.806473  0.582393  0.401876  1
  Br  Br17  1  0.193527  0.417607  0.598124  1
