# generated using pymatgen
data_NaTbPr5IrBr12
_symmetry_space_group_name_H-M   'P 1'
_cell_length_a   9.59621965
_cell_length_b   9.67233476
_cell_length_c   9.55561456
_cell_angle_alpha   107.32831660
_cell_angle_beta   107.15613211
_cell_angle_gamma   106.71495056
_symmetry_Int_Tables_number   1
_chemical_formula_structural   NaTbPr5IrBr12
_chemical_formula_sum   'Na1 Tb1 Pr5 Ir1 Br12'
_cell_volume   737.28439714
_cell_formula_units_Z   1
loop_
 _symmetry_equiv_pos_site_id
 _symmetry_equiv_pos_as_xyz
  1  'x, y, z'
loop_
 _atom_site_type_symbol
 _atom_site_label
 _atom_site_symmetry_multiplicity
 _atom_site_fract_x
 _atom_site_fract_y
 _atom_site_fract_z
 _atom_site_occupancy
  Na  Na0  1  0.500133  0.499195  0.500880  1
  Tb  Tb1  1  0.886868  0.679729  0.969627  1
  Pr  Pr2  1  0.115600  0.329535  0.030144  1
  Pr  Pr3  1  0.315292  0.027978  0.110369  1
  Pr  Pr4  1  0.029056  0.108360  0.316657  1
  Pr  Pr5  1  0.969106  0.886206  0.680962  1
  Pr  Pr6  1  0.684619  0.973697  0.889163  1
  Ir  Ir7  1  0.999240  0.999477  0.998434  1
  Br  Br8  1  0.207305  0.683982  0.071207  1
  Br  Br9  1  0.452844  0.369061  0.154893  1
  Br  Br10  1  0.683898  0.074057  0.219278  1
  Br  Br11  1  0.923983  0.774724  0.305428  1
  Br  Br12  1  0.154942  0.451852  0.371991  1
  Br  Br13  1  0.371588  0.155406  0.455368  1
  Br  Br14  1  0.627810  0.842864  0.543740  1
  Br  Br15  1  0.846237  0.546895  0.640008  1
  Br  Br16  1  0.072855  0.215983  0.682144  1
  Br  Br17  1  0.315664  0.924623  0.779843  1
  Br  Br18  1  0.558659  0.631371  0.851473  1
  Br  Br19  1  0.784303  0.325007  0.928395  1
