# generated using pymatgen
data_Tm8Re3TcC8
_symmetry_space_group_name_H-M   'P 1'
_cell_length_a   5.02382400
_cell_length_b   6.51375105
_cell_length_c   9.75035300
_cell_angle_alpha   90.03183482
_cell_angle_beta   90.00000000
_cell_angle_gamma   90.00000000
_symmetry_Int_Tables_number   1
_chemical_formula_structural   Tm8Re3TcC8
_chemical_formula_sum   'Tm8 Re3 Tc1 C8'
_cell_volume   319.06990592
_cell_formula_units_Z   1
loop_
 _symmetry_equiv_pos_site_id
 _symmetry_equiv_pos_as_xyz
  1  'x, y, z'
loop_
 _atom_site_type_symbol
 _atom_site_label
 _atom_site_symmetry_multiplicity
 _atom_site_fract_x
 _atom_site_fract_y
 _atom_site_fract_z
 _atom_site_occupancy
  Tm  Tm0  1  0.750000  0.534651  0.783141  1
  Tm  Tm1  1  0.250000  0.964415  0.282814  1
  Tm  Tm2  1  0.750000  0.676549  0.442101  1
  Tm  Tm3  1  0.250000  0.824860  0.942011  1
  Tm  Tm4  1  0.750000  0.175974  0.058420  1
  Tm  Tm5  1  0.250000  0.323070  0.558620  1
  Tm  Tm6  1  0.250000  0.464171  0.217330  1
  Tm  Tm7  1  0.750000  0.035163  0.717303  1
  Re  Re8  1  0.250000  0.784381  0.630904  1
  Re  Re9  1  0.750000  0.216453  0.369221  1
  Re  Re10  1  0.750000  0.716107  0.131168  1
  Tc  Tc11  1  0.250000  0.284154  0.869021  1
  C  C12  1  0.250000  0.673859  0.446413  1
  C  C13  1  0.250000  0.552477  0.757936  1
  C  C14  1  0.750000  0.449027  0.241165  1
  C  C15  1  0.750000  0.825308  0.946709  1
  C  C16  1  0.250000  0.050914  0.740442  1
  C  C17  1  0.250000  0.173772  0.052356  1
  C  C18  1  0.750000  0.325928  0.553611  1
  C  C19  1  0.750000  0.948768  0.259316  1
