# generated using pymatgen
data_Nb6SbS12
_symmetry_space_group_name_H-M   'P 1'
_cell_length_a   5.82981859
_cell_length_b   5.82981858
_cell_length_c   13.79154698
_cell_angle_alpha   85.97718498
_cell_angle_beta   85.97718190
_cell_angle_gamma   120.03009836
_symmetry_Int_Tables_number   1
_chemical_formula_structural   Nb6SbS12
_chemical_formula_sum   'Nb6 Sb1 S12'
_cell_volume   401.79126411
_cell_formula_units_Z   1
loop_
 _symmetry_equiv_pos_site_id
 _symmetry_equiv_pos_as_xyz
  1  'x, y, z'
loop_
 _atom_site_type_symbol
 _atom_site_label
 _atom_site_symmetry_multiplicity
 _atom_site_fract_x
 _atom_site_fract_y
 _atom_site_fract_z
 _atom_site_occupancy
  Nb  Nb0  1  0.085410  0.085410  0.743246  1
  Nb  Nb1  1  0.418220  0.751906  0.745199  1
  Nb  Nb2  1  0.751906  0.418220  0.745199  1
  Nb  Nb3  1  0.248094  0.581780  0.254801  1
  Nb  Nb4  1  0.581780  0.248094  0.254801  1
  Nb  Nb5  1  0.914590  0.914590  0.256754  1
  Sb  Sb6  1  0.000000  0.000000  0.000000  1
  S  S7  1  0.288254  0.288254  0.139543  1
  S  S8  1  0.618404  0.953561  0.139468  1
  S  S9  1  0.953561  0.618404  0.139468  1
  S  S10  1  0.046439  0.381596  0.860532  1
  S  S11  1  0.381596  0.046439  0.860532  1
  S  S12  1  0.711746  0.711746  0.860457  1
  S  S13  1  0.212258  0.212258  0.368455  1
  S  S14  1  0.541704  0.876829  0.368537  1
  S  S15  1  0.876829  0.541704  0.368537  1
  S  S16  1  0.123171  0.458296  0.631463  1
  S  S17  1  0.458296  0.123171  0.631463  1
  S  S18  1  0.787742  0.787742  0.631545  1
