# generated using pymatgen
data_Sr2Er3Bi4
_symmetry_space_group_name_H-M   'P 1'
_cell_length_a   8.65419100
_cell_length_b   8.50848900
_cell_length_c   15.79995200
_cell_angle_alpha   90.00000000
_cell_angle_beta   90.00000000
_cell_angle_gamma   90.00000000
_symmetry_Int_Tables_number   1
_chemical_formula_structural   Sr2Er3Bi4
_chemical_formula_sum   'Sr8 Er12 Bi16'
_cell_volume   1163.41507062
_cell_formula_units_Z   4
loop_
 _symmetry_equiv_pos_site_id
 _symmetry_equiv_pos_as_xyz
  1  'x, y, z'
loop_
 _atom_site_type_symbol
 _atom_site_label
 _atom_site_symmetry_multiplicity
 _atom_site_fract_x
 _atom_site_fract_y
 _atom_site_fract_z
 _atom_site_occupancy
  Sr  Sr0  1  0.027025  0.174163  0.094177  1
  Sr  Sr1  1  0.527025  0.325837  0.405823  1
  Sr  Sr2  1  0.472975  0.674163  0.905823  1
  Sr  Sr3  1  0.972975  0.825837  0.594177  1
  Sr  Sr4  1  0.972975  0.825837  0.905823  1
  Sr  Sr5  1  0.472975  0.674163  0.594177  1
  Sr  Sr6  1  0.527025  0.325837  0.094177  1
  Sr  Sr7  1  0.027025  0.174163  0.405823  1
  Er  Er8  1  0.854275  0.647182  0.125631  1
  Er  Er9  1  0.354275  0.852818  0.374369  1
  Er  Er10  1  0.645725  0.147182  0.874369  1
  Er  Er11  1  0.145725  0.352818  0.625631  1
  Er  Er12  1  0.145725  0.352818  0.874369  1
  Er  Er13  1  0.645725  0.147182  0.625631  1
  Er  Er14  1  0.354275  0.852818  0.125631  1
  Er  Er15  1  0.854275  0.647182  0.374369  1
  Er  Er16  1  0.695811  0.997141  0.250000  1
  Er  Er17  1  0.195811  0.502859  0.250000  1
  Er  Er18  1  0.804189  0.497141  0.750000  1
  Er  Er19  1  0.304189  0.002859  0.750000  1
  Bi  Bi20  1  0.053981  0.852493  0.250000  1
  Bi  Bi21  1  0.553981  0.647507  0.250000  1
  Bi  Bi22  1  0.446019  0.352493  0.750000  1
  Bi  Bi23  1  0.946019  0.147507  0.750000  1
  Bi  Bi24  1  0.848707  0.346977  0.250000  1
  Bi  Bi25  1  0.348707  0.153023  0.250000  1
  Bi  Bi26  1  0.651293  0.846977  0.750000  1
  Bi  Bi27  1  0.151293  0.653023  0.750000  1
  Bi  Bi28  1  0.799276  0.453186  0.951318  1
  Bi  Bi29  1  0.299276  0.046814  0.548682  1
  Bi  Bi30  1  0.700724  0.953186  0.048682  1
  Bi  Bi31  1  0.200724  0.546814  0.451318  1
  Bi  Bi32  1  0.200724  0.546814  0.048682  1
  Bi  Bi33  1  0.700724  0.953186  0.451318  1
  Bi  Bi34  1  0.299276  0.046814  0.951318  1
  Bi  Bi35  1  0.799276  0.453186  0.548682  1
