# generated using pymatgen
data_LiPa5(Sb4Pt3)2
_symmetry_space_group_name_H-M   'P 1'
_cell_length_a   8.45104064
_cell_length_b   8.45103999
_cell_length_c   8.45104071
_cell_angle_alpha   109.52491076
_cell_angle_beta   109.36391162
_cell_angle_gamma   109.52489406
_symmetry_Int_Tables_number   1
_chemical_formula_structural   LiPa5(Sb4Pt3)2
_chemical_formula_sum   'Li1 Pa5 Sb8 Pt6'
_cell_volume   464.63027050
_cell_formula_units_Z   1
loop_
 _symmetry_equiv_pos_site_id
 _symmetry_equiv_pos_as_xyz
  1  'x, y, z'
loop_
 _atom_site_type_symbol
 _atom_site_label
 _atom_site_symmetry_multiplicity
 _atom_site_fract_x
 _atom_site_fract_y
 _atom_site_fract_z
 _atom_site_occupancy
  Li  Li0  1  0.875000  0.250000  0.125000  1
  Pa  Pa1  1  0.625000  0.750000  0.375000  1
  Pa  Pa2  1  0.246714  0.122765  0.874887  1
  Pa  Pa3  1  0.752122  0.377235  0.623949  1
  Pa  Pa4  1  0.125113  0.871826  0.247878  1
  Pa  Pa5  1  0.376051  0.628174  0.753286  1
  Sb  Sb6  1  0.681492  0.496372  0.998398  1
  Sb  Sb7  1  0.502026  0.003628  0.685120  1
  Sb  Sb8  1  0.999935  0.668077  0.492758  1
  Sb  Sb9  1  0.824681  0.831923  0.831858  1
  Sb  Sb10  1  0.507242  0.007177  0.175319  1
  Sb  Sb11  1  0.168142  0.492823  0.000065  1
  Sb  Sb12  1  0.001602  0.183094  0.497974  1
  Sb  Sb13  1  0.314880  0.316906  0.318508  1
  Pt  Pt14  1  0.375000  0.250000  0.625000  1
  Pt  Pt15  1  0.125000  0.750000  0.875000  1
  Pt  Pt16  1  0.268832  0.633971  0.383179  1
  Pt  Pt17  1  0.749208  0.866029  0.134862  1
  Pt  Pt18  1  0.616821  0.385653  0.250792  1
  Pt  Pt19  1  0.865138  0.114347  0.731168  1
