# generated using pymatgen
data_LaAl6Ag7
_symmetry_space_group_name_H-M   'P 1'
_cell_length_a   9.04168686
_cell_length_b   9.04168605
_cell_length_c   9.04168638
_cell_angle_alpha   120.81389133
_cell_angle_beta   119.52251257
_cell_angle_gamma   89.71256566
_symmetry_Int_Tables_number   1
_chemical_formula_structural   LaAl6Ag7
_chemical_formula_sum   'La2 Al12 Ag14'
_cell_volume   521.25770904
_cell_formula_units_Z   2
loop_
 _symmetry_equiv_pos_site_id
 _symmetry_equiv_pos_as_xyz
  1  'x, y, z'
loop_
 _atom_site_type_symbol
 _atom_site_label
 _atom_site_symmetry_multiplicity
 _atom_site_fract_x
 _atom_site_fract_y
 _atom_site_fract_z
 _atom_site_occupancy
  La  La0  1  0.250000  0.750000  0.500000  1
  La  La1  1  0.750000  0.250000  0.500000  1
  Al  Al2  1  0.558464  0.554083  0.348861  1
  Al  Al3  1  0.441536  0.445917  0.651139  1
  Al  Al4  1  0.205222  0.209603  0.651139  1
  Al  Al5  1  0.294778  0.945917  0.004380  1
  Al  Al6  1  0.794778  0.790397  0.348861  1
  Al  Al7  1  0.705222  0.054083  0.995620  1
  Al  Al8  1  0.941536  0.290397  0.995620  1
  Al  Al9  1  0.058464  0.709603  0.004380  1
  Al  Al10  1  0.059959  0.296813  0.356772  1
  Al  Al11  1  0.940041  0.703187  0.643228  1
  Al  Al12  1  0.559959  0.203187  0.763144  1
  Al  Al13  1  0.440041  0.796813  0.236856  1
  Ag  Ag14  1  0.311009  0.318475  0.263037  1
  Ag  Ag15  1  0.688991  0.681525  0.736963  1
  Ag  Ag16  1  0.055437  0.047971  0.736963  1
  Ag  Ag17  1  0.444563  0.181525  0.992534  1
  Ag  Ag18  1  0.944563  0.952029  0.263037  1
  Ag  Ag19  1  0.555437  0.818475  0.007466  1
  Ag  Ag20  1  0.188991  0.452029  0.007466  1
  Ag  Ag21  1  0.811009  0.547971  0.992534  1
  Ag  Ag22  1  0.000000  0.000000  0.000000  1
  Ag  Ag23  1  0.500000  0.500000  0.000000  1
  Ag  Ag24  1  0.308856  0.059011  0.367868  1
  Ag  Ag25  1  0.691144  0.940989  0.632132  1
  Ag  Ag26  1  0.808856  0.440989  0.249845  1
  Ag  Ag27  1  0.191144  0.559011  0.750155  1
