# generated using pymatgen
data_SmTh3(Pd3Pt)3
_symmetry_space_group_name_H-M   'P 1'
_cell_length_a   5.94630983
_cell_length_b   5.94630957
_cell_length_c   9.77583951
_cell_angle_alpha   89.65145926
_cell_angle_beta   90.34853836
_cell_angle_gamma   120.14069535
_symmetry_Int_Tables_number   1
_chemical_formula_structural   SmTh3(Pd3Pt)3
_chemical_formula_sum   'Sm1 Th3 Pd9 Pt3'
_cell_volume   298.91766501
_cell_formula_units_Z   1
loop_
 _symmetry_equiv_pos_site_id
 _symmetry_equiv_pos_as_xyz
  1  'x, y, z'
loop_
 _atom_site_type_symbol
 _atom_site_label
 _atom_site_symmetry_multiplicity
 _atom_site_fract_x
 _atom_site_fract_y
 _atom_site_fract_z
 _atom_site_occupancy
  Sm  Sm0  1  0.000000  0.000000  0.500000  1
  Th  Th1  1  0.000000  0.000000  0.000000  1
  Th  Th2  1  0.333452  0.666548  0.253446  1
  Th  Th3  1  0.666548  0.333452  0.746554  1
  Pd  Pd4  1  0.500000  0.000000  0.500000  1
  Pd  Pd5  1  0.000000  0.500000  0.500000  1
  Pd  Pd6  1  0.500000  0.500000  0.000000  1
  Pd  Pd7  1  0.825049  0.650222  0.250296  1
  Pd  Pd8  1  0.349778  0.174951  0.250296  1
  Pd  Pd9  1  0.825241  0.174759  0.248722  1
  Pd  Pd10  1  0.174951  0.349778  0.749704  1
  Pd  Pd11  1  0.650222  0.825049  0.749704  1
  Pd  Pd12  1  0.174759  0.825241  0.751278  1
  Pt  Pt13  1  0.500000  0.500000  0.500000  1
  Pt  Pt14  1  0.500000  0.000000  0.000000  1
  Pt  Pt15  1  0.000000  0.500000  0.000000  1
