# generated using pymatgen
data_Nd5Si10As2Ir19
_symmetry_space_group_name_H-M   'P 1'
_cell_length_a   12.99829200
_cell_length_b   13.00126648
_cell_length_c   4.01574600
_cell_angle_alpha   90.00000000
_cell_angle_beta   90.00000000
_cell_angle_gamma   119.99243727
_symmetry_Int_Tables_number   1
_chemical_formula_structural   Nd5Si10As2Ir19
_chemical_formula_sum   'Nd5 Si10 As2 Ir19'
_cell_volume   587.76254472
_cell_formula_units_Z   1
loop_
 _symmetry_equiv_pos_site_id
 _symmetry_equiv_pos_as_xyz
  1  'x, y, z'
loop_
 _atom_site_type_symbol
 _atom_site_label
 _atom_site_symmetry_multiplicity
 _atom_site_fract_x
 _atom_site_fract_y
 _atom_site_fract_z
 _atom_site_occupancy
  Nd  Nd0  1  0.002985  0.813023  0.500000  1
  Nd  Nd1  1  0.189963  0.186977  0.500000  1
  Nd  Nd2  1  0.809455  0.000000  0.500000  1
  Nd  Nd3  1  0.333226  0.667508  0.000000  1
  Nd  Nd4  1  0.665719  0.332492  0.000000  1
  Si  Si5  1  0.185579  0.000000  0.000000  1
  Si  Si6  1  0.517656  0.687775  0.500000  1
  Si  Si7  1  0.311201  0.831609  0.500000  1
  Si  Si8  1  0.169863  0.482360  0.500000  1
  Si  Si9  1  0.479592  0.168391  0.500000  1
  Si  Si10  1  0.687503  0.517640  0.500000  1
  Si  Si11  1  0.829881  0.312225  0.500000  1
  Si  Si12  1  0.000308  0.629795  0.000000  1
  Si  Si13  1  0.370513  0.370205  0.000000  1
  Si  Si14  1  0.628778  0.000000  0.000000  1
  As  As15  1  0.000782  0.180873  0.000000  1
  As  As16  1  0.819909  0.819127  0.000000  1
  Ir  Ir17  1  0.999944  0.288721  0.500000  1
  Ir  Ir18  1  0.711224  0.711279  0.500000  1
  Ir  Ir19  1  0.285606  0.000000  0.500000  1
  Ir  Ir20  1  0.619857  0.803498  0.000000  1
  Ir  Ir21  1  0.195917  0.817492  0.000000  1
  Ir  Ir22  1  0.184115  0.381020  0.000000  1
  Ir  Ir23  1  0.378425  0.182508  0.000000  1
  Ir  Ir24  1  0.803095  0.618980  0.000000  1
  Ir  Ir25  1  0.816358  0.196502  0.000000  1
  Ir  Ir26  1  0.511734  0.874649  0.500000  1
  Ir  Ir27  1  0.124906  0.638059  0.500000  1
  Ir  Ir28  1  0.362472  0.487620  0.500000  1
  Ir  Ir29  1  0.486848  0.361941  0.500000  1
  Ir  Ir30  1  0.874853  0.512380  0.500000  1
  Ir  Ir31  1  0.637087  0.125351  0.500000  1
  Ir  Ir32  1  0.005849  0.000000  0.000000  1
  Ir  Ir33  1  0.999346  0.446916  0.000000  1
  Ir  Ir34  1  0.552430  0.553084  0.000000  1
  Ir  Ir35  1  0.447021  0.000000  0.000000  1
