# generated using pymatgen
data_Sr2Li3HoPt3
_symmetry_space_group_name_H-M   'P 1'
_cell_length_a   7.44749659
_cell_length_b   7.44954200
_cell_length_c   4.16864900
_cell_angle_alpha   90.00000000
_cell_angle_beta   90.00000000
_cell_angle_gamma   120.00906570
_symmetry_Int_Tables_number   1
_chemical_formula_structural   Sr2Li3HoPt3
_chemical_formula_sum   'Sr2 Li3 Ho1 Pt3'
_cell_volume   200.27473502
_cell_formula_units_Z   1
loop_
 _symmetry_equiv_pos_site_id
 _symmetry_equiv_pos_as_xyz
  1  'x, y, z'
loop_
 _atom_site_type_symbol
 _atom_site_label
 _atom_site_symmetry_multiplicity
 _atom_site_fract_x
 _atom_site_fract_y
 _atom_site_fract_z
 _atom_site_occupancy
  Sr  Sr0  1  0.414742  0.417171  0.000000  1
  Sr  Sr1  1  0.585258  0.002429  0.000000  1
  Li  Li2  1  0.776045  0.764599  0.500000  1
  Li  Li3  1  0.223955  0.988554  0.500000  1
  Li  Li4  1  0.000000  0.233316  0.500000  1
  Ho  Ho5  1  0.000000  0.597310  0.000000  1
  Pt  Pt6  1  0.000000  0.975312  0.000000  1
  Pt  Pt7  1  0.710248  0.365778  0.500000  1
  Pt  Pt8  1  0.289752  0.655531  0.500000  1
