# generated using pymatgen
data_Er7Sc(IO6)4
_symmetry_space_group_name_H-M   'P 1'
_cell_length_a   5.51410938
_cell_length_b   7.66604238
_cell_length_c   11.52654800
_cell_angle_alpha   75.84875613
_cell_angle_beta   90.74759473
_cell_angle_gamma   89.98169098
_symmetry_Int_Tables_number   1
_chemical_formula_structural   Er7Sc(IO6)4
_chemical_formula_sum   'Er7 Sc1 I4 O24'
_cell_volume   472.41395610
_cell_formula_units_Z   1
loop_
 _symmetry_equiv_pos_site_id
 _symmetry_equiv_pos_as_xyz
  1  'x, y, z'
loop_
 _atom_site_type_symbol
 _atom_site_label
 _atom_site_symmetry_multiplicity
 _atom_site_fract_x
 _atom_site_fract_y
 _atom_site_fract_z
 _atom_site_occupancy
  Er  Er0  1  0.740414  0.019787  0.750808  1
  Er  Er1  1  0.258056  0.976069  0.248677  1
  Er  Er2  1  0.812313  0.774843  0.083169  1
  Er  Er3  1  0.689353  0.497196  0.749065  1
  Er  Er4  1  0.310228  0.506243  0.251391  1
  Er  Er5  1  0.181719  0.223457  0.916068  1
  Er  Er6  1  0.836298  0.193453  0.427782  1
  Sc  Sc7  1  0.157900  0.813179  0.570460  1
  I  I8  1  0.249906  0.734969  0.876983  1
  I  I9  1  0.736202  0.712289  0.394931  1
  I  I10  1  0.267817  0.293863  0.608077  1
  I  I11  1  0.746228  0.263764  0.120239  1
  O  O12  1  0.066435  0.946584  0.892918  1
  O  O13  1  0.538441  0.833137  0.929172  1
  O  O14  1  0.027201  0.955571  0.401091  1
  O  O15  1  0.402490  0.826304  0.722301  1
  O  O16  1  0.463242  0.834126  0.438433  1
  O  O17  1  0.965552  0.702741  0.785291  1
  O  O18  1  0.541538  0.775475  0.224444  1
  O  O19  1  0.862502  0.641364  0.564195  1
  O  O20  1  0.372413  0.507423  0.873545  1
  O  O21  1  0.057373  0.719646  0.240936  1
  O  O22  1  0.376776  0.526222  0.607429  1
  O  O23  1  0.856714  0.367795  0.966653  1
  O  O24  1  0.144217  0.636169  0.032959  1
  O  O25  1  0.627337  0.479243  0.394823  1
  O  O26  1  0.935603  0.279332  0.758225  1
  O  O27  1  0.623795  0.490187  0.126640  1
  O  O28  1  0.157481  0.363942  0.435455  1
  O  O29  1  0.452439  0.225038  0.775346  1
  O  O30  1  0.026038  0.293554  0.218310  1
  O  O31  1  0.543442  0.171876  0.568135  1
  O  O32  1  0.589554  0.167550  0.272474  1
  O  O33  1  0.985895  0.029003  0.604447  1
  O  O34  1  0.463130  0.164761  0.064983  1
  O  O35  1  0.933956  0.053842  0.104147  1
