# generated using pymatgen
data_Zr5AlZnSb2
_symmetry_space_group_name_H-M   'P 1'
_cell_length_a   8.58573100
_cell_length_b   8.64200357
_cell_length_c   5.83826100
_cell_angle_alpha   90.00000000
_cell_angle_beta   90.00000000
_cell_angle_gamma   119.78523062
_symmetry_Int_Tables_number   1
_chemical_formula_structural   Zr5AlZnSb2
_chemical_formula_sum   'Zr10 Al2 Zn2 Sb4'
_cell_volume   375.96003103
_cell_formula_units_Z   2
loop_
 _symmetry_equiv_pos_site_id
 _symmetry_equiv_pos_as_xyz
  1  'x, y, z'
loop_
 _atom_site_type_symbol
 _atom_site_label
 _atom_site_symmetry_multiplicity
 _atom_site_fract_x
 _atom_site_fract_y
 _atom_site_fract_z
 _atom_site_occupancy
  Zr  Zr0  1  0.278484  0.000002  0.250000  1
  Zr  Zr1  1  0.721518  0.000000  0.750001  1
  Zr  Zr2  1  0.994250  0.267250  0.250000  1
  Zr  Zr3  1  0.727000  0.732751  0.250000  1
  Zr  Zr4  1  0.272999  0.267249  0.750001  1
  Zr  Zr5  1  0.005750  0.732751  0.750001  1
  Zr  Zr6  1  0.336377  0.672753  0.000000  1
  Zr  Zr7  1  0.663622  0.327247  0.500001  1
  Zr  Zr8  1  0.663622  0.327247  0.000000  1
  Zr  Zr9  1  0.336377  0.672753  0.500001  1
  Al  Al10  1  0.616867  0.000000  0.250000  1
  Al  Al11  1  0.383132  0.000002  0.750001  1
  Zn  Zn12  1  0.000000  0.000000  0.000000  1
  Zn  Zn13  1  0.000000  0.000000  0.500001  1
  Sb  Sb14  1  0.998351  0.617076  0.250000  1
  Sb  Sb15  1  0.381277  0.382926  0.250000  1
  Sb  Sb16  1  0.618725  0.617076  0.750001  1
  Sb  Sb17  1  0.001650  0.382925  0.750001  1
