# generated using pymatgen
data_Tb7Ho2Th3Co4
_symmetry_space_group_name_H-M   'P 1'
_cell_length_a   6.32918736
_cell_length_b   6.92263247
_cell_length_c   9.61449536
_cell_angle_alpha   90.00913430
_cell_angle_beta   89.97007180
_cell_angle_gamma   88.80938797
_symmetry_Int_Tables_number   1
_chemical_formula_structural   Tb7Ho2Th3Co4
_chemical_formula_sum   'Tb7 Ho2 Th3 Co4'
_cell_volume   421.16462125
_cell_formula_units_Z   1
loop_
 _symmetry_equiv_pos_site_id
 _symmetry_equiv_pos_as_xyz
  1  'x, y, z'
loop_
 _atom_site_type_symbol
 _atom_site_label
 _atom_site_symmetry_multiplicity
 _atom_site_fract_x
 _atom_site_fract_y
 _atom_site_fract_z
 _atom_site_occupancy
  Tb  Tb0  1  0.672505  0.172124  0.069275  1
  Tb  Tb1  1  0.829117  0.671358  0.430330  1
  Tb  Tb2  1  0.324315  0.828815  0.930392  1
  Tb  Tb3  1  0.175322  0.328637  0.571348  1
  Tb  Tb4  1  0.671848  0.172115  0.431308  1
  Tb  Tb5  1  0.174391  0.328367  0.928818  1
  Tb  Tb6  1  0.644505  0.456430  0.750521  1
  Ho  Ho7  1  0.324451  0.828448  0.569790  1
  Ho  Ho8  1  0.829870  0.671721  0.070359  1
  Th  Th9  1  0.344434  0.554332  0.249642  1
  Th  Th10  1  0.156947  0.052477  0.250838  1
  Th  Th11  1  0.842574  0.947531  0.749736  1
  Co  Co12  1  0.968752  0.371814  0.249040  1
  Co  Co13  1  0.467806  0.110472  0.748224  1
  Co  Co14  1  0.533471  0.871040  0.250114  1
  Co  Co15  1  0.039691  0.634318  0.750267  1
