# generated using pymatgen
data_Dy16Sc4Ir11Pt
_symmetry_space_group_name_H-M   'P 1'
_cell_length_a   10.81206138
_cell_length_b   10.81206138
_cell_length_c   6.28397708
_cell_angle_alpha   89.98727785
_cell_angle_beta   89.98727785
_cell_angle_gamma   89.92509974
_symmetry_Int_Tables_number   1
_chemical_formula_structural   Dy16Sc4Ir11Pt
_chemical_formula_sum   'Dy16 Sc4 Ir11 Pt1'
_cell_volume   734.60047431
_cell_formula_units_Z   1
loop_
 _symmetry_equiv_pos_site_id
 _symmetry_equiv_pos_as_xyz
  1  'x, y, z'
loop_
 _atom_site_type_symbol
 _atom_site_label
 _atom_site_symmetry_multiplicity
 _atom_site_fract_x
 _atom_site_fract_y
 _atom_site_fract_z
 _atom_site_occupancy
  Dy  Dy0  1  0.287967  0.085787  0.378006  1
  Dy  Dy1  1  0.288599  0.913911  0.877661  1
  Dy  Dy2  1  0.709678  0.084747  0.875055  1
  Dy  Dy3  1  0.710386  0.911591  0.379139  1
  Dy  Dy4  1  0.585758  0.788165  0.878386  1
  Dy  Dy5  1  0.583519  0.212063  0.378701  1
  Dy  Dy6  1  0.413882  0.788179  0.377947  1
  Dy  Dy7  1  0.413807  0.211697  0.878351  1
  Dy  Dy8  1  0.211835  0.414242  0.621614  1
  Dy  Dy9  1  0.211821  0.586118  0.122053  1
  Dy  Dy10  1  0.787937  0.416481  0.121299  1
  Dy  Dy11  1  0.788303  0.586193  0.621649  1
  Dy  Dy12  1  0.914213  0.712033  0.121994  1
  Dy  Dy13  1  0.915253  0.290322  0.624945  1
  Dy  Dy14  1  0.086089  0.711401  0.622339  1
  Dy  Dy15  1  0.088409  0.289614  0.120861  1
  Sc  Sc16  1  0.001958  0.997864  0.502030  1
  Sc  Sc17  1  0.002136  0.998042  0.997970  1
  Sc  Sc18  1  0.499784  0.500107  0.999905  1
  Sc  Sc19  1  0.499893  0.500216  0.500095  1
  Ir  Ir20  1  0.852618  0.853867  0.750024  1
  Ir  Ir21  1  0.146133  0.147382  0.749976  1
  Ir  Ir22  1  0.146951  0.853049  0.250000  1
  Ir  Ir23  1  0.647950  0.352050  0.750000  1
  Ir  Ir24  1  0.647331  0.647434  0.250261  1
  Ir  Ir25  1  0.352566  0.352669  0.249739  1
  Ir  Ir26  1  0.352544  0.647456  0.750000  1
  Ir  Ir27  1  0.500452  0.999995  0.123359  1
  Ir  Ir28  1  0.500505  0.000238  0.622068  1
  Ir  Ir29  1  0.999762  0.499495  0.877932  1
  Ir  Ir30  1  0.000005  0.499548  0.376641  1
  Pt  Pt31  1  0.851957  0.148043  0.250000  1
