# generated using pymatgen
data_Ba4NbInO8
_symmetry_space_group_name_H-M   'P 1'
_cell_length_a   7.37304180
_cell_length_b   7.37304136
_cell_length_c   5.99469900
_cell_angle_alpha   90.00000000
_cell_angle_beta   90.00000000
_cell_angle_gamma   132.12334506
_symmetry_Int_Tables_number   1
_chemical_formula_structural   Ba4NbInO8
_chemical_formula_sum   'Ba4 Nb1 In1 O8'
_cell_volume   241.70774024
_cell_formula_units_Z   1
loop_
 _symmetry_equiv_pos_site_id
 _symmetry_equiv_pos_as_xyz
  1  'x, y, z'
loop_
 _atom_site_type_symbol
 _atom_site_label
 _atom_site_symmetry_multiplicity
 _atom_site_fract_x
 _atom_site_fract_y
 _atom_site_fract_z
 _atom_site_occupancy
  Ba  Ba0  1  0.354265  0.645735  0.000000  1
  Ba  Ba1  1  0.855129  0.144871  0.500000  1
  Ba  Ba2  1  0.144871  0.855129  0.500000  1
  Ba  Ba3  1  0.645735  0.354265  0.000000  1
  Nb  Nb4  1  0.500000  0.500000  0.500000  1
  In  In5  1  0.000000  0.000000  0.000000  1
  O  O6  1  0.261329  0.261329  0.736285  1
  O  O7  1  0.738671  0.738671  0.263715  1
  O  O8  1  0.738671  0.738671  0.736285  1
  O  O9  1  0.261329  0.261329  0.263715  1
  O  O10  1  0.160617  0.839383  0.000000  1
  O  O11  1  0.653102  0.346898  0.500000  1
  O  O12  1  0.346898  0.653102  0.500000  1
  O  O13  1  0.839383  0.160617  0.000000  1
