# generated using pymatgen
data_Dy4Y2TcIr
_symmetry_space_group_name_H-M   'P 1'
_cell_length_a   6.34425805
_cell_length_b   7.34994500
_cell_length_c   9.21051152
_cell_angle_alpha   90.00000000
_cell_angle_beta   90.06586947
_cell_angle_gamma   90.00000000
_symmetry_Int_Tables_number   1
_chemical_formula_structural   Dy4Y2TcIr
_chemical_formula_sum   'Dy8 Y4 Tc2 Ir2'
_cell_volume   429.48538691
_cell_formula_units_Z   2
loop_
 _symmetry_equiv_pos_site_id
 _symmetry_equiv_pos_as_xyz
  1  'x, y, z'
loop_
 _atom_site_type_symbol
 _atom_site_label
 _atom_site_symmetry_multiplicity
 _atom_site_fract_x
 _atom_site_fract_y
 _atom_site_fract_z
 _atom_site_occupancy
  Dy  Dy0  1  0.668822  0.324064  0.561240  1
  Dy  Dy1  1  0.831178  0.824064  0.938760  1
  Dy  Dy2  1  0.669016  0.323644  0.938948  1
  Dy  Dy3  1  0.830984  0.823644  0.561052  1
  Dy  Dy4  1  0.328775  0.676554  0.433502  1
  Dy  Dy5  1  0.171225  0.176554  0.066498  1
  Dy  Dy6  1  0.872002  0.538839  0.250037  1
  Dy  Dy7  1  0.627998  0.038839  0.249963  1
  Y  Y8  1  0.329490  0.676926  0.066090  1
  Y  Y9  1  0.170510  0.176926  0.433910  1
  Y  Y10  1  0.133515  0.460514  0.749919  1
  Y  Y11  1  0.366485  0.960514  0.750081  1
  Tc  Tc12  1  0.033909  0.885432  0.249485  1
  Tc  Tc13  1  0.466091  0.385432  0.250515  1
  Ir  Ir14  1  0.952092  0.114027  0.750088  1
  Ir  Ir15  1  0.547908  0.614027  0.749912  1
