# generated using pymatgen
data_Ce4SiB4Ir5Rh4
_symmetry_space_group_name_H-M   'P 1'
_cell_length_a   10.69758397
_cell_length_b   10.69795197
_cell_length_c   10.69758506
_cell_angle_alpha   30.04794152
_cell_angle_beta   30.08211447
_cell_angle_gamma   30.04794777
_symmetry_Int_Tables_number   1
_chemical_formula_structural   Ce4SiB4Ir5Rh4
_chemical_formula_sum   'Ce4 Si1 B4 Ir5 Rh4'
_cell_volume   272.10273369
_cell_formula_units_Z   1
loop_
 _symmetry_equiv_pos_site_id
 _symmetry_equiv_pos_as_xyz
  1  'x, y, z'
loop_
 _atom_site_type_symbol
 _atom_site_label
 _atom_site_symmetry_multiplicity
 _atom_site_fract_x
 _atom_site_fract_y
 _atom_site_fract_z
 _atom_site_occupancy
  Ce  Ce0  1  0.148524  0.149646  0.148524  1
  Ce  Ce1  1  0.947199  0.947334  0.947199  1
  Ce  Ce2  1  0.851067  0.851110  0.851067  1
  Ce  Ce3  1  0.052531  0.052683  0.052531  1
  Si  Si4  1  0.501357  0.497297  0.501357  1
  B  B5  1  0.616219  0.614956  0.616219  1
  B  B6  1  0.718426  0.718523  0.718426  1
  B  B7  1  0.384532  0.383878  0.384532  1
  B  B8  1  0.281187  0.282270  0.281187  1
  Ir  Ir9  1  0.899462  0.402332  0.401514  1
  Ir  Ir10  1  0.598340  0.100650  0.598340  1
  Ir  Ir11  1  0.598273  0.598757  0.100184  1
  Ir  Ir12  1  0.100184  0.598757  0.598273  1
  Ir  Ir13  1  0.401514  0.402332  0.899462  1
  Rh  Rh14  1  0.401462  0.899806  0.401462  1
  Rh  Rh15  1  0.499920  0.499900  0.999979  1
  Rh  Rh16  1  0.499825  0.999866  0.499825  1
  Rh  Rh17  1  0.999979  0.499900  0.499920  1
