# generated using pymatgen
data_Lu12TcNi4Sb
_symmetry_space_group_name_H-M   'P 1'
_cell_length_a   8.14141354
_cell_length_b   8.14141375
_cell_length_c   8.14141317
_cell_angle_alpha   111.80721892
_cell_angle_beta   110.24782924
_cell_angle_gamma   106.40550411
_symmetry_Int_Tables_number   1
_chemical_formula_structural   Lu12TcNi4Sb
_chemical_formula_sum   'Lu12 Tc1 Ni4 Sb1'
_cell_volume   414.44334832
_cell_formula_units_Z   1
loop_
 _symmetry_equiv_pos_site_id
 _symmetry_equiv_pos_as_xyz
  1  'x, y, z'
loop_
 _atom_site_type_symbol
 _atom_site_label
 _atom_site_symmetry_multiplicity
 _atom_site_fract_x
 _atom_site_fract_y
 _atom_site_fract_z
 _atom_site_occupancy
  Lu  Lu0  1  0.681194  0.874318  0.193123  1
  Lu  Lu1  1  0.318806  0.511928  0.193123  1
  Lu  Lu2  1  0.819952  0.778524  0.598477  1
  Lu  Lu3  1  0.180048  0.778524  0.958572  1
  Lu  Lu4  1  0.819952  0.221476  0.041428  1
  Lu  Lu5  1  0.180048  0.221476  0.401523  1
  Lu  Lu6  1  0.681194  0.488072  0.806877  1
  Lu  Lu7  1  0.318806  0.125682  0.806877  1
  Lu  Lu8  1  0.583661  0.277469  0.306191  1
  Lu  Lu9  1  0.416339  0.722531  0.693809  1
  Lu  Lu10  1  0.028722  0.722531  0.306191  1
  Lu  Lu11  1  0.971278  0.277469  0.693809  1
  Tc  Tc12  1  0.000000  0.500000  0.500000  1
  Ni  Ni13  1  0.356355  0.500000  0.856355  1
  Ni  Ni14  1  0.643645  0.500000  0.143645  1
  Ni  Ni15  1  0.879759  0.879759  0.000000  1
  Ni  Ni16  1  0.120241  0.120241  0.000000  1
  Sb  Sb17  1  0.500000  0.000000  0.500000  1
