# generated using pymatgen
data_K6CaCl8
_symmetry_space_group_name_H-M   'P 1'
_cell_length_a   8.98106437
_cell_length_b   8.98106400
_cell_length_c   8.98106400
_cell_angle_alpha   60.00000000
_cell_angle_beta   60.00000135
_cell_angle_gamma   59.99999955
_symmetry_Int_Tables_number   1
_chemical_formula_structural   K6CaCl8
_chemical_formula_sum   'K6 Ca1 Cl8'
_cell_volume   512.23399384
_cell_formula_units_Z   1
loop_
 _symmetry_equiv_pos_site_id
 _symmetry_equiv_pos_as_xyz
  1  'x, y, z'
loop_
 _atom_site_type_symbol
 _atom_site_label
 _atom_site_symmetry_multiplicity
 _atom_site_fract_x
 _atom_site_fract_y
 _atom_site_fract_z
 _atom_site_occupancy
  K  K0  1  0.500000  0.000000  0.000000  1
  K  K1  1  0.000000  0.500000  0.500000  1
  K  K2  1  0.000000  0.500000  0.000000  1
  K  K3  1  0.500000  0.000000  0.500000  1
  K  K4  1  0.000000  0.000000  0.500000  1
  K  K5  1  0.500000  0.500000  0.000000  1
  Ca  Ca6  1  0.000000  0.000000  0.000000  1
  Cl  Cl7  1  0.250000  0.250000  0.250000  1
  Cl  Cl8  1  0.750000  0.750000  0.750000  1
  Cl  Cl9  1  0.781638  0.218362  0.218362  1
  Cl  Cl10  1  0.218362  0.781638  0.781638  1
  Cl  Cl11  1  0.218362  0.781638  0.218362  1
  Cl  Cl12  1  0.781638  0.218362  0.781638  1
  Cl  Cl13  1  0.218362  0.218362  0.781638  1
  Cl  Cl14  1  0.781638  0.781638  0.218362  1
