# generated using pymatgen
data_Mg2Tc2Sn7Sb
_symmetry_space_group_name_H-M   'P 1'
_cell_length_a   7.46060588
_cell_length_b   7.48457726
_cell_length_c   7.44974017
_cell_angle_alpha   125.02597954
_cell_angle_beta   124.92957239
_cell_angle_gamma   81.77789126
_symmetry_Int_Tables_number   1
_chemical_formula_structural   Mg2Tc2Sn7Sb
_chemical_formula_sum   'Mg2 Tc2 Sn7 Sb1'
_cell_volume   268.39883124
_cell_formula_units_Z   1
loop_
 _symmetry_equiv_pos_site_id
 _symmetry_equiv_pos_as_xyz
  1  'x, y, z'
loop_
 _atom_site_type_symbol
 _atom_site_label
 _atom_site_symmetry_multiplicity
 _atom_site_fract_x
 _atom_site_fract_y
 _atom_site_fract_z
 _atom_site_occupancy
  Mg  Mg0  1  0.499487  0.500203  0.998847  1
  Mg  Mg1  1  0.000639  0.001356  0.001153  1
  Tc  Tc2  1  0.748133  0.748502  0.995849  1
  Tc  Tc3  1  0.252283  0.252653  0.004151  1
  Sn  Sn4  1  0.513691  0.014051  0.808599  1
  Sn  Sn5  1  0.205092  0.705452  0.191401  1
  Sn  Sn6  1  0.794911  0.294145  0.809936  1
  Sn  Sn7  1  0.484974  0.984209  0.190064  1
  Sn  Sn8  1  0.290916  0.486737  0.500000  1
  Sn  Sn9  1  0.988560  0.795771  0.500000  1
  Sn  Sn10  1  0.015791  0.202873  0.500000  1
  Sb  Sb11  1  0.705524  0.514049  0.500000  1
