# generated using pymatgen
data_Nd5Y6In9NiIr3
_symmetry_space_group_name_H-M   'P 1'
_cell_length_a   13.21520961
_cell_length_b   13.20157308
_cell_length_c   3.78882600
_cell_angle_alpha   90.00000000
_cell_angle_beta   90.00000000
_cell_angle_gamma   111.53243949
_symmetry_Int_Tables_number   1
_chemical_formula_structural   Nd5Y6In9NiIr3
_chemical_formula_sum   'Nd5 Y6 In9 Ni1 Ir3'
_cell_volume   614.87291825
_cell_formula_units_Z   1
loop_
 _symmetry_equiv_pos_site_id
 _symmetry_equiv_pos_as_xyz
  1  'x, y, z'
loop_
 _atom_site_type_symbol
 _atom_site_label
 _atom_site_symmetry_multiplicity
 _atom_site_fract_x
 _atom_site_fract_y
 _atom_site_fract_z
 _atom_site_occupancy
  Nd  Nd0  1  0.841311  0.159047  0.000000  1
  Nd  Nd1  1  0.159239  0.840428  0.000000  1
  Nd  Nd2  1  0.999146  0.000247  0.000000  1
  Nd  Nd3  1  0.313976  0.313488  0.000000  1
  Nd  Nd4  1  0.686968  0.686040  0.000000  1
  Y  Y5  1  0.080156  0.419887  0.000000  1
  Y  Y6  1  0.919638  0.580681  0.000000  1
  Y  Y7  1  0.420236  0.079820  0.000000  1
  Y  Y8  1  0.580648  0.919229  0.000000  1
  Y  Y9  1  0.626025  0.373316  0.000000  1
  Y  Y10  1  0.369782  0.624359  0.000000  1
  In  In11  1  0.839222  0.367880  0.500000  1
  In  In12  1  0.161032  0.632189  0.500000  1
  In  In13  1  0.370848  0.839668  0.500000  1
  In  In14  1  0.631924  0.158927  0.500000  1
  In  In15  1  0.079032  0.222385  0.500000  1
  In  In16  1  0.920956  0.777654  0.500000  1
  In  In17  1  0.222141  0.077600  0.500000  1
  In  In18  1  0.775879  0.921188  0.500000  1
  In  In19  1  0.499497  0.502581  0.500000  1
  Ni  Ni20  1  0.547153  0.755985  0.500000  1
  Ir  Ir21  1  0.245719  0.456213  0.500000  1
  Ir  Ir22  1  0.754127  0.546327  0.500000  1
  Ir  Ir23  1  0.455345  0.244861  0.500000  1
