# generated using pymatgen
data_Dy4FeOs4Ru3
_symmetry_space_group_name_H-M   'P 1'
_cell_length_a   5.31791178
_cell_length_b   5.18353974
_cell_length_c   8.93831600
_cell_angle_alpha   90.00000000
_cell_angle_beta   90.00000000
_cell_angle_gamma   119.86421938
_symmetry_Int_Tables_number   1
_chemical_formula_structural   Dy4FeOs4Ru3
_chemical_formula_sum   'Dy4 Fe1 Os4 Ru3'
_cell_volume   213.67144199
_cell_formula_units_Z   1
loop_
 _symmetry_equiv_pos_site_id
 _symmetry_equiv_pos_as_xyz
  1  'x, y, z'
loop_
 _atom_site_type_symbol
 _atom_site_label
 _atom_site_symmetry_multiplicity
 _atom_site_fract_x
 _atom_site_fract_y
 _atom_site_fract_z
 _atom_site_occupancy
  Dy  Dy0  1  0.666653  0.333812  0.567081  1
  Dy  Dy1  1  0.329604  0.662612  0.436077  1
  Dy  Dy2  1  0.329604  0.662612  0.063923  1
  Dy  Dy3  1  0.666653  0.333812  0.932919  1
  Fe  Fe4  1  0.165299  0.331418  0.750000  1
  Os  Os5  1  0.174008  0.829016  0.750000  1
  Os  Os6  1  0.656639  0.830897  0.750000  1
  Os  Os7  1  0.838698  0.672131  0.250000  1
  Os  Os8  1  0.832975  0.175233  0.250000  1
  Ru  Ru9  1  0.993499  0.995718  0.501081  1
  Ru  Ru10  1  0.993499  0.995718  0.998919  1
  Ru  Ru11  1  0.352866  0.177021  0.250000  1
