# generated using pymatgen
data_AlZn2Co3O8
_symmetry_space_group_name_H-M   'P 1'
_cell_length_a   5.75629881
_cell_length_b   5.79369684
_cell_length_c   5.79369700
_cell_angle_alpha   60.00000482
_cell_angle_beta   59.78485581
_cell_angle_gamma   59.78485300
_symmetry_Int_Tables_number   1
_chemical_formula_structural   AlZn2Co3O8
_chemical_formula_sum   'Al1 Zn2 Co3 O8'
_cell_volume   136.18206646
_cell_formula_units_Z   1
loop_
 _symmetry_equiv_pos_site_id
 _symmetry_equiv_pos_as_xyz
  1  'x, y, z'
loop_
 _atom_site_type_symbol
 _atom_site_label
 _atom_site_symmetry_multiplicity
 _atom_site_fract_x
 _atom_site_fract_y
 _atom_site_fract_z
 _atom_site_occupancy
  Al  Al0  1  0.625000  0.125000  0.125000  1
  Zn  Zn1  1  0.492400  0.502533  0.502533  1
  Zn  Zn2  1  0.757600  0.747467  0.747467  1
  Co  Co3  1  0.125000  0.125000  0.625000  1
  Co  Co4  1  0.125000  0.625000  0.125000  1
  Co  Co5  1  0.125000  0.125000  0.125000  1
  O  O6  1  0.364955  0.358690  0.358690  1
  O  O7  1  0.332244  0.889252  0.889252  1
  O  O8  1  0.885045  0.891310  0.332334  1
  O  O9  1  0.885045  0.332334  0.891310  1
  O  O10  1  0.364955  0.358690  0.917666  1
  O  O11  1  0.364955  0.917666  0.358690  1
  O  O12  1  0.885045  0.891310  0.891310  1
  O  O13  1  0.917756  0.360748  0.360748  1
