# generated using pymatgen
data_LiDy3Cd2InHgPt
_symmetry_space_group_name_H-M   'P 1'
_cell_length_a   7.93101800
_cell_length_b   7.93101881
_cell_length_c   3.80455500
_cell_angle_alpha   90.00000000
_cell_angle_beta   90.00000000
_cell_angle_gamma   119.99999663
_symmetry_Int_Tables_number   1
_chemical_formula_structural   LiDy3Cd2InHgPt
_chemical_formula_sum   'Li1 Dy3 Cd2 In1 Hg1 Pt1'
_cell_volume   207.24899281
_cell_formula_units_Z   1
loop_
 _symmetry_equiv_pos_site_id
 _symmetry_equiv_pos_as_xyz
  1  'x, y, z'
loop_
 _atom_site_type_symbol
 _atom_site_label
 _atom_site_symmetry_multiplicity
 _atom_site_fract_x
 _atom_site_fract_y
 _atom_site_fract_z
 _atom_site_occupancy
  Li  Li0  1  0.997984  0.000085  0.500000  1
  Dy  Dy1  1  0.602523  0.026520  0.500000  1
  Dy  Dy2  1  0.427472  0.402073  0.500000  1
  Dy  Dy3  1  0.972088  0.572518  0.500000  1
  Cd  Cd4  1  0.748752  0.749165  0.000000  1
  Cd  Cd5  1  0.999858  0.251321  0.000000  1
  In  In6  1  0.250538  0.000226  0.000000  1
  Hg  Hg7  1  0.334969  0.664856  0.000000  1
  Pt  Pt8  1  0.665814  0.333237  0.000000  1
