# generated using pymatgen
data_Ni3Ag4PtO8
_symmetry_space_group_name_H-M   'P 1'
_cell_length_a   5.30468774
_cell_length_b   6.14617630
_cell_length_c   7.18255917
_cell_angle_alpha   64.28085190
_cell_angle_beta   104.55431222
_cell_angle_gamma   90.06061099
_symmetry_Int_Tables_number   1
_chemical_formula_structural   Ni3Ag4PtO8
_chemical_formula_sum   'Ni3 Ag4 Pt1 O8'
_cell_volume   202.63510666
_cell_formula_units_Z   1
loop_
 _symmetry_equiv_pos_site_id
 _symmetry_equiv_pos_as_xyz
  1  'x, y, z'
loop_
 _atom_site_type_symbol
 _atom_site_label
 _atom_site_symmetry_multiplicity
 _atom_site_fract_x
 _atom_site_fract_y
 _atom_site_fract_z
 _atom_site_occupancy
  Ni  Ni0  1  0.000262  0.004206  0.500119  1
  Ni  Ni1  1  0.500032  0.249923  0.499996  1
  Ni  Ni2  1  0.999658  0.496118  0.499812  1
  Ag  Ag3  1  0.998672  0.001744  0.995617  1
  Ag  Ag4  1  0.499912  0.249885  0.000043  1
  Ag  Ag5  1  0.001322  0.498269  0.004321  1
  Ag  Ag6  1  0.500124  0.749914  0.000023  1
  Pt  Pt7  1  0.499877  0.749827  0.500069  1
  O  O8  1  0.886514  0.666857  0.664385  1
  O  O9  1  0.393980  0.911698  0.665314  1
  O  O10  1  0.879852  0.168947  0.660231  1
  O  O11  1  0.393472  0.419956  0.665389  1
  O  O12  1  0.113565  0.833282  0.335598  1
  O  O13  1  0.606528  0.079758  0.334671  1
  O  O14  1  0.120158  0.331596  0.339707  1
  O  O15  1  0.606076  0.588021  0.334704  1
