# generated using pymatgen
data_Nd3Ho4Tm(CdIr)2
_symmetry_space_group_name_H-M   'P 1'
_cell_length_a   9.71822642
_cell_length_b   9.71822687
_cell_length_c   9.71645200
_cell_angle_alpha   60.00604127
_cell_angle_beta   60.00603973
_cell_angle_gamma   59.98791921
_symmetry_Int_Tables_number   1
_chemical_formula_structural   Nd3Ho4Tm(CdIr)2
_chemical_formula_sum   'Nd6 Ho8 Tm2 Cd4 Ir4'
_cell_volume   648.88349842
_cell_formula_units_Z   2
loop_
 _symmetry_equiv_pos_site_id
 _symmetry_equiv_pos_as_xyz
  1  'x, y, z'
loop_
 _atom_site_type_symbol
 _atom_site_label
 _atom_site_symmetry_multiplicity
 _atom_site_fract_x
 _atom_site_fract_y
 _atom_site_fract_z
 _atom_site_occupancy
  Nd  Nd0  1  0.941001  0.558999  0.558999  1
  Nd  Nd1  1  0.558999  0.941001  0.941001  1
  Nd  Nd2  1  0.558999  0.941001  0.558999  1
  Nd  Nd3  1  0.941001  0.558999  0.941001  1
  Nd  Nd4  1  0.559037  0.559037  0.940963  1
  Nd  Nd5  1  0.940963  0.940963  0.559037  1
  Ho  Ho6  1  0.347039  0.347039  0.347408  1
  Ho  Ho7  1  0.347039  0.347039  0.958515  1
  Ho  Ho8  1  0.347408  0.958515  0.347039  1
  Ho  Ho9  1  0.958515  0.347408  0.347039  1
  Ho  Ho10  1  0.813289  0.186711  0.186711  1
  Ho  Ho11  1  0.186711  0.813289  0.813289  1
  Ho  Ho12  1  0.186711  0.813289  0.186711  1
  Ho  Ho13  1  0.813289  0.186711  0.813289  1
  Tm  Tm14  1  0.186874  0.186874  0.813126  1
  Tm  Tm15  1  0.813126  0.813126  0.186874  1
  Cd  Cd16  1  0.579405  0.579405  0.579263  1
  Cd  Cd17  1  0.579405  0.579405  0.261925  1
  Cd  Cd18  1  0.579263  0.261925  0.579405  1
  Cd  Cd19  1  0.261925  0.579263  0.579405  1
  Ir  Ir20  1  0.141383  0.141383  0.140777  1
  Ir  Ir21  1  0.141383  0.141383  0.576458  1
  Ir  Ir22  1  0.140777  0.576458  0.141383  1
  Ir  Ir23  1  0.576458  0.140777  0.141383  1
