# generated using pymatgen
data_SmFe3P3Ru2
_symmetry_space_group_name_H-M   'P 1'
_cell_length_a   3.77142300
_cell_length_b   10.50923800
_cell_length_c   12.04468800
_cell_angle_alpha   90.00000000
_cell_angle_beta   90.00000000
_cell_angle_gamma   90.00000000
_symmetry_Int_Tables_number   1
_chemical_formula_structural   SmFe3P3Ru2
_chemical_formula_sum   'Sm4 Fe12 P12 Ru8'
_cell_volume   477.38858200
_cell_formula_units_Z   4
loop_
 _symmetry_equiv_pos_site_id
 _symmetry_equiv_pos_as_xyz
  1  'x, y, z'
loop_
 _atom_site_type_symbol
 _atom_site_label
 _atom_site_symmetry_multiplicity
 _atom_site_fract_x
 _atom_site_fract_y
 _atom_site_fract_z
 _atom_site_occupancy
  Sm  Sm0  1  0.250000  0.582848  0.709039  1
  Sm  Sm1  1  0.250000  0.917152  0.209039  1
  Sm  Sm2  1  0.750000  0.417152  0.290961  1
  Sm  Sm3  1  0.750000  0.082848  0.790961  1
  Fe  Fe4  1  0.250000  0.223932  0.175279  1
  Fe  Fe5  1  0.250000  0.276068  0.675279  1
  Fe  Fe6  1  0.750000  0.776068  0.824721  1
  Fe  Fe7  1  0.750000  0.723932  0.324721  1
  Fe  Fe8  1  0.250000  0.880142  0.698494  1
  Fe  Fe9  1  0.250000  0.619858  0.198494  1
  Fe  Fe10  1  0.750000  0.119858  0.301506  1
  Fe  Fe11  1  0.750000  0.380142  0.801506  1
  Fe  Fe12  1  0.250000  0.462237  0.935102  1
  Fe  Fe13  1  0.250000  0.037763  0.435102  1
  Fe  Fe14  1  0.750000  0.537763  0.064898  1
  Fe  Fe15  1  0.750000  0.962237  0.564898  1
  P  P16  1  0.250000  0.425432  0.111565  1
  P  P17  1  0.250000  0.074568  0.611565  1
  P  P18  1  0.750000  0.574568  0.888435  1
  P  P19  1  0.750000  0.925432  0.388435  1
  P  P20  1  0.250000  0.274888  0.861777  1
  P  P21  1  0.250000  0.225112  0.361777  1
  P  P22  1  0.750000  0.725112  0.138223  1
  P  P23  1  0.750000  0.774888  0.638223  1
  P  P24  1  0.250000  0.607831  0.386182  1
  P  P25  1  0.250000  0.892169  0.886182  1
  P  P26  1  0.750000  0.392169  0.613818  1
  P  P27  1  0.750000  0.107831  0.113818  1
  Ru  Ru28  1  0.250000  0.701775  0.984342  1
  Ru  Ru29  1  0.250000  0.798225  0.484342  1
  Ru  Ru30  1  0.750000  0.298225  0.015658  1
  Ru  Ru31  1  0.750000  0.201775  0.515658  1
  Ru  Ru32  1  0.250000  0.402398  0.487185  1
  Ru  Ru33  1  0.250000  0.097602  0.987185  1
  Ru  Ru34  1  0.750000  0.597602  0.512815  1
  Ru  Ru35  1  0.750000  0.902398  0.012815  1
