# generated using pymatgen
data_Pr3Er2(Sn5Rh2)2
_symmetry_space_group_name_H-M   'P 1'
_cell_length_a   14.18184300
_cell_length_b   14.18184300
_cell_length_c   4.58528100
_cell_angle_alpha   90.00000000
_cell_angle_beta   90.00000000
_cell_angle_gamma   90.00000000
_symmetry_Int_Tables_number   1
_chemical_formula_structural   Pr3Er2(Sn5Rh2)2
_chemical_formula_sum   'Pr6 Er4 Sn20 Rh8'
_cell_volume   922.21313200
_cell_formula_units_Z   2
loop_
 _symmetry_equiv_pos_site_id
 _symmetry_equiv_pos_as_xyz
  1  'x, y, z'
loop_
 _atom_site_type_symbol
 _atom_site_label
 _atom_site_symmetry_multiplicity
 _atom_site_fract_x
 _atom_site_fract_y
 _atom_site_fract_z
 _atom_site_occupancy
  Pr  Pr0  1  0.500000  0.500000  0.000000  1
  Pr  Pr1  1  0.000000  0.000000  0.000000  1
  Pr  Pr2  1  0.887977  0.387977  0.500000  1
  Pr  Pr3  1  0.112023  0.612023  0.500000  1
  Pr  Pr4  1  0.387977  0.112023  0.500000  1
  Pr  Pr5  1  0.612023  0.887977  0.500000  1
  Er  Er6  1  0.676921  0.176921  0.500000  1
  Er  Er7  1  0.323079  0.823079  0.500000  1
  Er  Er8  1  0.176921  0.323079  0.500000  1
  Er  Er9  1  0.823079  0.676921  0.500000  1
  Sn  Sn10  1  0.570255  0.070255  0.000000  1
  Sn  Sn11  1  0.429745  0.929745  0.000000  1
  Sn  Sn12  1  0.070255  0.429745  0.000000  1
  Sn  Sn13  1  0.929745  0.570255  0.000000  1
  Sn  Sn14  1  0.654794  0.698221  0.000000  1
  Sn  Sn15  1  0.345206  0.301779  0.000000  1
  Sn  Sn16  1  0.154794  0.801779  0.000000  1
  Sn  Sn17  1  0.845206  0.198221  0.000000  1
  Sn  Sn18  1  0.301779  0.654794  0.000000  1
  Sn  Sn19  1  0.698221  0.345206  0.000000  1
  Sn  Sn20  1  0.198221  0.154794  0.000000  1
  Sn  Sn21  1  0.801779  0.845206  0.000000  1
  Sn  Sn22  1  0.664134  0.505686  0.500000  1
  Sn  Sn23  1  0.335866  0.494314  0.500000  1
  Sn  Sn24  1  0.164134  0.994314  0.500000  1
  Sn  Sn25  1  0.835866  0.005686  0.500000  1
  Sn  Sn26  1  0.494314  0.664134  0.500000  1
  Sn  Sn27  1  0.505686  0.335866  0.500000  1
  Sn  Sn28  1  0.005686  0.164134  0.500000  1
  Sn  Sn29  1  0.994314  0.835866  0.500000  1
  Rh  Rh30  1  0.747339  0.529659  0.000000  1
  Rh  Rh31  1  0.252661  0.470341  0.000000  1
  Rh  Rh32  1  0.247339  0.970341  0.000000  1
  Rh  Rh33  1  0.752661  0.029659  0.000000  1
  Rh  Rh34  1  0.470341  0.747339  0.000000  1
  Rh  Rh35  1  0.529659  0.252661  0.000000  1
  Rh  Rh36  1  0.029659  0.247339  0.000000  1
  Rh  Rh37  1  0.970341  0.752661  0.000000  1
