# generated using pymatgen
data_Ho5Pt14Au
_symmetry_space_group_name_H-M   'P 1'
_cell_length_a   12.46066704
_cell_length_b   12.45427210
_cell_length_c   12.46066657
_cell_angle_alpha   27.01716081
_cell_angle_beta   27.10959436
_cell_angle_gamma   27.01716658
_symmetry_Int_Tables_number   1
_chemical_formula_structural   Ho5Pt14Au
_chemical_formula_sum   'Ho5 Pt14 Au1'
_cell_volume   352.72107562
_cell_formula_units_Z   1
loop_
 _symmetry_equiv_pos_site_id
 _symmetry_equiv_pos_as_xyz
  1  'x, y, z'
loop_
 _atom_site_type_symbol
 _atom_site_label
 _atom_site_symmetry_multiplicity
 _atom_site_fract_x
 _atom_site_fract_y
 _atom_site_fract_z
 _atom_site_occupancy
  Ho  Ho0  1  0.130387  0.135015  0.130387  1
  Ho  Ho1  1  0.869613  0.864985  0.869613  1
  Ho  Ho2  1  0.395842  0.411880  0.395842  1
  Ho  Ho3  1  0.604158  0.588120  0.604158  1
  Ho  Ho4  1  0.000000  0.000000  0.000000  1
  Pt  Pt5  1  0.410288  0.901225  0.890246  1
  Pt  Pt6  1  0.890246  0.901225  0.410288  1
  Pt  Pt7  1  0.888685  0.422641  0.888685  1
  Pt  Pt8  1  0.111315  0.577359  0.111315  1
  Pt  Pt9  1  0.109754  0.098775  0.589712  1
  Pt  Pt10  1  0.589712  0.098775  0.109754  1
  Pt  Pt11  1  0.133449  0.636138  0.632294  1
  Pt  Pt12  1  0.632294  0.636138  0.133449  1
  Pt  Pt13  1  0.630382  0.141648  0.630382  1
  Pt  Pt14  1  0.369618  0.858352  0.369618  1
  Pt  Pt15  1  0.367706  0.363862  0.866551  1
  Pt  Pt16  1  0.866551  0.363862  0.367706  1
  Pt  Pt17  1  0.500000  0.500000  0.000000  1
  Pt  Pt18  1  0.000000  0.500000  0.500000  1
  Au  Au19  1  0.500000  0.000000  0.500000  1
