# generated using pymatgen
data_Ho4SiTc6Os
_symmetry_space_group_name_H-M   'P 1'
_cell_length_a   5.29777300
_cell_length_b   5.29777225
_cell_length_c   8.92427100
_cell_angle_alpha   90.00000000
_cell_angle_beta   90.00000000
_cell_angle_gamma   119.99998596
_symmetry_Int_Tables_number   1
_chemical_formula_structural   Ho4SiTc6Os
_chemical_formula_sum   'Ho4 Si1 Tc6 Os1'
_cell_volume   216.91524349
_cell_formula_units_Z   1
loop_
 _symmetry_equiv_pos_site_id
 _symmetry_equiv_pos_as_xyz
  1  'x, y, z'
loop_
 _atom_site_type_symbol
 _atom_site_label
 _atom_site_symmetry_multiplicity
 _atom_site_fract_x
 _atom_site_fract_y
 _atom_site_fract_z
 _atom_site_occupancy
  Ho  Ho0  1  0.333333  0.666667  0.432948  1
  Ho  Ho1  1  0.666667  0.333333  0.567052  1
  Ho  Ho2  1  0.666667  0.333333  0.936239  1
  Ho  Ho3  1  0.333333  0.666667  0.063761  1
  Si  Si4  1  0.000000  0.000000  0.500000  1
  Tc  Tc5  1  0.829835  0.170165  0.254704  1
  Tc  Tc6  1  0.829835  0.659670  0.254704  1
  Tc  Tc7  1  0.340330  0.170165  0.254704  1
  Tc  Tc8  1  0.170165  0.829835  0.745296  1
  Tc  Tc9  1  0.170165  0.340330  0.745296  1
  Tc  Tc10  1  0.659670  0.829835  0.745296  1
  Os  Os11  1  0.000000  0.000000  0.000000  1
