# generated using pymatgen
data_Sm3Dy3YFeBr12
_symmetry_space_group_name_H-M   'P 1'
_cell_length_a   9.36011904
_cell_length_b   9.29103680
_cell_length_c   9.33236700
_cell_angle_alpha   106.66114754
_cell_angle_beta   106.96683342
_cell_angle_gamma   107.25835211
_symmetry_Int_Tables_number   1
_chemical_formula_structural   Sm3Dy3YFeBr12
_chemical_formula_sum   'Sm3 Dy3 Y1 Fe1 Br12'
_cell_volume   676.58411583
_cell_formula_units_Z   1
loop_
 _symmetry_equiv_pos_site_id
 _symmetry_equiv_pos_as_xyz
  1  'x, y, z'
loop_
 _atom_site_type_symbol
 _atom_site_label
 _atom_site_symmetry_multiplicity
 _atom_site_fract_x
 _atom_site_fract_y
 _atom_site_fract_z
 _atom_site_occupancy
  Sm  Sm0  1  0.094357  0.294916  0.020850  1
  Sm  Sm1  1  0.309782  0.022591  0.098910  1
  Sm  Sm2  1  0.903971  0.704286  0.978538  1
  Dy  Dy3  1  0.697742  0.977521  0.902696  1
  Dy  Dy4  1  0.977287  0.901934  0.695769  1
  Dy  Dy5  1  0.498548  0.500933  0.500139  1
  Y  Y6  1  0.023518  0.097751  0.305582  1
  Fe  Fe7  1  0.000779  0.999471  0.999673  1
  Br  Br8  1  0.067307  0.216472  0.674991  1
  Br  Br9  1  0.386065  0.171510  0.465768  1
  Br  Br10  1  0.615284  0.832364  0.540339  1
  Br  Br11  1  0.222247  0.680287  0.071472  1
  Br  Br12  1  0.773130  0.312352  0.926862  1
  Br  Br13  1  0.685542  0.071229  0.221030  1
  Br  Br14  1  0.536487  0.616545  0.829331  1
  Br  Br15  1  0.828512  0.540445  0.611827  1
  Br  Br16  1  0.930276  0.781795  0.323481  1
  Br  Br17  1  0.317030  0.927890  0.772975  1
  Br  Br18  1  0.463639  0.390307  0.172274  1
  Br  Br19  1  0.168496  0.459400  0.387492  1
