# generated using pymatgen
data_Dy5V3Co(Ni5P4)3
_symmetry_space_group_name_H-M   'P 1'
_cell_length_a   12.11348265
_cell_length_b   12.14928026
_cell_length_c   3.71747100
_cell_angle_alpha   90.00000000
_cell_angle_beta   90.00000000
_cell_angle_gamma   120.09779913
_symmetry_Int_Tables_number   1
_chemical_formula_structural   Dy5V3Co(Ni5P4)3
_chemical_formula_sum   'Dy5 V3 Co1 Ni15 P12'
_cell_volume   473.33536820
_cell_formula_units_Z   1
loop_
 _symmetry_equiv_pos_site_id
 _symmetry_equiv_pos_as_xyz
  1  'x, y, z'
loop_
 _atom_site_type_symbol
 _atom_site_label
 _atom_site_symmetry_multiplicity
 _atom_site_fract_x
 _atom_site_fract_y
 _atom_site_fract_z
 _atom_site_occupancy
  Dy  Dy0  1  0.667047  0.334028  0.000000  1
  Dy  Dy1  1  0.332953  0.666982  0.000000  1
  Dy  Dy2  1  0.187071  0.186732  0.500000  1
  Dy  Dy3  1  0.812929  0.999661  0.500000  1
  Dy  Dy4  1  0.000000  0.812976  0.500000  1
  V  V5  1  0.559024  0.559219  0.000000  1
  V  V6  1  0.440976  0.000195  0.000000  1
  V  V7  1  0.000000  0.441112  0.000000  1
  Co  Co8  1  0.000000  0.280600  0.500000  1
  Ni  Ni9  1  0.819798  0.195753  0.000000  1
  Ni  Ni10  1  0.804552  0.621767  0.000000  1
  Ni  Ni11  1  0.378679  0.182713  0.000000  1
  Ni  Ni12  1  0.195448  0.817215  0.000000  1
  Ni  Ni13  1  0.621321  0.804033  0.000000  1
  Ni  Ni14  1  0.180202  0.375956  0.000000  1
  Ni  Ni15  1  0.642965  0.126193  0.500000  1
  Ni  Ni16  1  0.875558  0.516649  0.500000  1
  Ni  Ni17  1  0.483035  0.358802  0.500000  1
  Ni  Ni18  1  0.124442  0.641091  0.500000  1
  Ni  Ni19  1  0.516965  0.875767  0.500000  1
  Ni  Ni20  1  0.357035  0.483228  0.500000  1
  Ni  Ni21  1  0.719648  0.719435  0.500000  1
  Ni  Ni22  1  0.280352  0.999787  0.500000  1
  Ni  Ni23  1  0.000000  0.000666  0.000000  1
  P  P24  1  0.367028  0.366542  0.000000  1
  P  P25  1  0.632972  0.999514  0.000000  1
  P  P26  1  0.000000  0.633191  0.000000  1
  P  P27  1  0.838296  0.316149  0.500000  1
  P  P28  1  0.684451  0.521430  0.500000  1
  P  P29  1  0.478837  0.163132  0.500000  1
  P  P30  1  0.315549  0.836978  0.500000  1
  P  P31  1  0.521163  0.684296  0.500000  1
  P  P32  1  0.161704  0.477853  0.500000  1
  P  P33  1  0.821252  0.821224  0.000000  1
  P  P34  1  0.178748  0.999972  0.000000  1
  P  P35  1  0.000000  0.179156  0.000000  1
