# generated using pymatgen
data_Tm6Lu6Co4SnRh
_symmetry_space_group_name_H-M   'P 1'
_cell_length_a   8.14717132
_cell_length_b   8.14717203
_cell_length_c   8.14042046
_cell_angle_alpha   111.13925819
_cell_angle_beta   110.89614450
_cell_angle_gamma   106.45625606
_symmetry_Int_Tables_number   1
_chemical_formula_structural   Tm6Lu6Co4SnRh
_chemical_formula_sum   'Tm6 Lu6 Co4 Sn1 Rh1'
_cell_volume   414.89527915
_cell_formula_units_Z   1
loop_
 _symmetry_equiv_pos_site_id
 _symmetry_equiv_pos_as_xyz
  1  'x, y, z'
loop_
 _atom_site_type_symbol
 _atom_site_label
 _atom_site_symmetry_multiplicity
 _atom_site_fract_x
 _atom_site_fract_y
 _atom_site_fract_z
 _atom_site_occupancy
  Tm  Tm0  1  0.414370  0.217964  0.195346  1
  Tm  Tm1  1  0.585630  0.782036  0.804654  1
  Tm  Tm2  1  0.022618  0.219024  0.804654  1
  Tm  Tm3  1  0.977382  0.780976  0.195346  1
  Tm  Tm4  1  0.184285  0.286160  0.470446  1
  Tm  Tm5  1  0.815715  0.713840  0.529554  1
  Lu  Lu6  1  0.184756  0.714233  0.898988  1
  Lu  Lu7  1  0.815244  0.285767  0.101012  1
  Lu  Lu8  1  0.314955  0.622815  0.306923  1
  Lu  Lu9  1  0.685045  0.377185  0.693077  1
  Lu  Lu10  1  0.315892  0.008032  0.693077  1
  Lu  Lu11  1  0.684108  0.991968  0.306923  1
  Co  Co12  1  0.372587  0.999727  0.372314  1
  Co  Co13  1  0.627413  0.000273  0.627686  1
  Co  Co14  1  0.112994  0.612994  0.500000  1
  Co  Co15  1  0.887006  0.387006  0.500000  1
  Sn  Sn16  1  0.500000  0.500000  0.000000  1
  Rh  Rh17  1  0.000000  0.000000  0.000000  1
