# generated using pymatgen
data_Np4B12MoOs
_symmetry_space_group_name_H-M   'P 1'
_cell_length_a   3.61990000
_cell_length_b   9.31468404
_cell_length_c   11.38105293
_cell_angle_alpha   89.89333008
_cell_angle_beta   90.00000000
_cell_angle_gamma   90.00000000
_symmetry_Int_Tables_number   1
_chemical_formula_structural   Np4B12MoOs
_chemical_formula_sum   'Np8 B24 Mo2 Os2'
_cell_volume   383.74823546
_cell_formula_units_Z   2
loop_
 _symmetry_equiv_pos_site_id
 _symmetry_equiv_pos_as_xyz
  1  'x, y, z'
loop_
 _atom_site_type_symbol
 _atom_site_label
 _atom_site_symmetry_multiplicity
 _atom_site_fract_x
 _atom_site_fract_y
 _atom_site_fract_z
 _atom_site_occupancy
  Np  Np0  1  0.000000  0.338720  0.408235  1
  Np  Np1  1  0.000000  0.661280  0.591765  1
  Np  Np2  1  0.000000  0.836759  0.093568  1
  Np  Np3  1  0.000000  0.163241  0.906432  1
  Np  Np4  1  0.000000  0.957174  0.401415  1
  Np  Np5  1  0.000000  0.042826  0.598585  1
  Np  Np6  1  0.000000  0.461575  0.099993  1
  Np  Np7  1  0.000000  0.538425  0.900007  1
  B  B8  1  0.500000  0.551835  0.432472  1
  B  B9  1  0.500000  0.448165  0.567528  1
  B  B10  1  0.500000  0.051646  0.068281  1
  B  B11  1  0.500000  0.948354  0.931719  1
  B  B12  1  0.500000  0.744587  0.424693  1
  B  B13  1  0.500000  0.255413  0.575307  1
  B  B14  1  0.500000  0.243147  0.076800  1
  B  B15  1  0.500000  0.756853  0.923200  1
  B  B16  1  0.500000  0.807102  0.273839  1
  B  B17  1  0.500000  0.192898  0.726160  1
  B  B18  1  0.500000  0.304980  0.225680  1
  B  B19  1  0.500000  0.695020  0.774321  1
  B  B20  1  0.500000  0.646765  0.186445  1
  B  B21  1  0.500000  0.353235  0.813555  1
  B  B22  1  0.500000  0.146409  0.311139  1
  B  B23  1  0.500000  0.853591  0.688861  1
  B  B24  1  0.500000  0.989030  0.219761  1
  B  B25  1  0.500000  0.010970  0.780239  1
  B  B26  1  0.500000  0.487168  0.278800  1
  B  B27  1  0.500000  0.512832  0.721200  1
  B  B28  1  0.500000  0.643247  0.038281  1
  B  B29  1  0.500000  0.356753  0.961719  1
  B  B30  1  0.500000  0.142710  0.459172  1
  B  B31  1  0.500000  0.857290  0.540828  1
  Mo  Mo32  1  0.000000  0.646854  0.318488  1
  Mo  Mo33  1  0.000000  0.353146  0.681512  1
  Os  Os34  1  0.000000  0.146568  0.180390  1
  Os  Os35  1  0.000000  0.853432  0.819610  1
