# generated using pymatgen
data_Nd2Ho8Bi5Sb
_symmetry_space_group_name_H-M   'P 1'
_cell_length_a   8.30226300
_cell_length_b   9.47277100
_cell_length_c   12.12733000
_cell_angle_alpha   90.00000000
_cell_angle_beta   90.00000000
_cell_angle_gamma   90.00000000
_symmetry_Int_Tables_number   1
_chemical_formula_structural   Nd2Ho8Bi5Sb
_chemical_formula_sum   'Nd4 Ho16 Bi10 Sb2'
_cell_volume   953.75915756
_cell_formula_units_Z   2
loop_
 _symmetry_equiv_pos_site_id
 _symmetry_equiv_pos_as_xyz
  1  'x, y, z'
loop_
 _atom_site_type_symbol
 _atom_site_label
 _atom_site_symmetry_multiplicity
 _atom_site_fract_x
 _atom_site_fract_y
 _atom_site_fract_z
 _atom_site_occupancy
  Nd  Nd0  1  0.171873  0.750000  0.224350  1
  Nd  Nd1  1  0.328127  0.750000  0.724350  1
  Nd  Nd2  1  0.828246  0.250000  0.773842  1
  Nd  Nd3  1  0.671754  0.250000  0.273842  1
  Ho  Ho4  1  0.813212  0.565301  0.063778  1
  Ho  Ho5  1  0.686788  0.934699  0.563778  1
  Ho  Ho6  1  0.188485  0.059278  0.935664  1
  Ho  Ho7  1  0.311515  0.440722  0.435664  1
  Ho  Ho8  1  0.188485  0.440722  0.935664  1
  Ho  Ho9  1  0.311515  0.059278  0.435664  1
  Ho  Ho10  1  0.813212  0.934699  0.063778  1
  Ho  Ho11  1  0.686788  0.565301  0.563778  1
  Ho  Ho12  1  0.473026  0.750000  0.003226  1
  Ho  Ho13  1  0.026974  0.750000  0.503226  1
  Ho  Ho14  1  0.522580  0.250000  0.996149  1
  Ho  Ho15  1  0.977420  0.250000  0.496149  1
  Ho  Ho16  1  0.660837  0.750000  0.291309  1
  Ho  Ho17  1  0.839163  0.750000  0.791309  1
  Ho  Ho18  1  0.335346  0.250000  0.711286  1
  Ho  Ho19  1  0.164654  0.250000  0.211286  1
  Bi  Bi20  1  0.597101  0.250000  0.532928  1
  Bi  Bi21  1  0.902899  0.250000  0.032928  1
  Bi  Bi22  1  0.935138  0.507071  0.327909  1
  Bi  Bi23  1  0.564862  0.992929  0.827909  1
  Bi  Bi24  1  0.064641  0.007121  0.672021  1
  Bi  Bi25  1  0.435359  0.492879  0.172021  1
  Bi  Bi26  1  0.064641  0.492879  0.672021  1
  Bi  Bi27  1  0.435359  0.007121  0.172021  1
  Bi  Bi28  1  0.935138  0.992929  0.327909  1
  Bi  Bi29  1  0.564862  0.507071  0.827909  1
  Sb  Sb30  1  0.403466  0.750000  0.468167  1
  Sb  Sb31  1  0.096534  0.750000  0.968167  1
