# generated using pymatgen
data_La8Yb2Sn5Bi3
_symmetry_space_group_name_H-M   'P 1'
_cell_length_a   8.53508400
_cell_length_b   8.60749628
_cell_length_c   16.47641900
_cell_angle_alpha   90.00000000
_cell_angle_beta   90.00000000
_cell_angle_gamma   90.06346972
_symmetry_Int_Tables_number   1
_chemical_formula_structural   La8Yb2Sn5Bi3
_chemical_formula_sum   'La16 Yb4 Sn10 Bi6'
_cell_volume   1210.45097509
_cell_formula_units_Z   2
loop_
 _symmetry_equiv_pos_site_id
 _symmetry_equiv_pos_as_xyz
  1  'x, y, z'
loop_
 _atom_site_type_symbol
 _atom_site_label
 _atom_site_symmetry_multiplicity
 _atom_site_fract_x
 _atom_site_fract_y
 _atom_site_fract_z
 _atom_site_occupancy
  La  La0  1  0.041038  0.175384  0.394150  1
  La  La1  1  0.389286  0.839103  0.119789  1
  La  La2  1  0.117137  0.334634  0.619912  1
  La  La3  1  0.465704  0.682616  0.893581  1
  La  La4  1  0.882863  0.665366  0.119912  1
  La  La5  1  0.114301  0.338325  0.879750  1
  La  La6  1  0.462112  0.683128  0.607558  1
  La  La7  1  0.610714  0.160897  0.619789  1
  La  La8  1  0.885699  0.661675  0.379750  1
  La  La9  1  0.030579  0.175780  0.106043  1
  La  La10  1  0.958962  0.824616  0.894150  1
  La  La11  1  0.616313  0.159476  0.881358  1
  La  La12  1  0.537888  0.316872  0.107558  1
  La  La13  1  0.383687  0.840524  0.381358  1
  La  La14  1  0.969421  0.824220  0.606043  1
  La  La15  1  0.534296  0.317384  0.393581  1
  Yb  Yb16  1  0.216136  0.500673  0.249113  1
  Yb  Yb17  1  0.717253  0.998156  0.247110  1
  Yb  Yb18  1  0.282747  0.001844  0.747110  1
  Yb  Yb19  1  0.783864  0.499327  0.749113  1
  Sn  Sn20  1  0.665145  0.860263  0.749795  1
  Sn  Sn21  1  0.836013  0.359581  0.250846  1
  Sn  Sn22  1  0.583479  0.615946  0.251310  1
  Sn  Sn23  1  0.416521  0.384054  0.751310  1
  Sn  Sn24  1  0.163987  0.640419  0.750846  1
  Sn  Sn25  1  0.915632  0.117801  0.750077  1
  Sn  Sn26  1  0.275186  0.027190  0.543685  1
  Sn  Sn27  1  0.724814  0.972810  0.043685  1
  Sn  Sn28  1  0.334855  0.139737  0.249795  1
  Sn  Sn29  1  0.084368  0.882199  0.250077  1
  Bi  Bi30  1  0.773031  0.474386  0.543885  1
  Bi  Bi31  1  0.726556  0.973459  0.456091  1
  Bi  Bi32  1  0.225821  0.526166  0.455947  1
  Bi  Bi33  1  0.273444  0.026541  0.956091  1
  Bi  Bi34  1  0.774179  0.473834  0.955947  1
  Bi  Bi35  1  0.226969  0.525614  0.043885  1
