# generated using pymatgen
data_Y3Mn(P3Ir4)2
_symmetry_space_group_name_H-M   'P 1'
_cell_length_a   3.97158900
_cell_length_b   11.26840300
_cell_length_c   12.54524200
_cell_angle_alpha   90.00000000
_cell_angle_beta   90.00000000
_cell_angle_gamma   90.00000000
_symmetry_Int_Tables_number   1
_chemical_formula_structural   Y3Mn(P3Ir4)2
_chemical_formula_sum   'Y6 Mn2 P12 Ir16'
_cell_volume   561.44305381
_cell_formula_units_Z   2
loop_
 _symmetry_equiv_pos_site_id
 _symmetry_equiv_pos_as_xyz
  1  'x, y, z'
loop_
 _atom_site_type_symbol
 _atom_site_label
 _atom_site_symmetry_multiplicity
 _atom_site_fract_x
 _atom_site_fract_y
 _atom_site_fract_z
 _atom_site_occupancy
  Y  Y0  1  0.000000  0.500000  0.522656  1
  Y  Y1  1  0.500000  0.000000  0.477344  1
  Y  Y2  1  0.500000  0.822945  0.200828  1
  Y  Y3  1  0.500000  0.177055  0.200828  1
  Y  Y4  1  0.000000  0.677055  0.799172  1
  Y  Y5  1  0.000000  0.322945  0.799172  1
  Mn  Mn6  1  0.000000  0.500000  0.999344  1
  Mn  Mn7  1  0.500000  0.000000  0.000656  1
  P  P8  1  0.500000  0.500000  0.884052  1
  P  P9  1  0.000000  0.000000  0.115948  1
  P  P10  1  0.500000  0.500000  0.353684  1
  P  P11  1  0.000000  0.000000  0.646316  1
  P  P12  1  0.500000  0.314536  0.620032  1
  P  P13  1  0.500000  0.685464  0.620032  1
  P  P14  1  0.000000  0.185464  0.379968  1
  P  P15  1  0.000000  0.814536  0.379968  1
  P  P16  1  0.500000  0.844404  0.897140  1
  P  P17  1  0.500000  0.155596  0.897140  1
  P  P18  1  0.000000  0.655596  0.102860  1
  P  P19  1  0.000000  0.344404  0.102860  1
  Ir  Ir20  1  0.500000  0.500000  0.168064  1
  Ir  Ir21  1  0.000000  0.000000  0.831936  1
  Ir  Ir22  1  0.500000  0.500000  0.699533  1
  Ir  Ir23  1  0.000000  0.000000  0.300467  1
  Ir  Ir24  1  0.500000  0.336018  0.993019  1
  Ir  Ir25  1  0.500000  0.663982  0.993019  1
  Ir  Ir26  1  0.000000  0.163982  0.006981  1
  Ir  Ir27  1  0.000000  0.836018  0.006981  1
  Ir  Ir28  1  0.500000  0.296795  0.429039  1
  Ir  Ir29  1  0.500000  0.703205  0.429039  1
  Ir  Ir30  1  0.000000  0.203205  0.570961  1
  Ir  Ir31  1  0.000000  0.796795  0.570961  1
  Ir  Ir32  1  0.500000  0.869991  0.715431  1
  Ir  Ir33  1  0.500000  0.130009  0.715431  1
  Ir  Ir34  1  0.000000  0.630009  0.284569  1
  Ir  Ir35  1  0.000000  0.369991  0.284569  1
