# generated using pymatgen
data_Tm4LuRu3
_symmetry_space_group_name_H-M   'P 1'
_cell_length_a   10.65457300
_cell_length_b   10.65457300
_cell_length_c   6.30659900
_cell_angle_alpha   90.00000000
_cell_angle_beta   90.00000000
_cell_angle_gamma   90.00000000
_symmetry_Int_Tables_number   1
_chemical_formula_structural   Tm4LuRu3
_chemical_formula_sum   'Tm16 Lu4 Ru12'
_cell_volume   715.92465061
_cell_formula_units_Z   4
loop_
 _symmetry_equiv_pos_site_id
 _symmetry_equiv_pos_as_xyz
  1  'x, y, z'
loop_
 _atom_site_type_symbol
 _atom_site_label
 _atom_site_symmetry_multiplicity
 _atom_site_fract_x
 _atom_site_fract_y
 _atom_site_fract_z
 _atom_site_occupancy
  Tm  Tm0  1  0.291690  0.086239  0.376018  1
  Tm  Tm1  1  0.291690  0.913761  0.876018  1
  Tm  Tm2  1  0.708310  0.086239  0.876018  1
  Tm  Tm3  1  0.708310  0.913761  0.376018  1
  Tm  Tm4  1  0.586239  0.791690  0.876018  1
  Tm  Tm5  1  0.586239  0.208310  0.376018  1
  Tm  Tm6  1  0.413761  0.791690  0.376018  1
  Tm  Tm7  1  0.413761  0.208310  0.876018  1
  Tm  Tm8  1  0.208310  0.413761  0.623982  1
  Tm  Tm9  1  0.208310  0.586239  0.123982  1
  Tm  Tm10  1  0.791690  0.413761  0.123982  1
  Tm  Tm11  1  0.791690  0.586239  0.623982  1
  Tm  Tm12  1  0.913761  0.708310  0.123982  1
  Tm  Tm13  1  0.913761  0.291690  0.623982  1
  Tm  Tm14  1  0.086239  0.708310  0.623982  1
  Tm  Tm15  1  0.086239  0.291690  0.123982  1
  Lu  Lu16  1  0.000000  0.000000  0.500000  1
  Lu  Lu17  1  0.000000  0.000000  0.000000  1
  Lu  Lu18  1  0.500000  0.500000  0.000000  1
  Lu  Lu19  1  0.500000  0.500000  0.500000  1
  Ru  Ru20  1  0.846914  0.153086  0.250000  1
  Ru  Ru21  1  0.846914  0.846914  0.750000  1
  Ru  Ru22  1  0.153086  0.153086  0.750000  1
  Ru  Ru23  1  0.153086  0.846914  0.250000  1
  Ru  Ru24  1  0.653086  0.346914  0.750000  1
  Ru  Ru25  1  0.653086  0.653086  0.250000  1
  Ru  Ru26  1  0.346914  0.346914  0.250000  1
  Ru  Ru27  1  0.346914  0.653086  0.750000  1
  Ru  Ru28  1  0.500000  0.000000  0.125091  1
  Ru  Ru29  1  0.500000  0.000000  0.625091  1
  Ru  Ru30  1  0.000000  0.500000  0.874909  1
  Ru  Ru31  1  0.000000  0.500000  0.374909  1
