# generated using pymatgen
data_Er8Si16MoW11
_symmetry_space_group_name_H-M   'P 1'
_cell_length_a   6.85887592
_cell_length_b   6.85630021
_cell_length_c   12.73425876
_cell_angle_alpha   89.93023720
_cell_angle_beta   90.07367079
_cell_angle_gamma   90.02321871
_symmetry_Int_Tables_number   1
_chemical_formula_structural   Er8Si16MoW11
_chemical_formula_sum   'Er8 Si16 Mo1 W11'
_cell_volume   598.84678959
_cell_formula_units_Z   1
loop_
 _symmetry_equiv_pos_site_id
 _symmetry_equiv_pos_as_xyz
  1  'x, y, z'
loop_
 _atom_site_type_symbol
 _atom_site_label
 _atom_site_symmetry_multiplicity
 _atom_site_fract_x
 _atom_site_fract_y
 _atom_site_fract_z
 _atom_site_occupancy
  Er  Er0  1  0.338979  0.998571  0.468746  1
  Er  Er1  1  0.502697  0.838562  0.718934  1
  Er  Er2  1  0.498021  0.161654  0.219239  1
  Er  Er3  1  0.838598  0.501645  0.281126  1
  Er  Er4  1  0.161608  0.497947  0.780933  1
  Er  Er5  1  0.661548  0.001824  0.968964  1
  Er  Er6  1  0.998422  0.338691  0.531126  1
  Er  Er7  1  0.001839  0.661520  0.030982  1
  Si  Si8  1  0.201488  0.126799  0.683377  1
  Si  Si9  1  0.372706  0.702090  0.933233  1
  Si  Si10  1  0.628063  0.297550  0.433352  1
  Si  Si11  1  0.701920  0.372780  0.066823  1
  Si  Si12  1  0.297984  0.628535  0.566585  1
  Si  Si13  1  0.798175  0.872467  0.183414  1
  Si  Si14  1  0.127086  0.201512  0.316875  1
  Si  Si15  1  0.872591  0.798525  0.816294  1
  Si  Si16  1  0.288556  0.963065  0.064075  1
  Si  Si17  1  0.536801  0.788518  0.313804  1
  Si  Si18  1  0.462555  0.211423  0.813908  1
  Si  Si19  1  0.788874  0.537346  0.685583  1
  Si  Si20  1  0.211436  0.462737  0.185969  1
  Si  Si21  1  0.712033  0.037298  0.564868  1
  Si  Si22  1  0.963260  0.288740  0.936253  1
  Si  Si23  1  0.037185  0.710890  0.435927  1
  Mo  Mo24  1  0.002410  0.835991  0.625824  1
  W  W25  1  0.332843  0.332913  0.999904  1
  W  W26  1  0.167137  0.832503  0.249482  1
  W  W27  1  0.832565  0.168371  0.751052  1
  W  W28  1  0.666209  0.666912  0.499237  1
  W  W29  1  0.163237  0.998858  0.873399  1
  W  W30  1  0.500913  0.663505  0.123698  1
  W  W31  1  0.497285  0.337555  0.623276  1
  W  W32  1  0.663821  0.500726  0.876101  1
  W  W33  1  0.337007  0.497733  0.376593  1
  W  W34  1  0.835742  0.000526  0.374380  1
  W  W35  1  0.998404  0.163718  0.126664  1
