# generated using pymatgen
data_NdTcNi4P3
_symmetry_space_group_name_H-M   'P 1'
_cell_length_a   3.75734500
_cell_length_b   10.66209300
_cell_length_c   12.06720200
_cell_angle_alpha   90.00000000
_cell_angle_beta   90.00000000
_cell_angle_gamma   90.00000000
_symmetry_Int_Tables_number   1
_chemical_formula_structural   NdTcNi4P3
_chemical_formula_sum   'Nd4 Tc4 Ni16 P12'
_cell_volume   483.42613207
_cell_formula_units_Z   4
loop_
 _symmetry_equiv_pos_site_id
 _symmetry_equiv_pos_as_xyz
  1  'x, y, z'
loop_
 _atom_site_type_symbol
 _atom_site_label
 _atom_site_symmetry_multiplicity
 _atom_site_fract_x
 _atom_site_fract_y
 _atom_site_fract_z
 _atom_site_occupancy
  Nd  Nd0  1  0.250000  0.587721  0.705619  1
  Nd  Nd1  1  0.250000  0.912279  0.205619  1
  Nd  Nd2  1  0.750000  0.412279  0.294381  1
  Nd  Nd3  1  0.750000  0.087721  0.794381  1
  Tc  Tc4  1  0.250000  0.710988  0.988254  1
  Tc  Tc5  1  0.250000  0.789012  0.488254  1
  Tc  Tc6  1  0.750000  0.289012  0.011746  1
  Tc  Tc7  1  0.750000  0.210988  0.511746  1
  Ni  Ni8  1  0.250000  0.409239  0.490700  1
  Ni  Ni9  1  0.250000  0.090761  0.990700  1
  Ni  Ni10  1  0.750000  0.590761  0.509300  1
  Ni  Ni11  1  0.750000  0.909239  0.009300  1
  Ni  Ni12  1  0.250000  0.219900  0.177479  1
  Ni  Ni13  1  0.250000  0.280100  0.677479  1
  Ni  Ni14  1  0.750000  0.780100  0.822521  1
  Ni  Ni15  1  0.750000  0.719900  0.322521  1
  Ni  Ni16  1  0.250000  0.886051  0.702162  1
  Ni  Ni17  1  0.250000  0.613949  0.202162  1
  Ni  Ni18  1  0.750000  0.113949  0.297838  1
  Ni  Ni19  1  0.750000  0.386051  0.797838  1
  Ni  Ni20  1  0.250000  0.465791  0.931201  1
  Ni  Ni21  1  0.250000  0.034209  0.431201  1
  Ni  Ni22  1  0.750000  0.534209  0.068799  1
  Ni  Ni23  1  0.750000  0.965791  0.568799  1
  P  P24  1  0.250000  0.416791  0.109300  1
  P  P25  1  0.250000  0.083209  0.609300  1
  P  P26  1  0.750000  0.583209  0.890700  1
  P  P27  1  0.750000  0.916791  0.390700  1
  P  P28  1  0.250000  0.273134  0.870863  1
  P  P29  1  0.250000  0.226866  0.370863  1
  P  P30  1  0.750000  0.726866  0.129137  1
  P  P31  1  0.750000  0.773134  0.629137  1
  P  P32  1  0.250000  0.600453  0.390800  1
  P  P33  1  0.250000  0.899547  0.890800  1
  P  P34  1  0.750000  0.399547  0.609200  1
  P  P35  1  0.750000  0.100453  0.109200  1
