# generated using pymatgen
data_Ac9Tb10LuPb16
_symmetry_space_group_name_H-M   'P 1'
_cell_length_a   8.56488278
_cell_length_b   16.36465000
_cell_length_c   8.61154000
_cell_angle_alpha   90.00000000
_cell_angle_beta   89.89723406
_cell_angle_gamma   90.00000000
_symmetry_Int_Tables_number   1
_chemical_formula_structural   Ac9Tb10LuPb16
_chemical_formula_sum   'Ac9 Tb10 Lu1 Pb16'
_cell_volume   1207.00277684
_cell_formula_units_Z   1
loop_
 _symmetry_equiv_pos_site_id
 _symmetry_equiv_pos_as_xyz
  1  'x, y, z'
loop_
 _atom_site_type_symbol
 _atom_site_label
 _atom_site_symmetry_multiplicity
 _atom_site_fract_x
 _atom_site_fract_y
 _atom_site_fract_z
 _atom_site_occupancy
  Ac  Ac0  1  0.477432  0.598530  0.676028  1
  Ac  Ac1  1  0.977203  0.902359  0.823273  1
  Ac  Ac2  1  0.520390  0.094124  0.320245  1
  Ac  Ac3  1  0.020071  0.404517  0.176388  1
  Ac  Ac4  1  0.520390  0.405876  0.320245  1
  Ac  Ac5  1  0.020071  0.095483  0.176388  1
  Ac  Ac6  1  0.477432  0.901470  0.676028  1
  Ac  Ac7  1  0.977203  0.597641  0.823273  1
  Ac  Ac8  1  0.203461  0.250000  0.502815  1
  Tb  Tb9  1  0.635584  0.622801  0.156561  1
  Tb  Tb10  1  0.135268  0.875643  0.342704  1
  Tb  Tb11  1  0.367950  0.119348  0.842907  1
  Tb  Tb12  1  0.864188  0.379900  0.657651  1
  Tb  Tb13  1  0.367950  0.380652  0.842907  1
  Tb  Tb14  1  0.864188  0.120100  0.657651  1
  Tb  Tb15  1  0.635584  0.877199  0.156561  1
  Tb  Tb16  1  0.135268  0.624357  0.342704  1
  Tb  Tb17  1  0.799746  0.750000  0.495375  1
  Tb  Tb18  1  0.299269  0.750000  0.004209  1
  Lu  Lu19  1  0.701862  0.250000  0.996480  1
  Pb  Pb20  1  0.701075  0.453806  0.956324  1
  Pb  Pb21  1  0.197765  0.039854  0.548110  1
  Pb  Pb22  1  0.299858  0.953486  0.045393  1
  Pb  Pb23  1  0.800166  0.546309  0.453840  1
  Pb  Pb24  1  0.299858  0.546514  0.045393  1
  Pb  Pb25  1  0.800166  0.953691  0.453840  1
  Pb  Pb26  1  0.701075  0.046194  0.956324  1
  Pb  Pb27  1  0.197765  0.460146  0.548110  1
  Pb  Pb28  1  0.440293  0.750000  0.362981  1
  Pb  Pb29  1  0.938733  0.750000  0.135713  1
  Pb  Pb30  1  0.574578  0.250000  0.644642  1
  Pb  Pb31  1  0.056437  0.250000  0.875753  1
  Pb  Pb32  1  0.664975  0.750000  0.857476  1
  Pb  Pb33  1  0.165500  0.750000  0.644658  1
  Pb  Pb34  1  0.340079  0.250000  0.128630  1
  Pb  Pb35  1  0.821164  0.250000  0.352420  1
