# generated using pymatgen
data_Tb3HoAl18(Os2Pd)2
_symmetry_space_group_name_H-M   'P 1'
_cell_length_a   7.59199200
_cell_length_b   7.59184220
_cell_length_c   9.56259900
_cell_angle_alpha   90.00000000
_cell_angle_beta   90.00000000
_cell_angle_gamma   119.58447413
_symmetry_Int_Tables_number   1
_chemical_formula_structural   Tb3HoAl18(Os2Pd)2
_chemical_formula_sum   'Tb3 Ho1 Al18 Os4 Pd2'
_cell_volume   479.30586704
_cell_formula_units_Z   1
loop_
 _symmetry_equiv_pos_site_id
 _symmetry_equiv_pos_as_xyz
  1  'x, y, z'
loop_
 _atom_site_type_symbol
 _atom_site_label
 _atom_site_symmetry_multiplicity
 _atom_site_fract_x
 _atom_site_fract_y
 _atom_site_fract_z
 _atom_site_occupancy
  Tb  Tb0  1  0.997671  0.669552  0.250000  1
  Tb  Tb1  1  0.002327  0.330642  0.750000  1
  Tb  Tb2  1  0.669381  0.997851  0.250000  1
  Ho  Ho3  1  0.330768  0.002259  0.750000  1
  Al  Al4  1  0.132133  0.132152  0.250000  1
  Al  Al5  1  0.868400  0.868207  0.750000  1
  Al  Al6  1  0.002649  0.339972  0.072470  1
  Al  Al7  1  0.997541  0.660293  0.927235  1
  Al  Al8  1  0.997541  0.660293  0.572765  1
  Al  Al9  1  0.339989  0.002578  0.427765  1
  Al  Al10  1  0.002649  0.339972  0.427530  1
  Al  Al11  1  0.659711  0.997295  0.572750  1
  Al  Al12  1  0.659711  0.997295  0.927250  1
  Al  Al13  1  0.339989  0.002578  0.072235  1
  Al  Al14  1  0.339452  0.339249  0.549219  1
  Al  Al15  1  0.660574  0.660557  0.450923  1
  Al  Al16  1  0.660574  0.660557  0.049077  1
  Al  Al17  1  0.339452  0.339249  0.950781  1
  Al  Al18  1  0.336666  0.548935  0.250000  1
  Al  Al19  1  0.663175  0.450682  0.750000  1
  Al  Al20  1  0.548827  0.336560  0.250000  1
  Al  Al21  1  0.450883  0.663578  0.750000  1
  Os  Os22  1  0.672196  0.327357  0.999800  1
  Os  Os23  1  0.327584  0.672536  0.999750  1
  Os  Os24  1  0.327584  0.672536  0.500250  1
  Os  Os25  1  0.672196  0.327357  0.500200  1
  Pd  Pd26  1  0.000189  0.999955  0.999954  1
  Pd  Pd27  1  0.000189  0.999955  0.500046  1
