# generated using pymatgen
data_YHo7Sc11Si16Rh
_symmetry_space_group_name_H-M   'P 1'
_cell_length_a   6.97451934
_cell_length_b   7.37862658
_cell_length_c   13.88410104
_cell_angle_alpha   90.00737849
_cell_angle_beta   90.00396179
_cell_angle_gamma   89.95961297
_symmetry_Int_Tables_number   1
_chemical_formula_structural   YHo7Sc11Si16Rh
_chemical_formula_sum   'Y1 Ho7 Sc11 Si16 Rh1'
_cell_volume   714.50861293
_cell_formula_units_Z   1
loop_
 _symmetry_equiv_pos_site_id
 _symmetry_equiv_pos_as_xyz
  1  'x, y, z'
loop_
 _atom_site_type_symbol
 _atom_site_label
 _atom_site_symmetry_multiplicity
 _atom_site_fract_x
 _atom_site_fract_y
 _atom_site_fract_z
 _atom_site_occupancy
  Y  Y0  1  0.012145  0.178196  0.093362  1
  Ho  Ho1  1  0.991122  0.815014  0.901356  1
  Ho  Ho2  1  0.488586  0.673994  0.902189  1
  Ho  Ho3  1  0.991152  0.815056  0.598558  1
  Ho  Ho4  1  0.510581  0.322885  0.094495  1
  Ho  Ho5  1  0.012304  0.178446  0.406440  1
  Ho  Ho6  1  0.510579  0.322774  0.405530  1
  Ho  Ho7  1  0.488545  0.674016  0.597782  1
  Sc  Sc8  1  0.840440  0.496956  0.250081  1
  Sc  Sc9  1  0.341447  0.004477  0.250074  1
  Sc  Sc10  1  0.655358  0.997575  0.749994  1
  Sc  Sc11  1  0.323126  0.177597  0.627919  1
  Sc  Sc12  1  0.671955  0.824912  0.374520  1
  Sc  Sc13  1  0.172864  0.674250  0.376015  1
  Sc  Sc14  1  0.671858  0.824825  0.125555  1
  Sc  Sc15  1  0.830625  0.329006  0.629061  1
  Sc  Sc16  1  0.323157  0.177587  0.872047  1
  Sc  Sc17  1  0.830541  0.329099  0.870854  1
  Sc  Sc18  1  0.172865  0.674199  0.124016  1
  Si  Si19  1  0.026069  0.100004  0.749997  1
  Si  Si20  1  0.972274  0.887263  0.250137  1
  Si  Si21  1  0.468966  0.614657  0.250025  1
  Si  Si22  1  0.518849  0.394215  0.749999  1
  Si  Si23  1  0.283418  0.864828  0.750000  1
  Si  Si24  1  0.715342  0.130305  0.250163  1
  Si  Si25  1  0.215075  0.371638  0.250223  1
  Si  Si26  1  0.791364  0.628265  0.749989  1
  Si  Si27  1  0.159898  0.463858  0.542531  1
  Si  Si28  1  0.842836  0.535514  0.463553  1
  Si  Si29  1  0.344610  0.964644  0.463482  1
  Si  Si30  1  0.842688  0.535938  0.036368  1
  Si  Si31  1  0.658980  0.034427  0.540325  1
  Si  Si32  1  0.159999  0.464198  0.957334  1
  Si  Si33  1  0.658849  0.034335  0.959610  1
  Si  Si34  1  0.345145  0.964320  0.036440  1
  Rh  Rh35  1  0.156389  0.520725  0.749975  1
