# generated using pymatgen
data_La8Tl3Co
_symmetry_space_group_name_H-M   'P 1'
_cell_length_a   11.03474100
_cell_length_b   11.03474072
_cell_length_c   7.16819200
_cell_angle_alpha   90.00000000
_cell_angle_beta   90.00000000
_cell_angle_gamma   119.99999783
_symmetry_Int_Tables_number   1
_chemical_formula_structural   La8Tl3Co
_chemical_formula_sum   'La16 Tl6 Co2'
_cell_volume   755.90035275
_cell_formula_units_Z   2
loop_
 _symmetry_equiv_pos_site_id
 _symmetry_equiv_pos_as_xyz
  1  'x, y, z'
loop_
 _atom_site_type_symbol
 _atom_site_label
 _atom_site_symmetry_multiplicity
 _atom_site_fract_x
 _atom_site_fract_y
 _atom_site_fract_z
 _atom_site_occupancy
  La  La0  1  0.538884  0.077768  0.506823  1
  La  La1  1  0.922232  0.461116  0.506823  1
  La  La2  1  0.538884  0.461116  0.506823  1
  La  La3  1  0.461116  0.922232  0.006823  1
  La  La4  1  0.077768  0.538884  0.006823  1
  La  La5  1  0.461116  0.538884  0.006823  1
  La  La6  1  0.177147  0.354295  0.742391  1
  La  La7  1  0.645705  0.822853  0.742391  1
  La  La8  1  0.177147  0.822853  0.742391  1
  La  La9  1  0.822853  0.645705  0.242391  1
  La  La10  1  0.354295  0.177147  0.242391  1
  La  La11  1  0.822853  0.177147  0.242391  1
  La  La12  1  0.666667  0.333333  0.914227  1
  La  La13  1  0.333333  0.666667  0.414227  1
  La  La14  1  0.000000  0.000000  0.522706  1
  La  La15  1  0.000000  0.000000  0.022706  1
  Tl  Tl16  1  0.835360  0.670721  0.764875  1
  Tl  Tl17  1  0.329279  0.164640  0.764875  1
  Tl  Tl18  1  0.835360  0.164640  0.764875  1
  Tl  Tl19  1  0.164640  0.329279  0.264875  1
  Tl  Tl20  1  0.670721  0.835360  0.264875  1
  Tl  Tl21  1  0.164640  0.835360  0.264875  1
  Co  Co22  1  0.666667  0.333333  0.298643  1
  Co  Co23  1  0.333333  0.666667  0.798643  1
