# generated using pymatgen
data_Ho12Si12Os3Ru
_symmetry_space_group_name_H-M   'P 1'
_cell_length_a   4.17954000
_cell_length_b   10.70733050
_cell_length_c   12.31178521
_cell_angle_alpha   90.02803363
_cell_angle_beta   90.00000000
_cell_angle_gamma   90.00000000
_symmetry_Int_Tables_number   1
_chemical_formula_structural   Ho12Si12Os3Ru
_chemical_formula_sum   'Ho12 Si12 Os3 Ru1'
_cell_volume   550.97345047
_cell_formula_units_Z   1
loop_
 _symmetry_equiv_pos_site_id
 _symmetry_equiv_pos_as_xyz
  1  'x, y, z'
loop_
 _atom_site_type_symbol
 _atom_site_label
 _atom_site_symmetry_multiplicity
 _atom_site_fract_x
 _atom_site_fract_y
 _atom_site_fract_z
 _atom_site_occupancy
  Ho  Ho0  1  0.250000  0.880723  0.020889  1
  Ho  Ho1  1  0.250000  0.619195  0.520609  1
  Ho  Ho2  1  0.750000  0.119604  0.979594  1
  Ho  Ho3  1  0.750000  0.380838  0.479320  1
  Ho  Ho4  1  0.250000  0.920826  0.604910  1
  Ho  Ho5  1  0.250000  0.578824  0.105473  1
  Ho  Ho6  1  0.750000  0.079179  0.394488  1
  Ho  Ho7  1  0.750000  0.420786  0.894793  1
  Ho  Ho8  1  0.250000  0.662271  0.800375  1
  Ho  Ho9  1  0.250000  0.838430  0.299984  1
  Ho  Ho10  1  0.750000  0.338503  0.199921  1
  Ho  Ho11  1  0.750000  0.161548  0.699570  1
  Si  Si12  1  0.250000  0.011478  0.821298  1
  Si  Si13  1  0.250000  0.490304  0.320907  1
  Si  Si14  1  0.750000  0.990086  0.178824  1
  Si  Si15  1  0.750000  0.509751  0.679184  1
  Si  Si16  1  0.250000  0.249248  0.841359  1
  Si  Si17  1  0.250000  0.251029  0.341669  1
  Si  Si18  1  0.750000  0.750446  0.158670  1
  Si  Si19  1  0.750000  0.748923  0.657550  1
  Si  Si20  1  0.250000  0.202182  0.543861  1
  Si  Si21  1  0.250000  0.298140  0.044025  1
  Si  Si22  1  0.750000  0.797657  0.455685  1
  Si  Si23  1  0.750000  0.700031  0.957580  1
  Os  Os24  1  0.250000  0.389147  0.680908  1
  Os  Os25  1  0.250000  0.110905  0.181145  1
  Os  Os26  1  0.750000  0.610960  0.319091  1
  Ru  Ru27  1  0.750000  0.888986  0.818315  1
