# generated using pymatgen
data_Gd9Y(Pb3O)2
_symmetry_space_group_name_H-M   'P 1'
_cell_length_a   9.39445025
_cell_length_b   9.39444911
_cell_length_c   9.39444900
_cell_angle_alpha   127.93567796
_cell_angle_beta   127.93568028
_cell_angle_gamma   76.72925121
_symmetry_Int_Tables_number   1
_chemical_formula_structural   Gd9Y(Pb3O)2
_chemical_formula_sum   'Gd9 Y1 Pb6 O2'
_cell_volume   500.85893355
_cell_formula_units_Z   1
loop_
 _symmetry_equiv_pos_site_id
 _symmetry_equiv_pos_as_xyz
  1  'x, y, z'
loop_
 _atom_site_type_symbol
 _atom_site_label
 _atom_site_symmetry_multiplicity
 _atom_site_fract_x
 _atom_site_fract_y
 _atom_site_fract_z
 _atom_site_occupancy
  Gd  Gd0  1  0.500000  0.500000  0.000000  1
  Gd  Gd1  1  0.500000  0.999456  0.803420  1
  Gd  Gd2  1  0.196036  0.696580  0.196580  1
  Gd  Gd3  1  0.999456  0.196036  0.499455  1
  Gd  Gd4  1  0.696580  0.500000  0.500545  1
  Gd  Gd5  1  0.500000  0.000544  0.196580  1
  Gd  Gd6  1  0.803964  0.303420  0.803420  1
  Gd  Gd7  1  0.000544  0.803964  0.500545  1
  Gd  Gd8  1  0.303420  0.500000  0.499455  1
  Y  Y9  1  0.000000  0.000000  0.000000  1
  Pb  Pb10  1  0.249170  0.249170  0.000000  1
  Pb  Pb11  1  0.750830  0.750830  0.000000  1
  Pb  Pb12  1  0.853991  0.353018  0.207010  1
  Pb  Pb13  1  0.146009  0.646982  0.792991  1
  Pb  Pb14  1  0.353018  0.146009  0.499026  1
  Pb  Pb15  1  0.646982  0.853991  0.500974  1
  O  O16  1  0.250000  0.750000  0.500000  1
  O  O17  1  0.750000  0.250000  0.500000  1
