# generated using pymatgen
data_Ho5ErCoCl10
_symmetry_space_group_name_H-M   'P 1'
_cell_length_a   7.00242119
_cell_length_b   8.61875481
_cell_length_c   8.78287500
_cell_angle_alpha   107.98435233
_cell_angle_beta   97.11740165
_cell_angle_gamma   104.83941474
_symmetry_Int_Tables_number   1
_chemical_formula_structural   Ho5ErCoCl10
_chemical_formula_sum   'Ho5 Er1 Co1 Cl10'
_cell_volume   475.32676274
_cell_formula_units_Z   1
loop_
 _symmetry_equiv_pos_site_id
 _symmetry_equiv_pos_as_xyz
  1  'x, y, z'
loop_
 _atom_site_type_symbol
 _atom_site_label
 _atom_site_symmetry_multiplicity
 _atom_site_fract_x
 _atom_site_fract_y
 _atom_site_fract_z
 _atom_site_occupancy
  Ho  Ho0  1  0.634927  0.862558  0.316687  1
  Ho  Ho1  1  0.364636  0.137467  0.684186  1
  Ho  Ho2  1  0.965800  0.293724  0.588980  1
  Ho  Ho3  1  0.033990  0.705907  0.409865  1
  Ho  Ho4  1  0.872257  0.950149  0.750339  1
  Er  Er5  1  0.127649  0.049821  0.251710  1
  Co  Co6  1  0.999780  0.999710  0.500591  1
  Cl  Cl7  1  0.544825  0.178550  0.415419  1
  Cl  Cl8  1  0.453498  0.820731  0.583234  1
  Cl  Cl9  1  0.214017  0.748178  0.156171  1
  Cl  Cl10  1  0.785167  0.254391  0.842618  1
  Cl  Cl11  1  0.914905  0.628301  0.670448  1
  Cl  Cl12  1  0.086637  0.369491  0.327187  1
  Cl  Cl13  1  0.754508  0.916369  0.044744  1
  Cl  Cl14  1  0.247882  0.084687  0.958566  1
  Cl  Cl15  1  0.656264  0.549352  0.229316  1
  Cl  Cl16  1  0.343260  0.450613  0.769941  1
