# generated using pymatgen
data_La12Pr2Pd5Ru
_symmetry_space_group_name_H-M   'P 1'
_cell_length_a   10.31895802
_cell_length_b   10.31895724
_cell_length_c   6.59578825
_cell_angle_alpha   89.89817732
_cell_angle_beta   90.10181847
_cell_angle_gamma   119.91279580
_symmetry_Int_Tables_number   1
_chemical_formula_structural   La12Pr2Pd5Ru
_chemical_formula_sum   'La12 Pr2 Pd5 Ru1'
_cell_volume   608.76410362
_cell_formula_units_Z   1
loop_
 _symmetry_equiv_pos_site_id
 _symmetry_equiv_pos_as_xyz
  1  'x, y, z'
loop_
 _atom_site_type_symbol
 _atom_site_label
 _atom_site_symmetry_multiplicity
 _atom_site_fract_x
 _atom_site_fract_y
 _atom_site_fract_z
 _atom_site_occupancy
  La  La0  1  0.126897  0.873103  0.242418  1
  La  La1  1  0.751688  0.886205  0.241398  1
  La  La2  1  0.113795  0.248312  0.241398  1
  La  La3  1  0.872724  0.127276  0.751727  1
  La  La4  1  0.253555  0.125906  0.743347  1
  La  La5  1  0.874094  0.746445  0.743347  1
  La  La6  1  0.537174  0.462826  0.444842  1
  La  La7  1  0.918352  0.452378  0.436838  1
  La  La8  1  0.547622  0.081648  0.436838  1
  La  La9  1  0.462782  0.537218  0.945979  1
  La  La10  1  0.076036  0.535917  0.941635  1
  La  La11  1  0.464083  0.923964  0.941635  1
  Pr  Pr12  1  0.333684  0.666316  0.451537  1
  Pr  Pr13  1  0.669122  0.330878  0.961053  1
  Pd  Pd14  1  0.373616  0.188860  0.192774  1
  Pd  Pd15  1  0.811140  0.626384  0.192774  1
  Pd  Pd16  1  0.188149  0.811851  0.692994  1
  Pd  Pd17  1  0.623660  0.810814  0.693211  1
  Pd  Pd18  1  0.189186  0.376340  0.693211  1
  Ru  Ru19  1  0.812643  0.187357  0.196832  1
