# generated using pymatgen
data_YbMgPa7Pt8Pb3
_symmetry_space_group_name_H-M   'P 1'
_cell_length_a   7.89073498
_cell_length_b   7.89836020
_cell_length_c   7.30376624
_cell_angle_alpha   89.98283063
_cell_angle_beta   90.00352837
_cell_angle_gamma   90.28205815
_symmetry_Int_Tables_number   1
_chemical_formula_structural   YbMgPa7Pt8Pb3
_chemical_formula_sum   'Yb1 Mg1 Pa7 Pt8 Pb3'
_cell_volume   455.19341900
_cell_formula_units_Z   1
loop_
 _symmetry_equiv_pos_site_id
 _symmetry_equiv_pos_as_xyz
  1  'x, y, z'
loop_
 _atom_site_type_symbol
 _atom_site_label
 _atom_site_symmetry_multiplicity
 _atom_site_fract_x
 _atom_site_fract_y
 _atom_site_fract_z
 _atom_site_occupancy
  Yb  Yb0  1  0.177505  0.823948  0.501211  1
  Mg  Mg1  1  0.495670  0.997681  0.746934  1
  Pa  Pa2  1  0.678608  0.678574  0.999982  1
  Pa  Pa3  1  0.336505  0.334360  0.500884  1
  Pa  Pa4  1  0.823184  0.176106  0.498908  1
  Pa  Pa5  1  0.660754  0.666191  0.499751  1
  Pa  Pa6  1  0.323553  0.319327  0.000210  1
  Pa  Pa7  1  0.836161  0.160770  0.998530  1
  Pa  Pa8  1  0.167677  0.835337  0.998863  1
  Pt  Pt9  1  0.853592  0.882222  0.738291  1
  Pt  Pt10  1  0.135966  0.127252  0.742472  1
  Pt  Pt11  1  0.623326  0.356504  0.763272  1
  Pt  Pt12  1  0.633148  0.367511  0.233343  1
  Pt  Pt13  1  0.377053  0.622111  0.229208  1
  Pt  Pt14  1  0.126413  0.133214  0.259919  1
  Pt  Pt15  1  0.867112  0.873846  0.259504  1
  Pt  Pt16  1  0.385407  0.633674  0.770545  1
  Pb  Pb17  1  0.493031  0.997297  0.257439  1
  Pb  Pb18  1  0.002575  0.506580  0.746265  1
  Pb  Pb19  1  0.002758  0.507498  0.254473  1
