# generated using pymatgen
data_ScTc6SbO24
_symmetry_space_group_name_H-M   'P 1'
_cell_length_a   10.40149860
_cell_length_b   10.40149804
_cell_length_c   10.40149800
_cell_angle_alpha   49.08374859
_cell_angle_beta   49.08375857
_cell_angle_gamma   49.08375745
_symmetry_Int_Tables_number   1
_chemical_formula_structural   ScTc6SbO24
_chemical_formula_sum   'Sc1 Tc6 Sb1 O24'
_cell_volume   590.14789491
_cell_formula_units_Z   1
loop_
 _symmetry_equiv_pos_site_id
 _symmetry_equiv_pos_as_xyz
  1  'x, y, z'
loop_
 _atom_site_type_symbol
 _atom_site_label
 _atom_site_symmetry_multiplicity
 _atom_site_fract_x
 _atom_site_fract_y
 _atom_site_fract_z
 _atom_site_occupancy
  Sc  Sc0  1  0.000000  0.000000  0.000000  1
  Tc  Tc1  1  0.557055  0.931270  0.256475  1
  Tc  Tc2  1  0.256475  0.557055  0.931270  1
  Tc  Tc3  1  0.931270  0.256475  0.557055  1
  Tc  Tc4  1  0.743525  0.442945  0.068730  1
  Tc  Tc5  1  0.068730  0.743525  0.442945  1
  Tc  Tc6  1  0.442945  0.068730  0.743525  1
  Sb  Sb7  1  0.500000  0.500000  0.500000  1
  O  O8  1  0.755149  0.969181  0.146825  1
  O  O9  1  0.146825  0.755149  0.969181  1
  O  O10  1  0.969181  0.146825  0.755149  1
  O  O11  1  0.697461  0.370126  0.300603  1
  O  O12  1  0.300603  0.697461  0.370126  1
  O  O13  1  0.370126  0.300603  0.697461  1
  O  O14  1  0.244851  0.030819  0.853175  1
  O  O15  1  0.853175  0.244851  0.030819  1
  O  O16  1  0.030819  0.853175  0.244851  1
  O  O17  1  0.302539  0.629874  0.699397  1
  O  O18  1  0.699397  0.302539  0.629874  1
  O  O19  1  0.629874  0.699397  0.302539  1
  O  O20  1  0.416539  0.960264  0.460601  1
  O  O21  1  0.460601  0.416539  0.960264  1
  O  O22  1  0.960264  0.460601  0.416539  1
  O  O23  1  0.883882  0.559931  0.919180  1
  O  O24  1  0.919180  0.883882  0.559931  1
  O  O25  1  0.559931  0.919180  0.883882  1
  O  O26  1  0.583461  0.039736  0.539399  1
  O  O27  1  0.539399  0.583461  0.039736  1
  O  O28  1  0.039736  0.539399  0.583461  1
  O  O29  1  0.116118  0.440069  0.080820  1
  O  O30  1  0.080820  0.116118  0.440069  1
  O  O31  1  0.440069  0.080820  0.116118  1
