# generated using pymatgen
data_HfZr3GaSn3Mo
_symmetry_space_group_name_H-M   'P 1'
_cell_length_a   8.61135200
_cell_length_b   8.61135149
_cell_length_c   5.75544800
_cell_angle_alpha   90.00000000
_cell_angle_beta   90.00000000
_cell_angle_gamma   120.00000197
_symmetry_Int_Tables_number   1
_chemical_formula_structural   HfZr3GaSn3Mo
_chemical_formula_sum   'Hf2 Zr6 Ga2 Sn6 Mo2'
_cell_volume   369.61740659
_cell_formula_units_Z   2
loop_
 _symmetry_equiv_pos_site_id
 _symmetry_equiv_pos_as_xyz
  1  'x, y, z'
loop_
 _atom_site_type_symbol
 _atom_site_label
 _atom_site_symmetry_multiplicity
 _atom_site_fract_x
 _atom_site_fract_y
 _atom_site_fract_z
 _atom_site_occupancy
  Hf  Hf0  1  0.333333  0.666667  0.500000  1
  Hf  Hf1  1  0.666667  0.333333  0.500000  1
  Zr  Zr2  1  0.731893  0.731893  0.743903  1
  Zr  Zr3  1  0.268107  0.000000  0.743903  1
  Zr  Zr4  1  0.000000  0.268107  0.743903  1
  Zr  Zr5  1  0.268107  0.268107  0.256097  1
  Zr  Zr6  1  0.731893  0.000000  0.256097  1
  Zr  Zr7  1  0.000000  0.731893  0.256097  1
  Ga  Ga8  1  0.000000  0.000000  0.000000  1
  Ga  Ga9  1  0.000000  0.000000  0.500000  1
  Sn  Sn10  1  0.391148  0.391148  0.760867  1
  Sn  Sn11  1  0.608852  0.000000  0.760867  1
  Sn  Sn12  1  0.000000  0.608852  0.760867  1
  Sn  Sn13  1  0.608852  0.608852  0.239133  1
  Sn  Sn14  1  0.391148  0.000000  0.239133  1
  Sn  Sn15  1  0.000000  0.391148  0.239133  1
  Mo  Mo16  1  0.666667  0.333333  0.000000  1
  Mo  Mo17  1  0.333333  0.666667  0.000000  1
