# generated using pymatgen
data_Er8ReTc3C8
_symmetry_space_group_name_H-M   'P 1'
_cell_length_a   5.04805900
_cell_length_b   6.52988214
_cell_length_c   9.79400921
_cell_angle_alpha   89.97638419
_cell_angle_beta   90.00000000
_cell_angle_gamma   90.00000000
_symmetry_Int_Tables_number   1
_chemical_formula_structural   Er8ReTc3C8
_chemical_formula_sum   'Er8 Re1 Tc3 C8'
_cell_volume   322.84215365
_cell_formula_units_Z   1
loop_
 _symmetry_equiv_pos_site_id
 _symmetry_equiv_pos_as_xyz
  1  'x, y, z'
loop_
 _atom_site_type_symbol
 _atom_site_label
 _atom_site_symmetry_multiplicity
 _atom_site_fract_x
 _atom_site_fract_y
 _atom_site_fract_z
 _atom_site_occupancy
  Er  Er0  1  0.750000  0.533271  0.783180  1
  Er  Er1  1  0.250000  0.966107  0.283001  1
  Er  Er2  1  0.750000  0.676570  0.442379  1
  Er  Er3  1  0.250000  0.822653  0.941988  1
  Er  Er4  1  0.750000  0.178107  0.058435  1
  Er  Er5  1  0.250000  0.323086  0.558244  1
  Er  Er6  1  0.250000  0.465804  0.217195  1
  Er  Er7  1  0.750000  0.033514  0.717033  1
  Re  Re8  1  0.750000  0.717842  0.132076  1
  Tc  Tc9  1  0.250000  0.282360  0.867969  1
  Tc  Tc10  1  0.250000  0.782545  0.632139  1
  Tc  Tc11  1  0.750000  0.218062  0.368233  1
  C  C12  1  0.250000  0.675656  0.448611  1
  C  C13  1  0.250000  0.549919  0.758363  1
  C  C14  1  0.750000  0.451280  0.240730  1
  C  C15  1  0.750000  0.824037  0.947643  1
  C  C16  1  0.250000  0.049684  0.741765  1
  C  C17  1  0.250000  0.175263  0.051499  1
  C  C18  1  0.750000  0.324321  0.551515  1
  C  C19  1  0.750000  0.949920  0.258001  1
