# generated using pymatgen
data_Sm9Pa9(AlRh8)2
_symmetry_space_group_name_H-M   'P 1'
_cell_length_a   7.39195603
_cell_length_b   7.48532185
_cell_length_c   14.37235800
_cell_angle_alpha   90.00000000
_cell_angle_beta   90.00000000
_cell_angle_gamma   89.81710920
_symmetry_Int_Tables_number   1
_chemical_formula_structural   Sm9Pa9(AlRh8)2
_chemical_formula_sum   'Sm9 Pa9 Al2 Rh16'
_cell_volume   795.23533297
_cell_formula_units_Z   1
loop_
 _symmetry_equiv_pos_site_id
 _symmetry_equiv_pos_as_xyz
  1  'x, y, z'
loop_
 _atom_site_type_symbol
 _atom_site_label
 _atom_site_symmetry_multiplicity
 _atom_site_fract_x
 _atom_site_fract_y
 _atom_site_fract_z
 _atom_site_occupancy
  Sm  Sm0  1  0.501251  0.674830  0.589178  1
  Sm  Sm1  1  0.002269  0.824645  0.912747  1
  Sm  Sm2  1  0.495467  0.323463  0.111339  1
  Sm  Sm3  1  0.995192  0.178127  0.389112  1
  Sm  Sm4  1  0.495467  0.323463  0.388661  1
  Sm  Sm5  1  0.995192  0.178127  0.110888  1
  Sm  Sm6  1  0.501251  0.674830  0.910822  1
  Sm  Sm7  1  0.002269  0.824645  0.587253  1
  Sm  Sm8  1  0.309789  0.970201  0.750000  1
  Pa  Pa9  1  0.654050  0.159700  0.614830  1
  Pa  Pa10  1  0.157339  0.335823  0.884702  1
  Pa  Pa11  1  0.347510  0.837908  0.127065  1
  Pa  Pa12  1  0.848103  0.661974  0.372833  1
  Pa  Pa13  1  0.347510  0.837908  0.372935  1
  Pa  Pa14  1  0.848103  0.661974  0.127167  1
  Pa  Pa15  1  0.654050  0.159700  0.885170  1
  Pa  Pa16  1  0.157339  0.335823  0.615298  1
  Pa  Pa17  1  0.807608  0.528999  0.750000  1
  Al  Al18  1  0.182171  0.491759  0.250000  1
  Al  Al19  1  0.683110  0.011271  0.250000  1
  Rh  Rh20  1  0.683718  0.951193  0.459267  1
  Rh  Rh21  1  0.183306  0.547453  0.041927  1
  Rh  Rh22  1  0.322015  0.059056  0.966434  1
  Rh  Rh23  1  0.822932  0.448140  0.539194  1
  Rh  Rh24  1  0.322015  0.059056  0.533566  1
  Rh  Rh25  1  0.822932  0.448140  0.960806  1
  Rh  Rh26  1  0.683718  0.951193  0.040733  1
  Rh  Rh27  1  0.183306  0.547453  0.458073  1
  Rh  Rh28  1  0.464212  0.362474  0.750000  1
  Rh  Rh29  1  0.942112  0.159279  0.750000  1
  Rh  Rh30  1  0.535664  0.640994  0.250000  1
  Rh  Rh31  1  0.035107  0.859837  0.250000  1
  Rh  Rh32  1  0.704652  0.861927  0.750000  1
  Rh  Rh33  1  0.165325  0.608849  0.750000  1
  Rh  Rh34  1  0.322037  0.109063  0.250000  1
  Rh  Rh35  1  0.821910  0.390724  0.250000  1
