# generated using pymatgen
data_TaTi2Nb3(B2Ru5)2
_symmetry_space_group_name_H-M   'P 1'
_cell_length_a   9.36889091
_cell_length_b   9.36889041
_cell_length_c   3.01466800
_cell_angle_alpha   90.00000000
_cell_angle_beta   90.00000000
_cell_angle_gamma   89.93776809
_symmetry_Int_Tables_number   1
_chemical_formula_structural   TaTi2Nb3(B2Ru5)2
_chemical_formula_sum   'Ta1 Ti2 Nb3 B4 Ru10'
_cell_volume   264.61568038
_cell_formula_units_Z   1
loop_
 _symmetry_equiv_pos_site_id
 _symmetry_equiv_pos_as_xyz
  1  'x, y, z'
loop_
 _atom_site_type_symbol
 _atom_site_label
 _atom_site_symmetry_multiplicity
 _atom_site_fract_x
 _atom_site_fract_y
 _atom_site_fract_z
 _atom_site_occupancy
  Ta  Ta0  1  0.822520  0.677480  0.000000  1
  Ti  Ti1  1  0.499848  0.499756  0.000000  1
  Ti  Ti2  1  0.000244  0.000152  0.000000  1
  Nb  Nb3  1  0.176784  0.323216  0.000000  1
  Nb  Nb4  1  0.322760  0.822568  0.000000  1
  Nb  Nb5  1  0.677432  0.177240  0.000000  1
  B  B6  1  0.623607  0.876393  0.000000  1
  B  B7  1  0.376592  0.123408  0.000000  1
  B  B8  1  0.123345  0.623732  0.000000  1
  B  B9  1  0.876268  0.376655  0.000000  1
  Ru  Ru10  1  0.571341  0.715237  0.500000  1
  Ru  Ru11  1  0.429992  0.283762  0.500000  1
  Ru  Ru12  1  0.069681  0.784259  0.500000  1
  Ru  Ru13  1  0.930024  0.216279  0.500000  1
  Ru  Ru14  1  0.283721  0.569976  0.500000  1
  Ru  Ru15  1  0.715741  0.430319  0.500000  1
  Ru  Ru16  1  0.216238  0.070008  0.500000  1
  Ru  Ru17  1  0.784763  0.928659  0.500000  1
  Ru  Ru18  1  0.500398  0.999602  0.500000  1
  Ru  Ru19  1  0.998700  0.501300  0.500000  1
