# generated using pymatgen
data_PrScPa2(Al3Rh)6
_symmetry_space_group_name_H-M   'P 1'
_cell_length_a   7.60230241
_cell_length_b   7.60871682
_cell_length_c   9.38241500
_cell_angle_alpha   90.00000000
_cell_angle_beta   90.00000000
_cell_angle_gamma   119.60706989
_symmetry_Int_Tables_number   1
_chemical_formula_structural   PrScPa2(Al3Rh)6
_chemical_formula_sum   'Pr1 Sc1 Pa2 Al18 Rh6'
_cell_volume   471.85418088
_cell_formula_units_Z   1
loop_
 _symmetry_equiv_pos_site_id
 _symmetry_equiv_pos_as_xyz
  1  'x, y, z'
loop_
 _atom_site_type_symbol
 _atom_site_label
 _atom_site_symmetry_multiplicity
 _atom_site_fract_x
 _atom_site_fract_y
 _atom_site_fract_z
 _atom_site_occupancy
  Pr  Pr0  1  0.330787  0.006647  0.250000  1
  Sc  Sc1  1  0.671448  0.993385  0.750000  1
  Pa  Pa2  1  0.997800  0.672089  0.750000  1
  Pa  Pa3  1  0.002645  0.328592  0.250000  1
  Al  Al4  1  0.126292  0.124957  0.750000  1
  Al  Al5  1  0.865437  0.872579  0.250000  1
  Al  Al6  1  0.995785  0.328510  0.581366  1
  Al  Al7  1  0.997123  0.665432  0.425070  1
  Al  Al8  1  0.997123  0.665432  0.074930  1
  Al  Al9  1  0.342795  0.002954  0.918207  1
  Al  Al10  1  0.995785  0.328510  0.918634  1
  Al  Al11  1  0.664515  0.997555  0.068235  1
  Al  Al12  1  0.664515  0.997555  0.431765  1
  Al  Al13  1  0.342795  0.002954  0.581793  1
  Al  Al14  1  0.334483  0.334759  0.046787  1
  Al  Al15  1  0.665524  0.669812  0.943152  1
  Al  Al16  1  0.665524  0.669812  0.556848  1
  Al  Al17  1  0.334483  0.334759  0.453213  1
  Al  Al18  1  0.342856  0.554068  0.750000  1
  Al  Al19  1  0.662010  0.454234  0.250000  1
  Al  Al20  1  0.552500  0.342538  0.750000  1
  Al  Al21  1  0.450856  0.655893  0.250000  1
  Rh  Rh22  1  0.675633  0.330208  0.501177  1
  Rh  Rh23  1  0.324438  0.669954  0.502032  1
  Rh  Rh24  1  0.324438  0.669954  0.997968  1
  Rh  Rh25  1  0.675633  0.330208  0.998823  1
  Rh  Rh26  1  0.998389  0.998323  0.502179  1
  Rh  Rh27  1  0.998389  0.998323  0.997821  1
