# generated using pymatgen
data_Tm13Th3(AlIr)4
_symmetry_space_group_name_H-M   'P 1'
_cell_length_a   9.54791062
_cell_length_b   9.55230202
_cell_length_c   9.55230200
_cell_angle_alpha   60.00000008
_cell_angle_beta   59.98478444
_cell_angle_gamma   59.98477686
_symmetry_Int_Tables_number   1
_chemical_formula_structural   Tm13Th3(AlIr)4
_chemical_formula_sum   'Tm13 Th3 Al4 Ir4'
_cell_volume   615.89899242
_cell_formula_units_Z   1
loop_
 _symmetry_equiv_pos_site_id
 _symmetry_equiv_pos_as_xyz
  1  'x, y, z'
loop_
 _atom_site_type_symbol
 _atom_site_label
 _atom_site_symmetry_multiplicity
 _atom_site_fract_x
 _atom_site_fract_y
 _atom_site_fract_z
 _atom_site_occupancy
  Tm  Tm0  1  0.191477  0.602841  0.602841  1
  Tm  Tm1  1  0.059556  0.441903  0.441903  1
  Tm  Tm2  1  0.440060  0.060114  0.060114  1
  Tm  Tm3  1  0.440060  0.060114  0.439710  1
  Tm  Tm4  1  0.059556  0.441903  0.056636  1
  Tm  Tm5  1  0.440060  0.439710  0.060114  1
  Tm  Tm6  1  0.059556  0.056636  0.441903  1
  Tm  Tm7  1  0.186133  0.813113  0.813113  1
  Tm  Tm8  1  0.815058  0.184858  0.184858  1
  Tm  Tm9  1  0.815058  0.184858  0.815226  1
  Tm  Tm10  1  0.186133  0.813113  0.187640  1
  Tm  Tm11  1  0.815058  0.815226  0.184858  1
  Tm  Tm12  1  0.186133  0.187640  0.813113  1
  Th  Th13  1  0.600056  0.601548  0.601548  1
  Th  Th14  1  0.600056  0.601548  0.196849  1
  Th  Th15  1  0.600056  0.196849  0.601548  1
  Al  Al16  1  0.832349  0.828902  0.828902  1
  Al  Al17  1  0.832349  0.828902  0.509846  1
  Al  Al18  1  0.832349  0.509846  0.828902  1
  Al  Al19  1  0.509594  0.830135  0.830135  1
  Ir  Ir20  1  0.391504  0.391987  0.391987  1
  Ir  Ir21  1  0.391504  0.391987  0.824521  1
  Ir  Ir22  1  0.391504  0.824521  0.391987  1
  Ir  Ir23  1  0.824773  0.391742  0.391742  1
