# generated using pymatgen
data_AcHf2BiO7
_symmetry_space_group_name_H-M   'P 1'
_cell_length_a   7.66077881
_cell_length_b   7.64963471
_cell_length_c   7.67671000
_cell_angle_alpha   59.33059468
_cell_angle_beta   60.57645008
_cell_angle_gamma   89.81824061
_symmetry_Int_Tables_number   1
_chemical_formula_structural   AcHf2BiO7
_chemical_formula_sum   'Ac2 Hf4 Bi2 O14'
_cell_volume   318.12528236
_cell_formula_units_Z   2
loop_
 _symmetry_equiv_pos_site_id
 _symmetry_equiv_pos_as_xyz
  1  'x, y, z'
loop_
 _atom_site_type_symbol
 _atom_site_label
 _atom_site_symmetry_multiplicity
 _atom_site_fract_x
 _atom_site_fract_y
 _atom_site_fract_z
 _atom_site_occupancy
  Ac  Ac0  1  0.631429  0.389452  0.748956  1
  Ac  Ac1  1  0.116147  0.383759  0.237649  1
  Hf  Hf2  1  0.625229  0.879772  0.250745  1
  Hf  Hf3  1  0.122034  0.873826  0.747073  1
  Hf  Hf4  1  0.120773  0.879558  0.245700  1
  Hf  Hf5  1  0.122740  0.379360  0.748984  1
  Bi  Bi6  1  0.638602  0.874214  0.791806  1
  Bi  Bi7  1  0.566072  0.337195  0.315510  1
  O  O8  1  0.807422  0.200511  0.986194  1
  O  O9  1  0.498845  0.500211  0.022974  1
  O  O10  1  0.211420  0.210066  0.584797  1
  O  O11  1  0.452555  0.947138  0.087070  1
  O  O12  1  0.207411  0.210072  0.995688  1
  O  O13  1  0.442703  0.972779  0.472157  1
  O  O14  1  0.457388  0.545822  0.489447  1
  O  O15  1  0.033050  0.954328  0.501935  1
  O  O16  1  0.734613  0.236157  0.520822  1
  O  O17  1  0.048852  0.552819  0.496134  1
  O  O18  1  0.801086  0.820994  0.980722  1
  O  O19  1  0.069753  0.560202  0.880624  1
  O  O20  1  0.800013  0.796945  0.392559  1
  O  O21  1  0.184867  0.801820  0.002452  1
