# generated using pymatgen
data_Tb4Dy6Ho2Co5Sn
_symmetry_space_group_name_H-M   'P 1'
_cell_length_a   8.28765920
_cell_length_b   8.28765751
_cell_length_c   8.28765892
_cell_angle_alpha   107.05701280
_cell_angle_beta   110.69391010
_cell_angle_gamma   110.68938698
_symmetry_Int_Tables_number   1
_chemical_formula_structural   Tb4Dy6Ho2Co5Sn
_chemical_formula_sum   'Tb4 Dy6 Ho2 Co5 Sn1'
_cell_volume   437.62083827
_cell_formula_units_Z   1
loop_
 _symmetry_equiv_pos_site_id
 _symmetry_equiv_pos_as_xyz
  1  'x, y, z'
loop_
 _atom_site_type_symbol
 _atom_site_label
 _atom_site_symmetry_multiplicity
 _atom_site_fract_x
 _atom_site_fract_y
 _atom_site_fract_z
 _atom_site_occupancy
  Tb  Tb0  1  0.478442  0.292216  0.186226  1
  Tb  Tb1  1  0.105990  0.292216  0.813774  1
  Tb  Tb2  1  0.894342  0.707843  0.186499  1
  Tb  Tb3  1  0.521344  0.707843  0.813501  1
  Dy  Dy4  1  0.693014  0.379028  0.686014  1
  Dy  Dy5  1  0.693014  0.006999  0.313986  1
  Dy  Dy6  1  0.191960  0.207763  0.399737  1
  Dy  Dy7  1  0.808026  0.792223  0.600263  1
  Dy  Dy8  1  0.191960  0.792223  0.984196  1
  Dy  Dy9  1  0.808026  0.207763  0.015804  1
  Ho  Ho10  1  0.307087  0.621285  0.314199  1
  Ho  Ho11  1  0.307087  0.992889  0.685801  1
  Co  Co12  1  0.499938  0.612339  0.112402  1
  Co  Co13  1  0.499938  0.387536  0.887598  1
  Co  Co14  1  0.377366  0.999847  0.377518  1
  Co  Co15  1  0.622329  0.999847  0.622482  1
  Co  Co16  1  0.999982  0.999982  0.000000  1
  Sn  Sn17  1  0.000158  0.500158  0.500000  1
