# generated using pymatgen
data_Tm12InGaCu4
_symmetry_space_group_name_H-M   'P 1'
_cell_length_a   8.34029658
_cell_length_b   8.34029631
_cell_length_c   8.34029700
_cell_angle_alpha   112.00628328
_cell_angle_beta   110.43532278
_cell_angle_gamma   106.03008938
_symmetry_Int_Tables_number   1
_chemical_formula_structural   Tm12InGaCu4
_chemical_formula_sum   'Tm12 In1 Ga1 Cu4'
_cell_volume   445.31568993
_cell_formula_units_Z   1
loop_
 _symmetry_equiv_pos_site_id
 _symmetry_equiv_pos_as_xyz
  1  'x, y, z'
loop_
 _atom_site_type_symbol
 _atom_site_label
 _atom_site_symmetry_multiplicity
 _atom_site_fract_x
 _atom_site_fract_y
 _atom_site_fract_z
 _atom_site_occupancy
  Tm  Tm0  1  0.429534  0.232673  0.196860  1
  Tm  Tm1  1  0.570466  0.767327  0.803140  1
  Tm  Tm2  1  0.035814  0.232673  0.803140  1
  Tm  Tm3  1  0.964186  0.767327  0.196860  1
  Tm  Tm4  1  0.183382  0.278180  0.461562  1
  Tm  Tm5  1  0.816618  0.721820  0.538438  1
  Tm  Tm6  1  0.183382  0.721820  0.905203  1
  Tm  Tm7  1  0.816618  0.278180  0.094797  1
  Tm  Tm8  1  0.321468  0.622135  0.300669  1
  Tm  Tm9  1  0.678532  0.377865  0.699331  1
  Tm  Tm10  1  0.321468  0.020799  0.699331  1
  Tm  Tm11  1  0.678532  0.979201  0.300669  1
  In  In12  1  0.500000  0.500000  0.000000  1
  Ga  Ga13  1  0.000000  0.000000  0.000000  1
  Cu  Cu14  1  0.356619  0.000000  0.356619  1
  Cu  Cu15  1  0.643381  0.000000  0.643381  1
  Cu  Cu16  1  0.121118  0.621118  0.500000  1
  Cu  Cu17  1  0.878882  0.378882  0.500000  1
