# generated using pymatgen
data_BaNa2CdSb2
_symmetry_space_group_name_H-M   'P 1'
_cell_length_a   5.00406700
_cell_length_b   8.40746500
_cell_length_c   9.23916300
_cell_angle_alpha   90.00000000
_cell_angle_beta   90.00000000
_cell_angle_gamma   90.00000000
_symmetry_Int_Tables_number   1
_chemical_formula_structural   BaNa2CdSb2
_chemical_formula_sum   'Ba2 Na4 Cd2 Sb4'
_cell_volume   388.70561394
_cell_formula_units_Z   2
loop_
 _symmetry_equiv_pos_site_id
 _symmetry_equiv_pos_as_xyz
  1  'x, y, z'
loop_
 _atom_site_type_symbol
 _atom_site_label
 _atom_site_symmetry_multiplicity
 _atom_site_fract_x
 _atom_site_fract_y
 _atom_site_fract_z
 _atom_site_occupancy
  Ba  Ba0  1  0.000000  0.997925  0.057325  1
  Ba  Ba1  1  0.000000  0.497925  0.942675  1
  Na  Na2  1  0.500000  0.022750  0.421389  1
  Na  Na3  1  0.000000  0.354202  0.339825  1
  Na  Na4  1  0.500000  0.522750  0.578611  1
  Na  Na5  1  0.000000  0.854202  0.660175  1
  Cd  Cd6  1  0.500000  0.154203  0.813449  1
  Cd  Cd7  1  0.500000  0.654203  0.186551  1
  Sb  Sb8  1  0.000000  0.230812  0.656632  1
  Sb  Sb9  1  0.500000  0.285709  0.133494  1
  Sb  Sb10  1  0.000000  0.730812  0.343368  1
  Sb  Sb11  1  0.500000  0.785709  0.866506  1
