# generated using pymatgen
data_Cd2IrPd3(PbO7)2
_symmetry_space_group_name_H-M   'P 1'
_cell_length_a   7.28557686
_cell_length_b   7.16665767
_cell_length_c   7.25587679
_cell_angle_alpha   60.40591905
_cell_angle_beta   60.79709256
_cell_angle_gamma   60.53847589
_symmetry_Int_Tables_number   1
_chemical_formula_structural   Cd2IrPd3(PbO7)2
_chemical_formula_sum   'Cd2 Ir1 Pd3 Pb2 O14'
_cell_volume   271.39557302
_cell_formula_units_Z   1
loop_
 _symmetry_equiv_pos_site_id
 _symmetry_equiv_pos_as_xyz
  1  'x, y, z'
loop_
 _atom_site_type_symbol
 _atom_site_label
 _atom_site_symmetry_multiplicity
 _atom_site_fract_x
 _atom_site_fract_y
 _atom_site_fract_z
 _atom_site_occupancy
  Cd  Cd0  1  0.125000  0.625000  0.125000  1
  Cd  Cd1  1  0.125000  0.125000  0.125000  1
  Ir  Ir2  1  0.125000  0.625000  0.625000  1
  Pd  Pd3  1  0.625000  0.125000  0.625000  1
  Pd  Pd4  1  0.625000  0.625000  0.125000  1
  Pd  Pd5  1  0.625000  0.625000  0.625000  1
  Pb  Pb6  1  0.625000  0.125000  0.125000  1
  Pb  Pb7  1  0.125000  0.125000  0.625000  1
  O  O8  1  0.712064  0.712849  0.288599  1
  O  O9  1  0.290278  0.294204  0.702968  1
  O  O10  1  0.710409  0.289426  0.710739  1
  O  O11  1  0.290583  0.702844  0.303730  1
  O  O12  1  0.290278  0.712552  0.702968  1
  O  O13  1  0.712064  0.286489  0.288599  1
  O  O14  1  0.537936  0.537151  0.961401  1
  O  O15  1  0.959722  0.955796  0.547032  1
  O  O16  1  0.539591  0.960574  0.539261  1
  O  O17  1  0.959417  0.547156  0.946270  1
  O  O18  1  0.959722  0.537448  0.547032  1
  O  O19  1  0.537936  0.963511  0.961401  1
  O  O20  1  0.259230  0.245320  0.250131  1
  O  O21  1  0.990770  0.004680  0.999869  1
