# generated using pymatgen
data_Dy6Tm4Si5Sn
_symmetry_space_group_name_H-M   'P 1'
_cell_length_a   8.50805800
_cell_length_b   8.50805698
_cell_length_c   6.33269900
_cell_angle_alpha   90.00000000
_cell_angle_beta   90.00000000
_cell_angle_gamma   120.18071061
_symmetry_Int_Tables_number   1
_chemical_formula_structural   Dy6Tm4Si5Sn
_chemical_formula_sum   'Dy6 Tm4 Si5 Sn1'
_cell_volume   396.26580102
_cell_formula_units_Z   1
loop_
 _symmetry_equiv_pos_site_id
 _symmetry_equiv_pos_as_xyz
  1  'x, y, z'
loop_
 _atom_site_type_symbol
 _atom_site_label
 _atom_site_symmetry_multiplicity
 _atom_site_fract_x
 _atom_site_fract_y
 _atom_site_fract_z
 _atom_site_occupancy
  Dy  Dy0  1  0.765077  0.765077  0.250000  1
  Dy  Dy1  1  0.240769  0.989478  0.250000  1
  Dy  Dy2  1  0.989478  0.240769  0.250000  1
  Dy  Dy3  1  0.241274  0.241274  0.750000  1
  Dy  Dy4  1  0.755848  0.998707  0.750000  1
  Dy  Dy5  1  0.998707  0.755848  0.750000  1
  Tm  Tm6  1  0.673682  0.331518  0.502934  1
  Tm  Tm7  1  0.331518  0.673682  0.502934  1
  Tm  Tm8  1  0.331518  0.673682  0.997066  1
  Tm  Tm9  1  0.673682  0.331518  0.997066  1
  Si  Si10  1  0.603555  0.998574  0.250000  1
  Si  Si11  1  0.998574  0.603555  0.250000  1
  Si  Si12  1  0.604993  0.604993  0.750000  1
  Si  Si13  1  0.394377  0.001418  0.750000  1
  Si  Si14  1  0.001418  0.394377  0.750000  1
  Sn  Sn15  1  0.395530  0.395530  0.250000  1
