# generated using pymatgen
data_Tb2MnCo8P6Os
_symmetry_space_group_name_H-M   'P 1'
_cell_length_a   3.69340300
_cell_length_b   10.34889800
_cell_length_c   11.80507500
_cell_angle_alpha   90.00000000
_cell_angle_beta   90.00000000
_cell_angle_gamma   90.00000000
_symmetry_Int_Tables_number   1
_chemical_formula_structural   Tb2MnCo8P6Os
_chemical_formula_sum   'Tb4 Mn2 Co16 P12 Os2'
_cell_volume   451.22126081
_cell_formula_units_Z   2
loop_
 _symmetry_equiv_pos_site_id
 _symmetry_equiv_pos_as_xyz
  1  'x, y, z'
loop_
 _atom_site_type_symbol
 _atom_site_label
 _atom_site_symmetry_multiplicity
 _atom_site_fract_x
 _atom_site_fract_y
 _atom_site_fract_z
 _atom_site_occupancy
  Tb  Tb0  1  0.250000  0.581712  0.702693  1
  Tb  Tb1  1  0.250000  0.918288  0.202693  1
  Tb  Tb2  1  0.750000  0.414589  0.294873  1
  Tb  Tb3  1  0.750000  0.085411  0.794873  1
  Mn  Mn4  1  0.750000  0.289094  0.013001  1
  Mn  Mn5  1  0.750000  0.210906  0.513001  1
  Co  Co6  1  0.250000  0.406172  0.486699  1
  Co  Co7  1  0.250000  0.093828  0.986699  1
  Co  Co8  1  0.750000  0.593581  0.510360  1
  Co  Co9  1  0.750000  0.906419  0.010360  1
  Co  Co10  1  0.250000  0.220398  0.176612  1
  Co  Co11  1  0.250000  0.279602  0.676612  1
  Co  Co12  1  0.750000  0.778197  0.823316  1
  Co  Co13  1  0.750000  0.721803  0.323316  1
  Co  Co14  1  0.250000  0.886406  0.701591  1
  Co  Co15  1  0.250000  0.613594  0.201591  1
  Co  Co16  1  0.750000  0.116083  0.300861  1
  Co  Co17  1  0.750000  0.383917  0.800861  1
  Co  Co18  1  0.250000  0.466014  0.933014  1
  Co  Co19  1  0.250000  0.033986  0.433014  1
  Co  Co20  1  0.750000  0.535536  0.067869  1
  Co  Co21  1  0.750000  0.964464  0.567869  1
  P  P22  1  0.250000  0.416620  0.112089  1
  P  P23  1  0.250000  0.083380  0.612089  1
  P  P24  1  0.750000  0.578591  0.886355  1
  P  P25  1  0.750000  0.921409  0.386355  1
  P  P26  1  0.250000  0.271482  0.867657  1
  P  P27  1  0.250000  0.228518  0.367657  1
  P  P28  1  0.750000  0.729735  0.133527  1
  P  P29  1  0.750000  0.770265  0.633527  1
  P  P30  1  0.250000  0.595467  0.390626  1
  P  P31  1  0.250000  0.904533  0.890626  1
  P  P32  1  0.750000  0.398525  0.607920  1
  P  P33  1  0.750000  0.101475  0.107920  1
  Os  Os34  1  0.250000  0.712432  0.990937  1
  Os  Os35  1  0.250000  0.787568  0.490937  1
