# generated using pymatgen
data_Y3ErTm6(In2Pt)4
_symmetry_space_group_name_H-M   'P 1'
_cell_length_a   3.59525800
_cell_length_b   8.13471678
_cell_length_c   18.16531351
_cell_angle_alpha   89.80704067
_cell_angle_beta   90.00000000
_cell_angle_gamma   90.00000000
_symmetry_Int_Tables_number   1
_chemical_formula_structural   Y3ErTm6(In2Pt)4
_chemical_formula_sum   'Y3 Er1 Tm6 In8 Pt4'
_cell_volume   531.26711386
_cell_formula_units_Z   1
loop_
 _symmetry_equiv_pos_site_id
 _symmetry_equiv_pos_as_xyz
  1  'x, y, z'
loop_
 _atom_site_type_symbol
 _atom_site_label
 _atom_site_symmetry_multiplicity
 _atom_site_fract_x
 _atom_site_fract_y
 _atom_site_fract_z
 _atom_site_occupancy
  Y  Y0  1  0.000000  0.258559  0.719847  1
  Y  Y1  1  0.000000  0.000270  0.000251  1
  Y  Y2  1  0.000000  0.499922  0.499831  1
  Er  Er3  1  0.000000  0.742217  0.279572  1
  Tm  Tm4  1  0.000000  0.115992  0.414126  1
  Tm  Tm5  1  0.000000  0.883235  0.585246  1
  Tm  Tm6  1  0.000000  0.383927  0.914795  1
  Tm  Tm7  1  0.000000  0.616361  0.085794  1
  Tm  Tm8  1  0.000000  0.242311  0.220704  1
  Tm  Tm9  1  0.000000  0.757950  0.779562  1
  In  In10  1  0.500000  0.421630  0.350719  1
  In  In11  1  0.500000  0.579281  0.649185  1
  In  In12  1  0.500000  0.077861  0.850994  1
  In  In13  1  0.500000  0.921820  0.149081  1
  In  In14  1  0.500000  0.294085  0.067285  1
  In  In15  1  0.500000  0.706579  0.933202  1
  In  In16  1  0.500000  0.205497  0.566015  1
  In  In17  1  0.500000  0.793414  0.432969  1
  Pt  Pt18  1  0.500000  0.024370  0.303595  1
  Pt  Pt19  1  0.500000  0.971640  0.695932  1
  Pt  Pt20  1  0.500000  0.478504  0.804865  1
  Pt  Pt21  1  0.500000  0.524573  0.196429  1
