# generated using pymatgen
data_Tb3Y5Lu8(ScSi4)4
_symmetry_space_group_name_H-M   'P 1'
_cell_length_a   7.21147426
_cell_length_b   7.56113310
_cell_length_c   14.28732733
_cell_angle_alpha   89.99902938
_cell_angle_beta   89.93470936
_cell_angle_gamma   89.98142132
_symmetry_Int_Tables_number   1
_chemical_formula_structural   Tb3Y5Lu8(ScSi4)4
_chemical_formula_sum   'Tb3 Y5 Lu8 Sc4 Si16'
_cell_volume   779.04336067
_cell_formula_units_Z   1
loop_
 _symmetry_equiv_pos_site_id
 _symmetry_equiv_pos_as_xyz
  1  'x, y, z'
loop_
 _atom_site_type_symbol
 _atom_site_label
 _atom_site_symmetry_multiplicity
 _atom_site_fract_x
 _atom_site_fract_y
 _atom_site_fract_z
 _atom_site_occupancy
  Tb  Tb0  1  0.016459  0.179808  0.402128  1
  Tb  Tb1  1  0.516485  0.320389  0.402321  1
  Tb  Tb2  1  0.483605  0.679565  0.597819  1
  Y  Y3  1  0.016915  0.179923  0.097734  1
  Y  Y4  1  0.983248  0.820661  0.902490  1
  Y  Y5  1  0.483184  0.679851  0.902258  1
  Y  Y6  1  0.983364  0.820337  0.597750  1
  Y  Y7  1  0.516893  0.320128  0.097843  1
  Lu  Lu8  1  0.324691  0.177085  0.625591  1
  Lu  Lu9  1  0.675530  0.822823  0.374328  1
  Lu  Lu10  1  0.175580  0.677181  0.374173  1
  Lu  Lu11  1  0.675981  0.822983  0.125391  1
  Lu  Lu12  1  0.824344  0.322967  0.625649  1
  Lu  Lu13  1  0.323765  0.176939  0.874646  1
  Lu  Lu14  1  0.824553  0.322515  0.874712  1
  Lu  Lu15  1  0.175484  0.677177  0.125399  1
  Sc  Sc16  1  0.156270  0.510353  0.750016  1
  Sc  Sc17  1  0.843486  0.489396  0.250160  1
  Sc  Sc18  1  0.343723  0.010183  0.249974  1
  Sc  Sc19  1  0.656205  0.989647  0.749778  1
  Si  Si20  1  0.023045  0.102804  0.750094  1
  Si  Si21  1  0.976954  0.897208  0.249827  1
  Si  Si22  1  0.476825  0.603226  0.249787  1
  Si  Si23  1  0.523131  0.396592  0.750249  1
  Si  Si24  1  0.280578  0.867392  0.750008  1
  Si  Si25  1  0.719019  0.132580  0.249846  1
  Si  Si26  1  0.219173  0.367413  0.249763  1
  Si  Si27  1  0.780975  0.632428  0.750295  1
  Si  Si28  1  0.153428  0.468496  0.539762  1
  Si  Si29  1  0.846901  0.531848  0.460159  1
  Si  Si30  1  0.346800  0.968293  0.460142  1
  Si  Si31  1  0.846931  0.531546  0.040046  1
  Si  Si32  1  0.653530  0.031580  0.539741  1
  Si  Si33  1  0.153104  0.468689  0.960032  1
  Si  Si34  1  0.652700  0.031447  0.959903  1
  Si  Si35  1  0.347143  0.968543  0.040186  1
