# generated using pymatgen
data_Er4Ga4Co3Ni
_symmetry_space_group_name_H-M   'P 1'
_cell_length_a   4.15829800
_cell_length_b   6.65109557
_cell_length_c   7.52950911
_cell_angle_alpha   90.14715246
_cell_angle_beta   90.00000000
_cell_angle_gamma   90.00000000
_symmetry_Int_Tables_number   1
_chemical_formula_structural   Er4Ga4Co3Ni
_chemical_formula_sum   'Er4 Ga4 Co3 Ni1'
_cell_volume   208.24473425
_cell_formula_units_Z   1
loop_
 _symmetry_equiv_pos_site_id
 _symmetry_equiv_pos_as_xyz
  1  'x, y, z'
loop_
 _atom_site_type_symbol
 _atom_site_label
 _atom_site_symmetry_multiplicity
 _atom_site_fract_x
 _atom_site_fract_y
 _atom_site_fract_z
 _atom_site_occupancy
  Er  Er0  1  0.250000  0.528982  0.684903  1
  Er  Er1  1  0.250000  0.024490  0.817152  1
  Er  Er2  1  0.750000  0.975638  0.186339  1
  Er  Er3  1  0.750000  0.476142  0.312688  1
  Ga  Ga4  1  0.750000  0.345716  0.934525  1
  Ga  Ga5  1  0.250000  0.154358  0.433122  1
  Ga  Ga6  1  0.250000  0.656259  0.066107  1
  Ga  Ga7  1  0.750000  0.841138  0.566070  1
  Co  Co8  1  0.250000  0.772611  0.385327  1
  Co  Co9  1  0.750000  0.728028  0.883937  1
  Co  Co10  1  0.250000  0.274552  0.115431  1
  Ni  Ni11  1  0.750000  0.222086  0.614399  1
