# generated using pymatgen
data_Sc6Ti4Al12Ru4Pt3
_symmetry_space_group_name_H-M   'P 1'
_cell_length_a   8.82576326
_cell_length_b   8.85351047
_cell_length_c   8.82884730
_cell_angle_alpha   59.90927837
_cell_angle_beta   60.01155874
_cell_angle_gamma   60.10362707
_symmetry_Int_Tables_number   1
_chemical_formula_structural   Sc6Ti4Al12Ru4Pt3
_chemical_formula_sum   'Sc6 Ti4 Al12 Ru4 Pt3'
_cell_volume   487.90421613
_cell_formula_units_Z   1
loop_
 _symmetry_equiv_pos_site_id
 _symmetry_equiv_pos_as_xyz
  1  'x, y, z'
loop_
 _atom_site_type_symbol
 _atom_site_label
 _atom_site_symmetry_multiplicity
 _atom_site_fract_x
 _atom_site_fract_y
 _atom_site_fract_z
 _atom_site_occupancy
  Sc  Sc0  1  0.704153  0.699270  0.295530  1
  Sc  Sc1  1  0.301046  0.699270  0.295530  1
  Sc  Sc2  1  0.708045  0.296920  0.286988  1
  Sc  Sc3  1  0.295012  0.298881  0.705774  1
  Sc  Sc4  1  0.700333  0.298881  0.705774  1
  Sc  Sc5  1  0.291288  0.703096  0.714329  1
  Ti  Ti6  1  0.882915  0.872381  0.361789  1
  Ti  Ti7  1  0.879520  0.362579  0.878380  1
  Ti  Ti8  1  0.362628  0.876386  0.885122  1
  Ti  Ti9  1  0.875864  0.876386  0.885122  1
  Al  Al10  1  0.118311  0.126577  0.636799  1
  Al  Al11  1  0.120758  0.636935  0.121548  1
  Al  Al12  1  0.636822  0.123031  0.116605  1
  Al  Al13  1  0.123541  0.123031  0.116605  1
  Al  Al14  1  0.666761  0.665132  0.001347  1
  Al  Al15  1  0.662448  0.010628  0.664475  1
  Al  Al16  1  0.005133  0.663335  0.666206  1
  Al  Al17  1  0.665325  0.663335  0.666206  1
  Al  Al18  1  0.332998  0.332453  0.001549  1
  Al  Al19  1  0.337645  0.991219  0.333490  1
  Al  Al20  1  0.996711  0.337878  0.332390  1
  Al  Al21  1  0.333020  0.337878  0.332390  1
  Ru  Ru22  1  0.997980  0.503906  0.500135  1
  Ru  Ru23  1  0.500886  0.502752  0.998056  1
  Ru  Ru24  1  0.998306  0.502752  0.998056  1
  Ru  Ru25  1  0.502103  0.996460  0.999334  1
  Pt  Pt26  1  0.000004  0.999653  0.000340  1
  Pt  Pt27  1  0.999870  0.999496  0.500061  1
  Pt  Pt28  1  0.500572  0.999496  0.500061  1
