# generated using pymatgen
data_BaHoTi4N7
_symmetry_space_group_name_H-M   'P 1'
_cell_length_a   6.46236400
_cell_length_b   6.46236266
_cell_length_c   10.47902100
_cell_angle_alpha   90.00000000
_cell_angle_beta   90.00000000
_cell_angle_gamma   119.99998638
_symmetry_Int_Tables_number   1
_chemical_formula_structural   BaHoTi4N7
_chemical_formula_sum   'Ba2 Ho2 Ti8 N14'
_cell_volume   378.99557987
_cell_formula_units_Z   2
loop_
 _symmetry_equiv_pos_site_id
 _symmetry_equiv_pos_as_xyz
  1  'x, y, z'
loop_
 _atom_site_type_symbol
 _atom_site_label
 _atom_site_symmetry_multiplicity
 _atom_site_fract_x
 _atom_site_fract_y
 _atom_site_fract_z
 _atom_site_occupancy
  Ba  Ba0  1  0.666667  0.333333  0.582086  1
  Ba  Ba1  1  0.333333  0.666667  0.082086  1
  Ho  Ho2  1  0.666667  0.333333  0.948850  1
  Ho  Ho3  1  0.333333  0.666667  0.448850  1
  Ti  Ti4  1  0.169422  0.338843  0.763544  1
  Ti  Ti5  1  0.830578  0.169422  0.263544  1
  Ti  Ti6  1  0.338843  0.169422  0.263544  1
  Ti  Ti7  1  0.661157  0.830578  0.763544  1
  Ti  Ti8  1  0.169422  0.830578  0.763544  1
  Ti  Ti9  1  0.830578  0.661157  0.263544  1
  Ti  Ti10  1  0.000000  0.000000  0.023437  1
  Ti  Ti11  1  0.000000  0.000000  0.523437  1
  N  N12  1  0.000000  0.000000  0.830211  1
  N  N13  1  0.000000  0.000000  0.330211  1
  N  N14  1  0.839971  0.679942  0.082998  1
  N  N15  1  0.160029  0.839971  0.582998  1
  N  N16  1  0.679942  0.839971  0.582998  1
  N  N17  1  0.320058  0.160029  0.082998  1
  N  N18  1  0.839971  0.160029  0.082998  1
  N  N19  1  0.160029  0.320058  0.582998  1
  N  N20  1  0.494776  0.505224  0.816204  1
  N  N21  1  0.989552  0.494776  0.316204  1
  N  N22  1  0.505224  0.010448  0.316204  1
  N  N23  1  0.494776  0.989552  0.816204  1
  N  N24  1  0.505224  0.494776  0.316204  1
  N  N25  1  0.010448  0.505224  0.816204  1
