# generated using pymatgen
data_LiTh2Si4(AsPd10)2
_symmetry_space_group_name_H-M   'P 1'
_cell_length_a   8.71795829
_cell_length_b   8.79205156
_cell_length_c   8.79205200
_cell_angle_alpha   59.44323177
_cell_angle_beta   60.27838137
_cell_angle_gamma   60.27838578
_symmetry_Int_Tables_number   1
_chemical_formula_structural   LiTh2Si4(AsPd10)2
_chemical_formula_sum   'Li1 Th2 Si4 As2 Pd20'
_cell_volume   476.45192183
_cell_formula_units_Z   1
loop_
 _symmetry_equiv_pos_site_id
 _symmetry_equiv_pos_as_xyz
  1  'x, y, z'
loop_
 _atom_site_type_symbol
 _atom_site_label
 _atom_site_symmetry_multiplicity
 _atom_site_fract_x
 _atom_site_fract_y
 _atom_site_fract_z
 _atom_site_occupancy
  Li  Li0  1  0.000000  0.000000  0.000000  1
  Th  Th1  1  0.250000  0.250000  0.250000  1
  Th  Th2  1  0.750000  0.750000  0.750000  1
  Si  Si3  1  0.262651  0.737349  0.262651  1
  Si  Si4  1  0.737349  0.262651  0.737349  1
  Si  Si5  1  0.262651  0.262651  0.737349  1
  Si  Si6  1  0.737349  0.737349  0.262651  1
  As  As7  1  0.738469  0.261531  0.261531  1
  As  As8  1  0.261531  0.738469  0.738469  1
  Pd  Pd9  1  0.379727  0.386474  0.386474  1
  Pd  Pd10  1  0.620273  0.613526  0.613526  1
  Pd  Pd11  1  0.386474  0.379727  0.847324  1
  Pd  Pd12  1  0.386474  0.847324  0.379727  1
  Pd  Pd13  1  0.613526  0.620273  0.152676  1
  Pd  Pd14  1  0.613526  0.152676  0.620273  1
  Pd  Pd15  1  0.847324  0.386474  0.386474  1
  Pd  Pd16  1  0.152676  0.613526  0.613526  1
  Pd  Pd17  1  0.346397  0.000000  0.000000  1
  Pd  Pd18  1  0.653603  0.000000  0.000000  1
  Pd  Pd19  1  0.000000  0.346397  0.653603  1
  Pd  Pd20  1  0.000000  0.653603  0.346397  1
  Pd  Pd21  1  0.007426  0.347381  0.992574  1
  Pd  Pd22  1  0.652619  0.992574  0.347381  1
  Pd  Pd23  1  0.992574  0.652619  0.007426  1
  Pd  Pd24  1  0.347381  0.007426  0.652619  1
  Pd  Pd25  1  0.007426  0.992574  0.347381  1
  Pd  Pd26  1  0.992574  0.007426  0.652619  1
  Pd  Pd27  1  0.652619  0.347381  0.992574  1
  Pd  Pd28  1  0.347381  0.652619  0.007426  1
