# generated using pymatgen
data_Pu(HfH5)3
_symmetry_space_group_name_H-M   'P 1'
_cell_length_a   7.07456865
_cell_length_b   7.09208549
_cell_length_c   7.12653353
_cell_angle_alpha   109.55103987
_cell_angle_beta   109.45180816
_cell_angle_gamma   109.16362520
_symmetry_Int_Tables_number   1
_chemical_formula_structural   Pu(HfH5)3
_chemical_formula_sum   'Pu2 Hf6 H30'
_cell_volume   276.08587474
_cell_formula_units_Z   2
loop_
 _symmetry_equiv_pos_site_id
 _symmetry_equiv_pos_as_xyz
  1  'x, y, z'
loop_
 _atom_site_type_symbol
 _atom_site_label
 _atom_site_symmetry_multiplicity
 _atom_site_fract_x
 _atom_site_fract_y
 _atom_site_fract_z
 _atom_site_occupancy
  Pu  Pu0  1  0.906879  0.906288  0.904296  1
  Pu  Pu1  1  0.502582  0.001991  0.095704  1
  Hf  Hf2  1  0.007367  0.110225  0.507149  1
  Hf  Hf3  1  0.102965  0.495860  0.000748  1
  Hf  Hf4  1  0.000218  0.603076  0.492851  1
  Hf  Hf5  1  0.602217  0.495112  0.999252  1
  Hf  Hf6  1  0.494685  0.000821  0.592408  1
  Hf  Hf7  1  0.402279  0.408414  0.407592  1
  H  H8  1  0.666517  0.975674  0.398126  1
  H  H9  1  0.225653  0.308421  0.844875  1
  H  H10  1  0.192758  0.419775  0.538533  1
  H  H11  1  0.090849  0.288395  0.129904  1
  H  H12  1  0.283237  0.143869  0.106367  1
  H  H13  1  0.127409  0.099240  0.291213  1
  H  H14  1  0.460945  0.158491  0.870096  1
  H  H15  1  0.723215  0.339292  0.810245  1
  H  H16  1  0.625777  0.378202  0.249570  1
  H  H17  1  0.244429  0.622978  0.371998  1
  H  H18  1  0.756954  0.871995  0.135352  1
  H  H19  1  0.121602  0.736645  0.864648  1
  H  H20  1  0.372430  0.250980  0.628002  1
  H  H21  1  0.876207  0.128633  0.750430  1
  H  H22  1  0.768391  0.577548  0.601874  1
  H  H23  1  0.305322  0.833463  0.228697  1
  H  H24  1  0.378182  0.639383  0.970079  1
  H  H25  1  0.975875  0.382710  0.662642  1
  H  H26  1  0.529714  0.195122  0.427693  1
  H  H27  1  0.412970  0.529045  0.189755  1
  H  H28  1  0.862009  0.238081  0.329695  1
  H  H29  1  0.908103  0.669304  0.029921  1
  H  H30  1  0.813234  0.720068  0.337358  1
  H  H31  1  0.154224  0.881241  0.461467  1
  H  H32  1  0.676871  0.037503  0.893633  1
  H  H33  1  0.336195  0.808026  0.708787  1
  H  H34  1  0.880778  0.463546  0.155125  1
  H  H35  1  0.602021  0.767429  0.572307  1
  H  H36  1  0.576624  0.604765  0.771303  1
  H  H37  1  0.032314  0.908386  0.670305  1
