# generated using pymatgen
data_Tm2Lu2TcRu7
_symmetry_space_group_name_H-M   'P 1'
_cell_length_a   5.17857393
_cell_length_b   5.34285179
_cell_length_c   8.90089602
_cell_angle_alpha   90.00000217
_cell_angle_beta   89.99302400
_cell_angle_gamma   121.05504669
_symmetry_Int_Tables_number   1
_chemical_formula_structural   Tm2Lu2TcRu7
_chemical_formula_sum   'Tm2 Lu2 Tc1 Ru7'
_cell_volume   210.97531599
_cell_formula_units_Z   1
loop_
 _symmetry_equiv_pos_site_id
 _symmetry_equiv_pos_as_xyz
  1  'x, y, z'
loop_
 _atom_site_type_symbol
 _atom_site_label
 _atom_site_symmetry_multiplicity
 _atom_site_fract_x
 _atom_site_fract_y
 _atom_site_fract_z
 _atom_site_occupancy
  Tm  Tm0  1  0.655721  0.327860  0.933997  1
  Tm  Tm1  1  0.327355  0.663678  0.067005  1
  Lu  Lu2  1  0.327680  0.663840  0.433425  1
  Lu  Lu3  1  0.655279  0.327639  0.565659  1
  Tc  Tc4  1  0.683836  0.841918  0.749187  1
  Ru  Ru5  1  0.980379  0.990189  0.499296  1
  Ru  Ru6  1  0.980559  0.990280  0.000681  1
  Ru  Ru7  1  0.835415  0.167669  0.250875  1
  Ru  Ru8  1  0.835415  0.667746  0.250875  1
  Ru  Ru9  1  0.356580  0.178290  0.250948  1
  Ru  Ru10  1  0.180890  0.827452  0.749027  1
  Ru  Ru11  1  0.180890  0.353438  0.749027  1
