# generated using pymatgen
data_Th5Zr3Ni16(As2P)4
_symmetry_space_group_name_H-M   'P 1'
_cell_length_a   12.76472372
_cell_length_b   12.77210379
_cell_length_c   3.97821200
_cell_angle_alpha   90.00000000
_cell_angle_beta   90.00000000
_cell_angle_gamma   120.04043755
_symmetry_Int_Tables_number   1
_chemical_formula_structural   Th5Zr3Ni16(As2P)4
_chemical_formula_sum   'Th5 Zr3 Ni16 As8 P4'
_cell_volume   561.45545396
_cell_formula_units_Z   1
loop_
 _symmetry_equiv_pos_site_id
 _symmetry_equiv_pos_as_xyz
  1  'x, y, z'
loop_
 _atom_site_type_symbol
 _atom_site_label
 _atom_site_symmetry_multiplicity
 _atom_site_fract_x
 _atom_site_fract_y
 _atom_site_fract_z
 _atom_site_occupancy
  Th  Th0  1  0.183649  0.184257  0.500000  1
  Th  Th1  1  0.816939  0.001087  0.500000  1
  Th  Th2  1  0.999907  0.816126  0.500000  1
  Th  Th3  1  0.328119  0.660821  0.000000  1
  Th  Th4  1  0.667445  0.333436  0.000000  1
  Zr  Zr5  1  0.571752  0.572362  0.000000  1
  Zr  Zr6  1  0.427125  0.999320  0.000000  1
  Zr  Zr7  1  0.003359  0.427976  0.000000  1
  Ni  Ni8  1  0.734292  0.734914  0.500000  1
  Ni  Ni9  1  0.265099  0.999584  0.500000  1
  Ni  Ni10  1  0.007965  0.272197  0.500000  1
  Ni  Ni11  1  0.180247  0.373078  0.000000  1
  Ni  Ni12  1  0.634714  0.812402  0.000000  1
  Ni  Ni13  1  0.186928  0.822640  0.000000  1
  Ni  Ni14  1  0.812619  0.635086  0.000000  1
  Ni  Ni15  1  0.822403  0.187763  0.000000  1
  Ni  Ni16  1  0.364789  0.177540  0.000000  1
  Ni  Ni17  1  0.359818  0.486314  0.500000  1
  Ni  Ni18  1  0.511963  0.880439  0.500000  1
  Ni  Ni19  1  0.122282  0.623533  0.500000  1
  Ni  Ni20  1  0.882027  0.513307  0.500000  1
  Ni  Ni21  1  0.632310  0.119273  0.500000  1
  Ni  Ni22  1  0.486211  0.369010  0.500000  1
  Ni  Ni23  1  0.000214  0.000891  0.000000  1
  As  As24  1  0.526256  0.698737  0.500000  1
  As  As25  1  0.299669  0.826990  0.500000  1
  As  As26  1  0.699167  0.528124  0.500000  1
  As  As27  1  0.830192  0.301190  0.500000  1
  As  As28  1  0.472150  0.171644  0.500000  1
  As  As29  1  0.365172  0.365549  0.000000  1
  As  As30  1  0.634182  0.999760  0.000000  1
  As  As31  1  0.000921  0.633873  0.000000  1
  P  P32  1  0.821212  0.821645  0.000000  1
  P  P33  1  0.178663  0.000323  0.000000  1
  P  P34  1  0.000288  0.180095  0.000000  1
  P  P35  1  0.169953  0.468713  0.500000  1
