# generated using pymatgen
data_TmAl4VMo
_symmetry_space_group_name_H-M   'P 1'
_cell_length_a   5.42371828
_cell_length_b   5.42371769
_cell_length_c   5.42371780
_cell_angle_alpha   103.51815832
_cell_angle_beta   103.51814974
_cell_angle_gamma   122.17405583
_symmetry_Int_Tables_number   1
_chemical_formula_structural   TmAl4VMo
_chemical_formula_sum   'Tm1 Al4 V1 Mo1'
_cell_volume   118.21398302
_cell_formula_units_Z   1
loop_
 _symmetry_equiv_pos_site_id
 _symmetry_equiv_pos_as_xyz
  1  'x, y, z'
loop_
 _atom_site_type_symbol
 _atom_site_label
 _atom_site_symmetry_multiplicity
 _atom_site_fract_x
 _atom_site_fract_y
 _atom_site_fract_z
 _atom_site_occupancy
  Tm  Tm0  1  0.000000  0.000000  0.000000  1
  Al  Al1  1  0.305477  0.305477  0.610956  1
  Al  Al2  1  0.694523  0.694523  0.389044  1
  Al  Al3  1  0.694523  0.305477  0.000000  1
  Al  Al4  1  0.305477  0.694523  0.000000  1
  V  V5  1  0.250000  0.750000  0.500000  1
  Mo  Mo6  1  0.750000  0.250000  0.500000  1
