# generated using pymatgen
data_LuHf2Al2Fe7
_symmetry_space_group_name_H-M   'P 1'
_cell_length_a   8.43661639
_cell_length_b   8.43661723
_cell_length_c   8.43661800
_cell_angle_alpha   34.96098199
_cell_angle_beta   34.96097382
_cell_angle_gamma   34.96097934
_symmetry_Int_Tables_number   1
_chemical_formula_structural   LuHf2Al2Fe7
_chemical_formula_sum   'Lu1 Hf2 Al2 Fe7'
_cell_volume   176.03810174
_cell_formula_units_Z   1
loop_
 _symmetry_equiv_pos_site_id
 _symmetry_equiv_pos_as_xyz
  1  'x, y, z'
loop_
 _atom_site_type_symbol
 _atom_site_label
 _atom_site_symmetry_multiplicity
 _atom_site_fract_x
 _atom_site_fract_y
 _atom_site_fract_z
 _atom_site_occupancy
  Lu  Lu0  1  0.000000  0.000000  0.000000  1
  Hf  Hf1  1  0.141612  0.141612  0.141612  1
  Hf  Hf2  1  0.858388  0.858388  0.858388  1
  Al  Al3  1  0.333861  0.333861  0.333861  1
  Al  Al4  1  0.666139  0.666139  0.666139  1
  Fe  Fe5  1  0.500000  0.500000  0.500000  1
  Fe  Fe6  1  0.081963  0.588478  0.588478  1
  Fe  Fe7  1  0.588478  0.588478  0.081963  1
  Fe  Fe8  1  0.588478  0.081963  0.588478  1
  Fe  Fe9  1  0.411522  0.918037  0.411522  1
  Fe  Fe10  1  0.918037  0.411522  0.411522  1
  Fe  Fe11  1  0.411522  0.411522  0.918037  1
