# generated using pymatgen
data_Ca3PrTi4O12
_symmetry_space_group_name_H-M   'P 1'
_cell_length_a   5.44360279
_cell_length_b   5.53935980
_cell_length_c   7.75128700
_cell_angle_alpha   90.00000000
_cell_angle_beta   90.00000000
_cell_angle_gamma   89.93827483
_symmetry_Int_Tables_number   1
_chemical_formula_structural   Ca3PrTi4O12
_chemical_formula_sum   'Ca3 Pr1 Ti4 O12'
_cell_volume   233.73274988
_cell_formula_units_Z   1
loop_
 _symmetry_equiv_pos_site_id
 _symmetry_equiv_pos_as_xyz
  1  'x, y, z'
loop_
 _atom_site_type_symbol
 _atom_site_label
 _atom_site_symmetry_multiplicity
 _atom_site_fract_x
 _atom_site_fract_y
 _atom_site_fract_z
 _atom_site_occupancy
  Ca  Ca0  1  0.492099  0.456516  0.250000  1
  Ca  Ca1  1  0.990411  0.043181  0.750000  1
  Ca  Ca2  1  0.009021  0.958425  0.250000  1
  Pr  Pr3  1  0.508319  0.543359  0.750000  1
  Ti  Ti4  1  0.000991  0.499405  0.495716  1
  Ti  Ti5  1  0.000991  0.499405  0.004284  1
  Ti  Ti6  1  0.499158  0.001730  0.496113  1
  Ti  Ti7  1  0.499158  0.001730  0.003887  1
  O  O8  1  0.071739  0.479743  0.750000  1
  O  O9  1  0.923193  0.523014  0.250000  1
  O  O10  1  0.422056  0.986301  0.750000  1
  O  O11  1  0.578393  0.019046  0.250000  1
  O  O12  1  0.787735  0.786570  0.956221  1
  O  O13  1  0.210585  0.211199  0.458931  1
  O  O14  1  0.210585  0.211199  0.041069  1
  O  O15  1  0.787735  0.786570  0.543779  1
  O  O16  1  0.710217  0.288915  0.962087  1
  O  O17  1  0.293698  0.707390  0.461857  1
  O  O18  1  0.293698  0.707390  0.038143  1
  O  O19  1  0.710217  0.288915  0.537913  1
