# generated using pymatgen
data_Tb11YGa12(FeO6)8
_symmetry_space_group_name_H-M   'P 1'
_cell_length_a   10.81178535
_cell_length_b   10.81072478
_cell_length_c   10.81076600
_cell_angle_alpha   109.47177700
_cell_angle_beta   109.46894153
_cell_angle_gamma   109.46941992
_symmetry_Int_Tables_number   1
_chemical_formula_structural   Tb11YGa12(FeO6)8
_chemical_formula_sum   'Tb11 Y1 Ga12 Fe8 O48'
_cell_volume   972.75995928
_cell_formula_units_Z   1
loop_
 _symmetry_equiv_pos_site_id
 _symmetry_equiv_pos_as_xyz
  1  'x, y, z'
loop_
 _atom_site_type_symbol
 _atom_site_label
 _atom_site_symmetry_multiplicity
 _atom_site_fract_x
 _atom_site_fract_y
 _atom_site_fract_z
 _atom_site_occupancy
  Tb  Tb0  1  0.249993  0.374997  0.124996  1
  Tb  Tb1  1  0.374991  0.750000  0.125001  1
  Tb  Tb2  1  0.874981  0.624976  0.249905  1
  Tb  Tb3  1  0.374995  0.124996  0.249999  1
  Tb  Tb4  1  0.124999  0.249996  0.374999  1
  Tb  Tb5  1  0.750004  0.125002  0.375007  1
  Tb  Tb6  1  0.874977  0.749997  0.625073  1
  Tb  Tb7  1  0.250002  0.875002  0.625005  1
  Tb  Tb8  1  0.125003  0.375000  0.749998  1
  Tb  Tb9  1  0.625021  0.874922  0.750000  1
  Tb  Tb10  1  0.625014  0.250092  0.875026  1
  Y  Y11  1  0.750001  0.624999  0.874999  1
  Ga  Ga12  1  0.750003  0.874858  0.124847  1
  Ga  Ga13  1  0.874998  0.250009  0.125010  1
  Ga  Ga14  1  0.625016  0.375008  0.250005  1
  Ga  Ga15  1  0.124946  0.874992  0.249927  1
  Ga  Ga16  1  0.625007  0.750013  0.375020  1
  Ga  Ga17  1  0.249992  0.625010  0.375003  1
  Ga  Ga18  1  0.749997  0.375142  0.625136  1
  Ga  Ga19  1  0.375037  0.250063  0.624998  1
  Ga  Ga20  1  0.874988  0.124986  0.749982  1
  Ga  Ga21  1  0.375057  0.624990  0.750050  1
  Ga  Ga22  1  0.124958  0.749958  0.875026  1
  Ga  Ga23  1  0.250000  0.124983  0.874985  1
  Fe  Fe24  1  0.999995  0.999892  0.999985  1
  Fe  Fe25  1  0.499985  0.999961  0.999955  1
  Fe  Fe26  1  0.000001  0.500104  0.000009  1
  Fe  Fe27  1  0.500012  0.499984  0.999892  1
  Fe  Fe28  1  0.000016  0.999978  0.499981  1
  Fe  Fe29  1  0.500020  0.500025  0.500120  1
  Fe  Fe30  1  0.499992  0.000027  0.500015  1
  Fe  Fe31  1  0.000009  0.500030  0.500031  1
  O  O32  1  0.321032  0.905342  0.029155  1
  O  O33  1  0.208133  0.123802  0.029151  1
  O  O34  1  0.708209  0.678813  0.083873  1
  O  O35  1  0.876191  0.405347  0.084321  1
  O  O36  1  0.970852  0.679018  0.094596  1
  O  O37  1  0.623809  0.415686  0.094661  1
  O  O38  1  0.594675  0.915638  0.123794  1
  O  O39  1  0.029097  0.208064  0.123767  1
  O  O40  1  0.208129  0.584330  0.178976  1
  O  O41  1  0.470904  0.594671  0.178962  1
  O  O42  1  0.584335  0.178962  0.208128  1
  O  O43  1  0.123819  0.029208  0.208148  1
  O  O44  1  0.321023  0.915683  0.291884  1
  O  O45  1  0.470907  0.376231  0.291938  1
  O  O46  1  0.905330  0.029118  0.320963  1
  O  O47  1  0.915677  0.291881  0.321045  1
  O  O48  1  0.584326  0.905371  0.376211  1
  O  O49  1  0.291865  0.470846  0.376196  1
  O  O50  1  0.820991  0.529157  0.405425  1
  O  O51  1  0.084327  0.876179  0.405326  1
  O  O52  1  0.094629  0.623795  0.415653  1
  O  O53  1  0.820979  0.791821  0.415560  1
  O  O54  1  0.594668  0.179028  0.470877  1
  O  O55  1  0.376176  0.291841  0.470791  1
  O  O56  1  0.623804  0.708123  0.529150  1
  O  O57  1  0.405373  0.821023  0.529173  1
  O  O58  1  0.178973  0.208118  0.584308  1
  O  O59  1  0.905336  0.376214  0.584368  1
  O  O60  1  0.915667  0.123789  0.594624  1
  O  O61  1  0.178981  0.470858  0.594663  1
  O  O62  1  0.415667  0.094664  0.623818  1
  O  O63  1  0.708203  0.529388  0.624321  1
  O  O64  1  0.084336  0.708151  0.679005  1
  O  O65  1  0.094625  0.970832  0.678971  1
  O  O66  1  0.679014  0.084430  0.708170  1
  O  O67  1  0.529140  0.623741  0.708163  1
  O  O68  1  0.415681  0.821010  0.791866  1
  O  O69  1  0.876190  0.970847  0.791865  1
  O  O70  1  0.529119  0.405374  0.820992  1
  O  O71  1  0.791784  0.416094  0.821176  1
  O  O72  1  0.970871  0.791856  0.876251  1
  O  O73  1  0.405378  0.084352  0.876214  1
  O  O74  1  0.029093  0.321033  0.905326  1
  O  O75  1  0.376176  0.584336  0.905391  1
  O  O76  1  0.291860  0.321021  0.915666  1
  O  O77  1  0.123822  0.594611  0.915668  1
  O  O78  1  0.679018  0.094588  0.970846  1
  O  O79  1  0.791793  0.875709  0.970609  1
