# generated using pymatgen
data_Nd2HoCo2P6Ru7
_symmetry_space_group_name_H-M   'P 1'
_cell_length_a   3.90301500
_cell_length_b   10.92161400
_cell_length_c   12.81916400
_cell_angle_alpha   90.00000000
_cell_angle_beta   90.00000000
_cell_angle_gamma   90.00000000
_symmetry_Int_Tables_number   1
_chemical_formula_structural   Nd2HoCo2P6Ru7
_chemical_formula_sum   'Nd4 Ho2 Co4 P12 Ru14'
_cell_volume   546.44536591
_cell_formula_units_Z   2
loop_
 _symmetry_equiv_pos_site_id
 _symmetry_equiv_pos_as_xyz
  1  'x, y, z'
loop_
 _atom_site_type_symbol
 _atom_site_label
 _atom_site_symmetry_multiplicity
 _atom_site_fract_x
 _atom_site_fract_y
 _atom_site_fract_z
 _atom_site_occupancy
  Nd  Nd0  1  0.000000  0.500000  0.524826  1
  Nd  Nd1  1  0.500000  0.000000  0.472336  1
  Nd  Nd2  1  0.000000  0.681243  0.797939  1
  Nd  Nd3  1  0.000000  0.318757  0.797939  1
  Ho  Ho4  1  0.500000  0.822088  0.203142  1
  Ho  Ho5  1  0.500000  0.177912  0.203142  1
  Co  Co6  1  0.000000  0.500000  0.992013  1
  Co  Co7  1  0.500000  0.000000  0.014303  1
  Co  Co8  1  0.000000  0.161755  0.011847  1
  Co  Co9  1  0.000000  0.838245  0.011847  1
  P  P10  1  0.500000  0.303865  0.613505  1
  P  P11  1  0.500000  0.696135  0.613505  1
  P  P12  1  0.000000  0.195412  0.381659  1
  P  P13  1  0.000000  0.804588  0.381659  1
  P  P14  1  0.500000  0.500000  0.891935  1
  P  P15  1  0.000000  0.000000  0.113165  1
  P  P16  1  0.500000  0.853903  0.898181  1
  P  P17  1  0.500000  0.146097  0.898181  1
  P  P18  1  0.000000  0.657353  0.101522  1
  P  P19  1  0.000000  0.342647  0.101522  1
  P  P20  1  0.500000  0.500000  0.333285  1
  P  P21  1  0.000000  0.000000  0.665585  1
  Ru  Ru22  1  0.500000  0.298570  0.426071  1
  Ru  Ru23  1  0.500000  0.701430  0.426071  1
  Ru  Ru24  1  0.000000  0.199975  0.570287  1
  Ru  Ru25  1  0.000000  0.800025  0.570287  1
  Ru  Ru26  1  0.500000  0.878757  0.715996  1
  Ru  Ru27  1  0.500000  0.121243  0.715996  1
  Ru  Ru28  1  0.000000  0.623872  0.280290  1
  Ru  Ru29  1  0.000000  0.376128  0.280290  1
  Ru  Ru30  1  0.500000  0.325344  0.995430  1
  Ru  Ru31  1  0.500000  0.674656  0.995430  1
  Ru  Ru32  1  0.500000  0.500000  0.152070  1
  Ru  Ru33  1  0.000000  0.000000  0.851876  1
  Ru  Ru34  1  0.500000  0.500000  0.701388  1
  Ru  Ru35  1  0.000000  0.000000  0.295481  1
