# generated using pymatgen
data_Hg(AuO2)2
_symmetry_space_group_name_H-M   'P 1'
_cell_length_a   6.77585414
_cell_length_b   6.77585374
_cell_length_c   6.77585381
_cell_angle_alpha   126.02742724
_cell_angle_beta   126.02742422
_cell_angle_gamma   79.84306523
_symmetry_Int_Tables_number   1
_chemical_formula_structural   Hg(AuO2)2
_chemical_formula_sum   'Hg2 Au4 O8'
_cell_volume   196.51235086
_cell_formula_units_Z   2
loop_
 _symmetry_equiv_pos_site_id
 _symmetry_equiv_pos_as_xyz
  1  'x, y, z'
loop_
 _atom_site_type_symbol
 _atom_site_label
 _atom_site_symmetry_multiplicity
 _atom_site_fract_x
 _atom_site_fract_y
 _atom_site_fract_z
 _atom_site_occupancy
  Hg  Hg0  1  0.750000  0.250000  0.500000  1
  Hg  Hg1  1  0.000000  0.000000  0.000000  1
  Au  Au2  1  0.375000  0.625000  0.750000  1
  Au  Au3  1  0.375000  0.125000  0.750000  1
  Au  Au4  1  0.875000  0.625000  0.250000  1
  Au  Au5  1  0.375000  0.625000  0.250000  1
  O  O6  1  0.039991  0.418826  0.044256  1
  O  O7  1  0.745736  0.289991  0.121165  1
  O  O8  1  0.168826  0.624570  0.878835  1
  O  O9  1  0.374570  0.995736  0.955744  1
  O  O10  1  0.710009  0.831174  0.455744  1
  O  O11  1  0.004264  0.960009  0.378835  1
  O  O12  1  0.375430  0.254264  0.544256  1
  O  O13  1  0.581174  0.625430  0.621165  1
