# generated using pymatgen
data_Tb4Zr4Pt3Rh
_symmetry_space_group_name_H-M   'P 1'
_cell_length_a   4.70467700
_cell_length_b   7.22981343
_cell_length_c   8.16661061
_cell_angle_alpha   90.21515424
_cell_angle_beta   90.00000000
_cell_angle_gamma   90.00000000
_symmetry_Int_Tables_number   1
_chemical_formula_structural   Tb4Zr4Pt3Rh
_chemical_formula_sum   'Tb4 Zr4 Pt3 Rh1'
_cell_volume   277.77661991
_cell_formula_units_Z   1
loop_
 _symmetry_equiv_pos_site_id
 _symmetry_equiv_pos_as_xyz
  1  'x, y, z'
loop_
 _atom_site_type_symbol
 _atom_site_label
 _atom_site_symmetry_multiplicity
 _atom_site_fract_x
 _atom_site_fract_y
 _atom_site_fract_z
 _atom_site_occupancy
  Tb  Tb0  1  0.250000  0.020631  0.673206  1
  Tb  Tb1  1  0.250000  0.517533  0.822857  1
  Tb  Tb2  1  0.750000  0.982434  0.324248  1
  Tb  Tb3  1  0.750000  0.480114  0.175922  1
  Zr  Zr4  1  0.250000  0.145938  0.079863  1
  Zr  Zr5  1  0.250000  0.639250  0.418884  1
  Zr  Zr6  1  0.750000  0.854173  0.920040  1
  Zr  Zr7  1  0.750000  0.355933  0.579256  1
  Pt  Pt8  1  0.250000  0.774234  0.094447  1
  Pt  Pt9  1  0.750000  0.728685  0.593573  1
  Pt  Pt10  1  0.750000  0.225983  0.905611  1
  Rh  Rh11  1  0.250000  0.275090  0.412093  1
