# generated using pymatgen
data_Np2Nb2FeNi9As7
_symmetry_space_group_name_H-M   'P 1'
_cell_length_a   3.86346100
_cell_length_b   9.61544574
_cell_length_c   9.65805304
_cell_angle_alpha   120.26899368
_cell_angle_beta   90.00000000
_cell_angle_gamma   90.00000000
_symmetry_Int_Tables_number   1
_chemical_formula_structural   Np2Nb2FeNi9As7
_chemical_formula_sum   'Np2 Nb2 Fe1 Ni9 As7'
_cell_volume   309.87218739
_cell_formula_units_Z   1
loop_
 _symmetry_equiv_pos_site_id
 _symmetry_equiv_pos_as_xyz
  1  'x, y, z'
loop_
 _atom_site_type_symbol
 _atom_site_label
 _atom_site_symmetry_multiplicity
 _atom_site_fract_x
 _atom_site_fract_y
 _atom_site_fract_z
 _atom_site_occupancy
  Np  Np0  1  0.000000  0.666949  0.327749  1
  Np  Np1  1  0.500000  0.338398  0.670749  1
  Nb  Nb2  1  0.500000  0.114082  0.218734  1
  Nb  Nb3  1  0.500000  0.102041  0.884359  1
  Fe  Fe4  1  0.500000  0.779931  0.896880  1
  Ni  Ni5  1  0.000000  0.573976  0.938551  1
  Ni  Ni6  1  0.000000  0.367685  0.426611  1
  Ni  Ni7  1  0.000000  0.058660  0.634324  1
  Ni  Ni8  1  0.000000  0.873782  0.157393  1
  Ni  Ni9  1  0.000000  0.281825  0.127950  1
  Ni  Ni10  1  0.000000  0.841541  0.715268  1
  Ni  Ni11  1  0.500000  0.941279  0.375658  1
  Ni  Ni12  1  0.500000  0.437473  0.058450  1
  Ni  Ni13  1  0.500000  0.622773  0.572094  1
  As  As14  1  0.500000  0.707395  0.108353  1
  As  As15  1  0.500000  0.414478  0.297584  1
  As  As16  1  0.500000  0.880526  0.584806  1
  As  As17  1  0.000000  0.989656  0.994812  1
  As  As18  1  0.000000  0.587845  0.699854  1
  As  As19  1  0.000000  0.114971  0.420927  1
  As  As20  1  0.000000  0.304740  0.888892  1
