# generated using pymatgen
data_LaTb3V3Fe4P12Rh13
_symmetry_space_group_name_H-M   'P 1'
_cell_length_a   3.84280700
_cell_length_b   10.73523631
_cell_length_c   12.50088860
_cell_angle_alpha   90.47196689
_cell_angle_beta   90.00000000
_cell_angle_gamma   90.00000000
_symmetry_Int_Tables_number   1
_chemical_formula_structural   LaTb3V3Fe4P12Rh13
_chemical_formula_sum   'La1 Tb3 V3 Fe4 P12 Rh13'
_cell_volume   515.68717698
_cell_formula_units_Z   1
loop_
 _symmetry_equiv_pos_site_id
 _symmetry_equiv_pos_as_xyz
  1  'x, y, z'
loop_
 _atom_site_type_symbol
 _atom_site_label
 _atom_site_symmetry_multiplicity
 _atom_site_fract_x
 _atom_site_fract_y
 _atom_site_fract_z
 _atom_site_occupancy
  La  La0  1  0.750000  0.421127  0.290205  1
  Tb  Tb1  1  0.250000  0.582997  0.710765  1
  Tb  Tb2  1  0.250000  0.917590  0.207027  1
  Tb  Tb3  1  0.750000  0.078434  0.795411  1
  V  V4  1  0.250000  0.698327  0.986551  1
  V  V5  1  0.250000  0.800068  0.488525  1
  V  V6  1  0.750000  0.298279  0.008831  1
  Fe  Fe7  1  0.250000  0.461501  0.932072  1
  Fe  Fe8  1  0.250000  0.037810  0.438958  1
  Fe  Fe9  1  0.750000  0.536184  0.060422  1
  Fe  Fe10  1  0.750000  0.964992  0.565185  1
  P  P11  1  0.250000  0.426472  0.101419  1
  P  P12  1  0.250000  0.068476  0.610579  1
  P  P13  1  0.750000  0.572830  0.891895  1
  P  P14  1  0.750000  0.926427  0.395442  1
  P  P15  1  0.250000  0.267983  0.871428  1
  P  P16  1  0.250000  0.226161  0.369668  1
  P  P17  1  0.750000  0.728164  0.127387  1
  P  P18  1  0.750000  0.773130  0.630508  1
  P  P19  1  0.250000  0.608278  0.392144  1
  P  P20  1  0.250000  0.895797  0.892920  1
  P  P21  1  0.750000  0.403060  0.609110  1
  P  P22  1  0.750000  0.102979  0.108224  1
  Rh  Rh23  1  0.750000  0.209383  0.513178  1
  Rh  Rh24  1  0.250000  0.406270  0.489446  1
  Rh  Rh25  1  0.250000  0.093892  0.984905  1
  Rh  Rh26  1  0.750000  0.598454  0.516387  1
  Rh  Rh27  1  0.750000  0.903797  0.017257  1
  Rh  Rh28  1  0.250000  0.225835  0.175061  1
  Rh  Rh29  1  0.250000  0.265550  0.678061  1
  Rh  Rh30  1  0.750000  0.770715  0.823997  1
  Rh  Rh31  1  0.750000  0.731141  0.323725  1
  Rh  Rh32  1  0.250000  0.881039  0.699527  1
  Rh  Rh33  1  0.250000  0.620299  0.195187  1
  Rh  Rh34  1  0.750000  0.112846  0.301604  1
  Rh  Rh35  1  0.750000  0.383712  0.796988  1
