# generated using pymatgen
data_HoU3SnIr4Pb
_symmetry_space_group_name_H-M   'P 1'
_cell_length_a   7.72934445
_cell_length_b   7.77114809
_cell_length_c   3.52950900
_cell_angle_alpha   90.00000000
_cell_angle_beta   90.00000000
_cell_angle_gamma   91.30907656
_symmetry_Int_Tables_number   1
_chemical_formula_structural   HoU3SnIr4Pb
_chemical_formula_sum   'Ho1 U3 Sn1 Ir4 Pb1'
_cell_volume   211.94773305
_cell_formula_units_Z   1
loop_
 _symmetry_equiv_pos_site_id
 _symmetry_equiv_pos_as_xyz
  1  'x, y, z'
loop_
 _atom_site_type_symbol
 _atom_site_label
 _atom_site_symmetry_multiplicity
 _atom_site_fract_x
 _atom_site_fract_y
 _atom_site_fract_z
 _atom_site_occupancy
  Ho  Ho0  1  0.172929  0.333305  0.000000  1
  U  U1  1  0.830467  0.664911  0.000000  1
  U  U2  1  0.664563  0.175319  0.000000  1
  U  U3  1  0.330929  0.826991  0.000000  1
  Sn  Sn4  1  0.490749  0.497207  0.500000  1
  Ir  Ir5  1  0.392869  0.114713  0.500000  1
  Ir  Ir6  1  0.638444  0.852828  0.500000  1
  Ir  Ir7  1  0.848587  0.379454  0.500000  1
  Ir  Ir8  1  0.127681  0.644307  0.500000  1
  Pb  Pb9  1  0.002781  0.010967  0.500000  1
