# generated using pymatgen
data_Tb4Tm12Cd4Ru3Pt
_symmetry_space_group_name_H-M   'P 1'
_cell_length_a   9.57130996
_cell_length_b   9.59810403
_cell_length_c   9.59810525
_cell_angle_alpha   59.66709804
_cell_angle_beta   59.47334770
_cell_angle_gamma   59.47334576
_symmetry_Int_Tables_number   1
_chemical_formula_structural   Tb4Tm12Cd4Ru3Pt
_chemical_formula_sum   'Tb4 Tm12 Cd4 Ru3 Pt1'
_cell_volume   616.93161169
_cell_formula_units_Z   1
loop_
 _symmetry_equiv_pos_site_id
 _symmetry_equiv_pos_as_xyz
  1  'x, y, z'
loop_
 _atom_site_type_symbol
 _atom_site_label
 _atom_site_symmetry_multiplicity
 _atom_site_fract_x
 _atom_site_fract_y
 _atom_site_fract_z
 _atom_site_occupancy
  Tb  Tb0  1  0.557471  0.938857  0.565468  1
  Tb  Tb1  1  0.938308  0.560163  0.939198  1
  Tb  Tb2  1  0.557471  0.565468  0.938857  1
  Tb  Tb3  1  0.938308  0.939198  0.560163  1
  Tm  Tm4  1  0.345740  0.350584  0.350584  1
  Tm  Tm5  1  0.346075  0.350101  0.956035  1
  Tm  Tm6  1  0.346075  0.956035  0.350101  1
  Tm  Tm7  1  0.962860  0.345902  0.345902  1
  Tm  Tm8  1  0.815914  0.188017  0.188017  1
  Tm  Tm9  1  0.184686  0.812377  0.812377  1
  Tm  Tm10  1  0.187440  0.811697  0.187828  1
  Tm  Tm11  1  0.814709  0.188884  0.805632  1
  Tm  Tm12  1  0.187440  0.187828  0.811697  1
  Tm  Tm13  1  0.814709  0.805632  0.188884  1
  Tm  Tm14  1  0.938938  0.559488  0.559488  1
  Tm  Tm15  1  0.556384  0.939588  0.939588  1
  Cd  Cd16  1  0.581115  0.579641  0.579641  1
  Cd  Cd17  1  0.580247  0.581143  0.258176  1
  Cd  Cd18  1  0.580247  0.258176  0.581143  1
  Cd  Cd19  1  0.256984  0.580426  0.580426  1
  Ru  Ru20  1  0.144839  0.138468  0.138468  1
  Ru  Ru21  1  0.144117  0.142458  0.577546  1
  Ru  Ru22  1  0.144117  0.577546  0.142458  1
  Pt  Pt23  1  0.575805  0.142327  0.142327  1
