# generated using pymatgen
data_BaAc3Au4
_symmetry_space_group_name_H-M   'P 1'
_cell_length_a   5.04629400
_cell_length_b   6.27368546
_cell_length_c   8.02604833
_cell_angle_alpha   91.80160948
_cell_angle_beta   90.00000000
_cell_angle_gamma   90.00000000
_symmetry_Int_Tables_number   1
_chemical_formula_structural   BaAc3Au4
_chemical_formula_sum   'Ba1 Ac3 Au4'
_cell_volume   253.96994563
_cell_formula_units_Z   1
loop_
 _symmetry_equiv_pos_site_id
 _symmetry_equiv_pos_as_xyz
  1  'x, y, z'
loop_
 _atom_site_type_symbol
 _atom_site_label
 _atom_site_symmetry_multiplicity
 _atom_site_fract_x
 _atom_site_fract_y
 _atom_site_fract_z
 _atom_site_occupancy
  Ba  Ba0  1  0.750000  0.854454  0.814696  1
  Ac  Ac1  1  0.250000  0.354850  0.683130  1
  Ac  Ac2  1  0.250000  0.144325  0.188013  1
  Ac  Ac3  1  0.750000  0.643083  0.317177  1
  Au  Au4  1  0.250000  0.848698  0.525767  1
  Au  Au5  1  0.250000  0.639952  0.054969  1
  Au  Au6  1  0.750000  0.160055  0.450362  1
  Au  Au7  1  0.750000  0.354582  0.965885  1
