# generated using pymatgen
data_Cs4NdHo3(SiSe4)4
_symmetry_space_group_name_H-M   'P 1'
_cell_length_a   7.08138686
_cell_length_b   9.91129530
_cell_length_c   13.44057794
_cell_angle_alpha   71.34485984
_cell_angle_beta   89.78263200
_cell_angle_gamma   89.92533988
_symmetry_Int_Tables_number   1
_chemical_formula_structural   Cs4NdHo3(SiSe4)4
_chemical_formula_sum   'Cs4 Nd1 Ho3 Si4 Se16'
_cell_volume   893.76820508
_cell_formula_units_Z   1
loop_
 _symmetry_equiv_pos_site_id
 _symmetry_equiv_pos_as_xyz
  1  'x, y, z'
loop_
 _atom_site_type_symbol
 _atom_site_label
 _atom_site_symmetry_multiplicity
 _atom_site_fract_x
 _atom_site_fract_y
 _atom_site_fract_z
 _atom_site_occupancy
  Cs  Cs0  1  0.252864  0.436658  0.384114  1
  Cs  Cs1  1  0.752986  0.563360  0.115925  1
  Cs  Cs2  1  0.748247  0.563890  0.613756  1
  Cs  Cs3  1  0.246934  0.436403  0.884981  1
  Nd  Nd4  1  0.303703  0.952962  0.865409  1
  Ho  Ho5  1  0.187700  0.954083  0.365483  1
  Ho  Ho6  1  0.688710  0.046627  0.134944  1
  Ho  Ho7  1  0.811722  0.047136  0.633144  1
  Si  Si8  1  0.742382  0.160514  0.356543  1
  Si  Si9  1  0.242342  0.837855  0.146659  1
  Si  Si10  1  0.257426  0.837475  0.641693  1
  Si  Si11  1  0.757768  0.163959  0.855255  1
  Se  Se12  1  0.027781  0.196338  0.754684  1
  Se  Se13  1  0.782249  0.930068  0.461151  1
  Se  Se14  1  0.530515  0.203156  0.727866  1
  Se  Se15  1  0.729095  0.932568  0.960858  1
  Se  Se16  1  0.757826  0.306739  0.456671  1
  Se  Se17  1  0.967761  0.810837  0.242766  1
  Se  Se18  1  0.257310  0.685906  0.050749  1
  Se  Se19  1  0.218443  0.069393  0.539245  1
  Se  Se20  1  0.740991  0.307748  0.957235  1
  Se  Se21  1  0.472918  0.800384  0.272049  1
  Se  Se22  1  0.022299  0.796543  0.766603  1
  Se  Se23  1  0.243001  0.692695  0.540810  1
  Se  Se24  1  0.469240  0.188754  0.260051  1
  Se  Se25  1  0.971713  0.199312  0.229299  1
  Se  Se26  1  0.532400  0.808399  0.737221  1
  Se  Se27  1  0.283676  0.070238  0.044834  1
