# generated using pymatgen
data_Ba10Fe5O19
_symmetry_space_group_name_H-M   'P 1'
_cell_length_a   9.26169077
_cell_length_b   9.26169043
_cell_length_c   9.12536682
_cell_angle_alpha   60.52543126
_cell_angle_beta   60.52542656
_cell_angle_gamma   91.65790275
_symmetry_Int_Tables_number   1
_chemical_formula_structural   Ba10Fe5O19
_chemical_formula_sum   'Ba10 Fe5 O19'
_cell_volume   554.02491190
_cell_formula_units_Z   1
loop_
 _symmetry_equiv_pos_site_id
 _symmetry_equiv_pos_as_xyz
  1  'x, y, z'
loop_
 _atom_site_type_symbol
 _atom_site_label
 _atom_site_symmetry_multiplicity
 _atom_site_fract_x
 _atom_site_fract_y
 _atom_site_fract_z
 _atom_site_occupancy
  Ba  Ba0  1  0.857811  0.142189  0.000000  1
  Ba  Ba1  1  0.647848  0.938906  0.808660  1
  Ba  Ba2  1  0.456517  0.740737  0.598225  1
  Ba  Ba3  1  0.259263  0.543483  0.401775  1
  Ba  Ba4  1  0.061094  0.352152  0.191340  1
  Ba  Ba5  1  0.543483  0.259263  0.401775  1
  Ba  Ba6  1  0.352152  0.061094  0.191340  1
  Ba  Ba7  1  0.142189  0.857811  0.000000  1
  Ba  Ba8  1  0.938906  0.647848  0.808660  1
  Ba  Ba9  1  0.740737  0.456517  0.598225  1
  Fe  Fe10  1  0.893362  0.893362  0.390560  1
  Fe  Fe11  1  0.696320  0.696320  0.199985  1
  Fe  Fe12  1  0.500000  0.500000  0.000000  1
  Fe  Fe13  1  0.303680  0.303680  0.800015  1
  Fe  Fe14  1  0.106638  0.106638  0.609440  1
  O  O15  1  0.093462  0.093462  0.122380  1
  O  O16  1  0.500000  0.500000  0.500000  1
  O  O17  1  0.906538  0.906538  0.877620  1
  O  O18  1  0.284432  0.284432  0.317108  1
  O  O19  1  0.715568  0.715568  0.682892  1
  O  O20  1  0.649631  0.350369  0.000000  1
  O  O21  1  0.451166  0.147145  0.805671  1
  O  O22  1  0.236729  0.948034  0.595143  1
  O  O23  1  0.051966  0.763271  0.404857  1
  O  O24  1  0.852855  0.548834  0.194329  1
  O  O25  1  0.763271  0.051966  0.404857  1
  O  O26  1  0.548834  0.852855  0.194329  1
  O  O27  1  0.350369  0.649631  0.000000  1
  O  O28  1  0.147145  0.451166  0.805671  1
  O  O29  1  0.948034  0.236729  0.595143  1
  O  O30  1  0.406184  0.406184  0.898333  1
  O  O31  1  0.802429  0.802429  0.289210  1
  O  O32  1  0.197571  0.197571  0.710790  1
  O  O33  1  0.593816  0.593816  0.101667  1
