# generated using pymatgen
data_TbYCCl2
_symmetry_space_group_name_H-M   'P 1'
_cell_length_a   3.73117200
_cell_length_b   3.73117223
_cell_length_c   9.96152200
_cell_angle_alpha   90.00000000
_cell_angle_beta   90.00000000
_cell_angle_gamma   119.99999799
_symmetry_Int_Tables_number   1
_chemical_formula_structural   TbYCCl2
_chemical_formula_sum   'Tb1 Y1 C1 Cl2'
_cell_volume   120.10107776
_cell_formula_units_Z   1
loop_
 _symmetry_equiv_pos_site_id
 _symmetry_equiv_pos_as_xyz
  1  'x, y, z'
loop_
 _atom_site_type_symbol
 _atom_site_label
 _atom_site_symmetry_multiplicity
 _atom_site_fract_x
 _atom_site_fract_y
 _atom_site_fract_z
 _atom_site_occupancy
  Tb  Tb0  1  0.666668  0.333335  0.635659  1
  Y  Y1  1  0.333333  0.666666  0.364024  1
  C  C2  1  0.000000  0.000000  0.499804  1
  Cl  Cl3  1  0.666668  0.333335  0.188445  1
  Cl  Cl4  1  0.333333  0.666666  0.812067  1
