# generated using pymatgen
data_Nb4PdSe8
_symmetry_space_group_name_H-M   'P 1'
_cell_length_a   7.04052500
_cell_length_b   7.04052531
_cell_length_c   12.95511900
_cell_angle_alpha   90.00000000
_cell_angle_beta   90.00000000
_cell_angle_gamma   120.00001263
_symmetry_Int_Tables_number   1
_chemical_formula_structural   Nb4PdSe8
_chemical_formula_sum   'Nb8 Pd2 Se16'
_cell_volume   556.13738715
_cell_formula_units_Z   2
loop_
 _symmetry_equiv_pos_site_id
 _symmetry_equiv_pos_as_xyz
  1  'x, y, z'
loop_
 _atom_site_type_symbol
 _atom_site_label
 _atom_site_symmetry_multiplicity
 _atom_site_fract_x
 _atom_site_fract_y
 _atom_site_fract_z
 _atom_site_occupancy
  Nb  Nb0  1  0.000000  0.000000  0.248759  1
  Nb  Nb1  1  0.000000  0.000000  0.751241  1
  Nb  Nb2  1  0.510898  0.021795  0.248560  1
  Nb  Nb3  1  0.978205  0.489102  0.248560  1
  Nb  Nb4  1  0.510898  0.489102  0.248560  1
  Nb  Nb5  1  0.489102  0.978205  0.751440  1
  Nb  Nb6  1  0.021795  0.510898  0.751440  1
  Nb  Nb7  1  0.489102  0.510898  0.751440  1
  Pd  Pd8  1  0.000000  0.000000  0.000000  1
  Pd  Pd9  1  0.000000  0.000000  0.500000  1
  Se  Se10  1  0.333333  0.666667  0.888567  1
  Se  Se11  1  0.666667  0.333333  0.111433  1
  Se  Se12  1  0.666667  0.333333  0.385527  1
  Se  Se13  1  0.333333  0.666667  0.614473  1
  Se  Se14  1  0.169557  0.830443  0.373655  1
  Se  Se15  1  0.169557  0.339116  0.373655  1
  Se  Se16  1  0.660884  0.830443  0.373655  1
  Se  Se17  1  0.830443  0.169557  0.626345  1
  Se  Se18  1  0.830443  0.660884  0.626345  1
  Se  Se19  1  0.339116  0.169557  0.626345  1
  Se  Se20  1  0.830228  0.169772  0.876211  1
  Se  Se21  1  0.830228  0.660456  0.876211  1
  Se  Se22  1  0.339544  0.169772  0.876211  1
  Se  Se23  1  0.169772  0.830228  0.123789  1
  Se  Se24  1  0.169772  0.339544  0.123789  1
  Se  Se25  1  0.660456  0.830228  0.123789  1
