# generated using pymatgen
data_La4Ge10PdPt5
_symmetry_space_group_name_H-M   'P 1'
_cell_length_a   8.58362153
_cell_length_b   8.58362129
_cell_length_c   6.33991300
_cell_angle_alpha   68.21369364
_cell_angle_beta   68.21370149
_cell_angle_gamma   88.67402783
_symmetry_Int_Tables_number   1
_chemical_formula_structural   La4Ge10PdPt5
_chemical_formula_sum   'La4 Ge10 Pd1 Pt5'
_cell_volume   399.19703652
_cell_formula_units_Z   1
loop_
 _symmetry_equiv_pos_site_id
 _symmetry_equiv_pos_as_xyz
  1  'x, y, z'
loop_
 _atom_site_type_symbol
 _atom_site_label
 _atom_site_symmetry_multiplicity
 _atom_site_fract_x
 _atom_site_fract_y
 _atom_site_fract_z
 _atom_site_occupancy
  La  La0  1  0.860079  0.602445  0.768999  1
  La  La1  1  0.139987  0.397556  0.231787  1
  La  La2  1  0.397555  0.139921  0.731001  1
  La  La3  1  0.602444  0.860013  0.268213  1
  Ge  Ge4  1  0.770458  0.229542  0.750000  1
  Ge  Ge5  1  0.229005  0.770995  0.250000  1
  Ge  Ge6  1  0.500278  0.499722  0.750000  1
  Ge  Ge7  1  0.499701  0.500299  0.250000  1
  Ge  Ge8  1  0.229567  0.770433  0.750000  1
  Ge  Ge9  1  0.770843  0.229157  0.250000  1
  Ge  Ge10  1  0.261152  0.043284  0.347848  1
  Ge  Ge11  1  0.738857  0.956611  0.652418  1
  Ge  Ge12  1  0.956716  0.738848  0.152152  1
  Ge  Ge13  1  0.043389  0.261143  0.847582  1
  Pd  Pd14  1  0.999958  0.000042  0.750000  1
  Pt  Pt15  1  0.525788  0.250817  0.111870  1
  Pt  Pt16  1  0.749183  0.474212  0.388130  1
  Pt  Pt17  1  0.474202  0.749163  0.887391  1
  Pt  Pt18  1  0.250837  0.525798  0.612609  1
  Pt  Pt19  1  0.000003  0.999997  0.250000  1
