# generated using pymatgen
data_Nd8Pd23PtPb
_symmetry_space_group_name_H-M   'P 1'
_cell_length_a   8.56766700
_cell_length_b   8.56461100
_cell_length_c   8.56461100
_cell_angle_alpha   90.00000000
_cell_angle_beta   90.00000000
_cell_angle_gamma   90.00000000
_symmetry_Int_Tables_number   1
_chemical_formula_structural   Nd8Pd23PtPb
_chemical_formula_sum   'Nd8 Pd23 Pt1 Pb1'
_cell_volume   628.46032123
_cell_formula_units_Z   1
loop_
 _symmetry_equiv_pos_site_id
 _symmetry_equiv_pos_as_xyz
  1  'x, y, z'
loop_
 _atom_site_type_symbol
 _atom_site_label
 _atom_site_symmetry_multiplicity
 _atom_site_fract_x
 _atom_site_fract_y
 _atom_site_fract_z
 _atom_site_occupancy
  Nd  Nd0  1  0.252014  0.252390  0.252390  1
  Nd  Nd1  1  0.748017  0.748013  0.748013  1
  Nd  Nd2  1  0.748017  0.748013  0.251987  1
  Nd  Nd3  1  0.748017  0.251987  0.748013  1
  Nd  Nd4  1  0.252014  0.252390  0.747610  1
  Nd  Nd5  1  0.252014  0.747610  0.252390  1
  Nd  Nd6  1  0.252014  0.747610  0.747610  1
  Nd  Nd7  1  0.748017  0.251987  0.251987  1
  Pd  Pd8  1  0.268625  0.500000  0.000000  1
  Pd  Pd9  1  0.731185  0.500000  0.000000  1
  Pd  Pd10  1  0.000100  0.268678  0.500000  1
  Pd  Pd11  1  0.500114  0.268602  0.000000  1
  Pd  Pd12  1  0.000100  0.731322  0.500000  1
  Pd  Pd13  1  0.500114  0.731398  0.000000  1
  Pd  Pd14  1  0.500114  0.000000  0.268602  1
  Pd  Pd15  1  0.268625  0.000000  0.500000  1
  Pd  Pd16  1  0.500114  0.000000  0.731398  1
  Pd  Pd17  1  0.731185  0.000000  0.500000  1
  Pd  Pd18  1  0.000100  0.500000  0.268678  1
  Pd  Pd19  1  0.000100  0.500000  0.731322  1
  Pd  Pd20  1  0.744526  0.500000  0.500000  1
  Pd  Pd21  1  0.499914  0.255647  0.500000  1
  Pd  Pd22  1  0.499914  0.744353  0.500000  1
  Pd  Pd23  1  0.499914  0.500000  0.255647  1
  Pd  Pd24  1  0.499914  0.500000  0.744353  1
  Pd  Pd25  1  0.320141  0.000000  0.000000  1
  Pd  Pd26  1  0.680015  0.000000  0.000000  1
  Pd  Pd27  1  0.999921  0.319946  0.000000  1
  Pd  Pd28  1  0.999921  0.680054  0.000000  1
  Pd  Pd29  1  0.999921  0.000000  0.319946  1
  Pd  Pd30  1  0.999921  0.000000  0.680054  1
  Pt  Pt31  1  0.255314  0.500000  0.500000  1
  Pb  Pb32  1  0.000062  0.000000  0.000000  1
