# generated using pymatgen
data_RbNa(GaSb)3
_symmetry_space_group_name_H-M   'P 1'
_cell_length_a   4.43280100
_cell_length_b   7.40946500
_cell_length_c   28.95095000
_cell_angle_alpha   90.00000000
_cell_angle_beta   90.00000000
_cell_angle_gamma   90.00000000
_symmetry_Int_Tables_number   1
_chemical_formula_structural   RbNa(GaSb)3
_chemical_formula_sum   'Rb4 Na4 Ga12 Sb12'
_cell_volume   950.88480024
_cell_formula_units_Z   4
loop_
 _symmetry_equiv_pos_site_id
 _symmetry_equiv_pos_as_xyz
  1  'x, y, z'
loop_
 _atom_site_type_symbol
 _atom_site_label
 _atom_site_symmetry_multiplicity
 _atom_site_fract_x
 _atom_site_fract_y
 _atom_site_fract_z
 _atom_site_occupancy
  Rb  Rb0  1  0.250000  0.227134  0.496401  1
  Rb  Rb1  1  0.750000  0.772866  0.503599  1
  Rb  Rb2  1  0.750000  0.727134  0.003599  1
  Rb  Rb3  1  0.250000  0.272866  0.996401  1
  Na  Na4  1  0.250000  0.247382  0.813224  1
  Na  Na5  1  0.750000  0.752618  0.186776  1
  Na  Na6  1  0.750000  0.747382  0.686776  1
  Na  Na7  1  0.250000  0.252618  0.313224  1
  Ga  Ga8  1  0.250000  0.547951  0.626339  1
  Ga  Ga9  1  0.750000  0.452049  0.373661  1
  Ga  Ga10  1  0.750000  0.047951  0.873661  1
  Ga  Ga11  1  0.250000  0.952049  0.126339  1
  Ga  Ga12  1  0.250000  0.072729  0.209830  1
  Ga  Ga13  1  0.750000  0.927271  0.790170  1
  Ga  Ga14  1  0.750000  0.572729  0.290170  1
  Ga  Ga15  1  0.250000  0.427271  0.709830  1
  Ga  Ga16  1  0.750000  0.401578  0.130742  1
  Ga  Ga17  1  0.250000  0.598422  0.869258  1
  Ga  Ga18  1  0.250000  0.901578  0.369258  1
  Ga  Ga19  1  0.750000  0.098422  0.630742  1
  Sb  Sb20  1  0.750000  0.206022  0.721921  1
  Sb  Sb21  1  0.250000  0.793978  0.278079  1
  Sb  Sb22  1  0.250000  0.706022  0.778079  1
  Sb  Sb23  1  0.750000  0.293978  0.221921  1
  Sb  Sb24  1  0.250000  0.909068  0.603443  1
  Sb  Sb25  1  0.750000  0.090932  0.396557  1
  Sb  Sb26  1  0.750000  0.409068  0.896557  1
  Sb  Sb27  1  0.250000  0.590932  0.103443  1
  Sb  Sb28  1  0.750000  0.410428  0.584623  1
  Sb  Sb29  1  0.250000  0.589572  0.415377  1
  Sb  Sb30  1  0.250000  0.910428  0.915377  1
  Sb  Sb31  1  0.750000  0.089572  0.084623  1
