# generated using pymatgen
data_La3Nd15B6(C6Br5)2
_symmetry_space_group_name_H-M   'P 1'
_cell_length_a   3.83296400
_cell_length_b   7.79247364
_cell_length_c   32.99383664
_cell_angle_alpha   90.04607668
_cell_angle_beta   90.00000000
_cell_angle_gamma   90.00000000
_symmetry_Int_Tables_number   1
_chemical_formula_structural   La3Nd15B6(C6Br5)2
_chemical_formula_sum   'La3 Nd15 B6 C12 Br10'
_cell_volume   985.46853277
_cell_formula_units_Z   1
loop_
 _symmetry_equiv_pos_site_id
 _symmetry_equiv_pos_as_xyz
  1  'x, y, z'
loop_
 _atom_site_type_symbol
 _atom_site_label
 _atom_site_symmetry_multiplicity
 _atom_site_fract_x
 _atom_site_fract_y
 _atom_site_fract_z
 _atom_site_occupancy
  La  La0  1  0.250000  0.547862  0.249910  1
  La  La1  1  0.250000  0.198213  0.509618  1
  La  La2  1  0.750000  0.452145  0.750060  1
  Nd  Nd3  1  0.250000  0.192479  0.990546  1
  Nd  Nd4  1  0.250000  0.345683  0.866127  1
  Nd  Nd5  1  0.250000  0.916658  0.904827  1
  Nd  Nd6  1  0.750000  0.050218  0.694545  1
  Nd  Nd7  1  0.750000  0.654232  0.133759  1
  Nd  Nd8  1  0.750000  0.807311  0.009537  1
  Nd  Nd9  1  0.750000  0.083394  0.095163  1
  Nd  Nd10  1  0.750000  0.654168  0.365850  1
  Nd  Nd11  1  0.750000  0.082408  0.404695  1
  Nd  Nd12  1  0.250000  0.949521  0.194346  1
  Nd  Nd13  1  0.250000  0.949530  0.305522  1
  Nd  Nd14  1  0.750000  0.806849  0.490541  1
  Nd  Nd15  1  0.750000  0.050480  0.805631  1
  Nd  Nd16  1  0.250000  0.916184  0.595648  1
  Nd  Nd17  1  0.250000  0.345090  0.634047  1
  B  B18  1  0.750000  0.137174  0.920278  1
  B  B19  1  0.250000  0.861822  0.420075  1
  B  B20  1  0.750000  0.778493  0.249880  1
  B  B21  1  0.250000  0.862470  0.079704  1
  B  B22  1  0.750000  0.136190  0.580086  1
  B  B23  1  0.250000  0.221631  0.750059  1
  C  C24  1  0.250000  0.270007  0.793637  1
  C  C25  1  0.250000  0.971322  0.042759  1
  C  C26  1  0.750000  0.135499  0.875472  1
  C  C27  1  0.750000  0.026428  0.543209  1
  C  C28  1  0.250000  0.864115  0.375304  1
  C  C29  1  0.750000  0.730020  0.293430  1
  C  C30  1  0.250000  0.864654  0.124533  1
  C  C31  1  0.750000  0.028765  0.957264  1
  C  C32  1  0.750000  0.730072  0.206301  1
  C  C33  1  0.250000  0.969441  0.457254  1
  C  C34  1  0.250000  0.270007  0.706520  1
  C  C35  1  0.750000  0.134355  0.624904  1
  Br  Br36  1  0.750000  0.427154  0.450506  1
  Br  Br37  1  0.750000  0.676172  0.849166  1
  Br  Br38  1  0.250000  0.795417  0.750088  1
  Br  Br39  1  0.250000  0.579703  0.548268  1
  Br  Br40  1  0.250000  0.576589  0.952152  1
  Br  Br41  1  0.250000  0.323356  0.349075  1
  Br  Br42  1  0.750000  0.204402  0.249970  1
  Br  Br43  1  0.250000  0.323827  0.150848  1
  Br  Br44  1  0.750000  0.423218  0.047812  1
  Br  Br45  1  0.750000  0.675272  0.651079  1
