# generated using pymatgen
data_YB9N
_symmetry_space_group_name_H-M   'P 1'
_cell_length_a   7.59571645
_cell_length_b   7.59571669
_cell_length_c   7.59571605
_cell_angle_alpha   42.63805264
_cell_angle_beta   42.63805243
_cell_angle_gamma   42.63806063
_symmetry_Int_Tables_number   1
_chemical_formula_structural   YB9N
_chemical_formula_sum   'Y2 B18 N2'
_cell_volume   182.11770061
_cell_formula_units_Z   2
loop_
 _symmetry_equiv_pos_site_id
 _symmetry_equiv_pos_as_xyz
  1  'x, y, z'
loop_
 _atom_site_type_symbol
 _atom_site_label
 _atom_site_symmetry_multiplicity
 _atom_site_fract_x
 _atom_site_fract_y
 _atom_site_fract_z
 _atom_site_occupancy
  Y  Y0  1  0.701074  0.701074  0.701074  1
  Y  Y1  1  0.298926  0.298926  0.298926  1
  B  B2  1  0.179170  0.857352  0.857352  1
  B  B3  1  0.857352  0.179170  0.857352  1
  B  B4  1  0.857352  0.857352  0.179170  1
  B  B5  1  0.820830  0.142648  0.142648  1
  B  B6  1  0.336983  0.336983  0.866369  1
  B  B7  1  0.336983  0.866369  0.336983  1
  B  B8  1  0.866369  0.336983  0.336983  1
  B  B9  1  0.663017  0.663017  0.133631  1
  B  B10  1  0.663017  0.133631  0.663017  1
  B  B11  1  0.133631  0.663017  0.663017  1
  B  B12  1  0.323729  0.323729  0.648036  1
  B  B13  1  0.323729  0.648036  0.323729  1
  B  B14  1  0.648036  0.323729  0.323729  1
  B  B15  1  0.676271  0.676271  0.351964  1
  B  B16  1  0.676271  0.351964  0.676271  1
  B  B17  1  0.351964  0.676271  0.676271  1
  B  B18  1  0.142648  0.142648  0.820830  1
  B  B19  1  0.142648  0.820830  0.142648  1
  N  N20  1  0.810954  0.810954  0.810954  1
  N  N21  1  0.189046  0.189046  0.189046  1
