# generated using pymatgen
data_Ho3PaCoB14
_symmetry_space_group_name_H-M   'P 1'
_cell_length_a   7.20791804
_cell_length_b   7.20929290
_cell_length_c   7.50088900
_cell_angle_alpha   90.00000000
_cell_angle_beta   90.00000000
_cell_angle_gamma   90.03492246
_symmetry_Int_Tables_number   1
_chemical_formula_structural   Ho3PaCoB14
_chemical_formula_sum   'Ho6 Pa2 Co2 B28'
_cell_volume   389.77606658
_cell_formula_units_Z   2
loop_
 _symmetry_equiv_pos_site_id
 _symmetry_equiv_pos_as_xyz
  1  'x, y, z'
loop_
 _atom_site_type_symbol
 _atom_site_label
 _atom_site_symmetry_multiplicity
 _atom_site_fract_x
 _atom_site_fract_y
 _atom_site_fract_z
 _atom_site_occupancy
  Ho  Ho0  1  0.332827  0.807509  0.000000  1
  Ho  Ho1  1  0.693830  0.170523  0.500000  1
  Ho  Ho2  1  0.307547  0.831954  0.500000  1
  Ho  Ho3  1  0.808427  0.666262  0.000000  1
  Ho  Ho4  1  0.831501  0.693045  0.500000  1
  Ho  Ho5  1  0.168582  0.307288  0.500000  1
  Pa  Pa6  1  0.192895  0.326299  0.000000  1
  Pa  Pa7  1  0.673663  0.193165  0.000000  1
  Co  Co8  1  0.998609  0.000115  0.000000  1
  Co  Co9  1  0.499285  0.501622  0.500000  1
  B  B10  1  0.173461  0.039229  0.231216  1
  B  B11  1  0.961163  0.172938  0.234073  1
  B  B12  1  0.039194  0.824668  0.229422  1
  B  B13  1  0.674111  0.461101  0.270533  1
  B  B14  1  0.325343  0.540335  0.270368  1
  B  B15  1  0.825314  0.959722  0.231453  1
  B  B16  1  0.539744  0.675457  0.271970  1
  B  B17  1  0.460730  0.326964  0.269589  1
  B  B18  1  0.825314  0.959722  0.768547  1
  B  B19  1  0.039194  0.824668  0.770578  1
  B  B20  1  0.961163  0.172938  0.765927  1
  B  B21  1  0.325343  0.540335  0.729632  1
  B  B22  1  0.674111  0.461101  0.729467  1
  B  B23  1  0.173461  0.039229  0.768784  1
  B  B24  1  0.460730  0.326964  0.730411  1
  B  B25  1  0.539744  0.675457  0.728030  1
  B  B26  1  0.088459  0.588773  0.245678  1
  B  B27  1  0.410271  0.090320  0.243181  1
  B  B28  1  0.588017  0.912359  0.247366  1
  B  B29  1  0.910406  0.410379  0.244301  1
  B  B30  1  0.910406  0.410379  0.755699  1
  B  B31  1  0.588017  0.912359  0.752634  1
  B  B32  1  0.410271  0.090320  0.756819  1
  B  B33  1  0.088459  0.588773  0.754322  1
  B  B34  1  0.000502  0.996558  0.390534  1
  B  B35  1  0.499700  0.502307  0.110993  1
  B  B36  1  0.000502  0.996558  0.609466  1
  B  B37  1  0.499700  0.502307  0.889007  1
