# generated using pymatgen
data_Np4ReB12W
_symmetry_space_group_name_H-M   'P 1'
_cell_length_a   3.64846100
_cell_length_b   9.28555501
_cell_length_c   11.33256601
_cell_angle_alpha   89.99551705
_cell_angle_beta   90.00000000
_cell_angle_gamma   90.00000000
_symmetry_Int_Tables_number   1
_chemical_formula_structural   Np4ReB12W
_chemical_formula_sum   'Np8 Re2 B24 W2'
_cell_volume   383.92450355
_cell_formula_units_Z   2
loop_
 _symmetry_equiv_pos_site_id
 _symmetry_equiv_pos_as_xyz
  1  'x, y, z'
loop_
 _atom_site_type_symbol
 _atom_site_label
 _atom_site_symmetry_multiplicity
 _atom_site_fract_x
 _atom_site_fract_y
 _atom_site_fract_z
 _atom_site_occupancy
  Np  Np0  1  0.000000  0.337898  0.407561  1
  Np  Np1  1  0.000000  0.662102  0.592439  1
  Np  Np2  1  0.000000  0.837589  0.093367  1
  Np  Np3  1  0.000000  0.162411  0.906633  1
  Np  Np4  1  0.000000  0.958194  0.400489  1
  Np  Np5  1  0.000000  0.041806  0.599511  1
  Np  Np6  1  0.000000  0.459196  0.099894  1
  Np  Np7  1  0.000000  0.540804  0.900106  1
  Re  Re8  1  0.000000  0.145483  0.180363  1
  Re  Re9  1  0.000000  0.854517  0.819637  1
  B  B10  1  0.500000  0.551010  0.432630  1
  B  B11  1  0.500000  0.448990  0.567370  1
  B  B12  1  0.500000  0.051546  0.068093  1
  B  B13  1  0.500000  0.948454  0.931907  1
  B  B14  1  0.500000  0.744454  0.424797  1
  B  B15  1  0.500000  0.255546  0.575203  1
  B  B16  1  0.500000  0.243461  0.076465  1
  B  B17  1  0.500000  0.756539  0.923535  1
  B  B18  1  0.500000  0.806038  0.273894  1
  B  B19  1  0.500000  0.193962  0.726106  1
  B  B20  1  0.500000  0.304309  0.225600  1
  B  B21  1  0.500000  0.695691  0.774400  1
  B  B22  1  0.500000  0.645724  0.186839  1
  B  B23  1  0.500000  0.354276  0.813161  1
  B  B24  1  0.500000  0.145602  0.311692  1
  B  B25  1  0.500000  0.854398  0.688308  1
  B  B26  1  0.500000  0.988234  0.220239  1
  B  B27  1  0.500000  0.011766  0.779761  1
  B  B28  1  0.500000  0.486325  0.279104  1
  B  B29  1  0.500000  0.513675  0.720896  1
  B  B30  1  0.500000  0.642247  0.038728  1
  B  B31  1  0.500000  0.357753  0.961272  1
  B  B32  1  0.500000  0.141818  0.459987  1
  B  B33  1  0.500000  0.858182  0.540013  1
  W  W34  1  0.000000  0.646201  0.319255  1
  W  W35  1  0.000000  0.353799  0.680745  1
