# generated using pymatgen
data_La2TbY3(IrO7)2
_symmetry_space_group_name_H-M   'P 1'
_cell_length_a   6.51181144
_cell_length_b   6.50286672
_cell_length_c   7.54307200
_cell_angle_alpha   90.00000000
_cell_angle_beta   90.00000000
_cell_angle_gamma   109.72435743
_symmetry_Int_Tables_number   1
_chemical_formula_structural   La2TbY3(IrO7)2
_chemical_formula_sum   'La2 Tb1 Y3 Ir2 O14'
_cell_volume   300.67374671
_cell_formula_units_Z   1
loop_
 _symmetry_equiv_pos_site_id
 _symmetry_equiv_pos_as_xyz
  1  'x, y, z'
loop_
 _atom_site_type_symbol
 _atom_site_label
 _atom_site_symmetry_multiplicity
 _atom_site_fract_x
 _atom_site_fract_y
 _atom_site_fract_z
 _atom_site_occupancy
  La  La0  1  0.999971  0.999952  0.500041  1
  La  La1  1  0.999971  0.999952  0.999959  1
  Tb  Tb2  1  0.516437  0.064743  0.250000  1
  Y  Y3  1  0.936733  0.483865  0.750000  1
  Y  Y4  1  0.483765  0.936477  0.750000  1
  Y  Y5  1  0.063296  0.516097  0.250000  1
  Ir  Ir6  1  0.499979  0.500016  0.500066  1
  Ir  Ir7  1  0.499979  0.500016  0.999934  1
  O  O8  1  0.442214  0.182417  0.534535  1
  O  O9  1  0.817684  0.557602  0.465865  1
  O  O10  1  0.442214  0.182417  0.965465  1
  O  O11  1  0.817684  0.557602  0.034135  1
  O  O12  1  0.557534  0.817438  0.465707  1
  O  O13  1  0.182263  0.442291  0.534142  1
  O  O14  1  0.557534  0.817438  0.034293  1
  O  O15  1  0.182263  0.442291  0.965858  1
  O  O16  1  0.160225  0.879068  0.250000  1
  O  O17  1  0.120763  0.839393  0.750000  1
  O  O18  1  0.839028  0.120408  0.750000  1
  O  O19  1  0.880449  0.160558  0.250000  1
  O  O20  1  0.409614  0.409560  0.250000  1
  O  O21  1  0.590400  0.590398  0.750000  1
