# generated using pymatgen
data_YbPr3Tm3CoI12
_symmetry_space_group_name_H-M   'P 1'
_cell_length_a   9.83436709
_cell_length_b   9.98469066
_cell_length_c   9.86443854
_cell_angle_alpha   106.38629212
_cell_angle_beta   107.19225792
_cell_angle_gamma   107.11913106
_symmetry_Int_Tables_number   1
_chemical_formula_structural   YbPr3Tm3CoI12
_chemical_formula_sum   'Yb1 Pr3 Tm3 Co1 I12'
_cell_volume   808.84538941
_cell_formula_units_Z   1
loop_
 _symmetry_equiv_pos_site_id
 _symmetry_equiv_pos_as_xyz
  1  'x, y, z'
loop_
 _atom_site_type_symbol
 _atom_site_label
 _atom_site_symmetry_multiplicity
 _atom_site_fract_x
 _atom_site_fract_y
 _atom_site_fract_z
 _atom_site_occupancy
  Yb  Yb0  1  0.499236  0.501168  0.497251  1
  Pr  Pr1  1  0.290216  0.023760  0.094775  1
  Pr  Pr2  1  0.901196  0.696411  0.979029  1
  Pr  Pr3  1  0.710460  0.974855  0.905411  1
  Tm  Tm4  1  0.975045  0.908144  0.708566  1
  Tm  Tm5  1  0.027132  0.098253  0.291923  1
  Tm  Tm6  1  0.094607  0.284714  0.021757  1
  Co  Co7  1  0.000120  0.998434  0.000861  1
  I  I8  1  0.531724  0.614419  0.838455  1
  I  I9  1  0.452483  0.383338  0.151021  1
  I  I10  1  0.307404  0.923603  0.764708  1
  I  I11  1  0.375674  0.161241  0.464486  1
  I  I12  1  0.936011  0.796678  0.335939  1
  I  I13  1  0.693791  0.078742  0.236500  1
  I  I14  1  0.069872  0.219326  0.685314  1
  I  I15  1  0.783959  0.318706  0.928085  1
  I  I16  1  0.228685  0.674267  0.073687  1
  I  I17  1  0.850485  0.554388  0.615877  1
  I  I18  1  0.147592  0.446826  0.369705  1
  I  I19  1  0.624307  0.842726  0.536650  1
