# generated using pymatgen
data_Ta2MnGa2Co3
_symmetry_space_group_name_H-M   'P 1'
_cell_length_a   5.93889500
_cell_length_b   5.93889500
_cell_length_c   5.93889500
_cell_angle_alpha   90.00000000
_cell_angle_beta   90.00000000
_cell_angle_gamma   90.00000000
_symmetry_Int_Tables_number   1
_chemical_formula_structural   Ta2MnGa2Co3
_chemical_formula_sum   'Ta4 Mn2 Ga4 Co6'
_cell_volume   209.46764062
_cell_formula_units_Z   2
loop_
 _symmetry_equiv_pos_site_id
 _symmetry_equiv_pos_as_xyz
  1  'x, y, z'
loop_
 _atom_site_type_symbol
 _atom_site_label
 _atom_site_symmetry_multiplicity
 _atom_site_fract_x
 _atom_site_fract_y
 _atom_site_fract_z
 _atom_site_occupancy
  Ta  Ta0  1  0.250000  0.250000  0.250000  1
  Ta  Ta1  1  0.750000  0.750000  0.250000  1
  Ta  Ta2  1  0.250000  0.750000  0.750000  1
  Ta  Ta3  1  0.750000  0.250000  0.750000  1
  Mn  Mn4  1  0.000000  0.000000  0.000000  1
  Mn  Mn5  1  0.500000  0.500000  0.500000  1
  Ga  Ga6  1  0.750000  0.750000  0.750000  1
  Ga  Ga7  1  0.250000  0.250000  0.750000  1
  Ga  Ga8  1  0.250000  0.750000  0.250000  1
  Ga  Ga9  1  0.750000  0.250000  0.250000  1
  Co  Co10  1  0.500000  0.500000  0.000000  1
  Co  Co11  1  0.500000  0.000000  0.500000  1
  Co  Co12  1  0.000000  0.500000  0.500000  1
  Co  Co13  1  0.500000  0.000000  0.000000  1
  Co  Co14  1  0.000000  0.500000  0.000000  1
  Co  Co15  1  0.000000  0.000000  0.500000  1
