# generated using pymatgen
data_Y(Ho3S4)2
_symmetry_space_group_name_H-M   'P 1'
_cell_length_a   7.76267904
_cell_length_b   7.76192586
_cell_length_c   7.76267900
_cell_angle_alpha   119.99678724
_cell_angle_beta   89.99428716
_cell_angle_gamma   119.99678644
_symmetry_Int_Tables_number   1
_chemical_formula_structural   Y(Ho3S4)2
_chemical_formula_sum   'Y1 Ho6 S8'
_cell_volume   330.78177004
_cell_formula_units_Z   1
loop_
 _symmetry_equiv_pos_site_id
 _symmetry_equiv_pos_as_xyz
  1  'x, y, z'
loop_
 _atom_site_type_symbol
 _atom_site_label
 _atom_site_symmetry_multiplicity
 _atom_site_fract_x
 _atom_site_fract_y
 _atom_site_fract_z
 _atom_site_occupancy
  Y  Y0  1  0.750012  0.000000  0.249989  1
  Ho  Ho1  1  0.249990  0.000000  0.249990  1
  Ho  Ho2  1  0.249990  0.499980  0.249990  1
  Ho  Ho3  1  0.250002  0.500001  0.750001  1
  Ho  Ho4  1  0.249990  0.000000  0.750011  1
  Ho  Ho5  1  0.750010  0.000000  0.750010  1
  Ho  Ho6  1  0.750010  0.500019  0.750010  1
  S  S7  1  0.000816  0.000000  0.999184  1
  S  S8  1  0.499186  0.000000  0.500814  1
  S  S9  1  0.000438  0.999191  0.500441  1
  S  S10  1  0.000438  0.501688  0.500441  1
  S  S11  1  0.500452  0.500001  0.499551  1
  S  S12  1  0.999550  0.500001  0.000452  1
  S  S13  1  0.499560  0.498314  0.999562  1
  S  S14  1  0.499560  0.000808  0.999562  1
