# generated using pymatgen
data_TbSmU4O12
_symmetry_space_group_name_H-M   'P 1'
_cell_length_a   6.65166537
_cell_length_b   6.65166516
_cell_length_c   6.60765497
_cell_angle_alpha   80.32175231
_cell_angle_beta   80.32175309
_cell_angle_gamma   120.13268495
_symmetry_Int_Tables_number   1
_chemical_formula_structural   TbSmU4O12
_chemical_formula_sum   'Tb1 Sm1 U4 O12'
_cell_volume   238.06442484
_cell_formula_units_Z   1
loop_
 _symmetry_equiv_pos_site_id
 _symmetry_equiv_pos_as_xyz
  1  'x, y, z'
loop_
 _atom_site_type_symbol
 _atom_site_label
 _atom_site_symmetry_multiplicity
 _atom_site_fract_x
 _atom_site_fract_y
 _atom_site_fract_z
 _atom_site_occupancy
  Tb  Tb0  1  0.833531  0.166469  0.500000  1
  Sm  Sm1  1  0.499795  0.500205  0.500000  1
  U  U2  1  0.166922  0.833078  0.500000  1
  U  U3  1  0.667765  0.332235  0.000000  1
  U  U4  1  0.999869  0.000131  0.000000  1
  U  U5  1  0.332188  0.667812  0.000000  1
  O  O6  1  0.115873  0.109833  0.638208  1
  O  O7  1  0.703235  0.040254  0.885108  1
  O  O8  1  0.959746  0.296765  0.114892  1
  O  O9  1  0.369075  0.367113  0.889414  1
  O  O10  1  0.042180  0.707275  0.882080  1
  O  O11  1  0.534905  0.198982  0.364628  1
  O  O12  1  0.890167  0.884127  0.361792  1
  O  O13  1  0.447469  0.789348  0.637277  1
  O  O14  1  0.632887  0.630925  0.110586  1
  O  O15  1  0.292725  0.957820  0.117920  1
  O  O16  1  0.801018  0.465095  0.635372  1
  O  O17  1  0.210652  0.552531  0.362723  1
