# generated using pymatgen
data_Er20Bi7Ru4Pb
_symmetry_space_group_name_H-M   'P 1'
_cell_length_a   7.88810013
_cell_length_b   9.00157732
_cell_length_c   12.35334833
_cell_angle_alpha   90.02160705
_cell_angle_beta   90.08128508
_cell_angle_gamma   90.02199550
_symmetry_Int_Tables_number   1
_chemical_formula_structural   Er20Bi7Ru4Pb
_chemical_formula_sum   'Er20 Bi7 Ru4 Pb1'
_cell_volume   877.15272873
_cell_formula_units_Z   1
loop_
 _symmetry_equiv_pos_site_id
 _symmetry_equiv_pos_as_xyz
  1  'x, y, z'
loop_
 _atom_site_type_symbol
 _atom_site_label
 _atom_site_symmetry_multiplicity
 _atom_site_fract_x
 _atom_site_fract_y
 _atom_site_fract_z
 _atom_site_occupancy
  Er  Er0  1  0.661799  0.751533  0.708695  1
  Er  Er1  1  0.340057  0.249353  0.293051  1
  Er  Er2  1  0.158080  0.247782  0.791352  1
  Er  Er3  1  0.840429  0.749759  0.207832  1
  Er  Er4  1  0.122181  0.752009  0.809286  1
  Er  Er5  1  0.875252  0.249993  0.189194  1
  Er  Er6  1  0.628547  0.248645  0.689615  1
  Er  Er7  1  0.375431  0.750355  0.310771  1
  Er  Er8  1  0.553966  0.749617  0.995563  1
  Er  Er9  1  0.445803  0.250252  0.004402  1
  Er  Er10  1  0.052714  0.247908  0.505646  1
  Er  Er11  1  0.945379  0.751824  0.496797  1
  Er  Er12  1  0.825965  0.458015  0.934008  1
  Er  Er13  1  0.173355  0.541865  0.065530  1
  Er  Er14  1  0.327337  0.541176  0.565999  1
  Er  Er15  1  0.173321  0.958900  0.065687  1
  Er  Er16  1  0.674296  0.458882  0.434123  1
  Er  Er17  1  0.827049  0.041368  0.931468  1
  Er  Er18  1  0.674125  0.041576  0.435019  1
  Er  Er19  1  0.324566  0.959572  0.566080  1
  Bi  Bi20  1  0.066708  0.993387  0.326677  1
  Bi  Bi21  1  0.432851  0.993574  0.828258  1
  Bi  Bi22  1  0.067402  0.506347  0.328619  1
  Bi  Bi23  1  0.566648  0.006312  0.172191  1
  Bi  Bi24  1  0.933994  0.494092  0.672132  1
  Bi  Bi25  1  0.566308  0.493583  0.172609  1
  Bi  Bi26  1  0.432787  0.506037  0.827240  1
  Ru  Ru27  1  0.926199  0.749962  0.990814  1
  Ru  Ru28  1  0.074035  0.250400  0.009382  1
  Ru  Ru29  1  0.427538  0.250563  0.509575  1
  Ru  Ru30  1  0.573182  0.750116  0.490953  1
  Pb  Pb31  1  0.932698  0.005243  0.671433  1
