# generated using pymatgen
data_La4GdUS10
_symmetry_space_group_name_H-M   'P 1'
_cell_length_a   7.58123400
_cell_length_b   8.17035200
_cell_length_c   11.92762800
_cell_angle_alpha   90.00000000
_cell_angle_beta   90.00000000
_cell_angle_gamma   90.00000000
_symmetry_Int_Tables_number   1
_chemical_formula_structural   La4GdUS10
_chemical_formula_sum   'La8 Gd2 U2 S20'
_cell_volume   738.81338508
_cell_formula_units_Z   2
loop_
 _symmetry_equiv_pos_site_id
 _symmetry_equiv_pos_as_xyz
  1  'x, y, z'
loop_
 _atom_site_type_symbol
 _atom_site_label
 _atom_site_symmetry_multiplicity
 _atom_site_fract_x
 _atom_site_fract_y
 _atom_site_fract_z
 _atom_site_occupancy
  La  La0  1  0.532176  0.503126  0.324492  1
  La  La1  1  0.967824  0.996874  0.824492  1
  La  La2  1  0.472685  0.999510  0.675949  1
  La  La3  1  0.027315  0.500490  0.175949  1
  La  La4  1  0.472685  0.500490  0.675949  1
  La  La5  1  0.027315  0.999510  0.175949  1
  La  La6  1  0.532176  0.996874  0.324492  1
  La  La7  1  0.967824  0.503126  0.824492  1
  Gd  Gd8  1  0.073407  0.750000  0.492021  1
  Gd  Gd9  1  0.426593  0.750000  0.992021  1
  U  U10  1  0.943092  0.250000  0.506034  1
  U  U11  1  0.556908  0.250000  0.006034  1
  S  S12  1  0.836109  0.970316  0.592203  1
  S  S13  1  0.663891  0.529684  0.092203  1
  S  S14  1  0.165122  0.452282  0.407986  1
  S  S15  1  0.334878  0.047718  0.907986  1
  S  S16  1  0.165122  0.047718  0.407986  1
  S  S17  1  0.334878  0.452282  0.907986  1
  S  S18  1  0.836109  0.529684  0.592203  1
  S  S19  1  0.663891  0.970316  0.092203  1
  S  S20  1  0.833713  0.750000  0.309028  1
  S  S21  1  0.666287  0.750000  0.809028  1
  S  S22  1  0.161052  0.250000  0.684726  1
  S  S23  1  0.338948  0.250000  0.184726  1
  S  S24  1  0.457278  0.750000  0.498132  1
  S  S25  1  0.042722  0.750000  0.998132  1
  S  S26  1  0.551126  0.250000  0.501431  1
  S  S27  1  0.948874  0.250000  0.001431  1
  S  S28  1  0.191792  0.750000  0.716251  1
  S  S29  1  0.308208  0.750000  0.216251  1
  S  S30  1  0.813498  0.250000  0.291117  1
  S  S31  1  0.686502  0.250000  0.791117  1
