# generated using pymatgen
data_ThPa(AlC)6
_symmetry_space_group_name_H-M   'P 1'
_cell_length_a   3.42886500
_cell_length_b   3.42886595
_cell_length_c   17.73730000
_cell_angle_alpha   90.00000000
_cell_angle_beta   90.00000000
_cell_angle_gamma   120.00000052
_symmetry_Int_Tables_number   1
_chemical_formula_structural   ThPa(AlC)6
_chemical_formula_sum   'Th1 Pa1 Al6 C6'
_cell_volume   180.60053559
_cell_formula_units_Z   1
loop_
 _symmetry_equiv_pos_site_id
 _symmetry_equiv_pos_as_xyz
  1  'x, y, z'
loop_
 _atom_site_type_symbol
 _atom_site_label
 _atom_site_symmetry_multiplicity
 _atom_site_fract_x
 _atom_site_fract_y
 _atom_site_fract_z
 _atom_site_occupancy
  Th  Th0  1  0.000000  0.000000  0.003171  1
  Pa  Pa1  1  0.000000  0.000000  0.503170  1
  Al  Al2  1  0.333333  0.666667  0.142088  1
  Al  Al3  1  0.666667  0.333333  0.864296  1
  Al  Al4  1  0.666667  0.333333  0.637361  1
  Al  Al5  1  0.333333  0.666667  0.756828  1
  Al  Al6  1  0.333333  0.666667  0.369037  1
  Al  Al7  1  0.666667  0.333333  0.249956  1
  C  C8  1  0.333333  0.666667  0.595960  1
  C  C9  1  0.666667  0.333333  0.410209  1
  C  C10  1  0.333333  0.666667  0.898165  1
  C  C11  1  0.666667  0.333333  0.107986  1
  C  C12  1  0.666667  0.333333  0.749779  1
  C  C13  1  0.333333  0.666667  0.256595  1
