# generated using pymatgen
data_Tm4Si7Tc6Ge
_symmetry_space_group_name_H-M   'P 1'
_cell_length_a   6.78579495
_cell_length_b   6.74127783
_cell_length_c   6.77481711
_cell_angle_alpha   69.97833052
_cell_angle_beta   90.32251857
_cell_angle_gamma   91.04593450
_symmetry_Int_Tables_number   1
_chemical_formula_structural   Tm4Si7Tc6Ge
_chemical_formula_sum   'Tm4 Si7 Tc6 Ge1'
_cell_volume   291.13476620
_cell_formula_units_Z   1
loop_
 _symmetry_equiv_pos_site_id
 _symmetry_equiv_pos_as_xyz
  1  'x, y, z'
loop_
 _atom_site_type_symbol
 _atom_site_label
 _atom_site_symmetry_multiplicity
 _atom_site_fract_x
 _atom_site_fract_y
 _atom_site_fract_z
 _atom_site_occupancy
  Tm  Tm0  1  0.328835  0.559305  0.806648  1
  Tm  Tm1  1  0.834545  0.943668  0.193444  1
  Tm  Tm2  1  0.669986  0.438347  0.195436  1
  Tm  Tm3  1  0.172449  0.054599  0.810882  1
  Si  Si4  1  0.046311  0.621025  0.097738  1
  Si  Si5  1  0.450381  0.125853  0.103587  1
  Si  Si6  1  0.952245  0.366467  0.901723  1
  Si  Si7  1  0.141424  0.870738  0.487554  1
  Si  Si8  1  0.634963  0.637131  0.503346  1
  Si  Si9  1  0.852936  0.128104  0.530145  1
  Si  Si10  1  0.356230  0.370599  0.489937  1
  Tc  Tc11  1  0.503844  0.003772  0.495527  1
  Tc  Tc12  1  0.997081  0.491247  0.498802  1
  Tc  Tc13  1  0.858916  0.742732  0.751384  1
  Tc  Tc14  1  0.340636  0.743512  0.238456  1
  Tc  Tc15  1  0.156514  0.244835  0.236194  1
  Tc  Tc16  1  0.640856  0.280031  0.765180  1
  Ge  Ge17  1  0.561847  0.878035  0.894016  1
