# generated using pymatgen
data_Y4Al18Rh5Au
_symmetry_space_group_name_H-M   'P 1'
_cell_length_a   7.59329902
_cell_length_b   7.59329951
_cell_length_c   9.48365292
_cell_angle_alpha   89.97464509
_cell_angle_beta   89.97464754
_cell_angle_gamma   119.58005158
_symmetry_Int_Tables_number   1
_chemical_formula_structural   Y4Al18Rh5Au
_chemical_formula_sum   'Y4 Al18 Rh5 Au1'
_cell_volume   475.54260484
_cell_formula_units_Z   1
loop_
 _symmetry_equiv_pos_site_id
 _symmetry_equiv_pos_as_xyz
  1  'x, y, z'
loop_
 _atom_site_type_symbol
 _atom_site_label
 _atom_site_symmetry_multiplicity
 _atom_site_fract_x
 _atom_site_fract_y
 _atom_site_fract_z
 _atom_site_occupancy
  Y  Y0  1  0.992636  0.667866  0.250589  1
  Y  Y1  1  0.002455  0.328609  0.749912  1
  Y  Y2  1  0.671391  0.997545  0.250088  1
  Y  Y3  1  0.332134  0.007364  0.749411  1
  Al  Al4  1  0.126977  0.124923  0.251444  1
  Al  Al5  1  0.875077  0.873023  0.748556  1
  Al  Al6  1  0.010772  0.335301  0.078535  1
  Al  Al7  1  0.008211  0.674542  0.922113  1
  Al  Al8  1  0.001965  0.665621  0.573328  1
  Al  Al9  1  0.334379  0.998035  0.426672  1
  Al  Al10  1  0.000764  0.334660  0.425444  1
  Al  Al11  1  0.665340  0.999236  0.574556  1
  Al  Al12  1  0.664699  0.989228  0.921465  1
  Al  Al13  1  0.325458  0.991789  0.077887  1
  Al  Al14  1  0.331339  0.332013  0.549803  1
  Al  Al15  1  0.667987  0.668661  0.450197  1
  Al  Al16  1  0.665965  0.673047  0.056612  1
  Al  Al17  1  0.326953  0.334035  0.943388  1
  Al  Al18  1  0.340946  0.551478  0.251543  1
  Al  Al19  1  0.660138  0.457621  0.741272  1
  Al  Al20  1  0.542379  0.339862  0.258728  1
  Al  Al21  1  0.448522  0.659054  0.748457  1
  Rh  Rh22  1  0.328766  0.671234  0.000000  1
  Rh  Rh23  1  0.328433  0.671567  0.500000  1
  Rh  Rh24  1  0.672855  0.327145  0.500000  1
  Rh  Rh25  1  0.999802  0.000198  0.000000  1
  Rh  Rh26  1  0.000323  0.999677  0.500000  1
  Au  Au27  1  0.673334  0.326666  0.000000  1
