# generated using pymatgen
data_SmEr4In2(HgPd)2
_symmetry_space_group_name_H-M   'P 1'
_cell_length_a   3.61954900
_cell_length_b   7.99778300
_cell_length_c   18.37581900
_cell_angle_alpha   90.00000000
_cell_angle_beta   90.00000000
_cell_angle_gamma   90.00000000
_symmetry_Int_Tables_number   1
_chemical_formula_structural   SmEr4In2(HgPd)2
_chemical_formula_sum   'Sm2 Er8 In4 Hg4 Pd4'
_cell_volume   531.94996079
_cell_formula_units_Z   2
loop_
 _symmetry_equiv_pos_site_id
 _symmetry_equiv_pos_as_xyz
  1  'x, y, z'
loop_
 _atom_site_type_symbol
 _atom_site_label
 _atom_site_symmetry_multiplicity
 _atom_site_fract_x
 _atom_site_fract_y
 _atom_site_fract_z
 _atom_site_occupancy
  Sm  Sm0  1  0.000000  0.500000  0.500000  1
  Sm  Sm1  1  0.000000  0.000000  0.000000  1
  Er  Er2  1  0.000000  0.742029  0.283506  1
  Er  Er3  1  0.000000  0.257971  0.716494  1
  Er  Er4  1  0.000000  0.757971  0.783506  1
  Er  Er5  1  0.000000  0.242029  0.216494  1
  Er  Er6  1  0.000000  0.608624  0.084085  1
  Er  Er7  1  0.000000  0.391376  0.915915  1
  Er  Er8  1  0.000000  0.891376  0.584085  1
  Er  Er9  1  0.000000  0.108624  0.415915  1
  In  In10  1  0.500000  0.581351  0.650264  1
  In  In11  1  0.500000  0.418649  0.349736  1
  In  In12  1  0.500000  0.918649  0.150264  1
  In  In13  1  0.500000  0.081351  0.849736  1
  Hg  Hg14  1  0.500000  0.710307  0.931948  1
  Hg  Hg15  1  0.500000  0.289693  0.068052  1
  Hg  Hg16  1  0.500000  0.789693  0.431948  1
  Hg  Hg17  1  0.500000  0.210307  0.568052  1
  Pd  Pd18  1  0.500000  0.529237  0.197481  1
  Pd  Pd19  1  0.500000  0.470763  0.802519  1
  Pd  Pd20  1  0.500000  0.970763  0.697481  1
  Pd  Pd21  1  0.500000  0.029237  0.302519  1
