# generated using pymatgen
data_SmHoMnCo16
_symmetry_space_group_name_H-M   'P 1'
_cell_length_a   6.29179412
_cell_length_b   6.29179260
_cell_length_c   6.29179377
_cell_angle_alpha   83.13972804
_cell_angle_beta   83.13972711
_cell_angle_gamma   83.13973187
_symmetry_Int_Tables_number   1
_chemical_formula_structural   SmHoMnCo16
_chemical_formula_sum   'Sm1 Ho1 Mn1 Co16'
_cell_volume   244.11572304
_cell_formula_units_Z   1
loop_
 _symmetry_equiv_pos_site_id
 _symmetry_equiv_pos_as_xyz
  1  'x, y, z'
loop_
 _atom_site_type_symbol
 _atom_site_label
 _atom_site_symmetry_multiplicity
 _atom_site_fract_x
 _atom_site_fract_y
 _atom_site_fract_z
 _atom_site_occupancy
  Sm  Sm0  1  0.346780  0.346780  0.346780  1
  Ho  Ho1  1  0.656332  0.656332  0.656332  1
  Mn  Mn2  1  0.096729  0.096729  0.096729  1
  Co  Co3  1  0.711793  0.288241  0.998025  1
  Co  Co4  1  0.998025  0.711793  0.288241  1
  Co  Co5  1  0.288241  0.998025  0.711793  1
  Co  Co6  1  0.998025  0.288241  0.711793  1
  Co  Co7  1  0.711793  0.998025  0.288241  1
  Co  Co8  1  0.288241  0.711793  0.998025  1
  Co  Co9  1  0.348353  0.348353  0.848776  1
  Co  Co10  1  0.848776  0.348353  0.348353  1
  Co  Co11  1  0.348353  0.848776  0.348353  1
  Co  Co12  1  0.655399  0.655399  0.150860  1
  Co  Co13  1  0.150860  0.655399  0.655399  1
  Co  Co14  1  0.655399  0.150860  0.655399  1
  Co  Co15  1  0.996766  0.996766  0.504954  1
  Co  Co16  1  0.504954  0.996766  0.996766  1
  Co  Co17  1  0.996766  0.504954  0.996766  1
  Co  Co18  1  0.898417  0.898417  0.898417  1
