# generated using pymatgen
data_CaGdReH6
_symmetry_space_group_name_H-M   'P 1'
_cell_length_a   5.12295956
_cell_length_b   5.12295969
_cell_length_c   5.12295800
_cell_angle_alpha   59.99999798
_cell_angle_beta   59.99999719
_cell_angle_gamma   59.99999892
_symmetry_Int_Tables_number   1
_chemical_formula_structural   CaGdReH6
_chemical_formula_sum   'Ca1 Gd1 Re1 H6'
_cell_volume   95.07090860
_cell_formula_units_Z   1
loop_
 _symmetry_equiv_pos_site_id
 _symmetry_equiv_pos_as_xyz
  1  'x, y, z'
loop_
 _atom_site_type_symbol
 _atom_site_label
 _atom_site_symmetry_multiplicity
 _atom_site_fract_x
 _atom_site_fract_y
 _atom_site_fract_z
 _atom_site_occupancy
  Ca  Ca0  1  0.750000  0.750000  0.750000  1
  Gd  Gd1  1  0.250000  0.250000  0.250000  1
  Re  Re2  1  0.000000  0.000000  0.000000  1
  H  H3  1  0.754100  0.754100  0.245900  1
  H  H4  1  0.245900  0.754100  0.245900  1
  H  H5  1  0.754100  0.245900  0.245900  1
  H  H6  1  0.245900  0.245900  0.754100  1
  H  H7  1  0.754100  0.245900  0.754100  1
  H  H8  1  0.245900  0.754100  0.754100  1
