# generated using pymatgen
data_Be3Fe6SiP2
_symmetry_space_group_name_H-M   'P 1'
_cell_length_a   3.76526300
_cell_length_b   5.32452400
_cell_length_c   11.29816400
_cell_angle_alpha   90.00000000
_cell_angle_beta   90.00000000
_cell_angle_gamma   90.00000000
_symmetry_Int_Tables_number   1
_chemical_formula_structural   Be3Fe6SiP2
_chemical_formula_sum   'Be6 Fe12 Si2 P4'
_cell_volume   226.50822671
_cell_formula_units_Z   2
loop_
 _symmetry_equiv_pos_site_id
 _symmetry_equiv_pos_as_xyz
  1  'x, y, z'
loop_
 _atom_site_type_symbol
 _atom_site_label
 _atom_site_symmetry_multiplicity
 _atom_site_fract_x
 _atom_site_fract_y
 _atom_site_fract_z
 _atom_site_occupancy
  Be  Be0  1  0.999984  0.000000  0.996532  1
  Be  Be1  1  0.499726  0.500001  0.168564  1
  Be  Be2  1  0.999725  0.000000  0.331435  1
  Be  Be3  1  0.499983  0.500001  0.503468  1
  Be  Be4  1  0.000281  0.000000  0.672483  1
  Be  Be5  1  0.500280  0.500001  0.827517  1
  Fe  Fe6  1  0.499982  0.253879  0.004666  1
  Fe  Fe7  1  0.499982  0.746121  0.004666  1
  Fe  Fe8  1  0.999817  0.249662  0.167419  1
  Fe  Fe9  1  0.999817  0.750337  0.167419  1
  Fe  Fe10  1  0.499818  0.250339  0.332581  1
  Fe  Fe11  1  0.499818  0.749663  0.332581  1
  Fe  Fe12  1  0.999983  0.246120  0.495334  1
  Fe  Fe13  1  0.999983  0.753879  0.495334  1
  Fe  Fe14  1  0.500206  0.244288  0.662634  1
  Fe  Fe15  1  0.500206  0.755714  0.662634  1
  Fe  Fe16  1  0.000207  0.255713  0.837366  1
  Fe  Fe17  1  0.000207  0.744286  0.837366  1
  Si  Si18  1  0.000218  0.500001  0.665416  1
  Si  Si19  1  0.500217  0.000000  0.834584  1
  P  P20  1  0.999980  0.500001  0.001961  1
  P  P21  1  0.499798  0.000000  0.167227  1
  P  P22  1  0.999797  0.500001  0.332773  1
  P  P23  1  0.499979  0.000000  0.498039  1
