# generated using pymatgen
data_La2AlGaPd4
_symmetry_space_group_name_H-M   'P 1'
_cell_length_a   5.96910500
_cell_length_b   7.06575100
_cell_length_c   7.70677700
_cell_angle_alpha   90.00000000
_cell_angle_beta   90.00000000
_cell_angle_gamma   90.00000000
_symmetry_Int_Tables_number   1
_chemical_formula_structural   La2AlGaPd4
_chemical_formula_sum   'La4 Al2 Ga2 Pd8'
_cell_volume   325.04264227
_cell_formula_units_Z   2
loop_
 _symmetry_equiv_pos_site_id
 _symmetry_equiv_pos_as_xyz
  1  'x, y, z'
loop_
 _atom_site_type_symbol
 _atom_site_label
 _atom_site_symmetry_multiplicity
 _atom_site_fract_x
 _atom_site_fract_y
 _atom_site_fract_z
 _atom_site_occupancy
  La  La0  1  0.342402  0.750000  0.035617  1
  La  La1  1  0.157598  0.750000  0.535617  1
  La  La2  1  0.654316  0.250000  0.967368  1
  La  La3  1  0.845684  0.250000  0.467368  1
  Al  Al4  1  0.657534  0.750000  0.380772  1
  Al  Al5  1  0.842466  0.750000  0.880772  1
  Ga  Ga6  1  0.345069  0.250000  0.620580  1
  Ga  Ga7  1  0.154931  0.250000  0.120580  1
  Pd  Pd8  1  0.907447  0.553424  0.174344  1
  Pd  Pd9  1  0.592553  0.946576  0.674344  1
  Pd  Pd10  1  0.084233  0.050524  0.823487  1
  Pd  Pd11  1  0.415767  0.449476  0.323487  1
  Pd  Pd12  1  0.084233  0.449476  0.823487  1
  Pd  Pd13  1  0.415767  0.050524  0.323487  1
  Pd  Pd14  1  0.907447  0.946576  0.174344  1
  Pd  Pd15  1  0.592553  0.553424  0.674344  1
