# generated using pymatgen
data_Ho3CdIr8
_symmetry_space_group_name_H-M   'P 1'
_cell_length_a   5.33163700
_cell_length_b   5.33163704
_cell_length_c   8.66095800
_cell_angle_alpha   90.00000000
_cell_angle_beta   90.00000000
_cell_angle_gamma   119.99998113
_symmetry_Int_Tables_number   1
_chemical_formula_structural   Ho3CdIr8
_chemical_formula_sum   'Ho3 Cd1 Ir8'
_cell_volume   213.21502057
_cell_formula_units_Z   1
loop_
 _symmetry_equiv_pos_site_id
 _symmetry_equiv_pos_as_xyz
  1  'x, y, z'
loop_
 _atom_site_type_symbol
 _atom_site_label
 _atom_site_symmetry_multiplicity
 _atom_site_fract_x
 _atom_site_fract_y
 _atom_site_fract_z
 _atom_site_occupancy
  Ho  Ho0  1  0.333333  0.666667  0.080846  1
  Ho  Ho1  1  0.666667  0.333333  0.557639  1
  Ho  Ho2  1  0.666667  0.333333  0.929969  1
  Cd  Cd3  1  0.333333  0.666667  0.440988  1
  Ir  Ir4  1  0.000000  0.000000  0.996825  1
  Ir  Ir5  1  0.000000  0.000000  0.497655  1
  Ir  Ir6  1  0.830425  0.660850  0.248639  1
  Ir  Ir7  1  0.170638  0.829362  0.750054  1
  Ir  Ir8  1  0.658724  0.829362  0.750054  1
  Ir  Ir9  1  0.339150  0.169575  0.248639  1
  Ir  Ir10  1  0.830425  0.169575  0.248639  1
  Ir  Ir11  1  0.170638  0.341276  0.750054  1
