# generated using pymatgen
data_HoThRh2Pb
_symmetry_space_group_name_H-M   'P 1'
_cell_length_a   7.89169000
_cell_length_b   7.80190300
_cell_length_c   3.68565100
_cell_angle_alpha   90.00000000
_cell_angle_beta   90.00000000
_cell_angle_gamma   90.00000000
_symmetry_Int_Tables_number   1
_chemical_formula_structural   HoThRh2Pb
_chemical_formula_sum   'Ho2 Th2 Rh4 Pb2'
_cell_volume   226.92626878
_cell_formula_units_Z   2
loop_
 _symmetry_equiv_pos_site_id
 _symmetry_equiv_pos_as_xyz
  1  'x, y, z'
loop_
 _atom_site_type_symbol
 _atom_site_label
 _atom_site_symmetry_multiplicity
 _atom_site_fract_x
 _atom_site_fract_y
 _atom_site_fract_z
 _atom_site_occupancy
  Ho  Ho0  1  0.831537  0.670256  0.500000  1
  Ho  Ho1  1  0.331537  0.829744  0.500000  1
  Th  Th2  1  0.670854  0.163378  0.500000  1
  Th  Th3  1  0.170854  0.336622  0.500000  1
  Rh  Rh4  1  0.364420  0.140379  0.000000  1
  Rh  Rh5  1  0.128537  0.616126  0.000000  1
  Rh  Rh6  1  0.628537  0.883874  0.000000  1
  Rh  Rh7  1  0.864420  0.359621  0.000000  1
  Pb  Pb8  1  0.004652  0.988229  0.000000  1
  Pb  Pb9  1  0.504652  0.511771  0.000000  1
