# generated using pymatgen
data_TbEuHoTaO7
_symmetry_space_group_name_H-M   'P 1'
_cell_length_a   6.49887392
_cell_length_b   6.50769273
_cell_length_c   7.56944800
_cell_angle_alpha   90.00000000
_cell_angle_beta   90.00000000
_cell_angle_gamma   108.86802952
_symmetry_Int_Tables_number   1
_chemical_formula_structural   TbEuHoTaO7
_chemical_formula_sum   'Tb2 Eu2 Ho2 Ta2 O14'
_cell_volume   302.93020256
_cell_formula_units_Z   2
loop_
 _symmetry_equiv_pos_site_id
 _symmetry_equiv_pos_as_xyz
  1  'x, y, z'
loop_
 _atom_site_type_symbol
 _atom_site_label
 _atom_site_symmetry_multiplicity
 _atom_site_fract_x
 _atom_site_fract_y
 _atom_site_fract_z
 _atom_site_occupancy
  Tb  Tb0  1  0.000211  0.465341  0.749259  1
  Tb  Tb1  1  0.999789  0.534659  0.249259  1
  Eu  Eu2  1  0.501392  0.501808  0.500076  1
  Eu  Eu3  1  0.498608  0.498192  0.000076  1
  Ho  Ho4  1  0.533793  0.000260  0.750719  1
  Ho  Ho5  1  0.466207  0.999740  0.250719  1
  Ta  Ta6  1  0.999889  0.999820  0.499922  1
  Ta  Ta7  1  0.000111  0.000180  0.999922  1
  O  O8  1  0.637789  0.358414  0.749801  1
  O  O9  1  0.362211  0.641586  0.249801  1
  O  O10  1  0.932559  0.064385  0.749966  1
  O  O11  1  0.067441  0.935615  0.249966  1
  O  O12  1  0.928714  0.679594  0.531536  1
  O  O13  1  0.071286  0.320406  0.031536  1
  O  O14  1  0.318771  0.063665  0.966204  1
  O  O15  1  0.681229  0.936335  0.466204  1
  O  O16  1  0.369192  0.636262  0.750138  1
  O  O17  1  0.630808  0.363738  0.250138  1
  O  O18  1  0.930325  0.680964  0.966799  1
  O  O19  1  0.069675  0.319036  0.466799  1
  O  O20  1  0.317053  0.061152  0.535580  1
  O  O21  1  0.682947  0.938848  0.035580  1
