# generated using pymatgen
data_CaCu(PdO2)2
_symmetry_space_group_name_H-M   'P 1'
_cell_length_a   5.76751494
_cell_length_b   5.76751494
_cell_length_c   5.74754700
_cell_angle_alpha   90.00000000
_cell_angle_beta   90.00000000
_cell_angle_gamma   89.66301080
_symmetry_Int_Tables_number   1
_chemical_formula_structural   CaCu(PdO2)2
_chemical_formula_sum   'Ca2 Cu2 Pd4 O8'
_cell_volume   191.18441030
_cell_formula_units_Z   2
loop_
 _symmetry_equiv_pos_site_id
 _symmetry_equiv_pos_as_xyz
  1  'x, y, z'
loop_
 _atom_site_type_symbol
 _atom_site_label
 _atom_site_symmetry_multiplicity
 _atom_site_fract_x
 _atom_site_fract_y
 _atom_site_fract_z
 _atom_site_occupancy
  Ca  Ca0  1  0.497980  0.498216  0.500000  1
  Ca  Ca1  1  0.001784  0.002020  0.000000  1
  Cu  Cu2  1  0.004578  0.248913  0.500000  1
  Cu  Cu3  1  0.251087  0.495422  0.000000  1
  Pd  Pd4  1  0.496611  0.003389  0.750000  1
  Pd  Pd5  1  0.496611  0.003389  0.250000  1
  Pd  Pd6  1  0.749995  0.496907  0.000000  1
  Pd  Pd7  1  0.003093  0.750005  0.500000  1
  O  O8  1  0.749371  0.750629  0.750000  1
  O  O9  1  0.755321  0.249551  0.743750  1
  O  O10  1  0.749371  0.750629  0.250000  1
  O  O11  1  0.755321  0.249551  0.256250  1
  O  O12  1  0.250449  0.744679  0.756250  1
  O  O13  1  0.250449  0.744679  0.243750  1
  O  O14  1  0.243988  0.256012  0.750000  1
  O  O15  1  0.243988  0.256012  0.250000  1
