# generated using pymatgen
data_Pr9HoInSi4Ge
_symmetry_space_group_name_H-M   'P 1'
_cell_length_a   7.79487100
_cell_length_b   9.26956358
_cell_length_c   7.79487100
_cell_angle_alpha   114.86332807
_cell_angle_beta   90.00000000
_cell_angle_gamma   114.86332807
_symmetry_Int_Tables_number   1
_chemical_formula_structural   Pr9HoInSi4Ge
_chemical_formula_sum   'Pr9 Ho1 In1 Si4 Ge1'
_cell_volume   452.83454052
_cell_formula_units_Z   1
loop_
 _symmetry_equiv_pos_site_id
 _symmetry_equiv_pos_as_xyz
  1  'x, y, z'
loop_
 _atom_site_type_symbol
 _atom_site_label
 _atom_site_symmetry_multiplicity
 _atom_site_fract_x
 _atom_site_fract_y
 _atom_site_fract_z
 _atom_site_occupancy
  Pr  Pr0  1  0.525876  0.051752  0.525876  1
  Pr  Pr1  1  0.525225  0.721010  0.673401  1
  Pr  Pr2  1  0.195787  0.721010  0.047610  1
  Pr  Pr3  1  0.673401  0.721010  0.195787  1
  Pr  Pr4  1  0.047610  0.721010  0.525225  1
  Pr  Pr5  1  0.451367  0.278122  0.301796  1
  Pr  Pr6  1  0.826754  0.278122  0.976324  1
  Pr  Pr7  1  0.301796  0.278122  0.826754  1
  Pr  Pr8  1  0.976324  0.278122  0.451367  1
  Ho  Ho9  1  0.979536  0.959071  0.979536  1
  In  In10  1  0.752747  0.505494  0.752747  1
  Si  Si11  1  0.884367  0.997186  0.618450  1
  Si  Si12  1  0.112818  0.997186  0.378736  1
  Si  Si13  1  0.618450  0.997186  0.112818  1
  Si  Si14  1  0.378736  0.997186  0.884367  1
  Ge  Ge15  1  0.249206  0.498413  0.249206  1
