# generated using pymatgen
data_Y4Ho9Th3Mg3InIr4
_symmetry_space_group_name_H-M   'P 1'
_cell_length_a   9.75396632
_cell_length_b   9.76539911
_cell_length_c   9.76539951
_cell_angle_alpha   59.97003695
_cell_angle_beta   59.86301285
_cell_angle_gamma   59.86301332
_symmetry_Int_Tables_number   1
_chemical_formula_structural   Y4Ho9Th3Mg3InIr4
_chemical_formula_sum   'Y4 Ho9 Th3 Mg3 In1 Ir4'
_cell_volume   656.21460818
_cell_formula_units_Z   1
loop_
 _symmetry_equiv_pos_site_id
 _symmetry_equiv_pos_as_xyz
  1  'x, y, z'
loop_
 _atom_site_type_symbol
 _atom_site_label
 _atom_site_symmetry_multiplicity
 _atom_site_fract_x
 _atom_site_fract_y
 _atom_site_fract_z
 _atom_site_occupancy
  Y  Y0  1  0.815264  0.185641  0.816259  1
  Y  Y1  1  0.187142  0.814071  0.186064  1
  Y  Y2  1  0.815264  0.816259  0.185641  1
  Y  Y3  1  0.187142  0.186064  0.814071  1
  Ho  Ho4  1  0.203720  0.600006  0.600006  1
  Ho  Ho5  1  0.061760  0.438171  0.438171  1
  Ho  Ho6  1  0.435942  0.063130  0.063130  1
  Ho  Ho7  1  0.435492  0.063084  0.436988  1
  Ho  Ho8  1  0.061489  0.438097  0.060431  1
  Ho  Ho9  1  0.435492  0.436988  0.063084  1
  Ho  Ho10  1  0.061489  0.060431  0.438097  1
  Ho  Ho11  1  0.186321  0.814479  0.814479  1
  Ho  Ho12  1  0.813658  0.187190  0.187190  1
  Th  Th13  1  0.595064  0.597166  0.597166  1
  Th  Th14  1  0.597867  0.600436  0.203471  1
  Th  Th15  1  0.597867  0.203471  0.600436  1
  Mg  Mg16  1  0.830709  0.828940  0.510798  1
  Mg  Mg17  1  0.830709  0.510798  0.828940  1
  Mg  Mg18  1  0.510262  0.829105  0.829105  1
  In  In19  1  0.835262  0.830938  0.830938  1
  Ir  Ir20  1  0.393413  0.391511  0.391511  1
  Ir  Ir21  1  0.393936  0.389579  0.822706  1
  Ir  Ir22  1  0.393936  0.822706  0.389579  1
  Ir  Ir23  1  0.820800  0.391742  0.391742  1
