# generated using pymatgen
data_PrTh5(GePd)6
_symmetry_space_group_name_H-M   'P 1'
_cell_length_a   4.47221700
_cell_length_b   7.72506881
_cell_length_c   22.64377253
_cell_angle_alpha   90.07116406
_cell_angle_beta   90.00000000
_cell_angle_gamma   90.00000000
_symmetry_Int_Tables_number   1
_chemical_formula_structural   PrTh5(GePd)6
_chemical_formula_sum   'Pr2 Th10 Ge12 Pd12'
_cell_volume   782.30061726
_cell_formula_units_Z   2
loop_
 _symmetry_equiv_pos_site_id
 _symmetry_equiv_pos_as_xyz
  1  'x, y, z'
loop_
 _atom_site_type_symbol
 _atom_site_label
 _atom_site_symmetry_multiplicity
 _atom_site_fract_x
 _atom_site_fract_y
 _atom_site_fract_z
 _atom_site_occupancy
  Pr  Pr0  1  0.750000  0.228597  0.497972  1
  Pr  Pr1  1  0.250000  0.771403  0.502028  1
  Th  Th2  1  0.250000  0.722836  0.336240  1
  Th  Th3  1  0.750000  0.277164  0.663760  1
  Th  Th4  1  0.750000  0.234906  0.167856  1
  Th  Th5  1  0.250000  0.765094  0.832144  1
  Th  Th6  1  0.250000  0.765485  0.167321  1
  Th  Th7  1  0.750000  0.234515  0.832679  1
  Th  Th8  1  0.750000  0.282690  0.333942  1
  Th  Th9  1  0.250000  0.717310  0.666058  1
  Th  Th10  1  0.250000  0.732989  0.999841  1
  Th  Th11  1  0.750000  0.267011  0.000159  1
  Ge  Ge12  1  0.250000  0.085794  0.081638  1
  Ge  Ge13  1  0.750000  0.914206  0.918362  1
  Ge  Ge14  1  0.750000  0.590274  0.428011  1
  Ge  Ge15  1  0.250000  0.409726  0.571989  1
  Ge  Ge16  1  0.250000  0.086502  0.257608  1
  Ge  Ge17  1  0.750000  0.913498  0.742392  1
  Ge  Ge18  1  0.750000  0.592631  0.248120  1
  Ge  Ge19  1  0.250000  0.407369  0.751880  1
  Ge  Ge20  1  0.250000  0.086260  0.399929  1
  Ge  Ge21  1  0.750000  0.913740  0.600071  1
  Ge  Ge22  1  0.750000  0.585898  0.083616  1
  Ge  Ge23  1  0.250000  0.414102  0.916384  1
  Pd  Pd24  1  0.250000  0.419792  0.240993  1
  Pd  Pd25  1  0.750000  0.580208  0.759007  1
  Pd  Pd26  1  0.750000  0.924092  0.258834  1
  Pd  Pd27  1  0.250000  0.075908  0.741166  1
  Pd  Pd28  1  0.250000  0.417387  0.424517  1
  Pd  Pd29  1  0.750000  0.582613  0.575483  1
  Pd  Pd30  1  0.750000  0.920532  0.075973  1
  Pd  Pd31  1  0.250000  0.079468  0.924027  1
  Pd  Pd32  1  0.250000  0.418985  0.094166  1
  Pd  Pd33  1  0.750000  0.581015  0.905834  1
  Pd  Pd34  1  0.750000  0.921871  0.405954  1
  Pd  Pd35  1  0.250000  0.078129  0.594046  1
