# generated using pymatgen
data_Nd2ThAlZn2Pt3
_symmetry_space_group_name_H-M   'P 1'
_cell_length_a   7.46353220
_cell_length_b   7.31635485
_cell_length_c   4.03947800
_cell_angle_alpha   90.00000000
_cell_angle_beta   90.00000000
_cell_angle_gamma   119.34979658
_symmetry_Int_Tables_number   1
_chemical_formula_structural   Nd2ThAlZn2Pt3
_chemical_formula_sum   'Nd2 Th1 Al1 Zn2 Pt3'
_cell_volume   192.26638973
_cell_formula_units_Z   1
loop_
 _symmetry_equiv_pos_site_id
 _symmetry_equiv_pos_as_xyz
  1  'x, y, z'
loop_
 _atom_site_type_symbol
 _atom_site_label
 _atom_site_symmetry_multiplicity
 _atom_site_fract_x
 _atom_site_fract_y
 _atom_site_fract_z
 _atom_site_occupancy
  Nd  Nd0  1  0.414727  0.410827  0.500000  1
  Nd  Nd1  1  0.585273  0.996100  0.500000  1
  Th  Th2  1  0.000000  0.595705  0.500000  1
  Al  Al3  1  0.000000  0.228028  0.000000  1
  Zn  Zn4  1  0.753875  0.760408  0.000000  1
  Zn  Zn5  1  0.246125  0.006533  0.000000  1
  Pt  Pt6  1  0.691296  0.341702  0.000000  1
  Pt  Pt7  1  0.308704  0.650406  0.000000  1
  Pt  Pt8  1  0.000000  0.010294  0.500000  1
