# generated using pymatgen
data_Tb5Dy3Re13B12
_symmetry_space_group_name_H-M   'P 1'
_cell_length_a   7.80600616
_cell_length_b   7.80600700
_cell_length_c   7.80600641
_cell_angle_alpha   86.25944908
_cell_angle_beta   86.25944398
_cell_angle_gamma   86.25945315
_symmetry_Int_Tables_number   1
_chemical_formula_structural   Tb5Dy3Re13B12
_chemical_formula_sum   'Tb5 Dy3 Re13 B12'
_cell_volume   472.73570644
_cell_formula_units_Z   1
loop_
 _symmetry_equiv_pos_site_id
 _symmetry_equiv_pos_as_xyz
  1  'x, y, z'
loop_
 _atom_site_type_symbol
 _atom_site_label
 _atom_site_symmetry_multiplicity
 _atom_site_fract_x
 _atom_site_fract_y
 _atom_site_fract_z
 _atom_site_occupancy
  Tb  Tb0  1  0.641235  0.641235  0.641235  1
  Tb  Tb1  1  0.358711  0.358711  0.358711  1
  Tb  Tb2  1  0.811385  0.811385  0.312551  1
  Tb  Tb3  1  0.312551  0.811385  0.811385  1
  Tb  Tb4  1  0.811385  0.312551  0.811385  1
  Dy  Dy5  1  0.188732  0.188732  0.687576  1
  Dy  Dy6  1  0.687576  0.188732  0.188732  1
  Dy  Dy7  1  0.188732  0.687576  0.188732  1
  Re  Re8  1  0.000013  0.000013  0.000013  1
  Re  Re9  1  0.596550  0.063543  0.596550  1
  Re  Re10  1  0.596550  0.596550  0.063543  1
  Re  Re11  1  0.063543  0.596550  0.596550  1
  Re  Re12  1  0.403371  0.936585  0.403371  1
  Re  Re13  1  0.403371  0.403371  0.936585  1
  Re  Re14  1  0.936585  0.403371  0.403371  1
  Re  Re15  1  0.923031  0.923031  0.670935  1
  Re  Re16  1  0.670935  0.923031  0.923031  1
  Re  Re17  1  0.923031  0.670935  0.923031  1
  Re  Re18  1  0.077106  0.077106  0.329201  1
  Re  Re19  1  0.329201  0.077106  0.077106  1
  Re  Re20  1  0.077106  0.329201  0.077106  1
  B  B21  1  0.152053  0.847891  0.499912  1
  B  B22  1  0.499912  0.152053  0.847891  1
  B  B23  1  0.847891  0.499912  0.152053  1
  B  B24  1  0.499912  0.847891  0.152053  1
  B  B25  1  0.152053  0.499912  0.847891  1
  B  B26  1  0.847891  0.152053  0.499912  1
  B  B27  1  0.671749  0.499857  0.328189  1
  B  B28  1  0.328189  0.671749  0.499857  1
  B  B29  1  0.499857  0.328189  0.671749  1
  B  B30  1  0.328189  0.499857  0.671749  1
  B  B31  1  0.671749  0.328189  0.499857  1
  B  B32  1  0.499857  0.671749  0.328189  1
