# generated using pymatgen
data_Er8Ga12NiAu3
_symmetry_space_group_name_H-M   'P 1'
_cell_length_a   7.07752700
_cell_length_b   8.84419874
_cell_length_c   8.84419900
_cell_angle_alpha   119.99999723
_cell_angle_beta   90.00000000
_cell_angle_gamma   90.00000000
_symmetry_Int_Tables_number   1
_chemical_formula_structural   Er8Ga12NiAu3
_chemical_formula_sum   'Er8 Ga12 Ni1 Au3'
_cell_volume   479.43438433
_cell_formula_units_Z   1
loop_
 _symmetry_equiv_pos_site_id
 _symmetry_equiv_pos_as_xyz
  1  'x, y, z'
loop_
 _atom_site_type_symbol
 _atom_site_label
 _atom_site_symmetry_multiplicity
 _atom_site_fract_x
 _atom_site_fract_y
 _atom_site_fract_z
 _atom_site_occupancy
  Er  Er0  1  0.740157  0.000000  0.000000  1
  Er  Er1  1  0.250563  0.000000  0.000000  1
  Er  Er2  1  0.749353  0.487702  0.512298  1
  Er  Er3  1  0.255141  0.518065  0.481935  1
  Er  Er4  1  0.749353  0.024596  0.512298  1
  Er  Er5  1  0.255141  0.963870  0.481935  1
  Er  Er6  1  0.749353  0.487702  0.975404  1
  Er  Er7  1  0.255141  0.518065  0.036130  1
  Ga  Ga8  1  0.960994  0.836972  0.163028  1
  Ga  Ga9  1  0.041739  0.164793  0.835207  1
  Ga  Ga10  1  0.960994  0.326058  0.163028  1
  Ga  Ga11  1  0.463782  0.163227  0.836773  1
  Ga  Ga12  1  0.041739  0.670413  0.835207  1
  Ga  Ga13  1  0.537763  0.826644  0.173356  1
  Ga  Ga14  1  0.960994  0.836972  0.673942  1
  Ga  Ga15  1  0.463782  0.673546  0.836773  1
  Ga  Ga16  1  0.041739  0.164793  0.329587  1
  Ga  Ga17  1  0.537763  0.346713  0.173356  1
  Ga  Ga18  1  0.463782  0.163227  0.326454  1
  Ga  Ga19  1  0.537763  0.826644  0.653287  1
  Ni  Ni20  1  0.519401  0.666667  0.333333  1
  Au  Au21  1  0.960694  0.666667  0.333333  1
  Au  Au22  1  0.030926  0.333333  0.666667  1
  Au  Au23  1  0.471951  0.333333  0.666667  1
