# generated using pymatgen
data_Hf(BrO3)4
_symmetry_space_group_name_H-M   'P 1'
_cell_length_a   8.24022000
_cell_length_b   8.24022000
_cell_length_c   8.01888900
_cell_angle_alpha   90.00000000
_cell_angle_beta   90.00000000
_cell_angle_gamma   90.00000000
_symmetry_Int_Tables_number   1
_chemical_formula_structural   Hf(BrO3)4
_chemical_formula_sum   'Hf2 Br8 O24'
_cell_volume   544.49239144
_cell_formula_units_Z   2
loop_
 _symmetry_equiv_pos_site_id
 _symmetry_equiv_pos_as_xyz
  1  'x, y, z'
loop_
 _atom_site_type_symbol
 _atom_site_label
 _atom_site_symmetry_multiplicity
 _atom_site_fract_x
 _atom_site_fract_y
 _atom_site_fract_z
 _atom_site_occupancy
  Hf  Hf0  1  0.000000  0.500000  0.054091  1
  Hf  Hf1  1  0.500000  0.000000  0.945909  1
  Br  Br2  1  0.782176  0.741598  0.749971  1
  Br  Br3  1  0.758402  0.282176  0.749971  1
  Br  Br4  1  0.258402  0.782176  0.250029  1
  Br  Br5  1  0.282176  0.241598  0.250029  1
  Br  Br6  1  0.717824  0.758402  0.250029  1
  Br  Br7  1  0.741598  0.217824  0.250029  1
  Br  Br8  1  0.217824  0.258402  0.749971  1
  Br  Br9  1  0.241598  0.717824  0.749971  1
  O  O10  1  0.214676  0.583744  0.915510  1
  O  O11  1  0.083744  0.285324  0.915510  1
  O  O12  1  0.916256  0.714676  0.915510  1
  O  O13  1  0.785324  0.416256  0.915510  1
  O  O14  1  0.285324  0.916256  0.084490  1
  O  O15  1  0.416256  0.214676  0.084490  1
  O  O16  1  0.583744  0.785324  0.084490  1
  O  O17  1  0.714676  0.083744  0.084490  1
  O  O18  1  0.434819  0.787401  0.792712  1
  O  O19  1  0.287401  0.065181  0.792712  1
  O  O20  1  0.731458  0.407555  0.594410  1
  O  O21  1  0.907555  0.768542  0.594410  1
  O  O22  1  0.092445  0.231458  0.594410  1
  O  O23  1  0.268542  0.592445  0.594410  1
  O  O24  1  0.768542  0.092445  0.405590  1
  O  O25  1  0.592445  0.731458  0.405590  1
  O  O26  1  0.407555  0.268542  0.405590  1
  O  O27  1  0.231458  0.907555  0.405590  1
  O  O28  1  0.934819  0.287401  0.207288  1
  O  O29  1  0.787401  0.565181  0.207288  1
  O  O30  1  0.212599  0.434819  0.207288  1
  O  O31  1  0.065181  0.712599  0.207288  1
  O  O32  1  0.565181  0.212599  0.792712  1
  O  O33  1  0.712599  0.934819  0.792712  1
