# generated using pymatgen
data_Dy4OsRh3O14
_symmetry_space_group_name_H-M   'P 1'
_cell_length_a   7.21823096
_cell_length_b   7.21823141
_cell_length_c   7.25806655
_cell_angle_alpha   60.18138382
_cell_angle_beta   60.18137948
_cell_angle_gamma   59.99999436
_symmetry_Int_Tables_number   1
_chemical_formula_structural   Dy4OsRh3O14
_chemical_formula_sum   'Dy4 Os1 Rh3 O14'
_cell_volume   268.13452279
_cell_formula_units_Z   1
loop_
 _symmetry_equiv_pos_site_id
 _symmetry_equiv_pos_as_xyz
  1  'x, y, z'
loop_
 _atom_site_type_symbol
 _atom_site_label
 _atom_site_symmetry_multiplicity
 _atom_site_fract_x
 _atom_site_fract_y
 _atom_site_fract_z
 _atom_site_occupancy
  Dy  Dy0  1  0.125000  0.625000  0.125000  1
  Dy  Dy1  1  0.125000  0.125000  0.625000  1
  Dy  Dy2  1  0.625000  0.125000  0.125000  1
  Dy  Dy3  1  0.125000  0.125000  0.125000  1
  Os  Os4  1  0.625000  0.625000  0.125000  1
  Rh  Rh5  1  0.625000  0.625000  0.625000  1
  Rh  Rh6  1  0.125000  0.625000  0.625000  1
  Rh  Rh7  1  0.625000  0.125000  0.625000  1
  O  O8  1  0.283017  0.709872  0.724092  1
  O  O9  1  0.543768  0.951046  0.961418  1
  O  O10  1  0.706232  0.706232  0.288582  1
  O  O11  1  0.283017  0.283017  0.724092  1
  O  O12  1  0.998916  0.998916  0.003253  1
  O  O13  1  0.709872  0.283017  0.724092  1
  O  O14  1  0.298954  0.706232  0.288582  1
  O  O15  1  0.951046  0.543768  0.961418  1
  O  O16  1  0.543768  0.543768  0.961418  1
  O  O17  1  0.966983  0.966983  0.525908  1
  O  O18  1  0.251084  0.251084  0.246747  1
  O  O19  1  0.540128  0.966983  0.525908  1
  O  O20  1  0.706232  0.298954  0.288582  1
  O  O21  1  0.966983  0.540128  0.525908  1
