# generated using pymatgen
data_Hf3Zr7AlSiSn6
_symmetry_space_group_name_H-M   'P 1'
_cell_length_a   8.68853000
_cell_length_b   8.68853026
_cell_length_c   5.88563400
_cell_angle_alpha   90.00000000
_cell_angle_beta   90.00000000
_cell_angle_gamma   119.99999902
_symmetry_Int_Tables_number   1
_chemical_formula_structural   Hf3Zr7AlSiSn6
_chemical_formula_sum   'Hf3 Zr7 Al1 Si1 Sn6'
_cell_volume   384.78356212
_cell_formula_units_Z   1
loop_
 _symmetry_equiv_pos_site_id
 _symmetry_equiv_pos_as_xyz
  1  'x, y, z'
loop_
 _atom_site_type_symbol
 _atom_site_label
 _atom_site_symmetry_multiplicity
 _atom_site_fract_x
 _atom_site_fract_y
 _atom_site_fract_z
 _atom_site_occupancy
  Hf  Hf0  1  0.666667  0.333333  0.000000  1
  Hf  Hf1  1  0.333333  0.666667  0.000000  1
  Hf  Hf2  1  0.333333  0.666667  0.500000  1
  Zr  Zr3  1  0.666667  0.333333  0.500000  1
  Zr  Zr4  1  0.735480  0.735707  0.740380  1
  Zr  Zr5  1  0.264293  0.999773  0.740380  1
  Zr  Zr6  1  0.000227  0.264520  0.740380  1
  Zr  Zr7  1  0.264293  0.264520  0.259620  1
  Zr  Zr8  1  0.735480  0.999773  0.259620  1
  Zr  Zr9  1  0.000227  0.735707  0.259620  1
  Al  Al10  1  0.000000  0.000000  0.000000  1
  Si  Si11  1  0.000000  0.000000  0.500000  1
  Sn  Sn12  1  0.389550  0.389957  0.754425  1
  Sn  Sn13  1  0.610043  0.999593  0.754425  1
  Sn  Sn14  1  0.000407  0.610450  0.754425  1
  Sn  Sn15  1  0.610043  0.610450  0.245575  1
  Sn  Sn16  1  0.389550  0.999593  0.245575  1
  Sn  Sn17  1  0.000407  0.389957  0.245575  1
