# generated using pymatgen
data_Tb2Y2Fe13Co
_symmetry_space_group_name_H-M   'P 1'
_cell_length_a   12.32833479
_cell_length_b   12.32833546
_cell_length_c   12.32833564
_cell_angle_alpha   23.84203141
_cell_angle_beta   23.84202330
_cell_angle_gamma   23.84203236
_symmetry_Int_Tables_number   1
_chemical_formula_structural   Tb2Y2Fe13Co
_chemical_formula_sum   'Tb2 Y2 Fe13 Co1'
_cell_volume   268.96154405
_cell_formula_units_Z   1
loop_
 _symmetry_equiv_pos_site_id
 _symmetry_equiv_pos_as_xyz
  1  'x, y, z'
loop_
 _atom_site_type_symbol
 _atom_site_label
 _atom_site_symmetry_multiplicity
 _atom_site_fract_x
 _atom_site_fract_y
 _atom_site_fract_z
 _atom_site_occupancy
  Tb  Tb0  1  0.947898  0.947898  0.947898  1
  Tb  Tb1  1  0.052102  0.052102  0.052102  1
  Y  Y2  1  0.850460  0.850460  0.850460  1
  Y  Y3  1  0.149540  0.149540  0.149540  1
  Fe  Fe4  1  0.720876  0.720876  0.720876  1
  Fe  Fe5  1  0.279124  0.279124  0.279124  1
  Fe  Fe6  1  0.612692  0.612692  0.612692  1
  Fe  Fe7  1  0.387308  0.387308  0.387308  1
  Fe  Fe8  1  0.500000  0.500000  0.000000  1
  Fe  Fe9  1  0.000000  0.500000  0.500000  1
  Fe  Fe10  1  0.500000  0.000000  0.500000  1
  Fe  Fe11  1  0.391033  0.891434  0.391033  1
  Fe  Fe12  1  0.391033  0.391033  0.891434  1
  Fe  Fe13  1  0.891434  0.391033  0.391033  1
  Fe  Fe14  1  0.608967  0.108566  0.608967  1
  Fe  Fe15  1  0.608967  0.608967  0.108566  1
  Fe  Fe16  1  0.108566  0.608967  0.608967  1
  Co  Co17  1  0.500000  0.500000  0.500000  1
