# generated using pymatgen
data_Ti6GaSn5Rh12
_symmetry_space_group_name_H-M   'P 1'
_cell_length_a   4.14850800
_cell_length_b   7.29738100
_cell_length_c   12.43933500
_cell_angle_alpha   89.99977953
_cell_angle_beta   89.99977897
_cell_angle_gamma   90.00019090
_symmetry_Int_Tables_number   1
_chemical_formula_structural   Ti6GaSn5Rh12
_chemical_formula_sum   'Ti6 Ga1 Sn5 Rh12'
_cell_volume   376.57901690
_cell_formula_units_Z   1
loop_
 _symmetry_equiv_pos_site_id
 _symmetry_equiv_pos_as_xyz
  1  'x, y, z'
loop_
 _atom_site_type_symbol
 _atom_site_label
 _atom_site_symmetry_multiplicity
 _atom_site_fract_x
 _atom_site_fract_y
 _atom_site_fract_z
 _atom_site_occupancy
  Ti  Ti0  1  0.000001  0.500001  0.993189  1
  Ti  Ti1  1  0.500004  0.000000  0.164717  1
  Ti  Ti2  1  0.000003  0.500001  0.333333  1
  Ti  Ti3  1  0.500000  0.999999  0.501949  1
  Ti  Ti4  1  0.999998  0.500002  0.673478  1
  Ti  Ti5  1  0.499996  0.999999  0.833334  1
  Ga  Ga6  1  0.499996  0.500001  0.833329  1
  Sn  Sn7  1  0.999999  0.999999  0.997970  1
  Sn  Sn8  1  0.500006  0.500001  0.164983  1
  Sn  Sn9  1  0.000006  0.999999  0.333341  1
  Sn  Sn10  1  0.499999  0.500001  0.501687  1
  Sn  Sn11  1  0.999996  0.999999  0.668694  1
  Rh  Rh12  1  0.499999  0.255251  0.996546  1
  Rh  Rh13  1  0.500001  0.744752  0.996545  1
  Rh  Rh14  1  0.000004  0.249225  0.166172  1
  Rh  Rh15  1  0.000005  0.750775  0.166172  1
  Rh  Rh16  1  0.500004  0.248775  0.333335  1
  Rh  Rh17  1  0.500003  0.751227  0.333336  1
  Rh  Rh18  1  0.000000  0.249226  0.500497  1
  Rh  Rh19  1  0.999999  0.750774  0.500497  1
  Rh  Rh20  1  0.499996  0.255244  0.670116  1
  Rh  Rh21  1  0.499994  0.744757  0.670116  1
  Rh  Rh22  1  0.999994  0.261627  0.833330  1
  Rh  Rh23  1  0.999996  0.738371  0.833330  1
