# generated using pymatgen
data_La3Pr3(SiPd5)2
_symmetry_space_group_name_H-M   'P 1'
_cell_length_a   8.52266921
_cell_length_b   8.51272472
_cell_length_c   8.51272561
_cell_angle_alpha   127.47610316
_cell_angle_beta   126.29821206
_cell_angle_gamma   78.41184356
_symmetry_Int_Tables_number   1
_chemical_formula_structural   La3Pr3(SiPd5)2
_chemical_formula_sum   'La3 Pr3 Si2 Pd10'
_cell_volume   382.57589735
_cell_formula_units_Z   1
loop_
 _symmetry_equiv_pos_site_id
 _symmetry_equiv_pos_as_xyz
  1  'x, y, z'
loop_
 _atom_site_type_symbol
 _atom_site_label
 _atom_site_symmetry_multiplicity
 _atom_site_fract_x
 _atom_site_fract_y
 _atom_site_fract_z
 _atom_site_occupancy
  La  La0  1  0.384919  0.249826  0.135092  1
  La  La1  1  0.778243  0.549043  0.229200  1
  La  La2  1  0.614813  0.750024  0.864789  1
  Pr  Pr3  1  0.820505  0.049009  0.771496  1
  Pr  Pr4  1  0.221893  0.450804  0.771090  1
  Pr  Pr5  1  0.179633  0.950953  0.228679  1
  Si  Si6  1  0.210916  0.750304  0.460612  1
  Si  Si7  1  0.789912  0.249949  0.539963  1
  Pd  Pd8  1  0.828952  0.590684  0.636417  1
  Pd  Pd9  1  0.545776  0.307572  0.636295  1
  Pd  Pd10  1  0.453786  0.090320  0.761355  1
  Pd  Pd11  1  0.828952  0.192535  0.238267  1
  Pd  Pd12  1  0.170977  0.409424  0.363325  1
  Pd  Pd13  1  0.453786  0.692431  0.363466  1
  Pd  Pd14  1  0.545776  0.909481  0.238204  1
  Pd  Pd15  1  0.170977  0.807652  0.761553  1
  Pd  Pd16  1  0.000093  0.000111  0.500214  1
  Pd  Pd17  1  0.000093  0.499879  0.999982  1
