# generated using pymatgen
data_UTaPt5Rh
_symmetry_space_group_name_H-M   'P 1'
_cell_length_a   4.69517900
_cell_length_b   5.07453900
_cell_length_c   5.61086400
_cell_angle_alpha   90.00000000
_cell_angle_beta   90.00000000
_cell_angle_gamma   90.00000000
_symmetry_Int_Tables_number   1
_chemical_formula_structural   UTaPt5Rh
_chemical_formula_sum   'U1 Ta1 Pt5 Rh1'
_cell_volume   133.68371035
_cell_formula_units_Z   1
loop_
 _symmetry_equiv_pos_site_id
 _symmetry_equiv_pos_as_xyz
  1  'x, y, z'
loop_
 _atom_site_type_symbol
 _atom_site_label
 _atom_site_symmetry_multiplicity
 _atom_site_fract_x
 _atom_site_fract_y
 _atom_site_fract_z
 _atom_site_occupancy
  U  U0  1  0.000000  0.341136  0.000000  1
  Ta  Ta1  1  0.500000  0.653120  0.500000  1
  Pt  Pt2  1  0.000000  0.832123  0.254945  1
  Pt  Pt3  1  0.500000  0.161348  0.257265  1
  Pt  Pt4  1  0.000000  0.832123  0.745055  1
  Pt  Pt5  1  0.500000  0.161348  0.742735  1
  Pt  Pt6  1  0.500000  0.674793  0.000000  1
  Rh  Rh7  1  0.000000  0.344009  0.500000  1
