# generated using pymatgen
data_Sm2Dy4NiI10
_symmetry_space_group_name_H-M   'P 1'
_cell_length_a   7.72572493
_cell_length_b   9.70990860
_cell_length_c   9.78777212
_cell_angle_alpha   107.26231963
_cell_angle_beta   96.86819560
_cell_angle_gamma   104.90300961
_symmetry_Int_Tables_number   1
_chemical_formula_structural   Sm2Dy4NiI10
_chemical_formula_sum   'Sm2 Dy4 Ni1 I10'
_cell_volume   662.13821153
_cell_formula_units_Z   1
loop_
 _symmetry_equiv_pos_site_id
 _symmetry_equiv_pos_as_xyz
  1  'x, y, z'
loop_
 _atom_site_type_symbol
 _atom_site_label
 _atom_site_symmetry_multiplicity
 _atom_site_fract_x
 _atom_site_fract_y
 _atom_site_fract_z
 _atom_site_occupancy
  Sm  Sm0  1  0.885269  0.958785  0.238690  1
  Sm  Sm1  1  0.114731  0.041215  0.761310  1
  Dy  Dy2  1  0.029671  0.720440  0.915947  1
  Dy  Dy3  1  0.970329  0.279560  0.084053  1
  Dy  Dy4  1  0.659722  0.878528  0.839251  1
  Dy  Dy5  1  0.340278  0.121472  0.160749  1
  Ni  Ni6  1  0.000000  0.000000  0.000000  1
  I  I7  1  0.647985  0.549485  0.728585  1
  I  I8  1  0.352015  0.450515  0.271415  1
  I  I9  1  0.734526  0.910343  0.539227  1
  I  I10  1  0.265474  0.089657  0.460773  1
  I  I11  1  0.083806  0.375576  0.822275  1
  I  I12  1  0.916194  0.624424  0.177725  1
  I  I13  1  0.450060  0.814898  0.090303  1
  I  I14  1  0.549940  0.185102  0.909697  1
  I  I15  1  0.225013  0.739385  0.656101  1
  I  I16  1  0.774987  0.260615  0.343899  1
