# generated using pymatgen
data_Y3Hg2Pb5
_symmetry_space_group_name_H-M   'P 1'
_cell_length_a   12.71064870
_cell_length_b   12.71064907
_cell_length_c   4.58398300
_cell_angle_alpha   90.00000000
_cell_angle_beta   90.00000000
_cell_angle_gamma   157.93888887
_symmetry_Int_Tables_number   1
_chemical_formula_structural   Y3Hg2Pb5
_chemical_formula_sum   'Y3 Hg2 Pb5'
_cell_volume   278.16251088
_cell_formula_units_Z   1
loop_
 _symmetry_equiv_pos_site_id
 _symmetry_equiv_pos_as_xyz
  1  'x, y, z'
loop_
 _atom_site_type_symbol
 _atom_site_label
 _atom_site_symmetry_multiplicity
 _atom_site_fract_x
 _atom_site_fract_y
 _atom_site_fract_z
 _atom_site_occupancy
  Y  Y0  1  0.000000  0.000000  0.000000  1
  Y  Y1  1  0.811979  0.188020  0.000000  1
  Y  Y2  1  0.188020  0.811979  0.000000  1
  Hg  Hg3  1  0.597394  0.402606  0.000000  1
  Hg  Hg4  1  0.402606  0.597394  0.000000  1
  Pb  Pb5  1  0.904222  0.095778  0.500000  1
  Pb  Pb6  1  0.705453  0.294547  0.500000  1
  Pb  Pb7  1  0.500000  0.500000  0.500000  1
  Pb  Pb8  1  0.294547  0.705453  0.500000  1
  Pb  Pb9  1  0.095778  0.904222  0.500000  1
