# generated using pymatgen
data_Dy3TmAl18Ir5Pt
_symmetry_space_group_name_H-M   'P 1'
_cell_length_a   7.55800518
_cell_length_b   7.56139511
_cell_length_c   9.45894700
_cell_angle_alpha   89.96965127
_cell_angle_beta   89.97389040
_cell_angle_gamma   119.57956791
_symmetry_Int_Tables_number   1
_chemical_formula_structural   Dy3TmAl18Ir5Pt
_chemical_formula_sum   'Dy3 Tm1 Al18 Ir5 Pt1'
_cell_volume   470.11780278
_cell_formula_units_Z   1
loop_
 _symmetry_equiv_pos_site_id
 _symmetry_equiv_pos_as_xyz
  1  'x, y, z'
loop_
 _atom_site_type_symbol
 _atom_site_label
 _atom_site_symmetry_multiplicity
 _atom_site_fract_x
 _atom_site_fract_y
 _atom_site_fract_z
 _atom_site_occupancy
  Dy  Dy0  1  0.994913  0.670865  0.250709  1
  Dy  Dy1  1  0.004823  0.328971  0.749400  1
  Dy  Dy2  1  0.670917  0.995321  0.250568  1
  Tm  Tm3  1  0.328538  0.004672  0.749132  1
  Al  Al4  1  0.128420  0.127509  0.250261  1
  Al  Al5  1  0.872758  0.871574  0.749728  1
  Al  Al6  1  0.004390  0.335423  0.076534  1
  Al  Al7  1  0.002761  0.669063  0.923444  1
  Al  Al8  1  0.000328  0.665422  0.574913  1
  Al  Al9  1  0.335253  0.000188  0.425903  1
  Al  Al10  1  0.000912  0.334701  0.424689  1
  Al  Al11  1  0.664616  0.999077  0.575414  1
  Al  Al12  1  0.663930  0.995637  0.923375  1
  Al  Al13  1  0.331671  0.997853  0.075787  1
  Al  Al14  1  0.333259  0.332548  0.552536  1
  Al  Al15  1  0.666965  0.666741  0.447853  1
  Al  Al16  1  0.666216  0.669468  0.055291  1
  Al  Al17  1  0.330557  0.333343  0.944325  1
  Al  Al18  1  0.340368  0.549464  0.250266  1
  Al  Al19  1  0.659497  0.452765  0.747491  1
  Al  Al20  1  0.546758  0.339832  0.252531  1
  Al  Al21  1  0.450858  0.660322  0.749749  1
  Ir  Ir22  1  0.327985  0.671884  0.999759  1
  Ir  Ir23  1  0.328253  0.671575  0.500256  1
  Ir  Ir24  1  0.672034  0.327786  0.500307  1
  Ir  Ir25  1  0.000057  0.000431  0.999656  1
  Ir  Ir26  1  0.000604  0.999894  0.500336  1
  Pt  Pt27  1  0.672358  0.327671  0.999787  1
