# generated using pymatgen
data_Tm13Th3(HgIr)4
_symmetry_space_group_name_H-M   'P 1'
_cell_length_a   9.59741042
_cell_length_b   9.57530143
_cell_length_c   9.57530200
_cell_angle_alpha   59.99999803
_cell_angle_beta   60.07617267
_cell_angle_gamma   60.07617103
_symmetry_Int_Tables_number   1
_chemical_formula_structural   Tm13Th3(HgIr)4
_chemical_formula_sum   'Tm13 Th3 Hg4 Ir4'
_cell_volume   622.93546775
_cell_formula_units_Z   1
loop_
 _symmetry_equiv_pos_site_id
 _symmetry_equiv_pos_as_xyz
  1  'x, y, z'
loop_
 _atom_site_type_symbol
 _atom_site_label
 _atom_site_symmetry_multiplicity
 _atom_site_fract_x
 _atom_site_fract_y
 _atom_site_fract_z
 _atom_site_occupancy
  Tm  Tm0  1  0.191203  0.602933  0.602933  1
  Tm  Tm1  1  0.061521  0.439754  0.439754  1
  Tm  Tm2  1  0.436616  0.063094  0.063094  1
  Tm  Tm3  1  0.436616  0.063094  0.437195  1
  Tm  Tm4  1  0.061521  0.439754  0.058969  1
  Tm  Tm5  1  0.436616  0.437195  0.063094  1
  Tm  Tm6  1  0.061521  0.058969  0.439754  1
  Tm  Tm7  1  0.185658  0.813841  0.813841  1
  Tm  Tm8  1  0.815767  0.184136  0.184136  1
  Tm  Tm9  1  0.815767  0.184136  0.815962  1
  Tm  Tm10  1  0.185658  0.813841  0.186660  1
  Tm  Tm11  1  0.815767  0.815962  0.184136  1
  Tm  Tm12  1  0.185658  0.186660  0.813841  1
  Th  Th13  1  0.600365  0.602473  0.602473  1
  Th  Th14  1  0.600365  0.602473  0.194689  1
  Th  Th15  1  0.600365  0.194689  0.602473  1
  Hg  Hg16  1  0.842418  0.835726  0.835726  1
  Hg  Hg17  1  0.842418  0.835726  0.486130  1
  Hg  Hg18  1  0.842418  0.486130  0.835726  1
  Hg  Hg19  1  0.483109  0.838964  0.838964  1
  Ir  Ir20  1  0.391816  0.392491  0.392491  1
  Ir  Ir21  1  0.391816  0.392491  0.823202  1
  Ir  Ir22  1  0.391816  0.823202  0.392491  1
  Ir  Ir23  1  0.823204  0.392265  0.392265  1
