# generated using pymatgen
data_CaNd15(InRu)4
_symmetry_space_group_name_H-M   'P 1'
_cell_length_a   9.94107320
_cell_length_b   9.94107358
_cell_length_c   9.96459400
_cell_angle_alpha   59.92170295
_cell_angle_beta   59.92170170
_cell_angle_gamma   59.85383052
_symmetry_Int_Tables_number   1
_chemical_formula_structural   CaNd15(InRu)4
_chemical_formula_sum   'Ca1 Nd15 In4 Ru4'
_cell_volume   694.72873917
_cell_formula_units_Z   1
loop_
 _symmetry_equiv_pos_site_id
 _symmetry_equiv_pos_as_xyz
  1  'x, y, z'
loop_
 _atom_site_type_symbol
 _atom_site_label
 _atom_site_symmetry_multiplicity
 _atom_site_fract_x
 _atom_site_fract_y
 _atom_site_fract_z
 _atom_site_occupancy
  Ca  Ca0  1  0.440441  0.440441  0.059559  1
  Nd  Nd1  1  0.652925  0.652925  0.041242  1
  Nd  Nd2  1  0.192425  0.807014  0.194046  1
  Nd  Nd3  1  0.061111  0.439194  0.059849  1
  Nd  Nd4  1  0.192425  0.807014  0.806516  1
  Nd  Nd5  1  0.061111  0.439194  0.439845  1
  Nd  Nd6  1  0.807014  0.192425  0.194046  1
  Nd  Nd7  1  0.652925  0.652925  0.652910  1
  Nd  Nd8  1  0.807014  0.192425  0.806516  1
  Nd  Nd9  1  0.192488  0.192488  0.807512  1
  Nd  Nd10  1  0.041361  0.652276  0.653182  1
  Nd  Nd11  1  0.439194  0.061111  0.059849  1
  Nd  Nd12  1  0.060536  0.060536  0.439464  1
  Nd  Nd13  1  0.652276  0.041361  0.653182  1
  Nd  Nd14  1  0.807085  0.807085  0.192915  1
  Nd  Nd15  1  0.439194  0.061111  0.439845  1
  In  In16  1  0.418156  0.418156  0.420204  1
  In  In17  1  0.418156  0.418156  0.743485  1
  In  In18  1  0.419921  0.741429  0.419325  1
  In  In19  1  0.741429  0.419921  0.419325  1
  Ru  Ru20  1  0.412611  0.864453  0.861467  1
  Ru  Ru21  1  0.862874  0.862874  0.862638  1
  Ru  Ru22  1  0.864453  0.412611  0.861467  1
  Ru  Ru23  1  0.862874  0.862874  0.411611  1
