# generated using pymatgen
data_LaPa5(Ni3Sb4)2
_symmetry_space_group_name_H-M   'P 1'
_cell_length_a   8.23839971
_cell_length_b   8.23513322
_cell_length_c   8.23581797
_cell_angle_alpha   109.48094667
_cell_angle_beta   109.49788125
_cell_angle_gamma   109.43260815
_symmetry_Int_Tables_number   1
_chemical_formula_structural   LaPa5(Ni3Sb4)2
_chemical_formula_sum   'La1 Pa5 Ni6 Sb8'
_cell_volume   430.14031849
_cell_formula_units_Z   1
loop_
 _symmetry_equiv_pos_site_id
 _symmetry_equiv_pos_as_xyz
  1  'x, y, z'
loop_
 _atom_site_type_symbol
 _atom_site_label
 _atom_site_symmetry_multiplicity
 _atom_site_fract_x
 _atom_site_fract_y
 _atom_site_fract_z
 _atom_site_occupancy
  La  La0  1  0.750010  0.375025  0.625056  1
  Pa  Pa1  1  0.127994  0.875494  0.250096  1
  Pa  Pa2  1  0.371962  0.622020  0.747513  1
  Pa  Pa3  1  0.874570  0.252459  0.124492  1
  Pa  Pa4  1  0.625468  0.749907  0.377872  1
  Pa  Pa5  1  0.250037  0.124964  0.874980  1
  Ni  Ni6  1  0.616263  0.370224  0.235045  1
  Ni  Ni7  1  0.883724  0.118916  0.754013  1
  Ni  Ni8  1  0.364917  0.246119  0.629863  1
  Ni  Ni9  1  0.135116  0.764879  0.881107  1
  Ni  Ni10  1  0.249883  0.624909  0.375132  1
  Ni  Ni11  1  0.749950  0.875013  0.124797  1
  Sb  Sb12  1  0.332484  0.333963  0.333861  1
  Sb  Sb13  1  0.167765  0.501455  0.001525  1
  Sb  Sb14  1  0.999122  0.161125  0.497270  1
  Sb  Sb15  1  0.836024  0.837958  0.838746  1
  Sb  Sb16  1  0.500867  0.998014  0.162012  1
  Sb  Sb17  1  0.663890  0.502923  0.001895  1
  Sb  Sb18  1  0.499862  0.998366  0.666040  1
  Sb  Sb19  1  0.000091  0.666268  0.498685  1
