# generated using pymatgen
data_ErTm5(Sc2Si3)2
_symmetry_space_group_name_H-M   'P 1'
_cell_length_a   8.20157504
_cell_length_b   8.20018962
_cell_length_c   5.98076900
_cell_angle_alpha   90.00000000
_cell_angle_beta   90.00000000
_cell_angle_gamma   119.99441167
_symmetry_Int_Tables_number   1
_chemical_formula_structural   ErTm5(Sc2Si3)2
_chemical_formula_sum   'Er1 Tm5 Sc4 Si6'
_cell_volume   348.36400234
_cell_formula_units_Z   1
loop_
 _symmetry_equiv_pos_site_id
 _symmetry_equiv_pos_as_xyz
  1  'x, y, z'
loop_
 _atom_site_type_symbol
 _atom_site_label
 _atom_site_symmetry_multiplicity
 _atom_site_fract_x
 _atom_site_fract_y
 _atom_site_fract_z
 _atom_site_occupancy
  Er  Er0  1  0.000000  0.755434  0.750000  1
  Tm  Tm1  1  0.000000  0.244510  0.250000  1
  Tm  Tm2  1  0.755382  0.755452  0.250000  1
  Tm  Tm3  1  0.755419  0.000024  0.750000  1
  Tm  Tm4  1  0.244581  0.244605  0.750000  1
  Tm  Tm5  1  0.244618  0.000070  0.250000  1
  Sc  Sc6  1  0.333357  0.666662  0.499980  1
  Sc  Sc7  1  0.666643  0.333304  0.000020  1
  Sc  Sc8  1  0.666643  0.333304  0.499980  1
  Sc  Sc9  1  0.333357  0.666662  0.000020  1
  Si  Si10  1  0.398335  0.000093  0.750000  1
  Si  Si11  1  0.398200  0.398212  0.250000  1
  Si  Si12  1  0.000000  0.601794  0.250000  1
  Si  Si13  1  0.000000  0.398102  0.750000  1
  Si  Si14  1  0.601665  0.601758  0.750000  1
  Si  Si15  1  0.601800  0.000012  0.250000  1
