# generated using pymatgen
data_Ta4Nb8Cr4Ga8C3N
_symmetry_space_group_name_H-M   'P 1'
_cell_length_a   8.30166921
_cell_length_b   8.29275431
_cell_length_c   8.30166900
_cell_angle_alpha   59.91721104
_cell_angle_beta   59.92814244
_cell_angle_gamma   59.91720777
_symmetry_Int_Tables_number   1
_chemical_formula_structural   Ta4Nb8Cr4Ga8C3N
_chemical_formula_sum   'Ta4 Nb8 Cr4 Ga8 C3 N1'
_cell_volume   403.39844815
_cell_formula_units_Z   1
loop_
 _symmetry_equiv_pos_site_id
 _symmetry_equiv_pos_as_xyz
  1  'x, y, z'
loop_
 _atom_site_type_symbol
 _atom_site_label
 _atom_site_symmetry_multiplicity
 _atom_site_fract_x
 _atom_site_fract_y
 _atom_site_fract_z
 _atom_site_occupancy
  Ta  Ta0  1  0.554120  0.946809  0.946993  1
  Ta  Ta1  1  0.946993  0.946809  0.554120  1
  Ta  Ta2  1  0.697547  0.303161  0.697547  1
  Ta  Ta3  1  0.946476  0.554411  0.946476  1
  Nb  Nb4  1  0.553306  0.945924  0.553306  1
  Nb  Nb5  1  0.302217  0.698234  0.698339  1
  Nb  Nb6  1  0.697297  0.302472  0.302398  1
  Nb  Nb7  1  0.301999  0.697663  0.301999  1
  Nb  Nb8  1  0.698339  0.698234  0.302217  1
  Nb  Nb9  1  0.302398  0.302472  0.697297  1
  Nb  Nb10  1  0.552128  0.552052  0.947599  1
  Nb  Nb11  1  0.947599  0.552052  0.552128  1
  Cr  Cr12  1  0.125216  0.125284  0.125216  1
  Cr  Cr13  1  0.625399  0.125145  0.122008  1
  Cr  Cr14  1  0.124199  0.625068  0.124199  1
  Cr  Cr15  1  0.122008  0.125145  0.625399  1
  Ga  Ga16  1  0.913179  0.912939  0.913179  1
  Ga  Ga17  1  0.989763  0.336459  0.335906  1
  Ga  Ga18  1  0.336572  0.990010  0.336572  1
  Ga  Ga19  1  0.335906  0.336459  0.989763  1
  Ga  Ga20  1  0.913970  0.260148  0.913970  1
  Ga  Ga21  1  0.913447  0.914150  0.260182  1
  Ga  Ga22  1  0.260182  0.914150  0.913447  1
  Ga  Ga23  1  0.337349  0.336030  0.337349  1
  C  C24  1  0.123430  0.626286  0.626272  1
  C  C25  1  0.626893  0.124154  0.626893  1
  C  C26  1  0.626272  0.626286  0.123430  1
  N  N27  1  0.625797  0.621992  0.625797  1
