# generated using pymatgen
data_Dy4Co2Sn5
_symmetry_space_group_name_H-M   'P 1'
_cell_length_a   7.25627042
_cell_length_b   7.25627040
_cell_length_c   10.65964242
_cell_angle_alpha   54.39262728
_cell_angle_beta   54.39262830
_cell_angle_gamma   35.60266902
_symmetry_Int_Tables_number   1
_chemical_formula_structural   Dy4Co2Sn5
_chemical_formula_sum   'Dy4 Co2 Sn5'
_cell_volume   258.53602487
_cell_formula_units_Z   1
loop_
 _symmetry_equiv_pos_site_id
 _symmetry_equiv_pos_as_xyz
  1  'x, y, z'
loop_
 _atom_site_type_symbol
 _atom_site_label
 _atom_site_symmetry_multiplicity
 _atom_site_fract_x
 _atom_site_fract_y
 _atom_site_fract_z
 _atom_site_occupancy
  Dy  Dy0  1  0.067157  0.067157  0.781539  1
  Dy  Dy1  1  0.932843  0.932843  0.218461  1
  Dy  Dy2  1  0.328978  0.328978  0.784683  1
  Dy  Dy3  1  0.671022  0.671022  0.215317  1
  Co  Co4  1  0.770573  0.770573  0.647609  1
  Co  Co5  1  0.229427  0.229427  0.352391  1
  Sn  Sn6  1  0.373975  0.373975  0.045963  1
  Sn  Sn7  1  0.626025  0.626025  0.954037  1
  Sn  Sn8  1  0.000000  0.000000  0.500000  1
  Sn  Sn9  1  0.349698  0.349698  0.473591  1
  Sn  Sn10  1  0.650302  0.650302  0.526409  1
