# generated using pymatgen
data_Al11ZnRu2
_symmetry_space_group_name_H-M   'P 1'
_cell_length_a   4.98555845
_cell_length_b   4.98555896
_cell_length_c   9.00766313
_cell_angle_alpha   90.01268265
_cell_angle_beta   90.01268015
_cell_angle_gamma   98.22944547
_symmetry_Int_Tables_number   1
_chemical_formula_structural   Al11ZnRu2
_chemical_formula_sum   'Al11 Zn1 Ru2'
_cell_volume   221.58715360
_cell_formula_units_Z   1
loop_
 _symmetry_equiv_pos_site_id
 _symmetry_equiv_pos_as_xyz
  1  'x, y, z'
loop_
 _atom_site_type_symbol
 _atom_site_label
 _atom_site_symmetry_multiplicity
 _atom_site_fract_x
 _atom_site_fract_y
 _atom_site_fract_z
 _atom_site_occupancy
  Al  Al0  1  0.674681  0.317825  0.001132  1
  Al  Al1  1  0.321197  0.679891  0.499908  1
  Al  Al2  1  0.317825  0.674681  0.001132  1
  Al  Al3  1  0.679891  0.321197  0.499908  1
  Al  Al4  1  0.865840  0.865840  0.601526  1
  Al  Al5  1  0.136456  0.136456  0.392766  1
  Al  Al6  1  0.862370  0.862370  0.903452  1
  Al  Al7  1  0.978831  0.616274  0.248213  1
  Al  Al8  1  0.023844  0.384874  0.751523  1
  Al  Al9  1  0.616274  0.978831  0.248213  1
  Al  Al10  1  0.384874  0.023844  0.751523  1
  Zn  Zn11  1  0.130683  0.130683  0.098988  1
  Ru  Ru12  1  0.466685  0.466685  0.251835  1
  Ru  Ru13  1  0.540549  0.540549  0.749881  1
