# generated using pymatgen
data_TbGd3Dy(ReO6)2
_symmetry_space_group_name_H-M   'P 1'
_cell_length_a   6.90564377
_cell_length_b   6.90564385
_cell_length_c   7.62551421
_cell_angle_alpha   73.77218088
_cell_angle_beta   73.77217997
_cell_angle_gamma   48.80795225
_symmetry_Int_Tables_number   1
_chemical_formula_structural   TbGd3Dy(ReO6)2
_chemical_formula_sum   'Tb1 Gd3 Dy1 Re2 O12'
_cell_volume   260.44164462
_cell_formula_units_Z   1
loop_
 _symmetry_equiv_pos_site_id
 _symmetry_equiv_pos_as_xyz
  1  'x, y, z'
loop_
 _atom_site_type_symbol
 _atom_site_label
 _atom_site_symmetry_multiplicity
 _atom_site_fract_x
 _atom_site_fract_y
 _atom_site_fract_z
 _atom_site_occupancy
  Tb  Tb0  1  0.814764  0.814764  0.825054  1
  Gd  Gd1  1  0.195383  0.195383  0.643261  1
  Gd  Gd2  1  0.185462  0.185462  0.173929  1
  Gd  Gd3  1  0.804550  0.804550  0.357903  1
  Dy  Dy4  1  0.499859  0.499859  0.500406  1
  Re  Re5  1  0.713697  0.286424  0.999782  1
  Re  Re6  1  0.286424  0.713697  0.999782  1
  O  O7  1  0.414817  0.913311  0.915872  1
  O  O8  1  0.913311  0.414817  0.915872  1
  O  O9  1  0.903071  0.402037  0.426891  1
  O  O10  1  0.402037  0.903071  0.426891  1
  O  O11  1  0.501239  0.501239  0.205111  1
  O  O12  1  0.999143  0.999143  0.173159  1
  O  O13  1  0.000085  0.000085  0.826252  1
  O  O14  1  0.498681  0.498681  0.794895  1
  O  O15  1  0.084745  0.587945  0.082153  1
  O  O16  1  0.587945  0.084745  0.082153  1
  O  O17  1  0.095860  0.598926  0.575318  1
  O  O18  1  0.598926  0.095860  0.575318  1
