# generated using pymatgen
data_Yb2AgIO6
_symmetry_space_group_name_H-M   'P 1'
_cell_length_a   5.50156834
_cell_length_b   5.81747800
_cell_length_c   7.93429500
_cell_angle_alpha   90.00000000
_cell_angle_beta   91.37551577
_cell_angle_gamma   90.00000000
_symmetry_Int_Tables_number   1
_chemical_formula_structural   Yb2AgIO6
_chemical_formula_sum   'Yb4 Ag2 I2 O12'
_cell_volume   253.86594167
_cell_formula_units_Z   2
loop_
 _symmetry_equiv_pos_site_id
 _symmetry_equiv_pos_as_xyz
  1  'x, y, z'
loop_
 _atom_site_type_symbol
 _atom_site_label
 _atom_site_symmetry_multiplicity
 _atom_site_fract_x
 _atom_site_fract_y
 _atom_site_fract_z
 _atom_site_occupancy
  Yb  Yb0  1  0.473502  0.932286  0.755976  1
  Yb  Yb1  1  0.026498  0.432286  0.744024  1
  Yb  Yb2  1  0.526498  0.067714  0.244024  1
  Yb  Yb3  1  0.973502  0.567714  0.255976  1
  Ag  Ag4  1  0.500000  0.500000  0.000000  1
  Ag  Ag5  1  0.000000  0.000000  0.500000  1
  I  I6  1  0.500000  0.500000  0.500000  1
  I  I7  1  0.000000  0.000000  0.000000  1
  O  O8  1  0.349311  0.231023  0.586196  1
  O  O9  1  0.150689  0.731023  0.913804  1
  O  O10  1  0.650689  0.768977  0.413804  1
  O  O11  1  0.849311  0.268977  0.086196  1
  O  O12  1  0.637306  0.570247  0.716692  1
  O  O13  1  0.862694  0.070247  0.783308  1
  O  O14  1  0.362694  0.429753  0.283308  1
  O  O15  1  0.137306  0.929753  0.216692  1
  O  O16  1  0.217206  0.668890  0.554272  1
  O  O17  1  0.282794  0.168890  0.945728  1
  O  O18  1  0.782794  0.331110  0.445728  1
  O  O19  1  0.717206  0.831110  0.054272  1
