# generated using pymatgen
data_ThFe(ReO4)6
_symmetry_space_group_name_H-M   'P 1'
_cell_length_a   10.33486800
_cell_length_b   10.33486780
_cell_length_c   6.14943700
_cell_angle_alpha   90.00000000
_cell_angle_beta   90.00000000
_cell_angle_gamma   120.00000065
_symmetry_Int_Tables_number   1
_chemical_formula_structural   ThFe(ReO4)6
_chemical_formula_sum   'Th1 Fe1 Re6 O24'
_cell_volume   568.82129287
_cell_formula_units_Z   1
loop_
 _symmetry_equiv_pos_site_id
 _symmetry_equiv_pos_as_xyz
  1  'x, y, z'
loop_
 _atom_site_type_symbol
 _atom_site_label
 _atom_site_symmetry_multiplicity
 _atom_site_fract_x
 _atom_site_fract_y
 _atom_site_fract_z
 _atom_site_occupancy
  Th  Th0  1  0.333333  0.666667  0.250000  1
  Fe  Fe1  1  0.666667  0.333333  0.750000  1
  Re  Re2  1  0.086733  0.388708  0.750000  1
  Re  Re3  1  0.402426  0.305675  0.250000  1
  Re  Re4  1  0.611292  0.698023  0.750000  1
  Re  Re5  1  0.903248  0.597574  0.250000  1
  Re  Re6  1  0.301977  0.913267  0.750000  1
  Re  Re7  1  0.694325  0.096752  0.250000  1
  O  O8  1  0.493340  0.648392  0.518057  1
  O  O9  1  0.351608  0.844949  0.518057  1
  O  O10  1  0.840771  0.724769  0.250000  1
  O  O11  1  0.112447  0.847323  0.750000  1
  O  O12  1  0.275231  0.116001  0.250000  1
  O  O13  1  0.152677  0.265124  0.750000  1
  O  O14  1  0.515254  0.350536  0.016730  1
  O  O15  1  0.883999  0.159229  0.250000  1
  O  O16  1  0.101951  0.691832  0.250000  1
  O  O17  1  0.155051  0.506660  0.981943  1
  O  O18  1  0.155051  0.506660  0.518057  1
  O  O19  1  0.893322  0.289821  0.750000  1
  O  O20  1  0.308168  0.410117  0.250000  1
  O  O21  1  0.710179  0.603501  0.750000  1
  O  O22  1  0.835282  0.484746  0.483270  1
  O  O23  1  0.396499  0.106678  0.750000  1
  O  O24  1  0.649464  0.164718  0.016730  1
  O  O25  1  0.493340  0.648392  0.981943  1
  O  O26  1  0.351608  0.844949  0.981943  1
  O  O27  1  0.649464  0.164718  0.483270  1
  O  O28  1  0.515254  0.350536  0.483270  1
  O  O29  1  0.835282  0.484746  0.016730  1
  O  O30  1  0.734876  0.887553  0.750000  1
  O  O31  1  0.589883  0.898049  0.250000  1
