# generated using pymatgen
data_Pa(FeB3)2
_symmetry_space_group_name_H-M   'P 1'
_cell_length_a   5.36403970
_cell_length_b   5.36403959
_cell_length_c   5.36403990
_cell_angle_alpha   145.76955672
_cell_angle_beta   110.10815979
_cell_angle_gamma   80.17874176
_symmetry_Int_Tables_number   1
_chemical_formula_structural   Pa(FeB3)2
_chemical_formula_sum   'Pa1 Fe2 B6'
_cell_volume   79.61733561
_cell_formula_units_Z   1
loop_
 _symmetry_equiv_pos_site_id
 _symmetry_equiv_pos_as_xyz
  1  'x, y, z'
loop_
 _atom_site_type_symbol
 _atom_site_label
 _atom_site_symmetry_multiplicity
 _atom_site_fract_x
 _atom_site_fract_y
 _atom_site_fract_z
 _atom_site_occupancy
  Pa  Pa0  1  0.500000  0.000000  0.500000  1
  Fe  Fe1  1  0.845751  0.845751  0.000000  1
  Fe  Fe2  1  0.154249  0.154249  0.000000  1
  B  B3  1  0.856509  0.500000  0.356509  1
  B  B4  1  0.143491  0.500000  0.643491  1
  B  B5  1  0.959560  0.696472  0.263088  1
  B  B6  1  0.040440  0.303528  0.736912  1
  B  B7  1  0.566616  0.303528  0.263088  1
  B  B8  1  0.433384  0.696472  0.736912  1
