# generated using pymatgen
data_Er3Tm(ScGa5)2
_symmetry_space_group_name_H-M   'P 1'
_cell_length_a   5.97165406
_cell_length_b   9.43435110
_cell_length_c   11.30075700
_cell_angle_alpha   90.00000000
_cell_angle_beta   90.00000000
_cell_angle_gamma   89.98318835
_symmetry_Int_Tables_number   1
_chemical_formula_structural   Er3Tm(ScGa5)2
_chemical_formula_sum   'Er6 Tm2 Sc4 Ga20'
_cell_volume   636.66971740
_cell_formula_units_Z   2
loop_
 _symmetry_equiv_pos_site_id
 _symmetry_equiv_pos_as_xyz
  1  'x, y, z'
loop_
 _atom_site_type_symbol
 _atom_site_label
 _atom_site_symmetry_multiplicity
 _atom_site_fract_x
 _atom_site_fract_y
 _atom_site_fract_z
 _atom_site_occupancy
  Er  Er0  1  0.891275  0.509604  0.352201  1
  Er  Er1  1  0.608725  0.990396  0.852201  1
  Er  Er2  1  0.108691  0.009665  0.647648  1
  Er  Er3  1  0.391309  0.490335  0.147648  1
  Er  Er4  1  0.108643  0.490338  0.647838  1
  Er  Er5  1  0.391357  0.009662  0.147838  1
  Tm  Tm6  1  0.891359  0.990377  0.352202  1
  Tm  Tm7  1  0.608641  0.509623  0.852202  1
  Sc  Sc8  1  0.849570  0.749959  0.073764  1
  Sc  Sc9  1  0.650430  0.750041  0.573764  1
  Sc  Sc10  1  0.150614  0.249989  0.926224  1
  Sc  Sc11  1  0.349386  0.250011  0.426224  1
  Ga  Ga12  1  0.877565  0.050568  0.089921  1
  Ga  Ga13  1  0.622435  0.449432  0.589921  1
  Ga  Ga14  1  0.122690  0.550500  0.910233  1
  Ga  Ga15  1  0.377310  0.949500  0.410233  1
  Ga  Ga16  1  0.122444  0.949385  0.910279  1
  Ga  Ga17  1  0.377556  0.550615  0.410279  1
  Ga  Ga18  1  0.877564  0.449411  0.089599  1
  Ga  Ga19  1  0.622436  0.050589  0.589599  1
  Ga  Ga20  1  0.163891  0.750174  0.248440  1
  Ga  Ga21  1  0.336109  0.749826  0.748440  1
  Ga  Ga22  1  0.835780  0.250195  0.751791  1
  Ga  Ga23  1  0.664220  0.249805  0.251791  1
  Ga  Ga24  1  0.381994  0.749912  0.003622  1
  Ga  Ga25  1  0.118006  0.750088  0.503622  1
  Ga  Ga26  1  0.618128  0.250233  0.996082  1
  Ga  Ga27  1  0.881872  0.249767  0.496082  1
  Ga  Ga28  1  0.606434  0.750264  0.295435  1
  Ga  Ga29  1  0.893566  0.749736  0.795435  1
  Ga  Ga30  1  0.393916  0.250026  0.704722  1
  Ga  Ga31  1  0.106084  0.249974  0.204722  1
