# generated using pymatgen
data_Tm5Zr3Ni16(As2P)4
_symmetry_space_group_name_H-M   'P 1'
_cell_length_a   12.58971333
_cell_length_b   12.62447038
_cell_length_c   3.84598300
_cell_angle_alpha   90.00000000
_cell_angle_beta   90.00000000
_cell_angle_gamma   120.06392522
_symmetry_Int_Tables_number   1
_chemical_formula_structural   Tm5Zr3Ni16(As2P)4
_chemical_formula_sum   'Tm5 Zr3 Ni16 As8 P4'
_cell_volume   529.03802482
_cell_formula_units_Z   1
loop_
 _symmetry_equiv_pos_site_id
 _symmetry_equiv_pos_as_xyz
  1  'x, y, z'
loop_
 _atom_site_type_symbol
 _atom_site_label
 _atom_site_symmetry_multiplicity
 _atom_site_fract_x
 _atom_site_fract_y
 _atom_site_fract_z
 _atom_site_occupancy
  Tm  Tm0  1  0.666195  0.326361  0.000000  1
  Tm  Tm1  1  0.334698  0.666934  0.000000  1
  Tm  Tm2  1  0.188458  0.003243  0.500000  1
  Tm  Tm3  1  0.999876  0.179520  0.500000  1
  Tm  Tm4  1  0.817495  0.822864  0.500000  1
  Zr  Zr5  1  0.562552  0.003247  0.000000  1
  Zr  Zr6  1  0.435905  0.433738  0.000000  1
  Zr  Zr7  1  0.000333  0.562754  0.000000  1
  Ni  Ni8  1  0.999712  0.007616  0.000000  1
  Ni  Ni9  1  0.802615  0.178298  0.000000  1
  Ni  Ni10  1  0.366630  0.182096  0.000000  1
  Ni  Ni11  1  0.190029  0.363579  0.000000  1
  Ni  Ni12  1  0.816611  0.626741  0.000000  1
  Ni  Ni13  1  0.191231  0.817358  0.000000  1
  Ni  Ni14  1  0.636106  0.828063  0.000000  1
  Ni  Ni15  1  0.733954  0.008333  0.500000  1
  Ni  Ni16  1  0.487805  0.120956  0.500000  1
  Ni  Ni17  1  0.266821  0.266248  0.500000  1
  Ni  Ni18  1  0.869237  0.353032  0.500000  1
  Ni  Ni19  1  0.119210  0.481295  0.500000  1
  Ni  Ni20  1  0.637352  0.515879  0.500000  1
  Ni  Ni21  1  0.516831  0.638402  0.500000  1
  Ni  Ni22  1  0.998846  0.725184  0.500000  1
  Ni  Ni23  1  0.360644  0.886725  0.500000  1
  As  As24  1  0.999053  0.352455  0.000000  1
  As  As25  1  0.644126  0.647712  0.000000  1
  As  As26  1  0.001781  0.828001  0.000000  1
  As  As27  1  0.478200  0.303317  0.500000  1
  As  As28  1  0.305232  0.477833  0.500000  1
  As  As29  1  0.825321  0.518471  0.500000  1
  As  As30  1  0.174097  0.695057  0.500000  1
  As  As31  1  0.521085  0.829304  0.500000  1
  P  P32  1  0.357535  0.002071  0.000000  1
  P  P33  1  0.823320  0.002565  0.000000  1
  P  P34  1  0.177518  0.175142  0.000000  1
  P  P35  1  0.693699  0.169715  0.500000  1
