# generated using pymatgen
data_Zr8Zn3PdO2
_symmetry_space_group_name_H-M   'P 1'
_cell_length_a   8.96747238
_cell_length_b   8.85981138
_cell_length_c   8.85981175
_cell_angle_alpha   59.16498845
_cell_angle_beta   59.59720751
_cell_angle_gamma   59.59720933
_symmetry_Int_Tables_number   1
_chemical_formula_structural   Zr8Zn3PdO2
_chemical_formula_sum   'Zr16 Zn6 Pd2 O4'
_cell_volume   491.53052940
_cell_formula_units_Z   2
loop_
 _symmetry_equiv_pos_site_id
 _symmetry_equiv_pos_as_xyz
  1  'x, y, z'
loop_
 _atom_site_type_symbol
 _atom_site_label
 _atom_site_symmetry_multiplicity
 _atom_site_fract_x
 _atom_site_fract_y
 _atom_site_fract_z
 _atom_site_occupancy
  Zr  Zr0  1  0.315661  0.684982  0.316808  1
  Zr  Zr1  1  0.930742  0.566109  0.933330  1
  Zr  Zr2  1  0.680181  0.316670  0.683891  1
  Zr  Zr3  1  0.681806  0.317163  0.319225  1
  Zr  Zr4  1  0.315418  0.683896  0.685269  1
  Zr  Zr5  1  0.625000  0.128931  0.121069  1
  Zr  Zr6  1  0.934339  0.933192  0.565018  1
  Zr  Zr7  1  0.682550  0.684982  0.316808  1
  Zr  Zr8  1  0.123680  0.632468  0.120172  1
  Zr  Zr9  1  0.126320  0.129828  0.617532  1
  Zr  Zr10  1  0.319258  0.316670  0.683891  1
  Zr  Zr11  1  0.125000  0.128931  0.121069  1
  Zr  Zr12  1  0.569819  0.566109  0.933330  1
  Zr  Zr13  1  0.568194  0.930775  0.932837  1
  Zr  Zr14  1  0.934582  0.564731  0.566104  1
  Zr  Zr15  1  0.567450  0.933192  0.565018  1
  Zn  Zn16  1  0.270827  0.915877  0.905265  1
  Zn  Zn17  1  0.908033  0.915877  0.905265  1
  Zn  Zn18  1  0.908645  0.916393  0.266317  1
  Zn  Zn19  1  0.341355  0.983683  0.333607  1
  Zn  Zn20  1  0.341967  0.344735  0.334123  1
  Zn  Zn21  1  0.979173  0.344735  0.334123  1
  Pd  Pd22  1  0.326304  0.330078  0.017313  1
  Pd  Pd23  1  0.923696  0.232687  0.919922  1
  O  O24  1  0.625000  0.624248  0.625752  1
  O  O25  1  0.125000  0.624248  0.625752  1
  O  O26  1  0.624797  0.624609  0.125798  1
  O  O27  1  0.625203  0.124202  0.625391  1
