# generated using pymatgen
data_K2Rh2OF10
_symmetry_space_group_name_H-M   'P 1'
_cell_length_a   5.11646100
_cell_length_b   7.35461427
_cell_length_c   13.05896475
_cell_angle_alpha   79.78935156
_cell_angle_beta   90.00000000
_cell_angle_gamma   90.00000000
_symmetry_Int_Tables_number   1
_chemical_formula_structural   K2Rh2OF10
_chemical_formula_sum   'K4 Rh4 O2 F20'
_cell_volume   483.62106583
_cell_formula_units_Z   2
loop_
 _symmetry_equiv_pos_site_id
 _symmetry_equiv_pos_as_xyz
  1  'x, y, z'
loop_
 _atom_site_type_symbol
 _atom_site_label
 _atom_site_symmetry_multiplicity
 _atom_site_fract_x
 _atom_site_fract_y
 _atom_site_fract_z
 _atom_site_occupancy
  K  K0  1  0.420715  0.216834  0.590790  1
  K  K1  1  0.579285  0.216834  0.090790  1
  K  K2  1  0.579285  0.783166  0.409210  1
  K  K3  1  0.420715  0.783166  0.909210  1
  Rh  Rh4  1  0.021864  0.290597  0.338496  1
  Rh  Rh5  1  0.978136  0.290597  0.838496  1
  Rh  Rh6  1  0.021864  0.709403  0.161504  1
  Rh  Rh7  1  0.978136  0.709403  0.661504  1
  O  O8  1  0.117612  0.500000  0.750000  1
  O  O9  1  0.882388  0.500000  0.250000  1
  F  F10  1  0.722873  0.855988  0.182509  1
  F  F11  1  0.675491  0.574124  0.633346  1
  F  F12  1  0.178747  0.790657  0.278068  1
  F  F13  1  0.815991  0.080240  0.927324  1
  F  F14  1  0.324509  0.425876  0.366654  1
  F  F15  1  0.184009  0.919760  0.072676  1
  F  F16  1  0.178747  0.209343  0.221932  1
  F  F17  1  0.277127  0.855988  0.682509  1
  F  F18  1  0.821253  0.209343  0.721932  1
  F  F19  1  0.675491  0.425876  0.866654  1
  F  F20  1  0.184009  0.080240  0.427324  1
  F  F21  1  0.145136  0.356238  0.958471  1
  F  F22  1  0.277127  0.144012  0.817491  1
  F  F23  1  0.854864  0.643762  0.041529  1
  F  F24  1  0.821253  0.790657  0.778068  1
  F  F25  1  0.722873  0.144012  0.317491  1
  F  F26  1  0.815991  0.919760  0.572676  1
  F  F27  1  0.854864  0.356238  0.458471  1
  F  F28  1  0.324509  0.574124  0.133346  1
  F  F29  1  0.145136  0.643762  0.541529  1
