# generated using pymatgen
data_La7Pa(Pt2Pb)4
_symmetry_space_group_name_H-M   'P 1'
_cell_length_a   8.28721600
_cell_length_b   8.28721589
_cell_length_c   7.48625700
_cell_angle_alpha   90.00000000
_cell_angle_beta   90.00000000
_cell_angle_gamma   88.76346191
_symmetry_Int_Tables_number   1
_chemical_formula_structural   La7Pa(Pt2Pb)4
_chemical_formula_sum   'La7 Pa1 Pt8 Pb4'
_cell_volume   514.02103903
_cell_formula_units_Z   1
loop_
 _symmetry_equiv_pos_site_id
 _symmetry_equiv_pos_as_xyz
  1  'x, y, z'
loop_
 _atom_site_type_symbol
 _atom_site_label
 _atom_site_symmetry_multiplicity
 _atom_site_fract_x
 _atom_site_fract_y
 _atom_site_fract_z
 _atom_site_occupancy
  La  La0  1  0.673796  0.669123  0.000000  1
  La  La1  1  0.329600  0.330893  0.500000  1
  La  La2  1  0.830696  0.169304  0.500000  1
  La  La3  1  0.669107  0.670400  0.500000  1
  La  La4  1  0.330877  0.326204  0.000000  1
  La  La5  1  0.172436  0.827564  0.500000  1
  La  La6  1  0.826852  0.173148  0.000000  1
  Pa  Pa7  1  0.164774  0.835226  0.000000  1
  Pt  Pt8  1  0.885425  0.867694  0.760698  1
  Pt  Pt9  1  0.132306  0.114575  0.760698  1
  Pt  Pt10  1  0.620938  0.379062  0.746733  1
  Pt  Pt11  1  0.620938  0.379062  0.253267  1
  Pt  Pt12  1  0.359901  0.640099  0.226369  1
  Pt  Pt13  1  0.132306  0.114575  0.239302  1
  Pt  Pt14  1  0.885425  0.867694  0.239302  1
  Pt  Pt15  1  0.359901  0.640099  0.773631  1
  Pb  Pb16  1  0.501806  0.999445  0.750340  1
  Pb  Pb17  1  0.501806  0.999445  0.249660  1
  Pb  Pb18  1  0.000555  0.498194  0.750340  1
  Pb  Pb19  1  0.000555  0.498194  0.249660  1
