# generated using pymatgen
data_Tb3Tm5Cd2CoIr
_symmetry_space_group_name_H-M   'P 1'
_cell_length_a   9.51751515
_cell_length_b   9.51751533
_cell_length_c   9.50181700
_cell_angle_alpha   60.05454374
_cell_angle_beta   60.05454313
_cell_angle_gamma   60.21068574
_symmetry_Int_Tables_number   1
_chemical_formula_structural   Tb3Tm5Cd2CoIr
_chemical_formula_sum   'Tb6 Tm10 Cd4 Co2 Ir2'
_cell_volume   610.07644883
_cell_formula_units_Z   2
loop_
 _symmetry_equiv_pos_site_id
 _symmetry_equiv_pos_as_xyz
  1  'x, y, z'
loop_
 _atom_site_type_symbol
 _atom_site_label
 _atom_site_symmetry_multiplicity
 _atom_site_fract_x
 _atom_site_fract_y
 _atom_site_fract_z
 _atom_site_occupancy
  Tb  Tb0  1  0.189782  0.810903  0.809397  1
  Tb  Tb1  1  0.810903  0.189782  0.189918  1
  Tb  Tb2  1  0.810903  0.189782  0.809397  1
  Tb  Tb3  1  0.189782  0.810903  0.189918  1
  Tb  Tb4  1  0.809022  0.809022  0.190978  1
  Tb  Tb5  1  0.188591  0.188591  0.811409  1
  Tm  Tm6  1  0.595185  0.595185  0.602686  1
  Tm  Tm7  1  0.595185  0.595185  0.206945  1
  Tm  Tm8  1  0.591837  0.210530  0.598817  1
  Tm  Tm9  1  0.210530  0.591837  0.598817  1
  Tm  Tm10  1  0.066594  0.437120  0.438014  1
  Tm  Tm11  1  0.437120  0.066594  0.058272  1
  Tm  Tm12  1  0.437120  0.066594  0.438014  1
  Tm  Tm13  1  0.066594  0.437120  0.058272  1
  Tm  Tm14  1  0.437213  0.437213  0.062787  1
  Tm  Tm15  1  0.062108  0.062108  0.437892  1
  Cd  Cd16  1  0.830515  0.830515  0.829718  1
  Cd  Cd17  1  0.830515  0.830515  0.509252  1
  Cd  Cd18  1  0.831236  0.508006  0.830379  1
  Cd  Cd19  1  0.508006  0.831236  0.830379  1
  Co  Co20  1  0.391411  0.391411  0.390468  1
  Co  Co21  1  0.391411  0.391411  0.826709  1
  Ir  Ir22  1  0.392683  0.825756  0.390781  1
  Ir  Ir23  1  0.825756  0.392683  0.390781  1
