# generated using pymatgen
data_Dy3Y9(TcRh)2
_symmetry_space_group_name_H-M   'P 1'
_cell_length_a   6.38242810
_cell_length_b   7.33229501
_cell_length_c   9.29466615
_cell_angle_alpha   90.00137593
_cell_angle_beta   90.02000567
_cell_angle_gamma   90.00493340
_symmetry_Int_Tables_number   1
_chemical_formula_structural   Dy3Y9(TcRh)2
_chemical_formula_sum   'Dy3 Y9 Tc2 Rh2'
_cell_volume   434.97032386
_cell_formula_units_Z   1
loop_
 _symmetry_equiv_pos_site_id
 _symmetry_equiv_pos_as_xyz
  1  'x, y, z'
loop_
 _atom_site_type_symbol
 _atom_site_label
 _atom_site_symmetry_multiplicity
 _atom_site_fract_x
 _atom_site_fract_y
 _atom_site_fract_z
 _atom_site_occupancy
  Dy  Dy0  1  0.173296  0.177505  0.068942  1
  Dy  Dy1  1  0.870284  0.540210  0.249775  1
  Dy  Dy2  1  0.629638  0.040167  0.249891  1
  Y  Y3  1  0.327430  0.677908  0.068269  1
  Y  Y4  1  0.172732  0.177912  0.431834  1
  Y  Y5  1  0.667523  0.323010  0.559923  1
  Y  Y6  1  0.832885  0.822972  0.940114  1
  Y  Y7  1  0.667215  0.322514  0.940227  1
  Y  Y8  1  0.832625  0.822817  0.559973  1
  Y  Y9  1  0.327106  0.677753  0.431722  1
  Y  Y10  1  0.137316  0.457814  0.750457  1
  Y  Y11  1  0.362785  0.957851  0.750422  1
  Tc  Tc12  1  0.031487  0.887625  0.248771  1
  Tc  Tc13  1  0.467773  0.385802  0.249398  1
  Rh  Rh14  1  0.953680  0.114069  0.750294  1
  Rh  Rh15  1  0.546225  0.614072  0.749987  1
