# generated using pymatgen
data_Dy3Y13Cd4Ir3Pt
_symmetry_space_group_name_H-M   'P 1'
_cell_length_a   9.68124433
_cell_length_b   9.68850113
_cell_length_c   9.68843232
_cell_angle_alpha   60.09570420
_cell_angle_beta   60.04517144
_cell_angle_gamma   60.04681081
_symmetry_Int_Tables_number   1
_chemical_formula_structural   Dy3Y13Cd4Ir3Pt
_chemical_formula_sum   'Dy3 Y13 Cd4 Ir3 Pt1'
_cell_volume   643.48941970
_cell_formula_units_Z   1
loop_
 _symmetry_equiv_pos_site_id
 _symmetry_equiv_pos_as_xyz
  1  'x, y, z'
loop_
 _atom_site_type_symbol
 _atom_site_label
 _atom_site_symmetry_multiplicity
 _atom_site_fract_x
 _atom_site_fract_y
 _atom_site_fract_z
 _atom_site_occupancy
  Dy  Dy0  1  0.347416  0.347676  0.347666  1
  Dy  Dy1  1  0.352005  0.351944  0.950065  1
  Dy  Dy2  1  0.352006  0.950061  0.351936  1
  Y  Y3  1  0.948093  0.352649  0.352648  1
  Y  Y4  1  0.805274  0.190907  0.190898  1
  Y  Y5  1  0.188378  0.809994  0.809995  1
  Y  Y6  1  0.191040  0.805251  0.190908  1
  Y  Y7  1  0.810220  0.188149  0.810134  1
  Y  Y8  1  0.191033  0.190910  0.805255  1
  Y  Y9  1  0.810222  0.810130  0.188150  1
  Y  Y10  1  0.938669  0.562787  0.562793  1
  Y  Y11  1  0.563472  0.937735  0.937735  1
  Y  Y12  1  0.562376  0.938713  0.562699  1
  Y  Y13  1  0.937716  0.563891  0.937254  1
  Y  Y14  1  0.562377  0.562699  0.938713  1
  Y  Y15  1  0.937714  0.937250  0.563898  1
  Cd  Cd16  1  0.580526  0.580571  0.580575  1
  Cd  Cd17  1  0.580682  0.580769  0.256602  1
  Cd  Cd18  1  0.580682  0.256605  0.580769  1
  Cd  Cd19  1  0.256688  0.580711  0.580710  1
  Ir  Ir20  1  0.143316  0.141855  0.573554  1
  Ir  Ir21  1  0.143310  0.573555  0.141852  1
  Ir  Ir22  1  0.573010  0.142532  0.142537  1
  Pt  Pt23  1  0.143775  0.142655  0.142652  1
