# generated using pymatgen
data_RbAlPd5O12
_symmetry_space_group_name_H-M   'P 1'
_cell_length_a   8.50319504
_cell_length_b   8.42541455
_cell_length_c   8.48260400
_cell_angle_alpha   107.48270956
_cell_angle_beta   107.83855359
_cell_angle_gamma   113.31560942
_symmetry_Int_Tables_number   1
_chemical_formula_structural   RbAlPd5O12
_chemical_formula_sum   'Rb2 Al2 Pd10 O24'
_cell_volume   465.37283878
_cell_formula_units_Z   2
loop_
 _symmetry_equiv_pos_site_id
 _symmetry_equiv_pos_as_xyz
  1  'x, y, z'
loop_
 _atom_site_type_symbol
 _atom_site_label
 _atom_site_symmetry_multiplicity
 _atom_site_fract_x
 _atom_site_fract_y
 _atom_site_fract_z
 _atom_site_occupancy
  Rb  Rb0  1  0.294241  0.304121  0.997928  1
  Rb  Rb1  1  0.696835  0.703210  0.000545  1
  Al  Al2  1  0.856047  0.340360  0.187840  1
  Al  Al3  1  0.998458  0.809672  0.474114  1
  Pd  Pd4  1  0.670166  0.849845  0.516041  1
  Pd  Pd5  1  0.484659  0.006724  0.820256  1
  Pd  Pd6  1  0.814661  0.334553  0.820460  1
  Pd  Pd7  1  0.520459  0.005439  0.184008  1
  Pd  Pd8  1  0.668424  0.484042  0.478831  1
  Pd  Pd9  1  0.328534  0.144216  0.481429  1
  Pd  Pd10  1  0.332672  0.516227  0.518841  1
  Pd  Pd11  1  0.000923  0.181380  0.515067  1
  Pd  Pd12  1  0.145428  0.670144  0.816633  1
  Pd  Pd13  1  0.175786  0.663240  0.184564  1
  O  O14  1  0.678131  0.045888  0.725678  1
  O  O15  1  0.318091  0.974159  0.952630  1
  O  O16  1  0.656336  0.305424  0.959205  1
  O  O17  1  0.713501  0.985350  0.362712  1
  O  O18  1  0.618799  0.342835  0.628726  1
  O  O19  1  0.272941  0.978438  0.607850  1
  O  O20  1  0.689230  0.048286  0.055049  1
  O  O21  1  0.321458  0.953639  0.274676  1
  O  O22  1  0.685511  0.297078  0.290687  1
  O  O23  1  0.300666  0.347703  0.654429  1
  O  O24  1  0.966471  0.004092  0.636017  1
  O  O25  1  0.636022  0.683534  0.648950  1
  O  O26  1  0.031469  0.977819  0.351746  1
  O  O27  1  0.705221  0.652921  0.347521  1
  O  O28  1  0.365774  0.315275  0.350186  1
  O  O29  1  0.010480  0.379459  0.725614  1
  O  O30  1  0.345790  0.714065  0.729566  1
  O  O31  1  0.979931  0.636347  0.951224  1
  O  O32  1  0.376612  0.652880  0.367121  1
  O  O33  1  0.040692  0.341409  0.378761  1
  O  O34  1  0.959572  0.671878  0.610206  1
  O  O35  1  0.006993  0.363542  0.054770  1
  O  O36  1  0.345812  0.700295  0.050554  1
  O  O37  1  0.987202  0.614514  0.289569  1
