# generated using pymatgen
data_Th5(TlBi)2
_symmetry_space_group_name_H-M   'P 1'
_cell_length_a   9.79275500
_cell_length_b   9.78559653
_cell_length_c   6.66007000
_cell_angle_alpha   90.00003478
_cell_angle_beta   89.99993048
_cell_angle_gamma   120.02419842
_symmetry_Int_Tables_number   1
_chemical_formula_structural   Th5(TlBi)2
_chemical_formula_sum   'Th10 Tl4 Bi4'
_cell_volume   552.58064707
_cell_formula_units_Z   2
loop_
 _symmetry_equiv_pos_site_id
 _symmetry_equiv_pos_as_xyz
  1  'x, y, z'
loop_
 _atom_site_type_symbol
 _atom_site_label
 _atom_site_symmetry_multiplicity
 _atom_site_fract_x
 _atom_site_fract_y
 _atom_site_fract_z
 _atom_site_occupancy
  Th  Th0  1  0.999379  0.720516  0.750000  1
  Th  Th1  1  0.278863  0.279484  0.750000  1
  Th  Th2  1  0.332128  0.666273  0.497942  1
  Th  Th3  1  0.665855  0.333727  0.497942  1
  Th  Th4  1  0.718639  0.715395  0.250001  1
  Th  Th5  1  0.720596  0.000000  0.750000  1
  Th  Th6  1  0.003243  0.284605  0.250001  1
  Th  Th7  1  0.282912  0.000000  0.249998  1
  Th  Th8  1  0.332128  0.666275  0.002058  1
  Th  Th9  1  0.665854  0.333725  0.002058  1
  Tl  Tl10  1  0.376083  0.374426  0.250000  1
  Tl  Tl11  1  0.000839  0.000000  0.004066  1
  Tl  Tl12  1  0.001657  0.625574  0.250000  1
  Tl  Tl13  1  0.000840  0.000000  0.495934  1
  Bi  Bi14  1  0.620649  0.620474  0.750002  1
  Bi  Bi15  1  0.000175  0.379526  0.750002  1
  Bi  Bi16  1  0.377662  0.000000  0.749997  1
  Bi  Bi17  1  0.622497  0.000000  0.250000  1
