# generated using pymatgen
data_Tb7Sm(Sc3Ga4)4
_symmetry_space_group_name_H-M   'P 1'
_cell_length_a   7.31156502
_cell_length_b   7.56105509
_cell_length_c   14.54133820
_cell_angle_alpha   90.01726780
_cell_angle_beta   90.00751215
_cell_angle_gamma   90.00527733
_symmetry_Int_Tables_number   1
_chemical_formula_structural   Tb7Sm(Sc3Ga4)4
_chemical_formula_sum   'Tb7 Sm1 Sc12 Ga16'
_cell_volume   803.89087520
_cell_formula_units_Z   1
loop_
 _symmetry_equiv_pos_site_id
 _symmetry_equiv_pos_as_xyz
  1  'x, y, z'
loop_
 _atom_site_type_symbol
 _atom_site_label
 _atom_site_symmetry_multiplicity
 _atom_site_fract_x
 _atom_site_fract_y
 _atom_site_fract_z
 _atom_site_occupancy
  Tb  Tb0  1  0.988188  0.822663  0.904091  1
  Tb  Tb1  1  0.488175  0.677247  0.904227  1
  Tb  Tb2  1  0.988159  0.822811  0.595779  1
  Tb  Tb3  1  0.511852  0.322934  0.095750  1
  Tb  Tb4  1  0.011794  0.177183  0.404204  1
  Tb  Tb5  1  0.511840  0.322788  0.404243  1
  Tb  Tb6  1  0.488169  0.677221  0.595777  1
  Sm  Sm7  1  0.011804  0.176852  0.095608  1
  Sc  Sc8  1  0.161944  0.502672  0.750011  1
  Sc  Sc9  1  0.838000  0.497616  0.250100  1
  Sc  Sc10  1  0.338298  0.002375  0.250117  1
  Sc  Sc11  1  0.661876  0.997398  0.750008  1
  Sc  Sc12  1  0.330080  0.174489  0.624361  1
  Sc  Sc13  1  0.669851  0.825472  0.375677  1
  Sc  Sc14  1  0.169930  0.674595  0.375736  1
  Sc  Sc15  1  0.669600  0.825312  0.124358  1
  Sc  Sc16  1  0.830103  0.325438  0.624356  1
  Sc  Sc17  1  0.330160  0.174518  0.875608  1
  Sc  Sc18  1  0.829964  0.325515  0.875543  1
  Sc  Sc19  1  0.170002  0.674526  0.124334  1
  Ga  Ga20  1  0.031803  0.118674  0.750014  1
  Ga  Ga21  1  0.968173  0.881036  0.250170  1
  Ga  Ga22  1  0.468214  0.618743  0.250030  1
  Ga  Ga23  1  0.531797  0.381274  0.750027  1
  Ga  Ga24  1  0.284817  0.873925  0.749976  1
  Ga  Ga25  1  0.714822  0.125990  0.250221  1
  Ga  Ga26  1  0.215520  0.374173  0.250186  1
  Ga  Ga27  1  0.784810  0.626128  0.750016  1
  Ga  Ga28  1  0.159605  0.464851  0.540061  1
  Ga  Ga29  1  0.840407  0.535143  0.459946  1
  Ga  Ga30  1  0.340411  0.964794  0.459926  1
  Ga  Ga31  1  0.840208  0.535692  0.039934  1
  Ga  Ga32  1  0.659564  0.035147  0.540063  1
  Ga  Ga33  1  0.159765  0.465132  0.959764  1
  Ga  Ga34  1  0.659309  0.035133  0.959856  1
  Ga  Ga35  1  0.340985  0.964542  0.039921  1
