# generated using pymatgen
data_Lu2Ti3Si3Ge
_symmetry_space_group_name_H-M   'P 1'
_cell_length_a   7.01778403
_cell_length_b   7.01761654
_cell_length_c   12.86856801
_cell_angle_alpha   89.97314546
_cell_angle_beta   90.00288164
_cell_angle_gamma   90.06369350
_symmetry_Int_Tables_number   1
_chemical_formula_structural   Lu2Ti3Si3Ge
_chemical_formula_sum   'Lu8 Ti12 Si12 Ge4'
_cell_volume   633.75228446
_cell_formula_units_Z   4
loop_
 _symmetry_equiv_pos_site_id
 _symmetry_equiv_pos_as_xyz
  1  'x, y, z'
loop_
 _atom_site_type_symbol
 _atom_site_label
 _atom_site_symmetry_multiplicity
 _atom_site_fract_x
 _atom_site_fract_y
 _atom_site_fract_z
 _atom_site_occupancy
  Lu  Lu0  1  0.341169  0.000046  0.466176  1
  Lu  Lu1  1  0.499666  0.840946  0.716326  1
  Lu  Lu2  1  0.499842  0.157008  0.217208  1
  Lu  Lu3  1  0.843831  0.500535  0.283203  1
  Lu  Lu4  1  0.157496  0.501517  0.782457  1
  Lu  Lu5  1  0.660060  0.997952  0.966897  1
  Lu  Lu6  1  0.001262  0.342738  0.532560  1
  Lu  Lu7  1  0.998328  0.659288  0.033473  1
  Ti  Ti8  1  0.323088  0.323317  0.000142  1
  Ti  Ti9  1  0.173182  0.826525  0.250153  1
  Ti  Ti10  1  0.823574  0.173702  0.750507  1
  Ti  Ti11  1  0.673673  0.676385  0.500524  1
  Ti  Ti12  1  0.150595  0.008815  0.877109  1
  Ti  Ti13  1  0.490455  0.654570  0.127962  1
  Ti  Ti14  1  0.509375  0.349589  0.627236  1
  Ti  Ti15  1  0.655152  0.490566  0.872238  1
  Ti  Ti16  1  0.345372  0.509918  0.373239  1
  Ti  Ti17  1  0.849950  0.990679  0.376117  1
  Ti  Ti18  1  0.009205  0.150712  0.124102  1
  Ti  Ti19  1  0.990657  0.845178  0.623332  1
  Si  Si20  1  0.297164  0.631789  0.566920  1
  Si  Si21  1  0.796841  0.868262  0.183271  1
  Si  Si22  1  0.131719  0.202927  0.317070  1
  Si  Si23  1  0.868305  0.797145  0.816896  1
  Si  Si24  1  0.291983  0.955413  0.066414  1
  Si  Si25  1  0.547530  0.791832  0.315247  1
  Si  Si26  1  0.455756  0.208177  0.816739  1
  Si  Si27  1  0.792332  0.546951  0.684793  1
  Si  Si28  1  0.208185  0.453064  0.185027  1
  Si  Si29  1  0.708574  0.044573  0.566236  1
  Si  Si30  1  0.955930  0.292037  0.933789  1
  Si  Si31  1  0.047263  0.708065  0.435317  1
  Ge  Ge32  1  0.201415  0.130770  0.680497  1
  Ge  Ge33  1  0.369190  0.701235  0.930668  1
  Ge  Ge34  1  0.630885  0.298615  0.430475  1
  Ge  Ge35  1  0.700996  0.369161  0.069679  1
