# generated using pymatgen
data_AcPr3Ti8O22
_symmetry_space_group_name_H-M   'P 1'
_cell_length_a   5.13685508
_cell_length_b   7.35344261
_cell_length_c   12.75097500
_cell_angle_alpha   97.49470418
_cell_angle_beta   101.67244828
_cell_angle_gamma   110.37906725
_symmetry_Int_Tables_number   1
_chemical_formula_structural   AcPr3Ti8O22
_chemical_formula_sum   'Ac1 Pr3 Ti8 O22'
_cell_volume   431.44969440
_cell_formula_units_Z   1
loop_
 _symmetry_equiv_pos_site_id
 _symmetry_equiv_pos_as_xyz
  1  'x, y, z'
loop_
 _atom_site_type_symbol
 _atom_site_label
 _atom_site_symmetry_multiplicity
 _atom_site_fract_x
 _atom_site_fract_y
 _atom_site_fract_z
 _atom_site_occupancy
  Ac  Ac0  1  0.101076  0.296686  0.905396  1
  Pr  Pr1  1  0.892251  0.697404  0.095631  1
  Pr  Pr2  1  0.597358  0.803951  0.405695  1
  Pr  Pr3  1  0.402743  0.197996  0.592567  1
  Ti  Ti4  1  0.579717  0.156248  0.100877  1
  Ti  Ti5  1  0.246277  0.412519  0.193720  1
  Ti  Ti6  1  0.142046  0.090014  0.310182  1
  Ti  Ti7  1  0.821418  0.342963  0.402861  1
  Ti  Ti8  1  0.178262  0.655259  0.596402  1
  Ti  Ti9  1  0.853265  0.903917  0.685123  1
  Ti  Ti10  1  0.756709  0.598323  0.809025  1
  Ti  Ti11  1  0.426599  0.841385  0.903604  1
  O  O12  1  0.643056  0.921518  0.057616  1
  O  O13  1  0.920365  0.344782  0.067881  1
  O  O14  1  0.484321  0.411912  0.100721  1
  O  O15  1  0.268739  0.076155  0.169235  1
  O  O16  1  0.281019  0.662705  0.224292  1
  O  O17  1  0.906153  0.248763  0.251672  1
  O  O18  1  0.895939  0.840421  0.277835  1
  O  O19  1  0.521420  0.422893  0.333186  1
  O  O20  1  0.474688  0.089305  0.403483  1
  O  O21  1  0.019669  0.160750  0.438766  1
  O  O22  1  0.160209  0.576608  0.443306  1
  O  O23  1  0.839736  0.420307  0.555581  1
  O  O24  1  0.975562  0.833423  0.558322  1
  O  O25  1  0.521207  0.909403  0.593927  1
  O  O26  1  0.477366  0.578097  0.666268  1
  O  O27  1  0.095984  0.154174  0.716051  1
  O  O28  1  0.094052  0.749788  0.748401  1
  O  O29  1  0.710147  0.345968  0.774770  1
  O  O30  1  0.728370  0.914561  0.827760  1
  O  O31  1  0.525714  0.595054  0.906309  1
  O  O32  1  0.080422  0.666340  0.937744  1
  O  O33  1  0.378145  0.080412  0.945793  1
