# generated using pymatgen
data_EuZrCl6
_symmetry_space_group_name_H-M   'P 1'
_cell_length_a   8.08656579
_cell_length_b   8.07941535
_cell_length_c   8.08832776
_cell_angle_alpha   51.99615775
_cell_angle_beta   52.00071965
_cell_angle_gamma   51.94470590
_symmetry_Int_Tables_number   1
_chemical_formula_structural   EuZrCl6
_chemical_formula_sum   'Eu1 Zr1 Cl6'
_cell_volume   303.21245059
_cell_formula_units_Z   1
loop_
 _symmetry_equiv_pos_site_id
 _symmetry_equiv_pos_as_xyz
  1  'x, y, z'
loop_
 _atom_site_type_symbol
 _atom_site_label
 _atom_site_symmetry_multiplicity
 _atom_site_fract_x
 _atom_site_fract_y
 _atom_site_fract_z
 _atom_site_occupancy
  Eu  Eu0  1  0.333445  0.333698  0.332974  1
  Zr  Zr1  1  0.666727  0.666623  0.666914  1
  Cl  Cl2  1  0.031201  0.455100  0.722315  1
  Cl  Cl3  1  0.316825  0.891951  0.582408  1
  Cl  Cl4  1  0.455369  0.722779  0.030681  1
  Cl  Cl5  1  0.582680  0.316428  0.891875  1
  Cl  Cl6  1  0.722134  0.031228  0.455590  1
  Cl  Cl7  1  0.891619  0.582193  0.317244  1
