# generated using pymatgen
data_HoEr5Tm10(CdNi)4
_symmetry_space_group_name_H-M   'P 1'
_cell_length_a   9.44487157
_cell_length_b   9.44116841
_cell_length_c   9.44123449
_cell_angle_alpha   60.06555182
_cell_angle_beta   60.02526496
_cell_angle_gamma   60.02566901
_symmetry_Int_Tables_number   1
_chemical_formula_structural   HoEr5Tm10(CdNi)4
_chemical_formula_sum   'Ho1 Er5 Tm10 Cd4 Ni4'
_cell_volume   595.82334090
_cell_formula_units_Z   1
loop_
 _symmetry_equiv_pos_site_id
 _symmetry_equiv_pos_as_xyz
  1  'x, y, z'
loop_
 _atom_site_type_symbol
 _atom_site_label
 _atom_site_symmetry_multiplicity
 _atom_site_fract_x
 _atom_site_fract_y
 _atom_site_fract_z
 _atom_site_occupancy
  Ho  Ho0  1  0.348456  0.348610  0.348589  1
  Er  Er1  1  0.348614  0.348634  0.953828  1
  Er  Er2  1  0.348635  0.953841  0.348610  1
  Er  Er3  1  0.953887  0.348694  0.348654  1
  Er  Er4  1  0.811510  0.188616  0.188584  1
  Er  Er5  1  0.188915  0.811215  0.811317  1
  Tm  Tm6  1  0.189173  0.810815  0.189196  1
  Tm  Tm7  1  0.810673  0.189512  0.810646  1
  Tm  Tm8  1  0.189186  0.189189  0.810822  1
  Tm  Tm9  1  0.810688  0.810632  0.189518  1
  Tm  Tm10  1  0.935717  0.564421  0.564426  1
  Tm  Tm11  1  0.564375  0.935764  0.935755  1
  Tm  Tm12  1  0.564178  0.935982  0.564175  1
  Tm  Tm13  1  0.935991  0.564153  0.935988  1
  Tm  Tm14  1  0.564195  0.564183  0.935962  1
  Tm  Tm15  1  0.935995  0.936003  0.564145  1
  Cd  Cd16  1  0.581961  0.581772  0.581770  1
  Cd  Cd17  1  0.581847  0.582021  0.254875  1
  Cd  Cd18  1  0.581845  0.254877  0.582020  1
  Cd  Cd19  1  0.254869  0.581842  0.581839  1
  Ni  Ni20  1  0.142283  0.141856  0.141866  1
  Ni  Ni21  1  0.141295  0.141717  0.574401  1
  Ni  Ni22  1  0.141324  0.574343  0.141697  1
  Ni  Ni23  1  0.574393  0.141310  0.141316  1
