# generated using pymatgen
data_MgV(FeBr4)4
_symmetry_space_group_name_H-M   'P 1'
_cell_length_a   10.46426282
_cell_length_b   10.46426307
_cell_length_c   12.53909400
_cell_angle_alpha   54.82490506
_cell_angle_beta   54.82490408
_cell_angle_gamma   48.55126675
_symmetry_Int_Tables_number   1
_chemical_formula_structural   MgV(FeBr4)4
_chemical_formula_sum   'Mg1 V1 Fe4 Br16'
_cell_volume   797.60394246
_cell_formula_units_Z   1
loop_
 _symmetry_equiv_pos_site_id
 _symmetry_equiv_pos_as_xyz
  1  'x, y, z'
loop_
 _atom_site_type_symbol
 _atom_site_label
 _atom_site_symmetry_multiplicity
 _atom_site_fract_x
 _atom_site_fract_y
 _atom_site_fract_z
 _atom_site_occupancy
  Mg  Mg0  1  0.000666  0.999334  0.750000  1
  V  V1  1  0.977756  0.022244  0.250000  1
  Fe  Fe2  1  0.315736  0.843064  0.471027  1
  Fe  Fe3  1  0.156936  0.684264  0.028973  1
  Fe  Fe4  1  0.689201  0.152939  0.518308  1
  Fe  Fe5  1  0.847061  0.310799  0.981692  1
  Br  Br6  1  0.617389  0.691106  0.438190  1
  Br  Br7  1  0.308894  0.382611  0.061810  1
  Br  Br8  1  0.390084  0.301090  0.544648  1
  Br  Br9  1  0.698910  0.609916  0.955352  1
  Br  Br10  1  0.165105  0.134094  0.484544  1
  Br  Br11  1  0.865906  0.834895  0.015456  1
  Br  Br12  1  0.850200  0.860237  0.501348  1
  Br  Br13  1  0.139763  0.149800  0.998652  1
  Br  Br14  1  0.282906  0.865470  0.285226  1
  Br  Br15  1  0.134530  0.717094  0.214774  1
  Br  Br16  1  0.693677  0.144055  0.711901  1
  Br  Br17  1  0.855945  0.306323  0.788099  1
  Br  Br18  1  0.157223  0.704332  0.685948  1
  Br  Br19  1  0.295668  0.842777  0.814052  1
  Br  Br20  1  0.850842  0.294396  0.301765  1
  Br  Br21  1  0.705604  0.149158  0.198235  1
