# generated using pymatgen
data_TaBMoC
_symmetry_space_group_name_H-M   'P 1'
_cell_length_a   8.93931706
_cell_length_b   8.93931749
_cell_length_c   3.12893400
_cell_angle_alpha   90.00000000
_cell_angle_beta   90.00000000
_cell_angle_gamma   159.58614999
_symmetry_Int_Tables_number   1
_chemical_formula_structural   TaBMoC
_chemical_formula_sum   'Ta2 B2 Mo2 C2'
_cell_volume   87.21272260
_cell_formula_units_Z   2
loop_
 _symmetry_equiv_pos_site_id
 _symmetry_equiv_pos_as_xyz
  1  'x, y, z'
loop_
 _atom_site_type_symbol
 _atom_site_label
 _atom_site_symmetry_multiplicity
 _atom_site_fract_x
 _atom_site_fract_y
 _atom_site_fract_z
 _atom_site_occupancy
  Ta  Ta0  1  0.316588  0.683413  0.250000  1
  Ta  Ta1  1  0.683413  0.316587  0.750000  1
  B  B2  1  0.529514  0.470486  0.750000  1
  B  B3  1  0.470486  0.529514  0.250000  1
  Mo  Mo4  1  0.068673  0.931327  0.250000  1
  Mo  Mo5  1  0.931327  0.068673  0.750000  1
  C  C6  1  0.809182  0.190818  0.750000  1
  C  C7  1  0.190818  0.809182  0.250000  1
