# generated using pymatgen
data_Ti4SiAsRh10
_symmetry_space_group_name_H-M   'P 1'
_cell_length_a   3.96073100
_cell_length_b   5.44543301
_cell_length_c   10.59045077
_cell_angle_alpha   90.13889778
_cell_angle_beta   90.00000000
_cell_angle_gamma   90.00000000
_symmetry_Int_Tables_number   1
_chemical_formula_structural   Ti4SiAsRh10
_chemical_formula_sum   'Ti4 Si1 As1 Rh10'
_cell_volume   228.41306234
_cell_formula_units_Z   1
loop_
 _symmetry_equiv_pos_site_id
 _symmetry_equiv_pos_as_xyz
  1  'x, y, z'
loop_
 _atom_site_type_symbol
 _atom_site_label
 _atom_site_symmetry_multiplicity
 _atom_site_fract_x
 _atom_site_fract_y
 _atom_site_fract_z
 _atom_site_occupancy
  Ti  Ti0  1  0.500000  0.330728  0.145082  1
  Ti  Ti1  1  0.500000  0.669272  0.854918  1
  Ti  Ti2  1  0.500000  0.826546  0.360323  1
  Ti  Ti3  1  0.500000  0.173454  0.639677  1
  Si  Si4  1  0.000000  0.500000  0.500000  1
  As  As5  1  0.000000  0.000000  0.000000  1
  Rh  Rh6  1  0.000000  0.000000  0.500000  1
  Rh  Rh7  1  0.000000  0.500000  0.000000  1
  Rh  Rh8  1  0.000000  0.077040  0.242355  1
  Rh  Rh9  1  0.000000  0.922960  0.757645  1
  Rh  Rh10  1  0.000000  0.576047  0.260966  1
  Rh  Rh11  1  0.000000  0.423953  0.739034  1
  Rh  Rh12  1  0.500000  0.316135  0.395995  1
  Rh  Rh13  1  0.500000  0.683865  0.604005  1
  Rh  Rh14  1  0.500000  0.809114  0.107899  1
  Rh  Rh15  1  0.500000  0.190886  0.892101  1
