# generated using pymatgen
data_Nd3Er(Sc3Sn4)2
_symmetry_space_group_name_H-M   'P 1'
_cell_length_a   7.76828166
_cell_length_b   7.98356059
_cell_length_c   14.93578200
_cell_angle_alpha   89.97548432
_cell_angle_beta   89.89255949
_cell_angle_gamma   90.21427972
_symmetry_Int_Tables_number   1
_chemical_formula_structural   Nd3Er(Sc3Sn4)2
_chemical_formula_sum   'Nd6 Er2 Sc12 Sn16'
_cell_volume   926.28730793
_cell_formula_units_Z   2
loop_
 _symmetry_equiv_pos_site_id
 _symmetry_equiv_pos_as_xyz
  1  'x, y, z'
loop_
 _atom_site_type_symbol
 _atom_site_label
 _atom_site_symmetry_multiplicity
 _atom_site_fract_x
 _atom_site_fract_y
 _atom_site_fract_z
 _atom_site_occupancy
  Nd  Nd0  1  0.993729  0.175013  0.096102  1
  Nd  Nd1  1  0.006271  0.824987  0.903898  1
  Nd  Nd2  1  0.504889  0.674817  0.906206  1
  Nd  Nd3  1  0.005015  0.823648  0.593135  1
  Nd  Nd4  1  0.495111  0.325183  0.093794  1
  Nd  Nd5  1  0.994985  0.176352  0.406865  1
  Er  Er6  1  0.490697  0.323992  0.405777  1
  Er  Er7  1  0.509303  0.676008  0.594223  1
  Sc  Sc8  1  0.167642  0.495887  0.749025  1
  Sc  Sc9  1  0.832358  0.504113  0.250975  1
  Sc  Sc10  1  0.332799  0.994873  0.250739  1
  Sc  Sc11  1  0.667201  0.005127  0.749261  1
  Sc  Sc12  1  0.338539  0.162460  0.627253  1
  Sc  Sc13  1  0.661461  0.837540  0.372747  1
  Sc  Sc14  1  0.161866  0.659881  0.373887  1
  Sc  Sc15  1  0.662166  0.839609  0.128442  1
  Sc  Sc16  1  0.838134  0.340119  0.626113  1
  Sc  Sc17  1  0.337834  0.160391  0.871558  1
  Sc  Sc18  1  0.837365  0.338515  0.872093  1
  Sc  Sc19  1  0.162635  0.661485  0.127907  1
  Sn  Sn20  1  0.029950  0.128487  0.748682  1
  Sn  Sn21  1  0.970050  0.871513  0.251318  1
  Sn  Sn22  1  0.469288  0.626211  0.250699  1
  Sn  Sn23  1  0.530712  0.373789  0.749301  1
  Sn  Sn24  1  0.312267  0.851461  0.747285  1
  Sn  Sn25  1  0.687733  0.148539  0.252715  1
  Sn  Sn26  1  0.193205  0.354186  0.251718  1
  Sn  Sn27  1  0.806795  0.645814  0.748282  1
  Sn  Sn28  1  0.187991  0.457514  0.542898  1
  Sn  Sn29  1  0.812009  0.542486  0.457102  1
  Sn  Sn30  1  0.325928  0.956844  0.456919  1
  Sn  Sn31  1  0.824578  0.545403  0.043383  1
  Sn  Sn32  1  0.674072  0.043156  0.543081  1
  Sn  Sn33  1  0.175422  0.454597  0.956617  1
  Sn  Sn34  1  0.677165  0.043909  0.956878  1
  Sn  Sn35  1  0.322835  0.956091  0.043122  1
