# generated using pymatgen
data_Tb6Y10MgNi4Ag3
_symmetry_space_group_name_H-M   'P 1'
_cell_length_a   9.53742085
_cell_length_b   9.53772224
_cell_length_c   9.51033300
_cell_angle_alpha   60.09495235
_cell_angle_beta   60.09391100
_cell_angle_gamma   60.01235645
_symmetry_Int_Tables_number   1
_chemical_formula_structural   Tb6Y10MgNi4Ag3
_chemical_formula_sum   'Tb6 Y10 Mg1 Ni4 Ag3'
_cell_volume   612.65419235
_cell_formula_units_Z   1
loop_
 _symmetry_equiv_pos_site_id
 _symmetry_equiv_pos_as_xyz
  1  'x, y, z'
loop_
 _atom_site_type_symbol
 _atom_site_label
 _atom_site_symmetry_multiplicity
 _atom_site_fract_x
 _atom_site_fract_y
 _atom_site_fract_z
 _atom_site_occupancy
  Tb  Tb0  1  0.438054  0.437844  0.062051  1
  Tb  Tb1  1  0.059502  0.060882  0.439808  1
  Tb  Tb2  1  0.597644  0.598099  0.595665  1
  Tb  Tb3  1  0.597644  0.598099  0.208592  1
  Tb  Tb4  1  0.599121  0.204271  0.598304  1
  Tb  Tb5  1  0.192226  0.603010  0.602381  1
  Y  Y6  1  0.184085  0.815089  0.814103  1
  Y  Y7  1  0.813490  0.186348  0.185808  1
  Y  Y8  1  0.813490  0.186348  0.814354  1
  Y  Y9  1  0.184085  0.815089  0.186723  1
  Y  Y10  1  0.814539  0.815773  0.184844  1
  Y  Y11  1  0.183858  0.186343  0.814899  1
  Y  Y12  1  0.059199  0.440048  0.440839  1
  Y  Y13  1  0.437769  0.062331  0.061959  1
  Y  Y14  1  0.437769  0.062331  0.437940  1
  Y  Y15  1  0.059199  0.440048  0.059914  1
  Mg  Mg16  1  0.538206  0.819700  0.821047  1
  Ni  Ni17  1  0.391113  0.395306  0.393751  1
  Ni  Ni18  1  0.391113  0.395306  0.819832  1
  Ni  Ni19  1  0.386896  0.821846  0.395630  1
  Ni  Ni20  1  0.821371  0.390197  0.394217  1
  Ag  Ag21  1  0.832885  0.833454  0.834175  1
  Ag  Ag22  1  0.832885  0.833454  0.499486  1
  Ag  Ag23  1  0.833858  0.498787  0.833678  1
