# generated using pymatgen
data_Tb2PrCr(Co4P3)2
_symmetry_space_group_name_H-M   'P 1'
_cell_length_a   3.72389500
_cell_length_b   10.60811300
_cell_length_c   12.28342200
_cell_angle_alpha   90.00000000
_cell_angle_beta   90.00000000
_cell_angle_gamma   90.00000000
_symmetry_Int_Tables_number   1
_chemical_formula_structural   Tb2PrCr(Co4P3)2
_chemical_formula_sum   'Tb4 Pr2 Cr2 Co16 P12'
_cell_volume   485.23814820
_cell_formula_units_Z   2
loop_
 _symmetry_equiv_pos_site_id
 _symmetry_equiv_pos_as_xyz
  1  'x, y, z'
loop_
 _atom_site_type_symbol
 _atom_site_label
 _atom_site_symmetry_multiplicity
 _atom_site_fract_x
 _atom_site_fract_y
 _atom_site_fract_z
 _atom_site_occupancy
  Tb  Tb0  1  0.500000  0.818066  0.203389  1
  Tb  Tb1  1  0.500000  0.181934  0.203389  1
  Tb  Tb2  1  0.000000  0.681934  0.796611  1
  Tb  Tb3  1  0.000000  0.318066  0.796611  1
  Pr  Pr4  1  0.000000  0.500000  0.523313  1
  Pr  Pr5  1  0.500000  0.000000  0.476687  1
  Cr  Cr6  1  0.500000  0.500000  0.152796  1
  Cr  Cr7  1  0.000000  0.000000  0.847204  1
  Co  Co8  1  0.500000  0.500000  0.705988  1
  Co  Co9  1  0.000000  0.000000  0.294012  1
  Co  Co10  1  0.000000  0.500000  0.987652  1
  Co  Co11  1  0.500000  0.000000  0.012348  1
  Co  Co12  1  0.500000  0.332453  0.992954  1
  Co  Co13  1  0.500000  0.667547  0.992954  1
  Co  Co14  1  0.000000  0.167547  0.007046  1
  Co  Co15  1  0.000000  0.832453  0.007046  1
  Co  Co16  1  0.500000  0.295434  0.429250  1
  Co  Co17  1  0.500000  0.704566  0.429250  1
  Co  Co18  1  0.000000  0.204566  0.570750  1
  Co  Co19  1  0.000000  0.795434  0.570750  1
  Co  Co20  1  0.500000  0.880235  0.711986  1
  Co  Co21  1  0.500000  0.119765  0.711986  1
  Co  Co22  1  0.000000  0.619765  0.288014  1
  Co  Co23  1  0.000000  0.380235  0.288014  1
  P  P24  1  0.500000  0.500000  0.884225  1
  P  P25  1  0.000000  0.000000  0.115775  1
  P  P26  1  0.500000  0.500000  0.339115  1
  P  P27  1  0.000000  0.000000  0.660885  1
  P  P28  1  0.500000  0.307346  0.617669  1
  P  P29  1  0.500000  0.692654  0.617669  1
  P  P30  1  0.000000  0.192654  0.382331  1
  P  P31  1  0.000000  0.807346  0.382331  1
  P  P32  1  0.500000  0.847571  0.893508  1
  P  P33  1  0.500000  0.152429  0.893508  1
  P  P34  1  0.000000  0.652429  0.106492  1
  P  P35  1  0.000000  0.347571  0.106492  1
