# generated using pymatgen
data_Tb2Nd2LuPb4
_symmetry_space_group_name_H-M   'P 1'
_cell_length_a   8.29475700
_cell_length_b   8.37780200
_cell_length_c   15.85649200
_cell_angle_alpha   90.00000000
_cell_angle_beta   90.00000000
_cell_angle_gamma   90.00000000
_symmetry_Int_Tables_number   1
_chemical_formula_structural   Tb2Nd2LuPb4
_chemical_formula_sum   'Tb8 Nd8 Lu4 Pb16'
_cell_volume   1101.89667475
_cell_formula_units_Z   4
loop_
 _symmetry_equiv_pos_site_id
 _symmetry_equiv_pos_as_xyz
  1  'x, y, z'
loop_
 _atom_site_type_symbol
 _atom_site_label
 _atom_site_symmetry_multiplicity
 _atom_site_fract_x
 _atom_site_fract_y
 _atom_site_fract_z
 _atom_site_occupancy
  Tb  Tb0  1  0.627960  0.159241  0.621456  1
  Tb  Tb1  1  0.127960  0.340759  0.878544  1
  Tb  Tb2  1  0.372040  0.840759  0.121456  1
  Tb  Tb3  1  0.872040  0.659241  0.378544  1
  Tb  Tb4  1  0.372040  0.840759  0.378544  1
  Tb  Tb5  1  0.872040  0.659241  0.121456  1
  Tb  Tb6  1  0.627960  0.159241  0.878544  1
  Tb  Tb7  1  0.127960  0.340759  0.621456  1
  Nd  Nd8  1  0.470875  0.677385  0.598757  1
  Nd  Nd9  1  0.970875  0.822615  0.901243  1
  Nd  Nd10  1  0.529125  0.322615  0.098757  1
  Nd  Nd11  1  0.029125  0.177385  0.401243  1
  Nd  Nd12  1  0.529125  0.322615  0.401243  1
  Nd  Nd13  1  0.029125  0.177385  0.098757  1
  Nd  Nd14  1  0.470875  0.677385  0.901243  1
  Nd  Nd15  1  0.970875  0.822615  0.598757  1
  Lu  Lu16  1  0.795909  0.494393  0.750000  1
  Lu  Lu17  1  0.295909  0.005607  0.750000  1
  Lu  Lu18  1  0.204091  0.505607  0.250000  1
  Lu  Lu19  1  0.704091  0.994393  0.250000  1
  Pb  Pb20  1  0.711503  0.963725  0.455701  1
  Pb  Pb21  1  0.211503  0.536275  0.044299  1
  Pb  Pb22  1  0.288497  0.036275  0.955701  1
  Pb  Pb23  1  0.788497  0.463725  0.544299  1
  Pb  Pb24  1  0.288497  0.036275  0.544299  1
  Pb  Pb25  1  0.788497  0.463725  0.955701  1
  Pb  Pb26  1  0.711503  0.963725  0.044299  1
  Pb  Pb27  1  0.211503  0.536275  0.455701  1
  Pb  Pb28  1  0.433985  0.371622  0.750000  1
  Pb  Pb29  1  0.933985  0.128378  0.750000  1
  Pb  Pb30  1  0.566015  0.628378  0.250000  1
  Pb  Pb31  1  0.066015  0.871622  0.250000  1
  Pb  Pb32  1  0.660033  0.849070  0.750000  1
  Pb  Pb33  1  0.160033  0.650930  0.750000  1
  Pb  Pb34  1  0.339967  0.150930  0.250000  1
  Pb  Pb35  1  0.839967  0.349070  0.250000  1
