# generated using pymatgen
data_TbCr2AgO8
_symmetry_space_group_name_H-M   'P 1'
_cell_length_a   5.36905083
_cell_length_b   5.36905016
_cell_length_c   7.28605443
_cell_angle_alpha   87.55929100
_cell_angle_beta   92.44070857
_cell_angle_gamma   113.39018487
_symmetry_Int_Tables_number   1
_chemical_formula_structural   TbCr2AgO8
_chemical_formula_sum   'Tb1 Cr2 Ag1 O8'
_cell_volume   192.52256428
_cell_formula_units_Z   1
loop_
 _symmetry_equiv_pos_site_id
 _symmetry_equiv_pos_as_xyz
  1  'x, y, z'
loop_
 _atom_site_type_symbol
 _atom_site_label
 _atom_site_symmetry_multiplicity
 _atom_site_fract_x
 _atom_site_fract_y
 _atom_site_fract_z
 _atom_site_occupancy
  Tb  Tb0  1  0.000000  0.000000  0.000000  1
  Cr  Cr1  1  0.644761  0.355239  0.241650  1
  Cr  Cr2  1  0.355239  0.644761  0.758350  1
  Ag  Ag3  1  0.000000  0.000000  0.500000  1
  O  O4  1  0.300690  0.224741  0.229814  1
  O  O5  1  0.224741  0.300690  0.770186  1
  O  O6  1  0.252931  0.747069  0.567342  1
  O  O7  1  0.754909  0.245091  0.064148  1
  O  O8  1  0.245091  0.754909  0.935852  1
  O  O9  1  0.747069  0.252931  0.432658  1
  O  O10  1  0.699310  0.775259  0.770186  1
  O  O11  1  0.775259  0.699310  0.229814  1
