# generated using pymatgen
data_Ho3Al8ZnNi6
_symmetry_space_group_name_H-M   'P 1'
_cell_length_a   8.95432000
_cell_length_b   8.98671442
_cell_length_c   4.08312600
_cell_angle_alpha   90.00000000
_cell_angle_beta   90.00000000
_cell_angle_gamma   119.88082892
_symmetry_Int_Tables_number   1
_chemical_formula_structural   Ho3Al8ZnNi6
_chemical_formula_sum   'Ho3 Al8 Zn1 Ni6'
_cell_volume   284.89001934
_cell_formula_units_Z   1
loop_
 _symmetry_equiv_pos_site_id
 _symmetry_equiv_pos_as_xyz
  1  'x, y, z'
loop_
 _atom_site_type_symbol
 _atom_site_label
 _atom_site_symmetry_multiplicity
 _atom_site_fract_x
 _atom_site_fract_y
 _atom_site_fract_z
 _atom_site_occupancy
  Ho  Ho0  1  0.333449  0.669173  0.500000  1
  Ho  Ho1  1  0.664277  0.330827  0.500000  1
  Ho  Ho2  1  0.003425  0.000000  0.000000  1
  Al  Al3  1  0.497134  0.000000  0.000000  1
  Al  Al4  1  0.998288  0.498121  0.000000  1
  Al  Al5  1  0.500168  0.501879  0.000000  1
  Al  Al6  1  0.702001  0.000000  0.500000  1
  Al  Al7  1  0.999804  0.296795  0.500000  1
  Al  Al8  1  0.001580  0.704437  0.500000  1
  Al  Al9  1  0.703009  0.703205  0.500000  1
  Al  Al10  1  0.297143  0.295563  0.500000  1
  Zn  Zn11  1  0.297823  0.000000  0.500000  1
  Ni  Ni12  1  0.181591  0.362878  0.000000  1
  Ni  Ni13  1  0.818714  0.637122  0.000000  1
  Ni  Ni14  1  0.636767  0.819309  0.000000  1
  Ni  Ni15  1  0.367359  0.187350  0.000000  1
  Ni  Ni16  1  0.180009  0.812650  0.000000  1
  Ni  Ni17  1  0.817458  0.180691  0.000000  1
