# generated using pymatgen
data_Tm4Si10IrOs5
_symmetry_space_group_name_H-M   'P 1'
_cell_length_a   8.07728345
_cell_length_b   8.06634427
_cell_length_c   5.75536300
_cell_angle_alpha   70.92375331
_cell_angle_beta   70.95432998
_cell_angle_gamma   94.39537118
_symmetry_Int_Tables_number   1
_chemical_formula_structural   Tm4Si10IrOs5
_chemical_formula_sum   'Tm4 Si10 Ir1 Os5'
_cell_volume   327.86675448
_cell_formula_units_Z   1
loop_
 _symmetry_equiv_pos_site_id
 _symmetry_equiv_pos_as_xyz
  1  'x, y, z'
loop_
 _atom_site_type_symbol
 _atom_site_label
 _atom_site_symmetry_multiplicity
 _atom_site_fract_x
 _atom_site_fract_y
 _atom_site_fract_z
 _atom_site_occupancy
  Tm  Tm0  1  0.866954  0.599238  0.754713  1
  Tm  Tm1  1  0.400921  0.130762  0.746405  1
  Tm  Tm2  1  0.130539  0.399265  0.249274  1
  Tm  Tm3  1  0.599467  0.869900  0.253442  1
  Si  Si4  1  0.066532  0.259758  0.835381  1
  Si  Si5  1  0.738155  0.930369  0.666401  1
  Si  Si6  1  0.930317  0.737674  0.167005  1
  Si  Si7  1  0.262820  0.068336  0.332177  1
  Si  Si8  1  0.208689  0.796867  0.744975  1
  Si  Si9  1  0.795404  0.206694  0.248018  1
  Si  Si10  1  0.515375  0.486732  0.750185  1
  Si  Si11  1  0.487255  0.513673  0.248741  1
  Si  Si12  1  0.774894  0.225760  0.751144  1
  Si  Si13  1  0.225367  0.777501  0.248956  1
  Ir  Ir14  1  0.254531  0.543078  0.631819  1
  Os  Os15  1  0.454794  0.743777  0.870883  1
  Os  Os16  1  0.743312  0.455644  0.369902  1
  Os  Os17  1  0.543838  0.256513  0.131753  1
  Os  Os18  1  0.004040  0.995135  0.749354  1
  Os  Os19  1  0.996796  0.003324  0.249472  1
