# generated using pymatgen
data_Dy7Ho13Bi8IrOs3
_symmetry_space_group_name_H-M   'P 1'
_cell_length_a   7.96543156
_cell_length_b   9.01455100
_cell_length_c   12.42552700
_cell_angle_alpha   90.00000000
_cell_angle_beta   89.81941808
_cell_angle_gamma   90.00000000
_symmetry_Int_Tables_number   1
_chemical_formula_structural   Dy7Ho13Bi8IrOs3
_chemical_formula_sum   'Dy7 Ho13 Bi8 Ir1 Os3'
_cell_volume   892.20791374
_cell_formula_units_Z   1
loop_
 _symmetry_equiv_pos_site_id
 _symmetry_equiv_pos_as_xyz
  1  'x, y, z'
loop_
 _atom_site_type_symbol
 _atom_site_label
 _atom_site_symmetry_multiplicity
 _atom_site_fract_x
 _atom_site_fract_y
 _atom_site_fract_z
 _atom_site_occupancy
  Dy  Dy0  1  0.340430  0.750000  0.708185  1
  Dy  Dy1  1  0.659200  0.250000  0.291906  1
  Dy  Dy2  1  0.841135  0.250000  0.791098  1
  Dy  Dy3  1  0.157044  0.750000  0.206707  1
  Dy  Dy4  1  0.878536  0.750000  0.805852  1
  Dy  Dy5  1  0.120622  0.250000  0.193830  1
  Dy  Dy6  1  0.623077  0.750000  0.306868  1
  Ho  Ho7  1  0.378250  0.250000  0.693003  1
  Ho  Ho8  1  0.675884  0.540679  0.564963  1
  Ho  Ho9  1  0.324531  0.454736  0.435852  1
  Ho  Ho10  1  0.174081  0.457167  0.936187  1
  Ho  Ho11  1  0.324531  0.045264  0.435852  1
  Ho  Ho12  1  0.824905  0.543319  0.063962  1
  Ho  Ho13  1  0.675884  0.959321  0.564963  1
  Ho  Ho14  1  0.824905  0.956681  0.063962  1
  Ho  Ho15  1  0.174081  0.042833  0.936187  1
  Ho  Ho16  1  0.056359  0.750000  0.496893  1
  Ho  Ho17  1  0.944195  0.250000  0.502985  1
  Ho  Ho18  1  0.558694  0.250000  0.003857  1
  Ho  Ho19  1  0.441517  0.750000  0.995917  1
  Bi  Bi20  1  0.569156  0.507947  0.828109  1
  Bi  Bi21  1  0.430282  0.492098  0.172151  1
  Bi  Bi22  1  0.070446  0.491431  0.671416  1
  Bi  Bi23  1  0.430282  0.007902  0.172151  1
  Bi  Bi24  1  0.930515  0.508670  0.328766  1
  Bi  Bi25  1  0.569156  0.992053  0.828109  1
  Bi  Bi26  1  0.930515  0.991330  0.328766  1
  Bi  Bi27  1  0.070446  0.008569  0.671416  1
  Ir  Ir28  1  0.426664  0.750000  0.490503  1
  Os  Os29  1  0.076038  0.750000  0.988420  1
  Os  Os30  1  0.923577  0.250000  0.010384  1
  Os  Os31  1  0.575063  0.250000  0.510787  1
