# generated using pymatgen
data_Tm4Zn2B4Ir9Rh
_symmetry_space_group_name_H-M   'P 1'
_cell_length_a   9.57635143
_cell_length_b   9.58416643
_cell_length_c   3.12045400
_cell_angle_alpha   90.00000000
_cell_angle_beta   90.00000000
_cell_angle_gamma   89.96574307
_symmetry_Int_Tables_number   1
_chemical_formula_structural   Tm4Zn2B4Ir9Rh
_chemical_formula_sum   'Tm4 Zn2 B4 Ir9 Rh1'
_cell_volume   286.39941663
_cell_formula_units_Z   1
loop_
 _symmetry_equiv_pos_site_id
 _symmetry_equiv_pos_as_xyz
  1  'x, y, z'
loop_
 _atom_site_type_symbol
 _atom_site_label
 _atom_site_symmetry_multiplicity
 _atom_site_fract_x
 _atom_site_fract_y
 _atom_site_fract_z
 _atom_site_occupancy
  Tm  Tm0  1  0.322603  0.822121  0.000000  1
  Tm  Tm1  1  0.677688  0.177785  0.000000  1
  Tm  Tm2  1  0.177511  0.322515  0.000000  1
  Tm  Tm3  1  0.821187  0.677691  0.000000  1
  Zn  Zn4  1  0.500342  0.500698  0.000000  1
  Zn  Zn5  1  0.000049  0.999794  0.000000  1
  B  B6  1  0.124588  0.624827  0.000000  1
  B  B7  1  0.875181  0.375107  0.000000  1
  B  B8  1  0.375060  0.124731  0.000000  1
  B  B9  1  0.625552  0.877666  0.000000  1
  Ir  Ir10  1  0.432304  0.280066  0.500000  1
  Ir  Ir11  1  0.933066  0.219556  0.500000  1
  Ir  Ir12  1  0.067367  0.780138  0.500000  1
  Ir  Ir13  1  0.780141  0.931482  0.500000  1
  Ir  Ir14  1  0.219904  0.067488  0.500000  1
  Ir  Ir15  1  0.280217  0.567379  0.500000  1
  Ir  Ir16  1  0.719405  0.431758  0.500000  1
  Ir  Ir17  1  0.999366  0.500282  0.500000  1
  Ir  Ir18  1  0.500433  0.999156  0.500000  1
  Rh  Rh19  1  0.568035  0.719760  0.500000  1
