# generated using pymatgen
data_Er5In4HgOs
_symmetry_space_group_name_H-M   'P 1'
_cell_length_a   3.62345200
_cell_length_b   8.23613100
_cell_length_c   18.39383631
_cell_angle_alpha   89.93343719
_cell_angle_beta   90.00000000
_cell_angle_gamma   90.00000000
_symmetry_Int_Tables_number   1
_chemical_formula_structural   Er5In4HgOs
_chemical_formula_sum   'Er10 In8 Hg2 Os2'
_cell_volume   548.93103186
_cell_formula_units_Z   2
loop_
 _symmetry_equiv_pos_site_id
 _symmetry_equiv_pos_as_xyz
  1  'x, y, z'
loop_
 _atom_site_type_symbol
 _atom_site_label
 _atom_site_symmetry_multiplicity
 _atom_site_fract_x
 _atom_site_fract_y
 _atom_site_fract_z
 _atom_site_occupancy
  Er  Er0  1  0.000000  0.122238  0.423210  1
  Er  Er1  1  0.000000  0.877762  0.576790  1
  Er  Er2  1  0.000000  0.383808  0.915069  1
  Er  Er3  1  0.000000  0.616192  0.084931  1
  Er  Er4  1  0.000000  0.267838  0.213720  1
  Er  Er5  1  0.000000  0.732162  0.786280  1
  Er  Er6  1  0.000000  0.290369  0.723102  1
  Er  Er7  1  0.000000  0.709631  0.276898  1
  Er  Er8  1  0.000000  0.000000  0.000000  1
  Er  Er9  1  0.000000  0.500000  0.500000  1
  In  In10  1  0.500000  0.420497  0.351211  1
  In  In11  1  0.500000  0.579503  0.648789  1
  In  In12  1  0.500000  0.083821  0.854542  1
  In  In13  1  0.500000  0.916179  0.145458  1
  In  In14  1  0.500000  0.294521  0.066028  1
  In  In15  1  0.500000  0.705479  0.933972  1
  In  In16  1  0.500000  0.212692  0.567716  1
  In  In17  1  0.500000  0.787308  0.432284  1
  Hg  Hg18  1  0.500000  0.023962  0.299898  1
  Hg  Hg19  1  0.500000  0.976038  0.700102  1
  Os  Os20  1  0.500000  0.477025  0.806063  1
  Os  Os21  1  0.500000  0.522975  0.193937  1
