# generated using pymatgen
data_Y3Lu2In2Pb
_symmetry_space_group_name_H-M   'P 1'
_cell_length_a   8.99751443
_cell_length_b   8.99751499
_cell_length_c   6.57915100
_cell_angle_alpha   90.00000000
_cell_angle_beta   90.00000000
_cell_angle_gamma   120.17447597
_symmetry_Int_Tables_number   1
_chemical_formula_structural   Y3Lu2In2Pb
_chemical_formula_sum   'Y6 Lu4 In4 Pb2'
_cell_volume   460.44671615
_cell_formula_units_Z   2
loop_
 _symmetry_equiv_pos_site_id
 _symmetry_equiv_pos_as_xyz
  1  'x, y, z'
loop_
 _atom_site_type_symbol
 _atom_site_label
 _atom_site_symmetry_multiplicity
 _atom_site_fract_x
 _atom_site_fract_y
 _atom_site_fract_z
 _atom_site_occupancy
  Y  Y0  1  0.759738  0.759738  0.750000  1
  Y  Y1  1  0.239903  0.998802  0.750000  1
  Y  Y2  1  0.998802  0.239903  0.750000  1
  Y  Y3  1  0.240858  0.240858  0.250000  1
  Y  Y4  1  0.759943  0.996832  0.250000  1
  Y  Y5  1  0.996832  0.759943  0.250000  1
  Lu  Lu6  1  0.668043  0.335042  0.995676  1
  Lu  Lu7  1  0.335042  0.668043  0.995676  1
  Lu  Lu8  1  0.335042  0.668043  0.504324  1
  Lu  Lu9  1  0.668043  0.335042  0.504324  1
  In  In10  1  0.402187  0.402187  0.750000  1
  In  In11  1  0.602592  0.001250  0.750000  1
  In  In12  1  0.001250  0.602592  0.750000  1
  In  In13  1  0.593567  0.593567  0.250000  1
  Pb  Pb14  1  0.398523  0.999634  0.250000  1
  Pb  Pb15  1  0.999634  0.398523  0.250000  1
