# generated using pymatgen
data_CaYb(Si2Pd7)3
_symmetry_space_group_name_H-M   'P 1'
_cell_length_a   8.66524362
_cell_length_b   8.66524407
_cell_length_c   8.66524300
_cell_angle_alpha   60.00000027
_cell_angle_beta   59.99999857
_cell_angle_gamma   59.99999634
_symmetry_Int_Tables_number   1
_chemical_formula_structural   CaYb(Si2Pd7)3
_chemical_formula_sum   'Ca1 Yb1 Si6 Pd21'
_cell_volume   460.07359628
_cell_formula_units_Z   1
loop_
 _symmetry_equiv_pos_site_id
 _symmetry_equiv_pos_as_xyz
  1  'x, y, z'
loop_
 _atom_site_type_symbol
 _atom_site_label
 _atom_site_symmetry_multiplicity
 _atom_site_fract_x
 _atom_site_fract_y
 _atom_site_fract_z
 _atom_site_occupancy
  Ca  Ca0  1  0.750000  0.750000  0.750000  1
  Yb  Yb1  1  0.250000  0.250000  0.250000  1
  Si  Si2  1  0.732875  0.732875  0.267125  1
  Si  Si3  1  0.267125  0.732875  0.267125  1
  Si  Si4  1  0.732875  0.267125  0.267125  1
  Si  Si5  1  0.267125  0.267125  0.732875  1
  Si  Si6  1  0.732875  0.267125  0.732875  1
  Si  Si7  1  0.267125  0.732875  0.732875  1
  Pd  Pd8  1  0.000000  0.000000  0.000000  1
  Pd  Pd9  1  0.615687  0.615687  0.152941  1
  Pd  Pd10  1  0.615687  0.152941  0.615687  1
  Pd  Pd11  1  0.152941  0.615687  0.615687  1
  Pd  Pd12  1  0.615687  0.615687  0.615687  1
  Pd  Pd13  1  0.383356  0.383356  0.849930  1
  Pd  Pd14  1  0.383356  0.849930  0.383356  1
  Pd  Pd15  1  0.849930  0.383356  0.383356  1
  Pd  Pd16  1  0.383356  0.383356  0.383356  1
  Pd  Pd17  1  0.000441  0.000441  0.342486  1
  Pd  Pd18  1  0.656632  0.000441  0.342486  1
  Pd  Pd19  1  0.000441  0.656632  0.342486  1
  Pd  Pd20  1  0.656632  0.342486  0.000441  1
  Pd  Pd21  1  0.000441  0.342486  0.000441  1
  Pd  Pd22  1  0.000441  0.342486  0.656632  1
  Pd  Pd23  1  0.342486  0.656632  0.000441  1
  Pd  Pd24  1  0.342486  0.000441  0.656632  1
  Pd  Pd25  1  0.342486  0.000441  0.000441  1
  Pd  Pd26  1  0.000441  0.000441  0.656632  1
  Pd  Pd27  1  0.000441  0.656632  0.000441  1
  Pd  Pd28  1  0.656632  0.000441  0.000441  1
