# generated using pymatgen
data_Y2Tm18Zn3Cd3Os2
_symmetry_space_group_name_H-M   'P 1'
_cell_length_a   9.40393300
_cell_length_b   9.40393436
_cell_length_c   9.62621600
_cell_angle_alpha   90.00000000
_cell_angle_beta   90.00000000
_cell_angle_gamma   119.92653730
_symmetry_Int_Tables_number   1
_chemical_formula_structural   Y2Tm18Zn3Cd3Os2
_chemical_formula_sum   'Y2 Tm18 Zn3 Cd3 Os2'
_cell_volume   737.77912646
_cell_formula_units_Z   1
loop_
 _symmetry_equiv_pos_site_id
 _symmetry_equiv_pos_as_xyz
  1  'x, y, z'
loop_
 _atom_site_type_symbol
 _atom_site_label
 _atom_site_symmetry_multiplicity
 _atom_site_fract_x
 _atom_site_fract_y
 _atom_site_fract_z
 _atom_site_occupancy
  Y  Y0  1  0.461591  0.922613  0.750000  1
  Y  Y1  1  0.077387  0.538409  0.750000  1
  Tm  Tm2  1  0.999783  0.000217  0.474477  1
  Tm  Tm3  1  0.999783  0.000217  0.025523  1
  Tm  Tm4  1  0.207571  0.792429  0.439055  1
  Tm  Tm5  1  0.208738  0.415928  0.439704  1
  Tm  Tm6  1  0.584072  0.791262  0.439704  1
  Tm  Tm7  1  0.790795  0.209205  0.554893  1
  Tm  Tm8  1  0.790159  0.581938  0.554981  1
  Tm  Tm9  1  0.418062  0.209841  0.554981  1
  Tm  Tm10  1  0.790795  0.209205  0.945107  1
  Tm  Tm11  1  0.790159  0.581938  0.945019  1
  Tm  Tm12  1  0.418062  0.209841  0.945019  1
  Tm  Tm13  1  0.207571  0.792429  0.060945  1
  Tm  Tm14  1  0.208738  0.415928  0.060296  1
  Tm  Tm15  1  0.584072  0.791262  0.060296  1
  Tm  Tm16  1  0.539770  0.460230  0.250000  1
  Tm  Tm17  1  0.539726  0.078895  0.250000  1
  Tm  Tm18  1  0.921105  0.460274  0.250000  1
  Tm  Tm19  1  0.462693  0.537307  0.750000  1
  Zn  Zn20  1  0.878587  0.121413  0.250000  1
  Zn  Zn21  1  0.878215  0.757122  0.250000  1
  Zn  Zn22  1  0.242878  0.121785  0.250000  1
  Cd  Cd23  1  0.109163  0.890837  0.750000  1
  Cd  Cd24  1  0.110772  0.219501  0.750000  1
  Cd  Cd25  1  0.780499  0.889228  0.750000  1
  Os  Os26  1  0.333203  0.666797  0.250000  1
  Os  Os27  1  0.666048  0.333952  0.750000  1
