# generated using pymatgen
data_SrPa8PbO22
_symmetry_space_group_name_H-M   'P 1'
_cell_length_a   6.87196400
_cell_length_b   6.87196502
_cell_length_c   13.45851400
_cell_angle_alpha   90.00000000
_cell_angle_beta   90.00000000
_cell_angle_gamma   120.00000471
_symmetry_Int_Tables_number   1
_chemical_formula_structural   SrPa8PbO22
_chemical_formula_sum   'Sr1 Pa8 Pb1 O22'
_cell_volume   550.41408343
_cell_formula_units_Z   1
loop_
 _symmetry_equiv_pos_site_id
 _symmetry_equiv_pos_as_xyz
  1  'x, y, z'
loop_
 _atom_site_type_symbol
 _atom_site_label
 _atom_site_symmetry_multiplicity
 _atom_site_fract_x
 _atom_site_fract_y
 _atom_site_fract_z
 _atom_site_occupancy
  Sr  Sr0  1  0.333333  0.666667  0.750000  1
  Pa  Pa1  1  0.333333  0.666667  0.250000  1
  Pa  Pa2  1  0.666667  0.333333  0.750000  1
  Pa  Pa3  1  0.356664  0.999840  0.999234  1
  Pa  Pa4  1  0.356664  0.356825  0.500766  1
  Pa  Pa5  1  0.000160  0.643336  0.500766  1
  Pa  Pa6  1  0.000160  0.356825  0.999234  1
  Pa  Pa7  1  0.643175  0.643336  0.999234  1
  Pa  Pa8  1  0.643175  0.999840  0.500766  1
  Pb  Pb9  1  0.666667  0.333333  0.250000  1
  O  O10  1  0.333333  0.666667  0.537191  1
  O  O11  1  0.666667  0.333333  0.032395  1
  O  O12  1  0.666667  0.333333  0.467605  1
  O  O13  1  0.333333  0.666667  0.962809  1
  O  O14  1  0.742751  0.999739  0.999454  1
  O  O15  1  0.742751  0.743012  0.500546  1
  O  O16  1  0.000261  0.257249  0.500546  1
  O  O17  1  0.000261  0.743012  0.999454  1
  O  O18  1  0.256988  0.257249  0.999454  1
  O  O19  1  0.256988  0.999739  0.500546  1
  O  O20  1  0.372020  0.424606  0.342775  1
  O  O21  1  0.949124  0.373059  0.841616  1
  O  O22  1  0.423935  0.050876  0.841616  1
  O  O23  1  0.575394  0.947413  0.342775  1
  O  O24  1  0.052587  0.627980  0.342775  1
  O  O25  1  0.949124  0.576065  0.658384  1
  O  O26  1  0.626941  0.050876  0.658384  1
  O  O27  1  0.626941  0.576065  0.841616  1
  O  O28  1  0.423935  0.373059  0.658384  1
  O  O29  1  0.575394  0.627980  0.157225  1
  O  O30  1  0.052587  0.424606  0.157225  1
  O  O31  1  0.372020  0.947413  0.157225  1
