# generated using pymatgen
data_Be3AlFeB
_symmetry_space_group_name_H-M   'P 1'
_cell_length_a   4.14298676
_cell_length_b   4.14298688
_cell_length_c   4.09902252
_cell_angle_alpha   59.64458050
_cell_angle_beta   59.64457188
_cell_angle_gamma   60.00000964
_symmetry_Int_Tables_number   1
_chemical_formula_structural   Be3AlFeB
_chemical_formula_sum   'Be3 Al1 Fe1 B1'
_cell_volume   49.48098095
_cell_formula_units_Z   1
loop_
 _symmetry_equiv_pos_site_id
 _symmetry_equiv_pos_as_xyz
  1  'x, y, z'
loop_
 _atom_site_type_symbol
 _atom_site_label
 _atom_site_symmetry_multiplicity
 _atom_site_fract_x
 _atom_site_fract_y
 _atom_site_fract_z
 _atom_site_occupancy
  Be  Be0  1  0.625758  0.122290  0.626193  1
  Be  Be1  1  0.122290  0.625758  0.626193  1
  Be  Be2  1  0.625758  0.625758  0.626193  1
  Al  Al3  1  0.250190  0.250190  0.249430  1
  Fe  Fe4  1  0.000228  0.000228  0.999316  1
  B  B5  1  0.625775  0.625775  0.122675  1
