# generated using pymatgen
data_LiCePr7Zn7Rh8
_symmetry_space_group_name_H-M   'P 1'
_cell_length_a   4.06720200
_cell_length_b   7.31052988
_cell_length_c   16.60200569
_cell_angle_alpha   89.64968054
_cell_angle_beta   90.00000000
_cell_angle_gamma   90.00000000
_symmetry_Int_Tables_number   1
_chemical_formula_structural   LiCePr7Zn7Rh8
_chemical_formula_sum   'Li1 Ce1 Pr7 Zn7 Rh8'
_cell_volume   493.62487813
_cell_formula_units_Z   1
loop_
 _symmetry_equiv_pos_site_id
 _symmetry_equiv_pos_as_xyz
  1  'x, y, z'
loop_
 _atom_site_type_symbol
 _atom_site_label
 _atom_site_symmetry_multiplicity
 _atom_site_fract_x
 _atom_site_fract_y
 _atom_site_fract_z
 _atom_site_occupancy
  Li  Li0  1  0.250000  0.996458  0.439496  1
  Ce  Ce1  1  0.750000  0.448253  0.215780  1
  Pr  Pr2  1  0.750000  0.951889  0.281430  1
  Pr  Pr3  1  0.750000  0.827387  0.060890  1
  Pr  Pr4  1  0.250000  0.045922  0.716668  1
  Pr  Pr5  1  0.250000  0.168886  0.940600  1
  Pr  Pr6  1  0.250000  0.547266  0.783985  1
  Pr  Pr7  1  0.750000  0.338395  0.439730  1
  Pr  Pr8  1  0.250000  0.668432  0.560307  1
  Zn  Zn9  1  0.750000  0.501738  0.940423  1
  Zn  Zn10  1  0.750000  0.004278  0.557898  1
  Zn  Zn11  1  0.250000  0.630331  0.350850  1
  Zn  Zn12  1  0.750000  0.374784  0.650031  1
  Zn  Zn13  1  0.750000  0.876955  0.850419  1
  Zn  Zn14  1  0.250000  0.497735  0.059534  1
  Zn  Zn15  1  0.250000  0.122510  0.150993  1
  Rh  Rh16  1  0.250000  0.247175  0.565242  1
  Rh  Rh17  1  0.750000  0.261540  0.071164  1
  Rh  Rh18  1  0.250000  0.264122  0.303462  1
  Rh  Rh19  1  0.750000  0.253995  0.814228  1
  Rh  Rh20  1  0.250000  0.745833  0.934935  1
  Rh  Rh21  1  0.750000  0.753673  0.686816  1
  Rh  Rh22  1  0.750000  0.752592  0.435577  1
  Rh  Rh23  1  0.250000  0.719852  0.189540  1
