# generated using pymatgen
data_Yb3Ni6B2Pt
_symmetry_space_group_name_H-M   'P 1'
_cell_length_a   5.04276600
_cell_length_b   5.04276473
_cell_length_c   14.36486000
_cell_angle_alpha   90.00000000
_cell_angle_beta   90.00000000
_cell_angle_gamma   120.00000830
_symmetry_Int_Tables_number   1
_chemical_formula_structural   Yb3Ni6B2Pt
_chemical_formula_sum   'Yb6 Ni12 B4 Pt2'
_cell_volume   316.35122180
_cell_formula_units_Z   2
loop_
 _symmetry_equiv_pos_site_id
 _symmetry_equiv_pos_as_xyz
  1  'x, y, z'
loop_
 _atom_site_type_symbol
 _atom_site_label
 _atom_site_symmetry_multiplicity
 _atom_site_fract_x
 _atom_site_fract_y
 _atom_site_fract_z
 _atom_site_occupancy
  Yb  Yb0  1  0.666667  0.333333  0.537269  1
  Yb  Yb1  1  0.333333  0.666667  0.462731  1
  Yb  Yb2  1  0.333333  0.666667  0.037269  1
  Yb  Yb3  1  0.666667  0.333333  0.750000  1
  Yb  Yb4  1  0.666667  0.333333  0.962731  1
  Yb  Yb5  1  0.333333  0.666667  0.250000  1
  Ni  Ni6  1  0.166798  0.333595  0.653721  1
  Ni  Ni7  1  0.333595  0.166798  0.346279  1
  Ni  Ni8  1  0.333595  0.166798  0.153721  1
  Ni  Ni9  1  0.166798  0.833202  0.846279  1
  Ni  Ni10  1  0.833202  0.666405  0.346279  1
  Ni  Ni11  1  0.833202  0.166798  0.153721  1
  Ni  Ni12  1  0.666405  0.833202  0.653721  1
  Ni  Ni13  1  0.666405  0.833202  0.846279  1
  Ni  Ni14  1  0.166798  0.833202  0.653721  1
  Ni  Ni15  1  0.833202  0.666405  0.153721  1
  Ni  Ni16  1  0.166798  0.333595  0.846279  1
  Ni  Ni17  1  0.833202  0.166798  0.346279  1
  B  B18  1  0.666667  0.333333  0.250000  1
  B  B19  1  0.000000  0.000000  0.750000  1
  B  B20  1  0.333333  0.666667  0.750000  1
  B  B21  1  0.000000  0.000000  0.250000  1
  Pt  Pt22  1  0.000000  0.000000  0.000000  1
  Pt  Pt23  1  0.000000  0.000000  0.500000  1
