# generated using pymatgen
data_MgMn2Pd4Au
_symmetry_space_group_name_H-M   'P 1'
_cell_length_a   5.53422522
_cell_length_b   5.53422439
_cell_length_c   4.17183300
_cell_angle_alpha   90.00000000
_cell_angle_beta   90.00000000
_cell_angle_gamma   98.40486677
_symmetry_Int_Tables_number   1
_chemical_formula_structural   MgMn2Pd4Au
_chemical_formula_sum   'Mg1 Mn2 Pd4 Au1'
_cell_volume   126.40112022
_cell_formula_units_Z   1
loop_
 _symmetry_equiv_pos_site_id
 _symmetry_equiv_pos_as_xyz
  1  'x, y, z'
loop_
 _atom_site_type_symbol
 _atom_site_label
 _atom_site_symmetry_multiplicity
 _atom_site_fract_x
 _atom_site_fract_y
 _atom_site_fract_z
 _atom_site_occupancy
  Mg  Mg0  1  0.000000  0.000000  0.000000  1
  Mn  Mn1  1  0.267343  0.732657  0.500000  1
  Mn  Mn2  1  0.732657  0.267343  0.500000  1
  Pd  Pd3  1  0.500000  0.000000  0.000000  1
  Pd  Pd4  1  0.000000  0.500000  0.000000  1
  Pd  Pd5  1  0.229990  0.229990  0.500000  1
  Pd  Pd6  1  0.770010  0.770010  0.500000  1
  Au  Au7  1  0.500000  0.500000  0.000000  1
