# generated using pymatgen
data_LaMo3(PO4)4
_symmetry_space_group_name_H-M   'P 1'
_cell_length_a   4.89642148
_cell_length_b   7.18301852
_cell_length_c   9.13256870
_cell_angle_alpha   89.85403213
_cell_angle_beta   90.89720026
_cell_angle_gamma   89.79096811
_symmetry_Int_Tables_number   1
_chemical_formula_structural   LaMo3(PO4)4
_chemical_formula_sum   'La1 Mo3 P4 O16'
_cell_volume   321.15975381
_cell_formula_units_Z   1
loop_
 _symmetry_equiv_pos_site_id
 _symmetry_equiv_pos_as_xyz
  1  'x, y, z'
loop_
 _atom_site_type_symbol
 _atom_site_label
 _atom_site_symmetry_multiplicity
 _atom_site_fract_x
 _atom_site_fract_y
 _atom_site_fract_z
 _atom_site_occupancy
  La  La0  1  0.000000  0.000000  0.000000  1
  Mo  Mo1  1  0.500000  0.500000  0.500000  1
  Mo  Mo2  1  0.000000  0.500000  0.000000  1
  Mo  Mo3  1  0.500000  0.000000  0.500000  1
  P  P4  1  0.993365  0.742741  0.671112  1
  P  P5  1  0.497576  0.259699  0.815011  1
  P  P6  1  0.006635  0.257259  0.328888  1
  P  P7  1  0.502424  0.740301  0.184989  1
  O  O8  1  0.143668  0.433091  0.384400  1
  O  O9  1  0.662134  0.573126  0.129722  1
  O  O10  1  0.850419  0.927083  0.630493  1
  O  O11  1  0.399478  0.069064  0.867138  1
  O  O12  1  0.856332  0.566909  0.615600  1
  O  O13  1  0.337866  0.426874  0.870278  1
  O  O14  1  0.149581  0.072917  0.369507  1
  O  O15  1  0.600522  0.930936  0.132862  1
  O  O16  1  0.197618  0.718216  0.132055  1
  O  O17  1  0.704634  0.249828  0.388695  1
  O  O18  1  0.802382  0.281784  0.867945  1
  O  O19  1  0.295366  0.750172  0.611305  1
  O  O20  1  0.528648  0.745719  0.358339  1
  O  O21  1  0.004765  0.269082  0.156665  1
  O  O22  1  0.471352  0.254281  0.641661  1
  O  O23  1  0.995235  0.730918  0.843335  1
