# generated using pymatgen
data_Tb9CeZnSi3B16
_symmetry_space_group_name_H-M   'P 1'
_cell_length_a   7.26141533
_cell_length_b   7.26141643
_cell_length_c   8.24694405
_cell_angle_alpha   89.98462348
_cell_angle_beta   89.98462026
_cell_angle_gamma   89.50310365
_symmetry_Int_Tables_number   1
_chemical_formula_structural   Tb9CeZnSi3B16
_chemical_formula_sum   'Tb9 Ce1 Zn1 Si3 B16'
_cell_volume   434.82980630
_cell_formula_units_Z   1
loop_
 _symmetry_equiv_pos_site_id
 _symmetry_equiv_pos_as_xyz
  1  'x, y, z'
loop_
 _atom_site_type_symbol
 _atom_site_label
 _atom_site_symmetry_multiplicity
 _atom_site_fract_x
 _atom_site_fract_y
 _atom_site_fract_z
 _atom_site_occupancy
  Tb  Tb0  1  0.321715  0.821715  0.777817  1
  Tb  Tb1  1  0.321837  0.821837  0.221850  1
  Tb  Tb2  1  0.815475  0.682321  0.216886  1
  Tb  Tb3  1  0.815527  0.682010  0.782524  1
  Tb  Tb4  1  0.681152  0.181152  0.776401  1
  Tb  Tb5  1  0.182010  0.315527  0.782524  1
  Tb  Tb6  1  0.182321  0.315475  0.216886  1
  Tb  Tb7  1  0.001308  0.003193  0.500151  1
  Tb  Tb8  1  0.503193  0.501308  0.500151  1
  Ce  Ce9  1  0.682223  0.182223  0.230918  1
  Zn  Zn10  1  0.114874  0.614874  0.500707  1
  Si  Si11  1  0.885921  0.385921  0.501572  1
  Si  Si12  1  0.384254  0.115353  0.499431  1
  Si  Si13  1  0.615353  0.884254  0.499431  1
  B  B14  1  0.171635  0.038906  0.999235  1
  B  B15  1  0.827654  0.961350  0.999893  1
  B  B16  1  0.959209  0.171539  0.999685  1
  B  B17  1  0.327612  0.540191  0.999020  1
  B  B18  1  0.040191  0.827612  0.999020  1
  B  B19  1  0.671539  0.459209  0.999685  1
  B  B20  1  0.538906  0.671635  0.999235  1
  B  B21  1  0.461350  0.327654  0.999893  1
  B  B22  1  0.090186  0.590186  0.999249  1
  B  B23  1  0.908812  0.408812  0.000844  1
  B  B24  1  0.409202  0.090539  0.999699  1
  B  B25  1  0.590539  0.909202  0.999699  1
  B  B26  1  0.999017  0.998442  0.159313  1
  B  B27  1  0.999939  0.998605  0.839482  1
  B  B28  1  0.498605  0.499939  0.839482  1
  B  B29  1  0.498442  0.499017  0.159313  1
