# generated using pymatgen
data_Hf2Zr(ZnNi)3
_symmetry_space_group_name_H-M   'P 1'
_cell_length_a   6.86841400
_cell_length_b   6.88752214
_cell_length_c   3.40448800
_cell_angle_alpha   90.00000000
_cell_angle_beta   90.00000000
_cell_angle_gamma   119.90826881
_symmetry_Int_Tables_number   1
_chemical_formula_structural   Hf2Zr(ZnNi)3
_chemical_formula_sum   'Hf2 Zr1 Zn3 Ni3'
_cell_volume   139.60552571
_cell_formula_units_Z   1
loop_
 _symmetry_equiv_pos_site_id
 _symmetry_equiv_pos_as_xyz
  1  'x, y, z'
loop_
 _atom_site_type_symbol
 _atom_site_label
 _atom_site_symmetry_multiplicity
 _atom_site_fract_x
 _atom_site_fract_y
 _atom_site_fract_z
 _atom_site_occupancy
  Hf  Hf0  1  0.404367  0.404212  0.000000  1
  Hf  Hf1  1  0.000156  0.595786  0.000000  1
  Zr  Zr2  1  0.594893  0.000000  0.000000  1
  Zn  Zn3  1  0.259485  0.000000  0.499999  1
  Zn  Zn4  1  0.000569  0.260338  0.499999  1
  Zn  Zn5  1  0.740233  0.739663  0.499999  1
  Ni  Ni6  1  0.001735  0.000000  0.000000  1
  Ni  Ni7  1  0.667467  0.336373  0.499999  1
  Ni  Ni8  1  0.331093  0.663627  0.499999  1
