# generated using pymatgen
data_Th6CoTcHg6
_symmetry_space_group_name_H-M   'P 1'
_cell_length_a   8.45645570
_cell_length_b   8.45645581
_cell_length_c   8.45645800
_cell_angle_alpha   114.13997943
_cell_angle_beta   114.13998721
_cell_angle_gamma   114.13996457
_symmetry_Int_Tables_number   1
_chemical_formula_structural   Th6CoTcHg6
_chemical_formula_sum   'Th6 Co1 Tc1 Hg6'
_cell_volume   363.56321528
_cell_formula_units_Z   1
loop_
 _symmetry_equiv_pos_site_id
 _symmetry_equiv_pos_as_xyz
  1  'x, y, z'
loop_
 _atom_site_type_symbol
 _atom_site_label
 _atom_site_symmetry_multiplicity
 _atom_site_fract_x
 _atom_site_fract_y
 _atom_site_fract_z
 _atom_site_occupancy
  Th  Th0  1  0.062887  0.386850  0.288705  1
  Th  Th1  1  0.386850  0.288705  0.062887  1
  Th  Th2  1  0.711295  0.937113  0.613150  1
  Th  Th3  1  0.288705  0.062887  0.386850  1
  Th  Th4  1  0.613150  0.711295  0.937113  1
  Th  Th5  1  0.937113  0.613150  0.711295  1
  Co  Co6  1  0.500000  0.500000  0.500000  1
  Tc  Tc7  1  0.000000  0.000000  0.000000  1
  Hg  Hg8  1  0.416241  0.931894  0.766028  1
  Hg  Hg9  1  0.931894  0.766028  0.416241  1
  Hg  Hg10  1  0.233972  0.583759  0.068106  1
  Hg  Hg11  1  0.766028  0.416241  0.931894  1
  Hg  Hg12  1  0.068106  0.233972  0.583759  1
  Hg  Hg13  1  0.583759  0.068106  0.233972  1
