# generated using pymatgen
data_CaNdScMoO6
_symmetry_space_group_name_H-M   'P 1'
_cell_length_a   5.59837762
_cell_length_b   5.78864413
_cell_length_c   7.97556001
_cell_angle_alpha   89.99795109
_cell_angle_beta   89.50138237
_cell_angle_gamma   89.98691313
_symmetry_Int_Tables_number   1
_chemical_formula_structural   CaNdScMoO6
_chemical_formula_sum   'Ca2 Nd2 Sc2 Mo2 O12'
_cell_volume   258.45430472
_cell_formula_units_Z   2
loop_
 _symmetry_equiv_pos_site_id
 _symmetry_equiv_pos_as_xyz
  1  'x, y, z'
loop_
 _atom_site_type_symbol
 _atom_site_label
 _atom_site_symmetry_multiplicity
 _atom_site_fract_x
 _atom_site_fract_y
 _atom_site_fract_z
 _atom_site_occupancy
  Ca  Ca0  1  0.484641  0.449322  0.748679  1
  Ca  Ca1  1  0.984525  0.050664  0.248603  1
  Nd  Nd2  1  0.019014  0.943987  0.751818  1
  Nd  Nd3  1  0.518817  0.556117  0.251799  1
  Sc  Sc4  1  0.000628  0.495678  0.999583  1
  Sc  Sc5  1  0.500610  0.004316  0.499566  1
  Mo  Mo6  1  0.000479  0.497798  0.500207  1
  Mo  Mo7  1  0.500376  0.002228  0.000201  1
  O  O8  1  0.106081  0.462666  0.254073  1
  O  O9  1  0.606248  0.037196  0.754100  1
  O  O10  1  0.196610  0.202682  0.942076  1
  O  O11  1  0.696624  0.297319  0.442080  1
  O  O12  1  0.193383  0.206437  0.555517  1
  O  O13  1  0.693216  0.293611  0.055367  1
  O  O14  1  0.302861  0.711285  0.944907  1
  O  O15  1  0.802735  0.788669  0.444746  1
  O  O16  1  0.299834  0.707446  0.557696  1
  O  O17  1  0.799886  0.792514  0.057715  1
  O  O18  1  0.396632  0.964025  0.245601  1
  O  O19  1  0.896797  0.536039  0.745665  1
