# generated using pymatgen
data_Eu3Er(Ga2Ag)4
_symmetry_space_group_name_H-M   'P 1'
_cell_length_a   4.43516200
_cell_length_b   7.05869180
_cell_length_c   10.49651410
_cell_angle_alpha   89.45413926
_cell_angle_beta   90.00000000
_cell_angle_gamma   90.00000000
_symmetry_Int_Tables_number   1
_chemical_formula_structural   Eu3Er(Ga2Ag)4
_chemical_formula_sum   'Eu3 Er1 Ga8 Ag4'
_cell_volume   328.59359277
_cell_formula_units_Z   1
loop_
 _symmetry_equiv_pos_site_id
 _symmetry_equiv_pos_as_xyz
  1  'x, y, z'
loop_
 _atom_site_type_symbol
 _atom_site_label
 _atom_site_symmetry_multiplicity
 _atom_site_fract_x
 _atom_site_fract_y
 _atom_site_fract_z
 _atom_site_occupancy
  Eu  Eu0  1  0.250000  0.783658  0.826738  1
  Eu  Eu1  1  0.750000  0.217936  0.171898  1
  Eu  Eu2  1  0.750000  0.718219  0.328943  1
  Er  Er3  1  0.250000  0.284097  0.668478  1
  Ga  Ga4  1  0.250000  0.920951  0.148533  1
  Ga  Ga5  1  0.750000  0.084675  0.846512  1
  Ga  Ga6  1  0.750000  0.574562  0.651585  1
  Ga  Ga7  1  0.250000  0.417368  0.352856  1
  Ga  Ga8  1  0.250000  0.695865  0.536185  1
  Ga  Ga9  1  0.750000  0.295259  0.467525  1
  Ga  Ga10  1  0.750000  0.799101  0.033649  1
  Ga  Ga11  1  0.250000  0.208208  0.960687  1
  Ag  Ag12  1  0.250000  0.539281  0.098832  1
  Ag  Ag13  1  0.750000  0.461262  0.899513  1
  Ag  Ag14  1  0.750000  0.962007  0.601088  1
  Ag  Ag15  1  0.250000  0.037552  0.406980  1
