# generated using pymatgen
data_Yb12Y8Si15Pt
_symmetry_space_group_name_H-M   'P 1'
_cell_length_a   7.44542571
_cell_length_b   7.77684508
_cell_length_c   15.09466390
_cell_angle_alpha   89.72486183
_cell_angle_beta   90.69919360
_cell_angle_gamma   90.38423573
_symmetry_Int_Tables_number   1
_chemical_formula_structural   Yb12Y8Si15Pt
_chemical_formula_sum   'Yb12 Y8 Si15 Pt1'
_cell_volume   873.91558964
_cell_formula_units_Z   1
loop_
 _symmetry_equiv_pos_site_id
 _symmetry_equiv_pos_as_xyz
  1  'x, y, z'
loop_
 _atom_site_type_symbol
 _atom_site_label
 _atom_site_symmetry_multiplicity
 _atom_site_fract_x
 _atom_site_fract_y
 _atom_site_fract_z
 _atom_site_occupancy
  Yb  Yb0  1  0.974891  0.811801  0.406112  1
  Yb  Yb1  1  0.469918  0.684055  0.096945  1
  Yb  Yb2  1  0.521902  0.328784  0.595396  1
  Yb  Yb3  1  0.029047  0.187165  0.902073  1
  Yb  Yb4  1  0.026119  0.185299  0.595874  1
  Yb  Yb5  1  0.530967  0.315419  0.902504  1
  Yb  Yb6  1  0.474639  0.681968  0.405617  1
  Yb  Yb7  1  0.970138  0.816091  0.097193  1
  Yb  Yb8  1  0.352243  0.020549  0.749537  1
  Yb  Yb9  1  0.848808  0.480412  0.744525  1
  Yb  Yb10  1  0.149930  0.519612  0.251388  1
  Yb  Yb11  1  0.646608  0.979931  0.250937  1
  Y  Y12  1  0.314051  0.176519  0.120912  1
  Y  Y13  1  0.822048  0.325567  0.378815  1
  Y  Y14  1  0.182725  0.677242  0.879072  1
  Y  Y15  1  0.679025  0.816798  0.620816  1
  Y  Y16  1  0.317660  0.177354  0.377990  1
  Y  Y17  1  0.814434  0.322080  0.121149  1
  Y  Y18  1  0.185566  0.675549  0.620096  1
  Y  Y19  1  0.683268  0.823451  0.878844  1
  Si  Si20  1  0.358066  0.967682  0.961069  1
  Si  Si21  1  0.644184  0.035688  0.464361  1
  Si  Si22  1  0.139511  0.468582  0.039346  1
  Si  Si23  1  0.155700  0.462930  0.461891  1
  Si  Si24  1  0.639270  0.031685  0.038965  1
  Si  Si25  1  0.359184  0.969488  0.538553  1
  Si  Si26  1  0.857976  0.532367  0.961240  1
  Si  Si27  1  0.974564  0.883697  0.746571  1
  Si  Si28  1  0.472396  0.617303  0.753649  1
  Si  Si29  1  0.525637  0.383377  0.248249  1
  Si  Si30  1  0.023132  0.113897  0.250261  1
  Si  Si31  1  0.245676  0.393867  0.751308  1
  Si  Si32  1  0.748091  0.105646  0.750114  1
  Si  Si33  1  0.251178  0.893242  0.249873  1
  Si  Si34  1  0.752180  0.606444  0.251108  1
  Pt  Pt35  1  0.859267  0.528461  0.537643  1
