# generated using pymatgen
data_HoSb3Pb4O13
_symmetry_space_group_name_H-M   'P 1'
_cell_length_a   7.67846403
_cell_length_b   7.67846344
_cell_length_c   7.67846369
_cell_angle_alpha   59.69078021
_cell_angle_beta   59.69078604
_cell_angle_gamma   59.69077543
_symmetry_Int_Tables_number   1
_chemical_formula_structural   HoSb3Pb4O13
_chemical_formula_sum   'Ho1 Sb3 Pb4 O13'
_cell_volume   317.86787566
_cell_formula_units_Z   1
loop_
 _symmetry_equiv_pos_site_id
 _symmetry_equiv_pos_as_xyz
  1  'x, y, z'
loop_
 _atom_site_type_symbol
 _atom_site_label
 _atom_site_symmetry_multiplicity
 _atom_site_fract_x
 _atom_site_fract_y
 _atom_site_fract_z
 _atom_site_occupancy
  Ho  Ho0  1  0.499977  0.499977  0.499977  1
  Sb  Sb1  1  0.001185  0.499819  0.499819  1
  Sb  Sb2  1  0.499819  0.499819  0.001185  1
  Sb  Sb3  1  0.499819  0.001185  0.499819  1
  Pb  Pb4  1  0.998998  0.998998  0.998998  1
  Pb  Pb5  1  0.498793  0.001614  0.001614  1
  Pb  Pb6  1  0.001614  0.001614  0.498793  1
  Pb  Pb7  1  0.001614  0.498793  0.001614  1
  O  O8  1  0.852848  0.417705  0.417705  1
  O  O9  1  0.420206  0.816501  0.816501  1
  O  O10  1  0.417705  0.417705  0.852848  1
  O  O11  1  0.816501  0.816501  0.420206  1
  O  O12  1  0.816501  0.420206  0.816501  1
  O  O13  1  0.417705  0.852848  0.417705  1
  O  O14  1  0.151791  0.579354  0.579354  1
  O  O15  1  0.579808  0.184736  0.184736  1
  O  O16  1  0.579354  0.579354  0.151791  1
  O  O17  1  0.184736  0.184736  0.579808  1
  O  O18  1  0.184736  0.579808  0.184736  1
  O  O19  1  0.579354  0.151791  0.579354  1
  O  O20  1  0.121933  0.121933  0.121933  1
