# generated using pymatgen
data_Pr2NdIn5
_symmetry_space_group_name_H-M   'P 1'
_cell_length_a   6.63075061
_cell_length_b   6.63075101
_cell_length_c   10.63146500
_cell_angle_alpha   90.00000000
_cell_angle_beta   90.00000000
_cell_angle_gamma   102.00559957
_symmetry_Int_Tables_number   1
_chemical_formula_structural   Pr2NdIn5
_chemical_formula_sum   'Pr4 Nd2 In10'
_cell_volume   457.20808079
_cell_formula_units_Z   2
loop_
 _symmetry_equiv_pos_site_id
 _symmetry_equiv_pos_as_xyz
  1  'x, y, z'
loop_
 _atom_site_type_symbol
 _atom_site_label
 _atom_site_symmetry_multiplicity
 _atom_site_fract_x
 _atom_site_fract_y
 _atom_site_fract_z
 _atom_site_occupancy
  Pr  Pr0  1  0.202719  0.797281  0.500000  1
  Pr  Pr1  1  0.202719  0.797281  0.000000  1
  Pr  Pr2  1  0.797281  0.202719  0.500000  1
  Pr  Pr3  1  0.797281  0.202719  0.000000  1
  Nd  Nd4  1  0.630740  0.630740  0.250000  1
  Nd  Nd5  1  0.369260  0.369260  0.750000  1
  In  In6  1  0.013351  0.013350  0.250000  1
  In  In7  1  0.986650  0.986649  0.750000  1
  In  In8  1  0.309740  0.309740  0.049891  1
  In  In9  1  0.690260  0.690260  0.950109  1
  In  In10  1  0.309740  0.309740  0.450109  1
  In  In11  1  0.690260  0.690260  0.549891  1
  In  In12  1  0.501508  0.075431  0.250000  1
  In  In13  1  0.924569  0.498492  0.750000  1
  In  In14  1  0.498492  0.924569  0.750000  1
  In  In15  1  0.075431  0.501508  0.250000  1
