# generated using pymatgen
data_Ho4B16Ir3Ru
_symmetry_space_group_name_H-M   'P 1'
_cell_length_a   3.55919300
_cell_length_b   5.95489623
_cell_length_c   11.54875437
_cell_angle_alpha   90.07360782
_cell_angle_beta   90.00000000
_cell_angle_gamma   90.00000000
_symmetry_Int_Tables_number   1
_chemical_formula_structural   Ho4B16Ir3Ru
_chemical_formula_sum   'Ho4 B16 Ir3 Ru1'
_cell_volume   244.77131604
_cell_formula_units_Z   1
loop_
 _symmetry_equiv_pos_site_id
 _symmetry_equiv_pos_as_xyz
  1  'x, y, z'
loop_
 _atom_site_type_symbol
 _atom_site_label
 _atom_site_symmetry_multiplicity
 _atom_site_fract_x
 _atom_site_fract_y
 _atom_site_fract_z
 _atom_site_occupancy
  Ho  Ho0  1  0.000000  0.631538  0.647140  1
  Ho  Ho1  1  0.000000  0.370087  0.351217  1
  Ho  Ho2  1  0.000000  0.131177  0.851409  1
  Ho  Ho3  1  0.000000  0.868302  0.151003  1
  B  B4  1  0.500000  0.972581  0.691754  1
  B  B5  1  0.500000  0.024560  0.307638  1
  B  B6  1  0.500000  0.474113  0.807285  1
  B  B7  1  0.500000  0.525452  0.192602  1
  B  B8  1  0.500000  0.792051  0.812375  1
  B  B9  1  0.500000  0.208604  0.187726  1
  B  B10  1  0.500000  0.291753  0.687292  1
  B  B11  1  0.500000  0.709891  0.313720  1
  B  B12  1  0.500000  0.863724  0.969894  1
  B  B13  1  0.500000  0.136105  0.029938  1
  B  B14  1  0.500000  0.363515  0.529660  1
  B  B15  1  0.500000  0.635564  0.469140  1
  B  B16  1  0.500000  0.886391  0.545588  1
  B  B17  1  0.500000  0.111352  0.452308  1
  B  B18  1  0.500000  0.387598  0.953038  1
  B  B19  1  0.500000  0.612449  0.047251  1
  Ir  Ir20  1  0.000000  0.644089  0.903001  1
  Ir  Ir21  1  0.000000  0.355899  0.095871  1
  Ir  Ir22  1  0.000000  0.143334  0.596968  1
  Ru  Ru23  1  0.000000  0.859871  0.406180  1
