# generated using pymatgen
data_Ta4Cu3PdPt8
_symmetry_space_group_name_H-M   'P 1'
_cell_length_a   4.59296400
_cell_length_b   4.80733000
_cell_length_c   11.09465600
_cell_angle_alpha   90.00000000
_cell_angle_beta   90.00000000
_cell_angle_gamma   90.00000000
_symmetry_Int_Tables_number   1
_chemical_formula_structural   Ta4Cu3PdPt8
_chemical_formula_sum   'Ta4 Cu3 Pd1 Pt8'
_cell_volume   244.96882430
_cell_formula_units_Z   1
loop_
 _symmetry_equiv_pos_site_id
 _symmetry_equiv_pos_as_xyz
  1  'x, y, z'
loop_
 _atom_site_type_symbol
 _atom_site_label
 _atom_site_symmetry_multiplicity
 _atom_site_fract_x
 _atom_site_fract_y
 _atom_site_fract_z
 _atom_site_occupancy
  Ta  Ta0  1  0.500000  0.662219  0.250019  1
  Ta  Ta1  1  0.500000  0.662219  0.749981  1
  Ta  Ta2  1  0.000000  0.338864  0.000000  1
  Ta  Ta3  1  0.000000  0.337421  0.500000  1
  Cu  Cu4  1  0.000000  0.326928  0.249453  1
  Cu  Cu5  1  0.000000  0.326928  0.750547  1
  Cu  Cu6  1  0.500000  0.674052  0.000000  1
  Pd  Pd7  1  0.500000  0.669329  0.500000  1
  Pt  Pt8  1  0.500000  0.177617  0.372124  1
  Pt  Pt9  1  0.500000  0.180796  0.876954  1
  Pt  Pt10  1  0.500000  0.180796  0.123046  1
  Pt  Pt11  1  0.500000  0.177617  0.627876  1
  Pt  Pt12  1  0.000000  0.824681  0.371418  1
  Pt  Pt13  1  0.000000  0.817927  0.875334  1
  Pt  Pt14  1  0.000000  0.817927  0.124666  1
  Pt  Pt15  1  0.000000  0.824681  0.628582  1
