# generated using pymatgen
data_Dy2YZnGa7Ag3
_symmetry_space_group_name_H-M   'P 1'
_cell_length_a   4.32592316
_cell_length_b   8.29526209
_cell_length_c   8.29672403
_cell_angle_alpha   70.60195840
_cell_angle_beta   74.88835286
_cell_angle_gamma   74.88563303
_symmetry_Int_Tables_number   1
_chemical_formula_structural   Dy2YZnGa7Ag3
_chemical_formula_sum   'Dy2 Y1 Zn1 Ga7 Ag3'
_cell_volume   266.10883001
_cell_formula_units_Z   1
loop_
 _symmetry_equiv_pos_site_id
 _symmetry_equiv_pos_as_xyz
  1  'x, y, z'
loop_
 _atom_site_type_symbol
 _atom_site_label
 _atom_site_symmetry_multiplicity
 _atom_site_fract_x
 _atom_site_fract_y
 _atom_site_fract_z
 _atom_site_occupancy
  Dy  Dy0  1  0.999016  0.000735  0.001233  1
  Dy  Dy1  1  0.300020  0.698210  0.701751  1
  Y  Y2  1  0.700999  0.299375  0.298626  1
  Zn  Zn3  1  0.339720  0.293087  0.027472  1
  Ga  Ga4  1  0.659594  0.709489  0.971322  1
  Ga  Ga5  1  0.341494  0.032587  0.284426  1
  Ga  Ga6  1  0.658689  0.971769  0.710852  1
  Ga  Ga7  1  0.144224  0.573792  0.137760  1
  Ga  Ga8  1  0.858139  0.418225  0.865495  1
  Ga  Ga9  1  0.142613  0.138838  0.575938  1
  Ga  Ga10  1  0.857402  0.861654  0.423539  1
  Ag  Ag11  1  0.499443  0.305737  0.695377  1
  Ag  Ag12  1  0.499413  0.695821  0.305355  1
  Ag  Ag13  1  0.999234  0.500681  0.500853  1
