# generated using pymatgen
data_ThInAgTe3
_symmetry_space_group_name_H-M   'P 1'
_cell_length_a   7.99658682
_cell_length_b   7.99658737
_cell_length_c   11.52866300
_cell_angle_alpha   90.00000000
_cell_angle_beta   90.00000000
_cell_angle_gamma   147.27289304
_symmetry_Int_Tables_number   1
_chemical_formula_structural   ThInAgTe3
_chemical_formula_sum   'Th2 In2 Ag2 Te6'
_cell_volume   398.56133371
_cell_formula_units_Z   2
loop_
 _symmetry_equiv_pos_site_id
 _symmetry_equiv_pos_as_xyz
  1  'x, y, z'
loop_
 _atom_site_type_symbol
 _atom_site_label
 _atom_site_symmetry_multiplicity
 _atom_site_fract_x
 _atom_site_fract_y
 _atom_site_fract_z
 _atom_site_occupancy
  Th  Th0  1  0.500001  0.500001  0.000000  1
  Th  Th1  1  0.500001  0.500001  0.500000  1
  In  In2  1  0.739039  0.260962  0.250000  1
  In  In3  1  0.260962  0.739039  0.750000  1
  Ag  Ag4  1  0.029852  0.970150  0.250000  1
  Ag  Ag5  1  0.970150  0.029852  0.750000  1
  Te  Te6  1  0.138506  0.861495  0.053264  1
  Te  Te7  1  0.415298  0.584704  0.250000  1
  Te  Te8  1  0.138506  0.861495  0.446736  1
  Te  Te9  1  0.861495  0.138506  0.553264  1
  Te  Te10  1  0.584704  0.415298  0.750000  1
  Te  Te11  1  0.861495  0.138506  0.946737  1
