# generated using pymatgen
data_Tb16In2Hg2Ru3Rh
_symmetry_space_group_name_H-M   'P 1'
_cell_length_a   9.64951628
_cell_length_b   9.67111966
_cell_length_c   9.69170500
_cell_angle_alpha   59.92956697
_cell_angle_beta   59.85526961
_cell_angle_gamma   59.82874154
_symmetry_Int_Tables_number   1
_chemical_formula_structural   Tb16In2Hg2Ru3Rh
_chemical_formula_sum   'Tb16 In2 Hg2 Ru3 Rh1'
_cell_volume   637.66939576
_cell_formula_units_Z   1
loop_
 _symmetry_equiv_pos_site_id
 _symmetry_equiv_pos_as_xyz
  1  'x, y, z'
loop_
 _atom_site_type_symbol
 _atom_site_label
 _atom_site_symmetry_multiplicity
 _atom_site_fract_x
 _atom_site_fract_y
 _atom_site_fract_z
 _atom_site_occupancy
  Tb  Tb0  1  0.808760  0.808403  0.191419  1
  Tb  Tb1  1  0.811693  0.190820  0.807154  1
  Tb  Tb2  1  0.188227  0.191967  0.809903  1
  Tb  Tb3  1  0.651979  0.047261  0.650380  1
  Tb  Tb4  1  0.060787  0.060178  0.439518  1
  Tb  Tb5  1  0.442355  0.438016  0.059814  1
  Tb  Tb6  1  0.651970  0.650397  0.650764  1
  Tb  Tb7  1  0.811693  0.190820  0.190334  1
  Tb  Tb8  1  0.189225  0.810934  0.807410  1
  Tb  Tb9  1  0.045813  0.651580  0.651303  1
  Tb  Tb10  1  0.441810  0.063324  0.058683  1
  Tb  Tb11  1  0.441810  0.063324  0.436183  1
  Tb  Tb12  1  0.062378  0.441322  0.057225  1
  Tb  Tb13  1  0.651970  0.650397  0.046869  1
  Tb  Tb14  1  0.189225  0.810934  0.192431  1
  Tb  Tb15  1  0.062378  0.441322  0.439074  1
  In  In16  1  0.418104  0.743329  0.419284  1
  In  In17  1  0.743637  0.417847  0.419258  1
  Hg  Hg18  1  0.415253  0.414866  0.414663  1
  Hg  Hg19  1  0.415253  0.414866  0.755216  1
  Ru  Ru20  1  0.857031  0.421107  0.860932  1
  Ru  Ru21  1  0.858151  0.859462  0.862472  1
  Ru  Ru22  1  0.858151  0.859462  0.419916  1
  Rh  Rh23  1  0.422347  0.858060  0.859797  1
