# generated using pymatgen
data_Hf7(CuNi4)2
_symmetry_space_group_name_H-M   'P 1'
_cell_length_a   7.66437570
_cell_length_b   7.66737276
_cell_length_c   9.16900300
_cell_angle_alpha   90.00000000
_cell_angle_beta   90.00000000
_cell_angle_gamma   106.89408071
_symmetry_Int_Tables_number   1
_chemical_formula_structural   Hf7(CuNi4)2
_chemical_formula_sum   'Hf14 Cu4 Ni16'
_cell_volume   515.56857627
_cell_formula_units_Z   2
loop_
 _symmetry_equiv_pos_site_id
 _symmetry_equiv_pos_as_xyz
  1  'x, y, z'
loop_
 _atom_site_type_symbol
 _atom_site_label
 _atom_site_symmetry_multiplicity
 _atom_site_fract_x
 _atom_site_fract_y
 _atom_site_fract_z
 _atom_site_occupancy
  Hf  Hf0  1  0.700116  0.299836  0.999996  1
  Hf  Hf1  1  0.299884  0.700164  0.000004  1
  Hf  Hf2  1  0.799884  0.200164  0.499996  1
  Hf  Hf3  1  0.200116  0.799836  0.500004  1
  Hf  Hf4  1  0.000000  0.000000  0.000000  1
  Hf  Hf5  1  0.500000  0.500000  0.500000  1
  Hf  Hf6  1  0.005434  0.505415  0.250028  1
  Hf  Hf7  1  0.994566  0.494585  0.749972  1
  Hf  Hf8  1  0.494566  0.994585  0.750028  1
  Hf  Hf9  1  0.505434  0.005415  0.249972  1
  Hf  Hf10  1  0.313494  0.313504  0.187397  1
  Hf  Hf11  1  0.686506  0.686496  0.812603  1
  Hf  Hf12  1  0.186506  0.186496  0.687397  1
  Hf  Hf13  1  0.813494  0.813504  0.312603  1
  Cu  Cu14  1  0.106206  0.106237  0.396189  1
  Cu  Cu15  1  0.893794  0.893763  0.603811  1
  Cu  Cu16  1  0.393794  0.393763  0.896189  1
  Cu  Cu17  1  0.606206  0.606237  0.103811  1
  Ni  Ni18  1  0.867279  0.154172  0.208706  1
  Ni  Ni19  1  0.132721  0.845828  0.791294  1
  Ni  Ni20  1  0.632721  0.345828  0.708706  1
  Ni  Ni21  1  0.654190  0.367299  0.291276  1
  Ni  Ni22  1  0.367279  0.654172  0.291294  1
  Ni  Ni23  1  0.345810  0.632701  0.708724  1
  Ni  Ni24  1  0.845810  0.132701  0.791276  1
  Ni  Ni25  1  0.154190  0.867299  0.208724  1
  Ni  Ni26  1  0.935677  0.645597  0.006434  1
  Ni  Ni27  1  0.064323  0.354403  0.993566  1
  Ni  Ni28  1  0.564323  0.854403  0.506434  1
  Ni  Ni29  1  0.145618  0.435701  0.493532  1
  Ni  Ni30  1  0.435677  0.145597  0.493566  1
  Ni  Ni31  1  0.854382  0.564299  0.506468  1
  Ni  Ni32  1  0.354382  0.064299  0.993532  1
  Ni  Ni33  1  0.645618  0.935701  0.006468  1
