# generated using pymatgen
data_TbSmNbRu3
_symmetry_space_group_name_H-M   'P 1'
_cell_length_a   5.76332500
_cell_length_b   5.76332450
_cell_length_c   8.00774200
_cell_angle_alpha   90.00000000
_cell_angle_beta   90.00000000
_cell_angle_gamma   120.00000858
_symmetry_Int_Tables_number   1
_chemical_formula_structural   TbSmNbRu3
_chemical_formula_sum   'Tb2 Sm2 Nb2 Ru6'
_cell_volume   230.34927531
_cell_formula_units_Z   2
loop_
 _symmetry_equiv_pos_site_id
 _symmetry_equiv_pos_as_xyz
  1  'x, y, z'
loop_
 _atom_site_type_symbol
 _atom_site_label
 _atom_site_symmetry_multiplicity
 _atom_site_fract_x
 _atom_site_fract_y
 _atom_site_fract_z
 _atom_site_occupancy
  Tb  Tb0  1  0.666667  0.333333  0.940040  1
  Tb  Tb1  1  0.333333  0.666667  0.059960  1
  Sm  Sm2  1  0.333333  0.666667  0.438588  1
  Sm  Sm3  1  0.666667  0.333333  0.561412  1
  Nb  Nb4  1  0.000000  0.000000  0.500000  1
  Nb  Nb5  1  0.000000  0.000000  0.000000  1
  Ru  Ru6  1  0.829183  0.170817  0.248588  1
  Ru  Ru7  1  0.829183  0.658366  0.248588  1
  Ru  Ru8  1  0.341634  0.170817  0.248588  1
  Ru  Ru9  1  0.170817  0.829183  0.751412  1
  Ru  Ru10  1  0.170817  0.341634  0.751412  1
  Ru  Ru11  1  0.658366  0.829183  0.751412  1
