# generated using pymatgen
data_Ho7Er3Ga3NiBi2
_symmetry_space_group_name_H-M   'P 1'
_cell_length_a   8.51729880
_cell_length_b   8.51739723
_cell_length_c   8.70865935
_cell_angle_alpha   124.27495193
_cell_angle_beta   124.27776459
_cell_angle_gamma   81.27657204
_symmetry_Int_Tables_number   1
_chemical_formula_structural   Ho7Er3Ga3NiBi2
_chemical_formula_sum   'Ho7 Er3 Ga3 Ni1 Bi2'
_cell_volume   418.52289747
_cell_formula_units_Z   1
loop_
 _symmetry_equiv_pos_site_id
 _symmetry_equiv_pos_as_xyz
  1  'x, y, z'
loop_
 _atom_site_type_symbol
 _atom_site_label
 _atom_site_symmetry_multiplicity
 _atom_site_fract_x
 _atom_site_fract_y
 _atom_site_fract_z
 _atom_site_occupancy
  Ho  Ho0  1  0.721617  0.203768  0.205896  1
  Ho  Ho1  1  0.515376  0.706867  0.499997  1
  Ho  Ho2  1  0.195848  0.041012  0.500038  1
  Ho  Ho3  1  0.002079  0.484236  0.205772  1
  Ho  Ho4  1  0.296233  0.778392  0.794174  1
  Ho  Ho5  1  0.459083  0.304157  0.500031  1
  Ho  Ho6  1  0.793133  0.984671  0.500035  1
  Er  Er7  1  0.996718  0.994281  0.991023  1
  Er  Er8  1  0.505631  0.503252  0.008908  1
  Er  Er9  1  0.015809  0.497940  0.794056  1
  Ga  Ga10  1  0.352064  0.855174  0.207285  1
  Ga  Ga11  1  0.644749  0.147884  0.792637  1
  Ga  Ga12  1  0.865317  0.634711  0.500096  1
  Ni  Ni13  1  0.124106  0.375864  0.500064  1
  Bi  Bi14  1  0.756151  0.743854  0.999989  1
  Bi  Bi15  1  0.256085  0.243936  0.000000  1
