# generated using pymatgen
data_Tb3ErAl18PtRh5
_symmetry_space_group_name_H-M   'P 1'
_cell_length_a   7.56515373
_cell_length_b   7.56877428
_cell_length_c   9.48691418
_cell_angle_alpha   89.98285363
_cell_angle_beta   89.99218635
_cell_angle_gamma   119.48018503
_symmetry_Int_Tables_number   1
_chemical_formula_structural   Tb3ErAl18PtRh5
_chemical_formula_sum   'Tb3 Er1 Al18 Pt1 Rh5'
_cell_volume   472.87892420
_cell_formula_units_Z   1
loop_
 _symmetry_equiv_pos_site_id
 _symmetry_equiv_pos_as_xyz
  1  'x, y, z'
loop_
 _atom_site_type_symbol
 _atom_site_label
 _atom_site_symmetry_multiplicity
 _atom_site_fract_x
 _atom_site_fract_y
 _atom_site_fract_z
 _atom_site_occupancy
  Tb  Tb0  1  0.993996  0.669444  0.749994  1
  Tb  Tb1  1  0.004220  0.328990  0.250193  1
  Tb  Tb2  1  0.670883  0.995844  0.749751  1
  Er  Er3  1  0.330118  0.005556  0.249721  1
  Al  Al4  1  0.127353  0.126424  0.750279  1
  Al  Al5  1  0.873772  0.872489  0.249742  1
  Al  Al6  1  0.005078  0.335162  0.576624  1
  Al  Al7  1  0.003199  0.669556  0.423431  1
  Al  Al8  1  0.000594  0.665836  0.074822  1
  Al  Al9  1  0.334926  0.000063  0.926002  1
  Al  Al10  1  0.001420  0.334784  0.924823  1
  Al  Al11  1  0.664327  0.998584  0.075339  1
  Al  Al12  1  0.664012  0.994968  0.423284  1
  Al  Al13  1  0.331342  0.997641  0.575758  1
  Al  Al14  1  0.332865  0.332228  0.051143  1
  Al  Al15  1  0.667088  0.667088  0.949411  1
  Al  Al16  1  0.666154  0.669466  0.552864  1
  Al  Al17  1  0.330563  0.333164  0.446645  1
  Al  Al18  1  0.340158  0.550272  0.750307  1
  Al  Al19  1  0.659736  0.453585  0.246743  1
  Al  Al20  1  0.546071  0.339410  0.753274  1
  Al  Al21  1  0.450322  0.660761  0.249691  1
  Pt  Pt22  1  0.672047  0.327690  0.499521  1
  Rh  Rh23  1  0.328252  0.671640  0.499455  1
  Rh  Rh24  1  0.328491  0.671453  0.000532  1
  Rh  Rh25  1  0.671758  0.327638  0.000652  1
  Rh  Rh26  1  0.000492  0.000265  0.499357  1
  Rh  Rh27  1  0.000760  0.000002  0.000642  1
