# generated using pymatgen
data_NbCo2B2Ir
_symmetry_space_group_name_H-M   'P 1'
_cell_length_a   5.78408388
_cell_length_b   5.78408349
_cell_length_c   5.78408400
_cell_angle_alpha   95.64667463
_cell_angle_beta   95.64667481
_cell_angle_gamma   95.64669311
_symmetry_Int_Tables_number   1
_chemical_formula_structural   NbCo2B2Ir
_chemical_formula_sum   'Nb3 Co6 B6 Ir3'
_cell_volume   190.49211967
_cell_formula_units_Z   3
loop_
 _symmetry_equiv_pos_site_id
 _symmetry_equiv_pos_as_xyz
  1  'x, y, z'
loop_
 _atom_site_type_symbol
 _atom_site_label
 _atom_site_symmetry_multiplicity
 _atom_site_fract_x
 _atom_site_fract_y
 _atom_site_fract_z
 _atom_site_occupancy
  Nb  Nb0  1  0.000000  0.000000  0.000000  1
  Nb  Nb1  1  0.665515  0.665515  0.665515  1
  Nb  Nb2  1  0.334485  0.334485  0.334485  1
  Co  Co3  1  0.694254  0.215289  0.694254  1
  Co  Co4  1  0.694254  0.694254  0.215289  1
  Co  Co5  1  0.215289  0.694254  0.694254  1
  Co  Co6  1  0.305746  0.784711  0.305746  1
  Co  Co7  1  0.305746  0.305746  0.784711  1
  Co  Co8  1  0.784711  0.305746  0.305746  1
  B  B9  1  0.611310  0.388690  0.000000  1
  B  B10  1  0.000000  0.611310  0.388690  1
  B  B11  1  0.388690  0.000000  0.611310  1
  B  B12  1  0.000000  0.388690  0.611310  1
  B  B13  1  0.611310  0.000000  0.388690  1
  B  B14  1  0.388690  0.611310  0.000000  1
  Ir  Ir15  1  0.000000  0.000000  0.500000  1
  Ir  Ir16  1  0.500000  0.000000  0.000000  1
  Ir  Ir17  1  0.000000  0.500000  0.000000  1
