# generated using pymatgen
data_LaNd9Os3Ru
_symmetry_space_group_name_H-M   'P 1'
_cell_length_a   8.85919521
_cell_length_b   8.86833221
_cell_length_c   7.45978177
_cell_angle_alpha   83.70471339
_cell_angle_beta   83.55068717
_cell_angle_gamma   44.06184867
_symmetry_Int_Tables_number   1
_chemical_formula_structural   LaNd9Os3Ru
_chemical_formula_sum   'La1 Nd9 Os3 Ru1'
_cell_volume   404.65072514
_cell_formula_units_Z   1
loop_
 _symmetry_equiv_pos_site_id
 _symmetry_equiv_pos_as_xyz
  1  'x, y, z'
loop_
 _atom_site_type_symbol
 _atom_site_label
 _atom_site_symmetry_multiplicity
 _atom_site_fract_x
 _atom_site_fract_y
 _atom_site_fract_z
 _atom_site_occupancy
  La  La0  1  0.017569  0.797924  0.910444  1
  Nd  Nd1  1  0.205169  0.979754  0.584100  1
  Nd  Nd2  1  0.980454  0.205399  0.084979  1
  Nd  Nd3  1  0.794878  0.022191  0.413765  1
  Nd  Nd4  1  0.360678  0.204600  0.815071  1
  Nd  Nd5  1  0.792182  0.641260  0.684374  1
  Nd  Nd6  1  0.640183  0.791289  0.187055  1
  Nd  Nd7  1  0.205916  0.359015  0.316976  1
  Nd  Nd8  1  0.574006  0.427722  0.748304  1
  Nd  Nd9  1  0.425743  0.574165  0.251241  1
  Os  Os10  1  0.172183  0.607107  0.579539  1
  Os  Os11  1  0.398705  0.822848  0.925629  1
  Os  Os12  1  0.823673  0.396902  0.424914  1
  Ru  Ru13  1  0.608662  0.169824  0.073608  1
