# generated using pymatgen
data_DyEr15In4IrPt3
_symmetry_space_group_name_H-M   'P 1'
_cell_length_a   9.63603559
_cell_length_b   9.62973400
_cell_length_c   9.62058600
_cell_angle_alpha   60.03142680
_cell_angle_beta   60.05302990
_cell_angle_gamma   60.11964955
_symmetry_Int_Tables_number   1
_chemical_formula_structural   DyEr15In4IrPt3
_chemical_formula_sum   'Dy1 Er15 In4 Ir1 Pt3'
_cell_volume   632.21932399
_cell_formula_units_Z   1
loop_
 _symmetry_equiv_pos_site_id
 _symmetry_equiv_pos_as_xyz
  1  'x, y, z'
loop_
 _atom_site_type_symbol
 _atom_site_label
 _atom_site_symmetry_multiplicity
 _atom_site_fract_x
 _atom_site_fract_y
 _atom_site_fract_z
 _atom_site_occupancy
  Dy  Dy0  1  0.061955  0.061331  0.438357  1
  Er  Er1  1  0.647564  0.055968  0.648234  1
  Er  Er2  1  0.190552  0.808536  0.190975  1
  Er  Er3  1  0.438991  0.061922  0.437894  1
  Er  Er4  1  0.187235  0.193509  0.809628  1
  Er  Er5  1  0.651382  0.647204  0.651243  1
  Er  Er6  1  0.052261  0.645828  0.650956  1
  Er  Er7  1  0.438991  0.061922  0.061193  1
  Er  Er8  1  0.651382  0.647204  0.050171  1
  Er  Er9  1  0.190552  0.808536  0.809937  1
  Er  Er10  1  0.808962  0.192880  0.810824  1
  Er  Er11  1  0.808962  0.192880  0.187335  1
  Er  Er12  1  0.809184  0.809861  0.190477  1
  Er  Er13  1  0.061850  0.437168  0.440345  1
  Er  Er14  1  0.439475  0.435717  0.062405  1
  Er  Er15  1  0.061850  0.437168  0.060637  1
  In  In16  1  0.749325  0.417031  0.416822  1
  In  In17  1  0.416487  0.416604  0.750232  1
  In  In18  1  0.416866  0.749710  0.416712  1
  In  In19  1  0.416487  0.416604  0.416676  1
  Ir  Ir20  1  0.858389  0.426803  0.857404  1
  Pt  Pt21  1  0.857039  0.858329  0.856885  1
  Pt  Pt22  1  0.427225  0.858955  0.856911  1
  Pt  Pt23  1  0.857039  0.858329  0.427749  1
