# generated using pymatgen
data_ErTh2P4Pd7
_symmetry_space_group_name_H-M   'P 1'
_cell_length_a   8.04927828
_cell_length_b   8.04927853
_cell_length_c   9.54514292
_cell_angle_alpha   55.55278379
_cell_angle_beta   55.55278109
_cell_angle_gamma   29.28798088
_symmetry_Int_Tables_number   1
_chemical_formula_structural   ErTh2P4Pd7
_chemical_formula_sum   'Er1 Th2 P4 Pd7'
_cell_volume   245.44858697
_cell_formula_units_Z   1
loop_
 _symmetry_equiv_pos_site_id
 _symmetry_equiv_pos_as_xyz
  1  'x, y, z'
loop_
 _atom_site_type_symbol
 _atom_site_label
 _atom_site_symmetry_multiplicity
 _atom_site_fract_x
 _atom_site_fract_y
 _atom_site_fract_z
 _atom_site_occupancy
  Er  Er0  1  0.181570  0.181570  0.820940  1
  Th  Th1  1  0.498117  0.498117  0.503296  1
  Th  Th2  1  0.820324  0.820324  0.174116  1
  P  P3  1  0.394502  0.394502  0.322789  1
  P  P4  1  0.608945  0.608945  0.681107  1
  P  P5  1  0.837746  0.837746  0.755813  1
  P  P6  1  0.155963  0.155963  0.251255  1
  Pd  Pd7  1  0.667288  0.667288  0.070492  1
  Pd  Pd8  1  0.010079  0.010079  0.211760  1
  Pd  Pd9  1  0.990109  0.990109  0.787065  1
  Pd  Pd10  1  0.503187  0.503187  0.995701  1
  Pd  Pd11  1  0.192254  0.192254  0.476043  1
  Pd  Pd12  1  0.807413  0.807413  0.527843  1
  Pd  Pd13  1  0.332504  0.332504  0.921782  1
