# generated using pymatgen
data_Ta8SnSeO25
_symmetry_space_group_name_H-M   'P 1'
_cell_length_a   3.86479565
_cell_length_b   11.47374133
_cell_length_c   11.45642200
_cell_angle_alpha   88.48626040
_cell_angle_beta   80.24476864
_cell_angle_gamma   80.32693716
_symmetry_Int_Tables_number   1
_chemical_formula_structural   Ta8SnSeO25
_chemical_formula_sum   'Ta8 Sn1 Se1 O25'
_cell_volume   493.55468304
_cell_formula_units_Z   1
loop_
 _symmetry_equiv_pos_site_id
 _symmetry_equiv_pos_as_xyz
  1  'x, y, z'
loop_
 _atom_site_type_symbol
 _atom_site_label
 _atom_site_symmetry_multiplicity
 _atom_site_fract_x
 _atom_site_fract_y
 _atom_site_fract_z
 _atom_site_occupancy
  Ta  Ta0  1  0.884515  0.802848  0.441732  1
  Ta  Ta1  1  0.130097  0.195259  0.559469  1
  Ta  Ta2  1  0.673698  0.442743  0.195931  1
  Ta  Ta3  1  0.313670  0.558254  0.803023  1
  Ta  Ta4  1  0.895499  0.320064  0.877090  1
  Ta  Ta5  1  0.091813  0.680898  0.123101  1
  Ta  Ta6  1  0.226970  0.876891  0.681013  1
  Ta  Ta7  1  0.996149  0.002492  0.005703  1
  Sn  Sn8  1  0.782535  0.125117  0.323606  1
  Se  Se9  1  0.250053  0.499747  0.500225  1
  O  O10  1  0.942282  0.622084  0.519965  1
  O  O11  1  0.535991  0.520013  0.376525  1
  O  O12  1  0.435032  0.480882  0.623460  1
  O  O13  1  0.086462  0.376959  0.481501  1
  O  O14  1  0.506896  0.996894  0.989077  1
  O  O15  1  0.245689  0.146396  0.376008  1
  O  O16  1  0.381055  0.365862  0.858705  1
  O  O17  1  0.605241  0.636118  0.139646  1
  O  O18  1  0.760728  0.857444  0.634527  1
  O  O19  1  0.836762  0.956198  0.391669  1
  O  O20  1  0.986860  0.731556  0.291577  1
  O  O21  1  0.721091  0.296308  0.261475  1
  O  O22  1  0.280881  0.706318  0.734199  1
  O  O23  1  0.009884  0.268626  0.708428  1
  O  O24  1  0.947260  0.168394  0.932653  1
  O  O25  1  0.120691  0.931402  0.831531  1
  O  O26  1  0.889743  0.062672  0.159989  1
  O  O27  1  0.774073  0.394330  0.036161  1
  O  O28  1  0.364149  0.801613  0.489967  1
  O  O29  1  0.146960  0.491021  0.194385  1
  O  O30  1  0.833125  0.511033  0.803967  1
  O  O31  1  0.653940  0.196144  0.516036  1
  O  O32  1  0.185254  0.038303  0.612081  1
  O  O33  1  0.205533  0.607716  0.961243  1
  O  O34  1  0.049431  0.831402  0.064325  1
