# generated using pymatgen
data_Sc8Ti5Al9Rh8
_symmetry_space_group_name_H-M   'P 1'
_cell_length_a   8.94928482
_cell_length_b   8.96622930
_cell_length_c   8.94928533
_cell_angle_alpha   59.89614326
_cell_angle_beta   59.84017299
_cell_angle_gamma   59.89615986
_symmetry_Int_Tables_number   1
_chemical_formula_structural   Sc8Ti5Al9Rh8
_chemical_formula_sum   'Sc8 Ti5 Al9 Rh8'
_cell_volume   506.36346601
_cell_formula_units_Z   1
loop_
 _symmetry_equiv_pos_site_id
 _symmetry_equiv_pos_as_xyz
  1  'x, y, z'
loop_
 _atom_site_type_symbol
 _atom_site_label
 _atom_site_symmetry_multiplicity
 _atom_site_fract_x
 _atom_site_fract_y
 _atom_site_fract_z
 _atom_site_occupancy
  Sc  Sc0  1  0.212372  0.210746  0.792521  1
  Sc  Sc1  1  0.792521  0.210746  0.212372  1
  Sc  Sc2  1  0.207423  0.793300  0.207423  1
  Sc  Sc3  1  0.800231  0.795354  0.190512  1
  Sc  Sc4  1  0.190512  0.795354  0.800231  1
  Sc  Sc5  1  0.793919  0.193459  0.793919  1
  Sc  Sc6  1  0.380306  0.383041  0.380306  1
  Sc  Sc7  1  0.381922  0.858102  0.381922  1
  Ti  Ti8  1  0.862559  0.381276  0.380304  1
  Ti  Ti9  1  0.380304  0.381276  0.862559  1
  Ti  Ti10  1  0.834968  0.491202  0.834968  1
  Ti  Ti11  1  0.496100  0.833471  0.833089  1
  Ti  Ti12  1  0.833089  0.833471  0.496100  1
  Al  Al13  1  0.166272  0.169545  0.166272  1
  Al  Al14  1  0.165705  0.501597  0.165705  1
  Al  Al15  1  0.507047  0.166659  0.163062  1
  Al  Al16  1  0.163062  0.166659  0.507047  1
  Al  Al17  1  0.619687  0.615740  0.619687  1
  Al  Al18  1  0.619884  0.143487  0.619884  1
  Al  Al19  1  0.143605  0.617848  0.621629  1
  Al  Al20  1  0.621629  0.617848  0.143605  1
  Al  Al21  1  0.826001  0.824874  0.826001  1
  Rh  Rh22  1  0.993957  0.006179  0.496537  1
  Rh  Rh23  1  0.496537  0.006179  0.993957  1
  Rh  Rh24  1  0.000922  0.496325  0.000922  1
  Rh  Rh25  1  0.502423  0.503338  0.992657  1
  Rh  Rh26  1  0.992657  0.503338  0.502423  1
  Rh  Rh27  1  0.504187  0.998356  0.504187  1
  Rh  Rh28  1  0.507848  0.492546  0.507848  1
  Rh  Rh29  1  0.002350  0.008685  0.002350  1
