# generated using pymatgen
data_NdHo15(CoHg3)2
_symmetry_space_group_name_H-M   'P 1'
_cell_length_a   10.12056800
_cell_length_b   10.12056851
_cell_length_c   7.17094300
_cell_angle_alpha   90.00000000
_cell_angle_beta   90.00000000
_cell_angle_gamma   120.00000487
_symmetry_Int_Tables_number   1
_chemical_formula_structural   NdHo15(CoHg3)2
_chemical_formula_sum   'Nd1 Ho15 Co2 Hg6'
_cell_volume   636.08723048
_cell_formula_units_Z   1
loop_
 _symmetry_equiv_pos_site_id
 _symmetry_equiv_pos_as_xyz
  1  'x, y, z'
loop_
 _atom_site_type_symbol
 _atom_site_label
 _atom_site_symmetry_multiplicity
 _atom_site_fract_x
 _atom_site_fract_y
 _atom_site_fract_z
 _atom_site_occupancy
  Nd  Nd0  1  0.000000  0.000000  0.275616  1
  Ho  Ho1  1  0.824730  0.649458  0.483056  1
  Ho  Ho2  1  0.350542  0.175270  0.483056  1
  Ho  Ho3  1  0.824730  0.175270  0.483056  1
  Ho  Ho4  1  0.174506  0.349012  0.981997  1
  Ho  Ho5  1  0.650988  0.825494  0.981997  1
  Ho  Ho6  1  0.174506  0.825494  0.981997  1
  Ho  Ho7  1  0.666667  0.333333  0.185019  1
  Ho  Ho8  1  0.333333  0.666667  0.687668  1
  Ho  Ho9  1  0.538938  0.077877  0.788740  1
  Ho  Ho10  1  0.922123  0.461062  0.788740  1
  Ho  Ho11  1  0.538938  0.461062  0.788740  1
  Ho  Ho12  1  0.460527  0.921053  0.289043  1
  Ho  Ho13  1  0.078947  0.539473  0.289043  1
  Ho  Ho14  1  0.460527  0.539473  0.289043  1
  Ho  Ho15  1  0.000000  0.000000  0.765338  1
  Co  Co16  1  0.666667  0.333333  0.553217  1
  Co  Co17  1  0.333333  0.666667  0.055032  1
  Hg  Hg18  1  0.830999  0.661997  0.044092  1
  Hg  Hg19  1  0.338003  0.169001  0.044092  1
  Hg  Hg20  1  0.830999  0.169001  0.044092  1
  Hg  Hg21  1  0.168463  0.336926  0.547857  1
  Hg  Hg22  1  0.663074  0.831537  0.547857  1
  Hg  Hg23  1  0.168463  0.831537  0.547857  1
