# generated using pymatgen
data_Sm8Sc12Sn7Pb9
_symmetry_space_group_name_H-M   'P 1'
_cell_length_a   7.94099900
_cell_length_b   8.07756762
_cell_length_c   15.24366700
_cell_angle_alpha   90.00000000
_cell_angle_beta   90.00000000
_cell_angle_gamma   90.09292802
_symmetry_Int_Tables_number   1
_chemical_formula_structural   Sm8Sc12Sn7Pb9
_chemical_formula_sum   'Sm8 Sc12 Sn7 Pb9'
_cell_volume   977.78782576
_cell_formula_units_Z   1
loop_
 _symmetry_equiv_pos_site_id
 _symmetry_equiv_pos_as_xyz
  1  'x, y, z'
loop_
 _atom_site_type_symbol
 _atom_site_label
 _atom_site_symmetry_multiplicity
 _atom_site_fract_x
 _atom_site_fract_y
 _atom_site_fract_z
 _atom_site_occupancy
  Sm  Sm0  1  0.521546  0.320223  0.901747  1
  Sm  Sm1  1  0.021350  0.176345  0.598601  1
  Sm  Sm2  1  0.479231  0.677008  0.400661  1
  Sm  Sm3  1  0.978544  0.823221  0.099516  1
  Sm  Sm4  1  0.479231  0.677008  0.099339  1
  Sm  Sm5  1  0.978544  0.823221  0.400484  1
  Sm  Sm6  1  0.521546  0.320223  0.598253  1
  Sm  Sm7  1  0.021350  0.176345  0.901399  1
  Sc  Sc8  1  0.358884  0.842237  0.874594  1
  Sc  Sc9  1  0.864803  0.660982  0.627072  1
  Sc  Sc10  1  0.637993  0.160767  0.372330  1
  Sc  Sc11  1  0.137484  0.338930  0.128043  1
  Sc  Sc12  1  0.637993  0.160767  0.127670  1
  Sc  Sc13  1  0.137484  0.338930  0.371957  1
  Sc  Sc14  1  0.358884  0.842237  0.625406  1
  Sc  Sc15  1  0.864803  0.660982  0.872928  1
  Sc  Sc16  1  0.189409  0.505678  0.750000  1
  Sc  Sc17  1  0.693577  0.996761  0.750000  1
  Sc  Sc18  1  0.807524  0.493185  0.250000  1
  Sc  Sc19  1  0.307729  0.006650  0.250000  1
  Sn  Sn20  1  0.056825  0.869327  0.750000  1
  Sn  Sn21  1  0.443678  0.369050  0.250000  1
  Sn  Sn22  1  0.942941  0.130841  0.250000  1
  Sn  Sn23  1  0.329120  0.143744  0.750000  1
  Sn  Sn24  1  0.830449  0.354789  0.750000  1
  Sn  Sn25  1  0.671331  0.856457  0.250000  1
  Sn  Sn26  1  0.171465  0.643677  0.250000  1
  Pb  Pb27  1  0.302795  0.045176  0.043851  1
  Pb  Pb28  1  0.803667  0.455587  0.456862  1
  Pb  Pb29  1  0.697391  0.954433  0.542928  1
  Pb  Pb30  1  0.197419  0.543771  0.957311  1
  Pb  Pb31  1  0.697391  0.954433  0.957072  1
  Pb  Pb32  1  0.197419  0.543771  0.542689  1
  Pb  Pb33  1  0.302795  0.045176  0.456149  1
  Pb  Pb34  1  0.803667  0.455587  0.043138  1
  Pb  Pb35  1  0.553741  0.632482  0.750000  1
