# generated using pymatgen
data_Th14CoRe4Os
_symmetry_space_group_name_H-M   'P 1'
_cell_length_a   9.96170676
_cell_length_b   9.96170852
_cell_length_c   6.31069180
_cell_angle_alpha   90.16492204
_cell_angle_beta   89.83507879
_cell_angle_gamma   119.25441747
_symmetry_Int_Tables_number   1
_chemical_formula_structural   Th14CoRe4Os
_chemical_formula_sum   'Th14 Co1 Re4 Os1'
_cell_volume   546.36998262
_cell_formula_units_Z   1
loop_
 _symmetry_equiv_pos_site_id
 _symmetry_equiv_pos_as_xyz
  1  'x, y, z'
loop_
 _atom_site_type_symbol
 _atom_site_label
 _atom_site_symmetry_multiplicity
 _atom_site_fract_x
 _atom_site_fract_y
 _atom_site_fract_z
 _atom_site_occupancy
  Th  Th0  1  0.331247  0.668753  0.023338  1
  Th  Th1  1  0.666753  0.333247  0.524424  1
  Th  Th2  1  0.127141  0.872859  0.248162  1
  Th  Th3  1  0.253148  0.123456  0.757874  1
  Th  Th4  1  0.876544  0.746852  0.757874  1
  Th  Th5  1  0.127564  0.253442  0.259737  1
  Th  Th6  1  0.746558  0.872436  0.259737  1
  Th  Th7  1  0.874768  0.125232  0.758035  1
  Th  Th8  1  0.538243  0.461757  0.045425  1
  Th  Th9  1  0.078546  0.547268  0.549152  1
  Th  Th10  1  0.452732  0.921454  0.549152  1
  Th  Th11  1  0.543462  0.077977  0.046591  1
  Th  Th12  1  0.922023  0.456538  0.046591  1
  Th  Th13  1  0.461288  0.538712  0.549069  1
  Co  Co14  1  0.185983  0.814017  0.792086  1
  Re  Re15  1  0.625944  0.816890  0.799326  1
  Re  Re16  1  0.183110  0.374056  0.799326  1
  Re  Re17  1  0.819099  0.628977  0.297557  1
  Re  Re18  1  0.371023  0.180901  0.297557  1
  Os  Os19  1  0.814826  0.185174  0.298985  1
