# generated using pymatgen
data_YbCrPd6
_symmetry_space_group_name_H-M   'P 1'
_cell_length_a   5.63498684
_cell_length_b   5.63498606
_cell_length_c   5.63498700
_cell_angle_alpha   60.00000037
_cell_angle_beta   60.00000495
_cell_angle_gamma   60.00000549
_symmetry_Int_Tables_number   1
_chemical_formula_structural   YbCrPd6
_chemical_formula_sum   'Yb1 Cr1 Pd6'
_cell_volume   126.52131838
_cell_formula_units_Z   1
loop_
 _symmetry_equiv_pos_site_id
 _symmetry_equiv_pos_as_xyz
  1  'x, y, z'
loop_
 _atom_site_type_symbol
 _atom_site_label
 _atom_site_symmetry_multiplicity
 _atom_site_fract_x
 _atom_site_fract_y
 _atom_site_fract_z
 _atom_site_occupancy
  Yb  Yb0  1  0.000000  0.000000  0.000000  1
  Cr  Cr1  1  0.500000  0.500000  0.500000  1
  Pd  Pd2  1  0.500001  0.000000  0.000000  1
  Pd  Pd3  1  0.000000  0.500001  0.000000  1
  Pd  Pd4  1  0.500000  0.500000  0.000000  1
  Pd  Pd5  1  0.000000  0.000000  0.500001  1
  Pd  Pd6  1  0.500000  0.000000  0.500000  1
  Pd  Pd7  1  0.000000  0.500000  0.500000  1
