# generated using pymatgen
data_Tb3Tm3Al24Os5Pt3
_symmetry_space_group_name_H-M   'P 1'
_cell_length_a   8.81306593
_cell_length_b   8.83073773
_cell_length_c   9.54577805
_cell_angle_alpha   90.12474321
_cell_angle_beta   89.72500020
_cell_angle_gamma   119.56110235
_symmetry_Int_Tables_number   1
_chemical_formula_structural   Tb3Tm3Al24Os5Pt3
_chemical_formula_sum   'Tb3 Tm3 Al24 Os5 Pt3'
_cell_volume   646.19670358
_cell_formula_units_Z   1
loop_
 _symmetry_equiv_pos_site_id
 _symmetry_equiv_pos_as_xyz
  1  'x, y, z'
loop_
 _atom_site_type_symbol
 _atom_site_label
 _atom_site_symmetry_multiplicity
 _atom_site_fract_x
 _atom_site_fract_y
 _atom_site_fract_z
 _atom_site_occupancy
  Tb  Tb0  1  0.187433  0.382358  0.250787  1
  Tb  Tb1  1  0.812397  0.618001  0.749234  1
  Tb  Tb2  1  0.615061  0.814255  0.252247  1
  Tm  Tm3  1  0.388825  0.185799  0.747496  1
  Tm  Tm4  1  0.196709  0.808245  0.251995  1
  Tm  Tm5  1  0.802450  0.191468  0.747993  1
  Al  Al6  1  0.334956  0.671417  0.029858  1
  Al  Al7  1  0.664380  0.328632  0.968826  1
  Al  Al8  1  0.669005  0.331539  0.528983  1
  Al  Al9  1  0.330588  0.668706  0.472135  1
  Al  Al10  1  0.157715  0.325160  0.576164  1
  Al  Al11  1  0.842392  0.674424  0.424578  1
  Al  Al12  1  0.673193  0.841060  0.576420  1
  Al  Al13  1  0.837219  0.675994  0.078200  1
  Al  Al14  1  0.326483  0.158965  0.424917  1
  Al  Al15  1  0.162962  0.323369  0.920933  1
  Al  Al16  1  0.163889  0.835304  0.576320  1
  Al  Al17  1  0.325574  0.158476  0.075875  1
  Al  Al18  1  0.835977  0.165273  0.424560  1
  Al  Al19  1  0.674243  0.841531  0.922879  1
  Al  Al20  1  0.831459  0.159723  0.076879  1
  Al  Al21  1  0.168440  0.841011  0.922217  1
  Al  Al22  1  0.560310  0.124981  0.249902  1
  Al  Al23  1  0.438928  0.874914  0.750191  1
  Al  Al24  1  0.874050  0.438211  0.252695  1
  Al  Al25  1  0.125619  0.561505  0.747456  1
  Al  Al26  1  0.562638  0.436123  0.249768  1
  Al  Al27  1  0.436799  0.562447  0.750261  1
  Al  Al28  1  0.000360  0.001594  0.250201  1
  Al  Al29  1  0.002538  0.000176  0.749784  1
  Os  Os30  1  0.499644  0.000421  0.999287  1
  Os  Os31  1  0.499589  0.000536  0.500840  1
  Os  Os32  1  0.999770  0.499883  0.500112  1
  Os  Os33  1  0.999752  0.999887  0.999942  1
  Os  Os34  1  0.999689  0.999860  0.500088  1
  Pt  Pt35  1  0.999730  0.499885  0.999916  1
  Pt  Pt36  1  0.499633  0.499475  0.999701  1
  Pt  Pt37  1  0.499596  0.499395  0.500359  1
