# generated using pymatgen
data_Nd7Lu(SiI6)2
_symmetry_space_group_name_H-M   'P 1'
_cell_length_a   4.31613500
_cell_length_b   14.42978331
_cell_length_c   15.19203275
_cell_angle_alpha   90.47047705
_cell_angle_beta   90.00000000
_cell_angle_gamma   90.00000000
_symmetry_Int_Tables_number   1
_chemical_formula_structural   Nd7Lu(SiI6)2
_chemical_formula_sum   'Nd7 Lu1 Si2 I12'
_cell_volume   946.14146404
_cell_formula_units_Z   1
loop_
 _symmetry_equiv_pos_site_id
 _symmetry_equiv_pos_as_xyz
  1  'x, y, z'
loop_
 _atom_site_type_symbol
 _atom_site_label
 _atom_site_symmetry_multiplicity
 _atom_site_fract_x
 _atom_site_fract_y
 _atom_site_fract_z
 _atom_site_occupancy
  Nd  Nd0  1  0.500000  0.115140  0.346651  1
  Nd  Nd1  1  0.500000  0.885663  0.654068  1
  Nd  Nd2  1  0.500000  0.613171  0.151553  1
  Nd  Nd3  1  0.000000  0.115530  0.577852  1
  Nd  Nd4  1  0.000000  0.886621  0.424111  1
  Nd  Nd5  1  0.000000  0.612469  0.923938  1
  Nd  Nd6  1  0.000000  0.386428  0.074612  1
  Lu  Lu7  1  0.500000  0.387589  0.849145  1
  Si  Si8  1  0.500000  0.001189  0.500850  1
  Si  Si9  1  0.500000  0.497244  0.996231  1
  I  I10  1  0.500000  0.243082  0.160064  1
  I  I11  1  0.500000  0.755345  0.837805  1
  I  I12  1  0.500000  0.743122  0.338161  1
  I  I13  1  0.500000  0.259541  0.668195  1
  I  I14  1  0.000000  0.260236  0.415115  1
  I  I15  1  0.000000  0.740414  0.585874  1
  I  I16  1  0.000000  0.758772  0.086168  1
  I  I17  1  0.000000  0.249854  0.904481  1
  I  I18  1  0.000000  0.997936  0.239727  1
  I  I19  1  0.000000  0.002491  0.761305  1
  I  I20  1  0.000000  0.498449  0.259450  1
  I  I21  1  0.000000  0.489712  0.744645  1
