# generated using pymatgen
data_Th2P6(Pd2Rh)7
_symmetry_space_group_name_H-M   'P 1'
_cell_length_a   8.64338997
_cell_length_b   8.64338899
_cell_length_c   8.64339000
_cell_angle_alpha   60.19872627
_cell_angle_beta   60.19873001
_cell_angle_gamma   60.19872670
_symmetry_Int_Tables_number   1
_chemical_formula_structural   Th2P6(Pd2Rh)7
_chemical_formula_sum   'Th2 P6 Pd14 Rh7'
_cell_volume   458.65613556
_cell_formula_units_Z   1
loop_
 _symmetry_equiv_pos_site_id
 _symmetry_equiv_pos_as_xyz
  1  'x, y, z'
loop_
 _atom_site_type_symbol
 _atom_site_label
 _atom_site_symmetry_multiplicity
 _atom_site_fract_x
 _atom_site_fract_y
 _atom_site_fract_z
 _atom_site_occupancy
  Th  Th0  1  0.750109  0.750109  0.750109  1
  Th  Th1  1  0.246837  0.246837  0.246837  1
  P  P2  1  0.725071  0.725071  0.274973  1
  P  P3  1  0.271965  0.731982  0.271965  1
  P  P4  1  0.731982  0.271965  0.271965  1
  P  P5  1  0.271965  0.271965  0.731982  1
  P  P6  1  0.725071  0.274973  0.725071  1
  P  P7  1  0.274973  0.725071  0.725071  1
  Pd  Pd8  1  0.000284  0.000284  0.000284  1
  Pd  Pd9  1  0.383273  0.383273  0.383273  1
  Pd  Pd10  1  0.999559  0.999559  0.342107  1
  Pd  Pd11  1  0.659618  0.000535  0.340824  1
  Pd  Pd12  1  0.000535  0.659618  0.340824  1
  Pd  Pd13  1  0.659618  0.340824  0.000535  1
  Pd  Pd14  1  0.999559  0.342107  0.999559  1
  Pd  Pd15  1  0.000535  0.340824  0.659618  1
  Pd  Pd16  1  0.340824  0.659618  0.000535  1
  Pd  Pd17  1  0.340824  0.000535  0.659618  1
  Pd  Pd18  1  0.342107  0.999559  0.999559  1
  Pd  Pd19  1  0.000569  0.000569  0.659665  1
  Pd  Pd20  1  0.000569  0.659665  0.000569  1
  Pd  Pd21  1  0.659665  0.000569  0.000569  1
  Rh  Rh22  1  0.613787  0.613787  0.155427  1
  Rh  Rh23  1  0.613787  0.155427  0.613787  1
  Rh  Rh24  1  0.155427  0.613787  0.613787  1
  Rh  Rh25  1  0.615750  0.615750  0.615750  1
  Rh  Rh26  1  0.384491  0.384491  0.846754  1
  Rh  Rh27  1  0.384491  0.846754  0.384491  1
  Rh  Rh28  1  0.846754  0.384491  0.384491  1
