# generated using pymatgen
data_NaDy6FeCl12
_symmetry_space_group_name_H-M   'P 1'
_cell_length_a   8.80179868
_cell_length_b   8.80390186
_cell_length_c   8.80022481
_cell_angle_alpha   106.89069199
_cell_angle_beta   106.88526664
_cell_angle_gamma   106.90074653
_symmetry_Int_Tables_number   1
_chemical_formula_structural   NaDy6FeCl12
_chemical_formula_sum   'Na1 Dy6 Fe1 Cl12'
_cell_volume   569.57986636
_cell_formula_units_Z   1
loop_
 _symmetry_equiv_pos_site_id
 _symmetry_equiv_pos_as_xyz
  1  'x, y, z'
loop_
 _atom_site_type_symbol
 _atom_site_label
 _atom_site_symmetry_multiplicity
 _atom_site_fract_x
 _atom_site_fract_y
 _atom_site_fract_z
 _atom_site_occupancy
  Na  Na0  1  0.500000  0.500000  0.500000  1
  Dy  Dy1  1  0.319459  0.109485  0.030744  1
  Dy  Dy2  1  0.030656  0.319192  0.109167  1
  Dy  Dy3  1  0.109413  0.030832  0.319446  1
  Dy  Dy4  1  0.890586  0.969168  0.680554  1
  Dy  Dy5  1  0.969344  0.680808  0.890832  1
  Dy  Dy6  1  0.680541  0.890515  0.969255  1
  Fe  Fe7  1  0.000000  0.000000  0.000000  1
  Cl  Cl8  1  0.684053  0.216583  0.072627  1
  Cl  Cl9  1  0.367981  0.446643  0.148506  1
  Cl  Cl10  1  0.072577  0.684253  0.217084  1
  Cl  Cl11  1  0.783252  0.927708  0.316079  1
  Cl  Cl12  1  0.446708  0.148635  0.368054  1
  Cl  Cl13  1  0.148452  0.367904  0.446577  1
  Cl  Cl14  1  0.851549  0.632096  0.553424  1
  Cl  Cl15  1  0.553292  0.851366  0.631946  1
  Cl  Cl16  1  0.216747  0.072292  0.683921  1
  Cl  Cl17  1  0.927423  0.315747  0.782915  1
  Cl  Cl18  1  0.632020  0.553358  0.851494  1
  Cl  Cl19  1  0.315947  0.783416  0.927373  1
