# generated using pymatgen
data_CsLi3Tb2S5
_symmetry_space_group_name_H-M   'P 1'
_cell_length_a   4.06520200
_cell_length_b   7.64237299
_cell_length_c   17.00375300
_cell_angle_alpha   90.00000000
_cell_angle_beta   90.00000000
_cell_angle_gamma   74.57572012
_symmetry_Int_Tables_number   1
_chemical_formula_structural   CsLi3Tb2S5
_chemical_formula_sum   'Cs2 Li6 Tb4 S10'
_cell_volume   509.24224776
_cell_formula_units_Z   2
loop_
 _symmetry_equiv_pos_site_id
 _symmetry_equiv_pos_as_xyz
  1  'x, y, z'
loop_
 _atom_site_type_symbol
 _atom_site_label
 _atom_site_symmetry_multiplicity
 _atom_site_fract_x
 _atom_site_fract_y
 _atom_site_fract_z
 _atom_site_occupancy
  Cs  Cs0  1  0.931825  0.136350  0.250000  1
  Cs  Cs1  1  0.068176  0.863650  0.750000  1
  Li  Li2  1  0.420444  0.159114  0.042090  1
  Li  Li3  1  0.646433  0.707133  0.250000  1
  Li  Li4  1  0.420444  0.159114  0.457909  1
  Li  Li5  1  0.579557  0.840886  0.542091  1
  Li  Li6  1  0.353568  0.292867  0.750000  1
  Li  Li7  1  0.579557  0.840886  0.957909  1
  Tb  Tb8  1  0.194846  0.610311  0.094083  1
  Tb  Tb9  1  0.194846  0.610311  0.405917  1
  Tb  Tb10  1  0.805156  0.389689  0.594084  1
  Tb  Tb11  1  0.805156  0.389689  0.905917  1
  S  S12  1  0.825180  0.349642  0.067324  1
  S  S13  1  0.571011  0.857978  0.108980  1
  S  S14  1  0.231445  0.537112  0.250000  1
  S  S15  1  0.571011  0.857978  0.391020  1
  S  S16  1  0.825180  0.349642  0.432676  1
  S  S17  1  0.174822  0.650358  0.567324  1
  S  S18  1  0.428990  0.142022  0.608980  1
  S  S19  1  0.768557  0.462888  0.750000  1
  S  S20  1  0.428990  0.142022  0.891020  1
  S  S21  1  0.174822  0.650358  0.932676  1
