# generated using pymatgen
data_La8Nd8AlCd(AgIr2)2
_symmetry_space_group_name_H-M   'P 1'
_cell_length_a   10.01371068
_cell_length_b   10.01371079
_cell_length_c   10.07720200
_cell_angle_alpha   59.77772202
_cell_angle_beta   59.77771504
_cell_angle_gamma   60.44768145
_symmetry_Int_Tables_number   1
_chemical_formula_structural   La8Nd8AlCd(AgIr2)2
_chemical_formula_sum   'La8 Nd8 Al1 Cd1 Ag2 Ir4'
_cell_volume   714.47250146
_cell_formula_units_Z   1
loop_
 _symmetry_equiv_pos_site_id
 _symmetry_equiv_pos_as_xyz
  1  'x, y, z'
loop_
 _atom_site_type_symbol
 _atom_site_label
 _atom_site_symmetry_multiplicity
 _atom_site_fract_x
 _atom_site_fract_y
 _atom_site_fract_z
 _atom_site_occupancy
  La  La0  1  0.347417  0.346727  0.349673  1
  La  La1  1  0.348200  0.348198  0.953620  1
  La  La2  1  0.351388  0.954664  0.347290  1
  La  La3  1  0.953414  0.351720  0.347504  1
  La  La4  1  0.810374  0.189430  0.189338  1
  La  La5  1  0.192596  0.807553  0.807785  1
  La  La6  1  0.189227  0.810974  0.188716  1
  La  La7  1  0.806758  0.192512  0.806896  1
  Nd  Nd8  1  0.192620  0.192821  0.806773  1
  Nd  Nd9  1  0.802003  0.801373  0.199104  1
  Nd  Nd10  1  0.934594  0.564146  0.565167  1
  Nd  Nd11  1  0.563278  0.935609  0.937062  1
  Nd  Nd12  1  0.564030  0.936149  0.565472  1
  Nd  Nd13  1  0.934050  0.564697  0.937402  1
  Nd  Nd14  1  0.561281  0.562284  0.938313  1
  Nd  Nd15  1  0.938038  0.940125  0.562336  1
  Al  Al16  1  0.580767  0.579127  0.575078  1
  Cd  Cd17  1  0.264415  0.577452  0.579496  1
  Ag  Ag18  1  0.582442  0.583023  0.259148  1
  Ag  Ag19  1  0.580140  0.258904  0.582691  1
  Ir  Ir20  1  0.139029  0.139148  0.145076  1
  Ir  Ir21  1  0.139880  0.140043  0.576454  1
  Ir  Ir22  1  0.146459  0.577100  0.139891  1
  Ir  Ir23  1  0.577600  0.146224  0.139710  1
