# generated using pymatgen
data_MgTcBr6
_symmetry_space_group_name_H-M   'P 1'
_cell_length_a   6.66759868
_cell_length_b   6.66759827
_cell_length_c   7.05399398
_cell_angle_alpha   80.95972160
_cell_angle_beta   80.95972094
_cell_angle_gamma   119.98619292
_symmetry_Int_Tables_number   1
_chemical_formula_structural   MgTcBr6
_chemical_formula_sum   'Mg1 Tc1 Br6'
_cell_volume   257.86695236
_cell_formula_units_Z   1
loop_
 _symmetry_equiv_pos_site_id
 _symmetry_equiv_pos_as_xyz
  1  'x, y, z'
loop_
 _atom_site_type_symbol
 _atom_site_label
 _atom_site_symmetry_multiplicity
 _atom_site_fract_x
 _atom_site_fract_y
 _atom_site_fract_z
 _atom_site_occupancy
  Mg  Mg0  1  0.166694  0.833306  0.000000  1
  Tc  Tc1  1  0.833437  0.166563  0.000000  1
  Br  Br2  1  0.442551  0.075586  0.222639  1
  Br  Br3  1  0.590632  0.941347  0.777500  1
  Br  Br4  1  0.924414  0.557449  0.777361  1
  Br  Br5  1  0.058653  0.409368  0.222500  1
  Br  Br6  1  0.776204  0.792584  0.222445  1
  Br  Br7  1  0.207416  0.223796  0.777555  1
