# generated using pymatgen
data_Dy3Er2GaBi2
_symmetry_space_group_name_H-M   'P 1'
_cell_length_a   8.08079750
_cell_length_b   9.29789604
_cell_length_c   12.04026280
_cell_angle_alpha   89.98951696
_cell_angle_beta   89.95976908
_cell_angle_gamma   89.99700469
_symmetry_Int_Tables_number   1
_chemical_formula_structural   Dy3Er2GaBi2
_chemical_formula_sum   'Dy12 Er8 Ga4 Bi8'
_cell_volume   904.63786317
_cell_formula_units_Z   4
loop_
 _symmetry_equiv_pos_site_id
 _symmetry_equiv_pos_as_xyz
  1  'x, y, z'
loop_
 _atom_site_type_symbol
 _atom_site_label
 _atom_site_symmetry_multiplicity
 _atom_site_fract_x
 _atom_site_fract_y
 _atom_site_fract_z
 _atom_site_occupancy
  Dy  Dy0  1  0.670408  0.750445  0.714798  1
  Dy  Dy1  1  0.329418  0.250022  0.285614  1
  Dy  Dy2  1  0.171024  0.249658  0.785052  1
  Dy  Dy3  1  0.829006  0.750035  0.215150  1
  Dy  Dy4  1  0.144510  0.750375  0.793080  1
  Dy  Dy5  1  0.855437  0.249858  0.206814  1
  Dy  Dy6  1  0.644879  0.249728  0.705946  1
  Dy  Dy7  1  0.355213  0.750104  0.294039  1
  Dy  Dy8  1  0.818945  0.447177  0.937309  1
  Dy  Dy9  1  0.181121  0.552917  0.062980  1
  Dy  Dy10  1  0.319027  0.552728  0.562518  1
  Dy  Dy11  1  0.181212  0.947319  0.062877  1
  Er  Er12  1  0.539016  0.750227  0.002577  1
  Er  Er13  1  0.462056  0.250172  0.997320  1
  Er  Er14  1  0.038054  0.249201  0.497397  1
  Er  Er15  1  0.960534  0.750245  0.502292  1
  Er  Er16  1  0.680014  0.445893  0.437262  1
  Er  Er17  1  0.819887  0.053951  0.937438  1
  Er  Er18  1  0.680592  0.053947  0.437349  1
  Er  Er19  1  0.319399  0.946109  0.562560  1
  Ga  Ga20  1  0.906582  0.751279  0.973838  1
  Ga  Ga21  1  0.093175  0.249688  0.025542  1
  Ga  Ga22  1  0.406445  0.248678  0.525855  1
  Ga  Ga23  1  0.594257  0.750180  0.473343  1
  Bi  Bi24  1  0.936995  0.009275  0.674019  1
  Bi  Bi25  1  0.062702  0.990787  0.326253  1
  Bi  Bi26  1  0.437008  0.990845  0.825660  1
  Bi  Bi27  1  0.062677  0.509041  0.326144  1
  Bi  Bi28  1  0.563436  0.009560  0.174561  1
  Bi  Bi29  1  0.936814  0.490576  0.674213  1
  Bi  Bi30  1  0.563451  0.490666  0.174664  1
  Bi  Bi31  1  0.436706  0.509312  0.825536  1
