# generated using pymatgen
data_Pr2BeAs5Pd21
_symmetry_space_group_name_H-M   'P 1'
_cell_length_a   8.88702455
_cell_length_b   8.85547541
_cell_length_c   8.85547500
_cell_angle_alpha   60.23584740
_cell_angle_beta   59.88208546
_cell_angle_gamma   59.88207326
_symmetry_Int_Tables_number   1
_chemical_formula_structural   Pr2BeAs5Pd21
_chemical_formula_sum   'Pr2 Be1 As5 Pd21'
_cell_volume   492.78114329
_cell_formula_units_Z   1
loop_
 _symmetry_equiv_pos_site_id
 _symmetry_equiv_pos_as_xyz
  1  'x, y, z'
loop_
 _atom_site_type_symbol
 _atom_site_label
 _atom_site_symmetry_multiplicity
 _atom_site_fract_x
 _atom_site_fract_y
 _atom_site_fract_z
 _atom_site_occupancy
  Pr  Pr0  1  0.751232  0.748769  0.748769  1
  Pr  Pr1  1  0.251224  0.248775  0.248775  1
  Be  Be2  1  0.263637  0.736363  0.736363  1
  As  As3  1  0.738268  0.736716  0.261725  1
  As  As4  1  0.263291  0.736716  0.261725  1
  As  As5  1  0.739196  0.260804  0.260804  1
  As  As6  1  0.263291  0.261725  0.736716  1
  As  As7  1  0.738268  0.261725  0.736716  1
  Pd  Pd8  1  0.000855  0.999145  0.999145  1
  Pd  Pd9  1  0.614564  0.615922  0.154949  1
  Pd  Pd10  1  0.614564  0.154949  0.615922  1
  Pd  Pd11  1  0.155492  0.619581  0.619581  1
  Pd  Pd12  1  0.605346  0.619581  0.619581  1
  Pd  Pd13  1  0.380439  0.394629  0.844493  1
  Pd  Pd14  1  0.380439  0.844493  0.394629  1
  Pd  Pd15  1  0.845051  0.385428  0.385428  1
  Pd  Pd16  1  0.384093  0.385428  0.385428  1
  Pd  Pd17  1  0.000119  0.999819  0.350013  1
  Pd  Pd18  1  0.650049  0.999819  0.350013  1
  Pd  Pd19  1  0.001802  0.651860  0.344536  1
  Pd  Pd20  1  0.650049  0.350013  0.999819  1
  Pd  Pd21  1  0.000119  0.350013  0.999819  1
  Pd  Pd22  1  0.001802  0.344536  0.651860  1
  Pd  Pd23  1  0.341893  0.658085  0.990319  1
  Pd  Pd24  1  0.341893  0.990319  0.658085  1
  Pd  Pd25  1  0.348171  0.998192  0.998192  1
  Pd  Pd26  1  0.009702  0.990320  0.658085  1
  Pd  Pd27  1  0.009702  0.658085  0.990320  1
  Pd  Pd28  1  0.655446  0.998192  0.998192  1
