# generated using pymatgen
data_Pr(PaRh2)5
_symmetry_space_group_name_H-M   'P 1'
_cell_length_a   5.83763362
_cell_length_b   5.83763355
_cell_length_c   9.34149598
_cell_angle_alpha   87.07366795
_cell_angle_beta   87.07366333
_cell_angle_gamma   104.48438104
_symmetry_Int_Tables_number   1
_chemical_formula_structural   Pr(PaRh2)5
_chemical_formula_sum   'Pr1 Pa5 Rh10'
_cell_volume   307.14791984
_cell_formula_units_Z   1
loop_
 _symmetry_equiv_pos_site_id
 _symmetry_equiv_pos_as_xyz
  1  'x, y, z'
loop_
 _atom_site_type_symbol
 _atom_site_label
 _atom_site_symmetry_multiplicity
 _atom_site_fract_x
 _atom_site_fract_y
 _atom_site_fract_z
 _atom_site_occupancy
  Pr  Pr0  1  0.803002  0.196998  0.500000  1
  Pa  Pa1  1  0.611883  0.608689  0.729928  1
  Pa  Pa2  1  0.391311  0.388117  0.270072  1
  Pa  Pa3  1  0.210011  0.789989  0.000000  1
  Pa  Pa4  1  0.188433  0.811567  0.500000  1
  Pa  Pa5  1  0.789859  0.210141  0.000000  1
  Rh  Rh6  1  0.697616  0.701031  0.015958  1
  Rh  Rh7  1  0.690757  0.682164  0.431120  1
  Rh  Rh8  1  0.298969  0.302384  0.984042  1
  Rh  Rh9  1  0.317836  0.309243  0.568880  1
  Rh  Rh10  1  0.492652  0.025800  0.775698  1
  Rh  Rh11  1  0.487140  0.953582  0.237748  1
  Rh  Rh12  1  0.999428  0.999514  0.228250  1
  Rh  Rh13  1  0.000486  0.000572  0.771750  1
  Rh  Rh14  1  0.046418  0.512860  0.762252  1
  Rh  Rh15  1  0.974200  0.507348  0.224302  1
