# generated using pymatgen
data_Cs12ScMo3Se16
_symmetry_space_group_name_H-M   'P 1'
_cell_length_a   10.40357910
_cell_length_b   10.52839989
_cell_length_c   12.11148500
_cell_angle_alpha   90.00000000
_cell_angle_beta   90.00000000
_cell_angle_gamma   89.65497465
_symmetry_Int_Tables_number   1
_chemical_formula_structural   Cs12ScMo3Se16
_chemical_formula_sum   'Cs12 Sc1 Mo3 Se16'
_cell_volume   1326.58373121
_cell_formula_units_Z   1
loop_
 _symmetry_equiv_pos_site_id
 _symmetry_equiv_pos_as_xyz
  1  'x, y, z'
loop_
 _atom_site_type_symbol
 _atom_site_label
 _atom_site_symmetry_multiplicity
 _atom_site_fract_x
 _atom_site_fract_y
 _atom_site_fract_z
 _atom_site_occupancy
  Cs  Cs0  1  0.543044  0.710953  0.037950  1
  Cs  Cs1  1  0.053804  0.801835  0.467747  1
  Cs  Cs2  1  0.441166  0.285500  0.546311  1
  Cs  Cs3  1  0.965340  0.196149  0.945926  1
  Cs  Cs4  1  0.441166  0.285500  0.953689  1
  Cs  Cs5  1  0.965340  0.196149  0.554074  1
  Cs  Cs6  1  0.543044  0.710953  0.462050  1
  Cs  Cs7  1  0.053804  0.801835  0.032253  1
  Cs  Cs8  1  0.351203  0.079059  0.250000  1
  Cs  Cs9  1  0.854166  0.411034  0.250000  1
  Cs  Cs10  1  0.640382  0.916627  0.750000  1
  Cs  Cs11  1  0.149900  0.595586  0.750000  1
  Sc  Sc12  1  0.228036  0.018613  0.750000  1
  Mo  Mo13  1  0.274515  0.517459  0.250000  1
  Mo  Mo14  1  0.776458  0.981149  0.250000  1
  Mo  Mo15  1  0.725320  0.480224  0.750000  1
  Se  Se16  1  0.290517  0.739568  0.250000  1
  Se  Se17  1  0.791883  0.757062  0.250000  1
  Se  Se18  1  0.706877  0.258245  0.750000  1
  Se  Se19  1  0.205295  0.263989  0.750000  1
  Se  Se20  1  0.483624  0.427114  0.250000  1
  Se  Se21  1  0.984778  0.069633  0.250000  1
  Se  Se22  1  0.517829  0.569470  0.750000  1
  Se  Se23  1  0.997996  0.925732  0.750000  1
  Se  Se24  1  0.163197  0.455951  0.089863  1
  Se  Se25  1  0.666957  0.047530  0.408470  1
  Se  Se26  1  0.834245  0.542338  0.589410  1
  Se  Se27  1  0.342859  0.954461  0.931711  1
  Se  Se28  1  0.834245  0.542338  0.910590  1
  Se  Se29  1  0.342859  0.954461  0.568289  1
  Se  Se30  1  0.163197  0.455951  0.410137  1
  Se  Se31  1  0.666957  0.047530  0.091530  1
