# generated using pymatgen
data_La4Pr5Th3(Si7Br3)2
_symmetry_space_group_name_H-M   'P 1'
_cell_length_a   4.12617100
_cell_length_b   11.84225543
_cell_length_c   16.69086677
_cell_angle_alpha   89.90003891
_cell_angle_beta   90.00000000
_cell_angle_gamma   90.00000000
_symmetry_Int_Tables_number   1
_chemical_formula_structural   La4Pr5Th3(Si7Br3)2
_chemical_formula_sum   'La4 Pr5 Th3 Si14 Br6'
_cell_volume   815.56743417
_cell_formula_units_Z   1
loop_
 _symmetry_equiv_pos_site_id
 _symmetry_equiv_pos_as_xyz
  1  'x, y, z'
loop_
 _atom_site_type_symbol
 _atom_site_label
 _atom_site_symmetry_multiplicity
 _atom_site_fract_x
 _atom_site_fract_y
 _atom_site_fract_z
 _atom_site_occupancy
  La  La0  1  0.500000  0.066789  0.878674  1
  La  La1  1  0.000000  0.934088  0.620199  1
  La  La2  1  0.500000  0.065950  0.119243  1
  La  La3  1  0.000000  0.932427  0.379605  1
  Pr  Pr4  1  0.500000  0.343273  0.501915  1
  Pr  Pr5  1  0.000000  0.656246  0.999995  1
  Pr  Pr6  1  0.000000  0.639529  0.743110  1
  Pr  Pr7  1  0.500000  0.358885  0.243277  1
  Pr  Pr8  1  0.000000  0.639446  0.257119  1
  Th  Th9  1  0.500000  0.364723  0.758260  1
  Th  Th10  1  0.500000  0.358297  0.000062  1
  Th  Th11  1  0.000000  0.641091  0.500993  1
  Si  Si12  1  0.000000  0.155729  0.998589  1
  Si  Si13  1  0.500000  0.843215  0.500579  1
  Si  Si14  1  0.500000  0.569320  0.875670  1
  Si  Si15  1  0.000000  0.429279  0.626640  1
  Si  Si16  1  0.500000  0.566425  0.122909  1
  Si  Si17  1  0.000000  0.432206  0.377367  1
  Si  Si18  1  0.000000  0.256152  0.871621  1
  Si  Si19  1  0.500000  0.744581  0.626625  1
  Si  Si20  1  0.000000  0.255698  0.124910  1
  Si  Si21  1  0.500000  0.743300  0.374578  1
  Si  Si22  1  0.000000  0.460333  0.878654  1
  Si  Si23  1  0.500000  0.538904  0.622434  1
  Si  Si24  1  0.500000  0.539670  0.378067  1
  Si  Si25  1  0.000000  0.459209  0.123016  1
  Br  Br26  1  0.500000  0.116204  0.691555  1
  Br  Br27  1  0.000000  0.890656  0.806721  1
  Br  Br28  1  0.000000  0.139069  0.499431  1
  Br  Br29  1  0.500000  0.860587  0.999319  1
  Br  Br30  1  0.500000  0.109188  0.306742  1
  Br  Br31  1  0.000000  0.889535  0.192118  1
