# generated using pymatgen
data_Sm2Pa(ZnPt)3
_symmetry_space_group_name_H-M   'P 1'
_cell_length_a   7.45684300
_cell_length_b   7.42875890
_cell_length_c   3.84654600
_cell_angle_alpha   90.00000000
_cell_angle_beta   90.00000000
_cell_angle_gamma   120.12513993
_symmetry_Int_Tables_number   1
_chemical_formula_structural   Sm2Pa(ZnPt)3
_chemical_formula_sum   'Sm2 Pa1 Zn3 Pt3'
_cell_volume   184.29934878
_cell_formula_units_Z   1
loop_
 _symmetry_equiv_pos_site_id
 _symmetry_equiv_pos_as_xyz
  1  'x, y, z'
loop_
 _atom_site_type_symbol
 _atom_site_label
 _atom_site_symmetry_multiplicity
 _atom_site_fract_x
 _atom_site_fract_y
 _atom_site_fract_z
 _atom_site_occupancy
  Sm  Sm0  1  0.003510  0.595861  0.000000  1
  Sm  Sm1  1  0.407649  0.404139  0.000000  1
  Pa  Pa2  1  0.591664  0.000000  0.000000  1
  Zn  Zn3  1  0.238236  0.000000  0.500000  1
  Zn  Zn4  1  0.008479  0.258641  0.500000  1
  Zn  Zn5  1  0.749838  0.741359  0.500000  1
  Pt  Pt6  1  0.353807  0.690821  0.500000  1
  Pt  Pt7  1  0.662987  0.309179  0.500000  1
  Pt  Pt8  1  0.983828  0.000000  0.000000  1
