# generated using pymatgen
data_BaCu2(SO4)4
_symmetry_space_group_name_H-M   'P 1'
_cell_length_a   6.76201227
_cell_length_b   6.76201196
_cell_length_c   9.22680080
_cell_angle_alpha   72.22662555
_cell_angle_beta   72.22662689
_cell_angle_gamma   84.14792873
_symmetry_Int_Tables_number   1
_chemical_formula_structural   BaCu2(SO4)4
_chemical_formula_sum   'Ba1 Cu2 S4 O16'
_cell_volume   382.56400818
_cell_formula_units_Z   1
loop_
 _symmetry_equiv_pos_site_id
 _symmetry_equiv_pos_as_xyz
  1  'x, y, z'
loop_
 _atom_site_type_symbol
 _atom_site_label
 _atom_site_symmetry_multiplicity
 _atom_site_fract_x
 _atom_site_fract_y
 _atom_site_fract_z
 _atom_site_occupancy
  Ba  Ba0  1  0.000000  0.000000  0.000000  1
  Cu  Cu1  1  0.000000  0.000000  0.500000  1
  Cu  Cu2  1  0.500000  0.500000  0.500000  1
  S  S3  1  0.093946  0.597755  0.719135  1
  S  S4  1  0.597755  0.093946  0.719135  1
  S  S5  1  0.906054  0.402245  0.280865  1
  S  S6  1  0.402245  0.906054  0.280865  1
  O  O7  1  0.330599  0.617423  0.655701  1
  O  O8  1  0.617423  0.330599  0.655701  1
  O  O9  1  0.669401  0.382577  0.344299  1
  O  O10  1  0.382577  0.669401  0.344299  1
  O  O11  1  0.034430  0.700479  0.843858  1
  O  O12  1  0.700479  0.034430  0.843858  1
  O  O13  1  0.965570  0.299521  0.156142  1
  O  O14  1  0.299521  0.965570  0.156142  1
  O  O15  1  0.996806  0.709311  0.585171  1
  O  O16  1  0.709311  0.996806  0.585171  1
  O  O17  1  0.003194  0.290689  0.414829  1
  O  O18  1  0.290689  0.003194  0.414829  1
  O  O19  1  0.032145  0.382175  0.765919  1
  O  O20  1  0.382175  0.032145  0.765919  1
  O  O21  1  0.967855  0.617825  0.234081  1
  O  O22  1  0.617825  0.967855  0.234081  1
