# generated using pymatgen
data_HoEr9(Bi3C)2
_symmetry_space_group_name_H-M   'P 1'
_cell_length_a   6.44740600
_cell_length_b   9.07642852
_cell_length_c   9.07704302
_cell_angle_alpha   120.00168747
_cell_angle_beta   90.00262820
_cell_angle_gamma   90.00016314
_symmetry_Int_Tables_number   1
_chemical_formula_structural   HoEr9(Bi3C)2
_chemical_formula_sum   'Ho1 Er9 Bi6 C2'
_cell_volume   460.01040003
_cell_formula_units_Z   1
loop_
 _symmetry_equiv_pos_site_id
 _symmetry_equiv_pos_as_xyz
  1  'x, y, z'
loop_
 _atom_site_type_symbol
 _atom_site_label
 _atom_site_symmetry_multiplicity
 _atom_site_fract_x
 _atom_site_fract_y
 _atom_site_fract_z
 _atom_site_occupancy
  Ho  Ho0  1  0.000019  0.333329  0.666654  1
  Er  Er1  1  0.499950  0.333329  0.666655  1
  Er  Er2  1  0.499965  0.666675  0.333343  1
  Er  Er3  1  0.000053  0.666677  0.333342  1
  Er  Er4  1  0.749983  0.206815  0.999969  1
  Er  Er5  1  0.749987  0.793074  0.793076  1
  Er  Er6  1  0.749992  0.999955  0.206855  1
  Er  Er7  1  0.250018  0.793160  0.000036  1
  Er  Er8  1  0.250025  0.206939  0.206931  1
  Er  Er9  1  0.250011  0.000043  0.793117  1
  Bi  Bi10  1  0.749955  0.598747  0.000057  1
  Bi  Bi11  1  0.749951  0.401378  0.401330  1
  Bi  Bi12  1  0.749954  0.999883  0.598625  1
  Bi  Bi13  1  0.250050  0.401320  0.000094  1
  Bi  Bi14  1  0.250045  0.598706  0.598608  1
  Bi  Bi15  1  0.250043  0.999967  0.401301  1
  C  C16  1  0.500015  0.000000  0.000005  1
  C  C17  1  0.999984  0.000001  0.000001  1
