# generated using pymatgen
data_Dy20RuRh11
_symmetry_space_group_name_H-M   'P 1'
_cell_length_a   10.87146000
_cell_length_b   10.87146000
_cell_length_c   6.37897200
_cell_angle_alpha   90.00000000
_cell_angle_beta   90.00000000
_cell_angle_gamma   90.00000000
_symmetry_Int_Tables_number   1
_chemical_formula_structural   Dy20RuRh11
_chemical_formula_sum   'Dy20 Ru1 Rh11'
_cell_volume   753.92204143
_cell_formula_units_Z   1
loop_
 _symmetry_equiv_pos_site_id
 _symmetry_equiv_pos_as_xyz
  1  'x, y, z'
loop_
 _atom_site_type_symbol
 _atom_site_label
 _atom_site_symmetry_multiplicity
 _atom_site_fract_x
 _atom_site_fract_y
 _atom_site_fract_z
 _atom_site_occupancy
  Dy  Dy0  1  0.292394  0.087675  0.376389  1
  Dy  Dy1  1  0.292904  0.912366  0.881502  1
  Dy  Dy2  1  0.707096  0.087634  0.881502  1
  Dy  Dy3  1  0.707606  0.912325  0.376389  1
  Dy  Dy4  1  0.587634  0.792904  0.881502  1
  Dy  Dy5  1  0.587675  0.207606  0.376389  1
  Dy  Dy6  1  0.412325  0.792394  0.376389  1
  Dy  Dy7  1  0.412366  0.207096  0.881502  1
  Dy  Dy8  1  0.209428  0.410970  0.621112  1
  Dy  Dy9  1  0.209355  0.588661  0.120620  1
  Dy  Dy10  1  0.790645  0.411339  0.120620  1
  Dy  Dy11  1  0.790572  0.589030  0.621112  1
  Dy  Dy12  1  0.911339  0.709355  0.120620  1
  Dy  Dy13  1  0.910970  0.290572  0.621112  1
  Dy  Dy14  1  0.089030  0.709428  0.621112  1
  Dy  Dy15  1  0.088661  0.290645  0.120620  1
  Dy  Dy16  1  0.000000  0.000000  0.499146  1
  Dy  Dy17  1  0.000000  0.000000  0.999057  1
  Dy  Dy18  1  0.500000  0.500000  0.999057  1
  Dy  Dy19  1  0.500000  0.500000  0.499146  1
  Ru  Ru20  1  0.500000  0.000000  0.126186  1
  Rh  Rh21  1  0.847097  0.154470  0.250355  1
  Rh  Rh22  1  0.847105  0.846046  0.749962  1
  Rh  Rh23  1  0.152895  0.153954  0.749962  1
  Rh  Rh24  1  0.152903  0.845530  0.250355  1
  Rh  Rh25  1  0.653954  0.347105  0.749962  1
  Rh  Rh26  1  0.654470  0.652903  0.250355  1
  Rh  Rh27  1  0.345530  0.347097  0.250355  1
  Rh  Rh28  1  0.346046  0.652895  0.749962  1
  Rh  Rh29  1  0.500000  0.000000  0.624810  1
  Rh  Rh30  1  0.000000  0.500000  0.876366  1
  Rh  Rh31  1  0.000000  0.500000  0.376481  1
