# generated using pymatgen
data_Dy5Tl3InRuPt
_symmetry_space_group_name_H-M   'P 1'
_cell_length_a   3.63875300
_cell_length_b   8.15391499
_cell_length_c   18.47113947
_cell_angle_alpha   89.80927692
_cell_angle_beta   90.00000000
_cell_angle_gamma   90.00000000
_symmetry_Int_Tables_number   1
_chemical_formula_structural   Dy5Tl3InRuPt
_chemical_formula_sum   'Dy10 Tl6 In2 Ru2 Pt2'
_cell_volume   548.03719822
_cell_formula_units_Z   2
loop_
 _symmetry_equiv_pos_site_id
 _symmetry_equiv_pos_as_xyz
  1  'x, y, z'
loop_
 _atom_site_type_symbol
 _atom_site_label
 _atom_site_symmetry_multiplicity
 _atom_site_fract_x
 _atom_site_fract_y
 _atom_site_fract_z
 _atom_site_occupancy
  Dy  Dy0  1  0.000000  0.115296  0.412010  1
  Dy  Dy1  1  0.000000  0.884704  0.587990  1
  Dy  Dy2  1  0.000000  0.383996  0.911174  1
  Dy  Dy3  1  0.000000  0.616004  0.088826  1
  Dy  Dy4  1  0.000000  0.234712  0.222888  1
  Dy  Dy5  1  0.000000  0.765288  0.777112  1
  Dy  Dy6  1  0.000000  0.246954  0.720563  1
  Dy  Dy7  1  0.000000  0.753046  0.279437  1
  Dy  Dy8  1  0.000000  0.000000  0.000000  1
  Dy  Dy9  1  0.000000  0.500000  0.500000  1
  Tl  Tl10  1  0.500000  0.425070  0.353569  1
  Tl  Tl11  1  0.500000  0.574930  0.646431  1
  Tl  Tl12  1  0.500000  0.068474  0.850333  1
  Tl  Tl13  1  0.500000  0.931526  0.149667  1
  Tl  Tl14  1  0.500000  0.292504  0.063708  1
  Tl  Tl15  1  0.500000  0.707496  0.936292  1
  In  In16  1  0.500000  0.204734  0.568521  1
  In  In17  1  0.500000  0.795266  0.431479  1
  Ru  Ru18  1  0.500000  0.017065  0.305879  1
  Ru  Ru19  1  0.500000  0.982935  0.694121  1
  Pt  Pt20  1  0.500000  0.476830  0.802090  1
  Pt  Pt21  1  0.500000  0.523170  0.197910  1
