# generated using pymatgen
data_Dy8Er9Lu3Sn16
_symmetry_space_group_name_H-M   'P 1'
_cell_length_a   7.97779521
_cell_length_b   8.11739821
_cell_length_c   15.36049900
_cell_angle_alpha   90.00000000
_cell_angle_beta   90.00000000
_cell_angle_gamma   90.02624302
_symmetry_Int_Tables_number   1
_chemical_formula_structural   Dy8Er9Lu3Sn16
_chemical_formula_sum   'Dy8 Er9 Lu3 Sn16'
_cell_volume   994.72953758
_cell_formula_units_Z   1
loop_
 _symmetry_equiv_pos_site_id
 _symmetry_equiv_pos_as_xyz
  1  'x, y, z'
loop_
 _atom_site_type_symbol
 _atom_site_label
 _atom_site_symmetry_multiplicity
 _atom_site_fract_x
 _atom_site_fract_y
 _atom_site_fract_z
 _atom_site_occupancy
  Dy  Dy0  1  0.521571  0.320420  0.902870  1
  Dy  Dy1  1  0.021374  0.179400  0.597142  1
  Dy  Dy2  1  0.478502  0.679489  0.402801  1
  Dy  Dy3  1  0.978538  0.820514  0.097165  1
  Dy  Dy4  1  0.478502  0.679489  0.097199  1
  Dy  Dy5  1  0.978538  0.820514  0.402835  1
  Dy  Dy6  1  0.521571  0.320420  0.597130  1
  Dy  Dy7  1  0.021374  0.179400  0.902858  1
  Er  Er8  1  0.367511  0.836474  0.877521  1
  Er  Er9  1  0.867163  0.663799  0.622470  1
  Er  Er10  1  0.632600  0.163648  0.377509  1
  Er  Er11  1  0.132614  0.336343  0.122556  1
  Er  Er12  1  0.632600  0.163648  0.122491  1
  Er  Er13  1  0.132614  0.336343  0.377444  1
  Er  Er14  1  0.367511  0.836474  0.622479  1
  Er  Er15  1  0.867163  0.663799  0.877530  1
  Er  Er16  1  0.197818  0.503818  0.750000  1
  Lu  Lu17  1  0.697963  0.996060  0.750000  1
  Lu  Lu18  1  0.802102  0.496089  0.250000  1
  Lu  Lu19  1  0.302109  0.003907  0.250000  1
  Sn  Sn20  1  0.293987  0.036725  0.041853  1
  Sn  Sn21  1  0.793982  0.463331  0.458137  1
  Sn  Sn22  1  0.705991  0.963280  0.541814  1
  Sn  Sn23  1  0.205972  0.536745  0.958486  1
  Sn  Sn24  1  0.705991  0.963280  0.958186  1
  Sn  Sn25  1  0.205972  0.536745  0.541514  1
  Sn  Sn26  1  0.293987  0.036725  0.458147  1
  Sn  Sn27  1  0.793982  0.463331  0.041863  1
  Sn  Sn28  1  0.564843  0.620079  0.750000  1
  Sn  Sn29  1  0.063794  0.880551  0.750000  1
  Sn  Sn30  1  0.436117  0.380188  0.250000  1
  Sn  Sn31  1  0.936008  0.119768  0.250000  1
  Sn  Sn32  1  0.330228  0.147594  0.750000  1
  Sn  Sn33  1  0.829941  0.351399  0.750000  1
  Sn  Sn34  1  0.669818  0.851489  0.250000  1
  Sn  Sn35  1  0.169650  0.648720  0.250000  1
