# generated using pymatgen
data_Dy2Th3Ge3C
_symmetry_space_group_name_H-M   'P 1'
_cell_length_a   6.40437600
_cell_length_b   8.82133343
_cell_length_c   8.82146207
_cell_angle_alpha   119.99952174
_cell_angle_beta   90.00000000
_cell_angle_gamma   90.00000000
_symmetry_Int_Tables_number   1
_chemical_formula_structural   Dy2Th3Ge3C
_chemical_formula_sum   'Dy4 Th6 Ge6 C2'
_cell_volume   431.60290129
_cell_formula_units_Z   2
loop_
 _symmetry_equiv_pos_site_id
 _symmetry_equiv_pos_as_xyz
  1  'x, y, z'
loop_
 _atom_site_type_symbol
 _atom_site_label
 _atom_site_symmetry_multiplicity
 _atom_site_fract_x
 _atom_site_fract_y
 _atom_site_fract_z
 _atom_site_occupancy
  Dy  Dy0  1  0.499999  0.333324  0.666666  1
  Dy  Dy1  1  0.499999  0.666660  0.333334  1
  Dy  Dy2  1  0.999999  0.666676  0.333334  1
  Dy  Dy3  1  0.999999  0.333340  0.666666  1
  Th  Th4  1  0.749974  0.231301  0.000000  1
  Th  Th5  1  0.750012  0.768655  0.768745  1
  Th  Th6  1  0.750012  0.999910  0.231255  1
  Th  Th7  1  0.249974  0.768699  0.000000  1
  Th  Th8  1  0.250012  0.231345  0.231255  1
  Th  Th9  1  0.250012  0.000090  0.768745  1
  Ge  Ge10  1  0.749789  0.598031  0.000000  1
  Ge  Ge11  1  0.750108  0.401873  0.401900  1
  Ge  Ge12  1  0.750108  0.999973  0.598100  1
  Ge  Ge13  1  0.249789  0.401969  0.000000  1
  Ge  Ge14  1  0.250108  0.598127  0.598100  1
  Ge  Ge15  1  0.250108  0.000027  0.401900  1
  C  C16  1  0.499999  0.999970  0.000000  1
  C  C17  1  0.999999  0.000030  0.000000  1
