# generated using pymatgen
data_La5Yb6Y9Sn16
_symmetry_space_group_name_H-M   'P 1'
_cell_length_a   7.98319502
_cell_length_b   8.44900686
_cell_length_c   15.95372106
_cell_angle_alpha   90.08380818
_cell_angle_beta   90.09713946
_cell_angle_gamma   89.71983686
_symmetry_Int_Tables_number   1
_chemical_formula_structural   La5Yb6Y9Sn16
_chemical_formula_sum   'La5 Yb6 Y9 Sn16'
_cell_volume   1076.06404486
_cell_formula_units_Z   1
loop_
 _symmetry_equiv_pos_site_id
 _symmetry_equiv_pos_as_xyz
  1  'x, y, z'
loop_
 _atom_site_type_symbol
 _atom_site_label
 _atom_site_symmetry_multiplicity
 _atom_site_fract_x
 _atom_site_fract_y
 _atom_site_fract_z
 _atom_site_occupancy
  La  La0  1  0.505256  0.683118  0.596220  1
  La  La1  1  0.006542  0.820428  0.906148  1
  La  La2  1  0.493519  0.316063  0.096137  1
  La  La3  1  0.993395  0.181364  0.407489  1
  La  La4  1  0.491424  0.318398  0.403845  1
  Yb  Yb5  1  0.995056  0.184339  0.093171  1
  Yb  Yb6  1  0.504240  0.685275  0.903842  1
  Yb  Yb7  1  0.004160  0.817301  0.594462  1
  Yb  Yb8  1  0.335521  0.992044  0.749502  1
  Yb  Yb9  1  0.163780  0.493210  0.249081  1
  Yb  Yb10  1  0.665572  0.004828  0.248716  1
  Y  Y11  1  0.671504  0.165991  0.624742  1
  Y  Y12  1  0.174056  0.331653  0.875999  1
  Y  Y13  1  0.328619  0.830790  0.122918  1
  Y  Y14  1  0.832440  0.670360  0.377133  1
  Y  Y15  1  0.329216  0.829459  0.376232  1
  Y  Y16  1  0.829538  0.668420  0.122907  1
  Y  Y17  1  0.671091  0.165233  0.875148  1
  Y  Y18  1  0.172375  0.331862  0.625718  1
  Y  Y19  1  0.835730  0.507263  0.751069  1
  Sn  Sn20  1  0.669000  0.961281  0.461292  1
  Sn  Sn21  1  0.170157  0.537408  0.038677  1
  Sn  Sn22  1  0.331172  0.038142  0.961227  1
  Sn  Sn23  1  0.827496  0.460812  0.540674  1
  Sn  Sn24  1  0.326504  0.037366  0.539195  1
  Sn  Sn25  1  0.825804  0.465179  0.957065  1
  Sn  Sn26  1  0.673272  0.963896  0.039994  1
  Sn  Sn27  1  0.171407  0.537869  0.461031  1
  Sn  Sn28  1  0.475101  0.384019  0.750465  1
  Sn  Sn29  1  0.971837  0.128314  0.751191  1
  Sn  Sn30  1  0.530374  0.617699  0.249830  1
  Sn  Sn31  1  0.030663  0.874671  0.250639  1
  Sn  Sn32  1  0.715525  0.860738  0.749517  1
  Sn  Sn33  1  0.203039  0.634244  0.749357  1
  Sn  Sn34  1  0.285598  0.133335  0.249214  1
  Sn  Sn35  1  0.790014  0.367631  0.250153  1
