# generated using pymatgen
data_Tb3In3GaNi2
_symmetry_space_group_name_H-M   'P 1'
_cell_length_a   7.53799200
_cell_length_b   7.53799274
_cell_length_c   3.88471400
_cell_angle_alpha   90.00000000
_cell_angle_beta   90.00000000
_cell_angle_gamma   119.99998797
_symmetry_Int_Tables_number   1
_chemical_formula_structural   Tb3In3GaNi2
_chemical_formula_sum   'Tb3 In3 Ga1 Ni2'
_cell_volume   191.16180486
_cell_formula_units_Z   1
loop_
 _symmetry_equiv_pos_site_id
 _symmetry_equiv_pos_as_xyz
  1  'x, y, z'
loop_
 _atom_site_type_symbol
 _atom_site_label
 _atom_site_symmetry_multiplicity
 _atom_site_fract_x
 _atom_site_fract_y
 _atom_site_fract_z
 _atom_site_occupancy
  Tb  Tb0  1  0.016966  0.601770  0.500000  1
  Tb  Tb1  1  0.584804  0.983034  0.500000  1
  Tb  Tb2  1  0.398230  0.415196  0.500000  1
  In  In3  1  0.746725  0.751842  0.000000  1
  In  In4  1  0.005116  0.253275  0.000000  1
  In  In5  1  0.248158  0.994884  0.000000  1
  Ga  Ga6  1  0.666667  0.333333  0.000000  1
  Ni  Ni7  1  0.000000  0.000000  0.500000  1
  Ni  Ni8  1  0.333333  0.666667  0.000000  1
