# generated using pymatgen
data_Sc4Al6TcIr
_symmetry_space_group_name_H-M   'P 1'
_cell_length_a   5.29716100
_cell_length_b   5.29716126
_cell_length_c   8.61658500
_cell_angle_alpha   90.00000000
_cell_angle_beta   90.00000000
_cell_angle_gamma   120.00000465
_symmetry_Int_Tables_number   1
_chemical_formula_structural   Sc4Al6TcIr
_chemical_formula_sum   'Sc4 Al6 Tc1 Ir1'
_cell_volume   209.38817645
_cell_formula_units_Z   1
loop_
 _symmetry_equiv_pos_site_id
 _symmetry_equiv_pos_as_xyz
  1  'x, y, z'
loop_
 _atom_site_type_symbol
 _atom_site_label
 _atom_site_symmetry_multiplicity
 _atom_site_fract_x
 _atom_site_fract_y
 _atom_site_fract_z
 _atom_site_occupancy
  Sc  Sc0  1  0.333333  0.666667  0.056918  1
  Sc  Sc1  1  0.666667  0.333333  0.552847  1
  Sc  Sc2  1  0.333333  0.666667  0.447153  1
  Sc  Sc3  1  0.666667  0.333333  0.943082  1
  Al  Al4  1  0.834566  0.669131  0.252036  1
  Al  Al5  1  0.165434  0.834566  0.747964  1
  Al  Al6  1  0.669131  0.834566  0.747964  1
  Al  Al7  1  0.330869  0.165434  0.252036  1
  Al  Al8  1  0.834566  0.165434  0.252036  1
  Al  Al9  1  0.165434  0.330869  0.747964  1
  Tc  Tc10  1  0.000000  0.000000  0.000000  1
  Ir  Ir11  1  0.000000  0.000000  0.500000  1
