# generated using pymatgen
data_Hf8Cr8Si13Ge
_symmetry_space_group_name_H-M   'P 1'
_cell_length_a   5.04756222
_cell_length_b   9.71368095
_cell_length_c   9.71399212
_cell_angle_alpha   86.17713366
_cell_angle_beta   75.02282060
_cell_angle_gamma   75.01652599
_symmetry_Int_Tables_number   1
_chemical_formula_structural   Hf8Cr8Si13Ge
_chemical_formula_sum   'Hf8 Cr8 Si13 Ge1'
_cell_volume   444.45794188
_cell_formula_units_Z   1
loop_
 _symmetry_equiv_pos_site_id
 _symmetry_equiv_pos_as_xyz
  1  'x, y, z'
loop_
 _atom_site_type_symbol
 _atom_site_label
 _atom_site_symmetry_multiplicity
 _atom_site_fract_x
 _atom_site_fract_y
 _atom_site_fract_z
 _atom_site_occupancy
  Hf  Hf0  1  0.137671  0.999920  0.721340  1
  Hf  Hf1  1  0.858886  0.000097  0.278656  1
  Hf  Hf2  1  0.858942  0.278628  0.000091  1
  Hf  Hf3  1  0.137624  0.721358  0.999964  1
  Hf  Hf4  1  0.501736  0.197090  0.802825  1
  Hf  Hf5  1  0.501667  0.802858  0.197122  1
  Hf  Hf6  1  0.304885  0.197255  0.197268  1
  Hf  Hf7  1  0.699398  0.802780  0.802754  1
  Cr  Cr8  1  0.397782  0.499934  0.204255  1
  Cr  Cr9  1  0.101660  0.500177  0.795724  1
  Cr  Cr10  1  0.101625  0.795732  0.500203  1
  Cr  Cr11  1  0.397686  0.204361  0.499919  1
  Cr  Cr12  1  0.602076  0.795922  0.499786  1
  Cr  Cr13  1  0.898536  0.203935  0.500212  1
  Cr  Cr14  1  0.898439  0.500199  0.203885  1
  Cr  Cr15  1  0.602153  0.499734  0.795989  1
  Si  Si16  1  0.290534  0.999967  0.415983  1
  Si  Si17  1  0.708065  0.000053  0.583928  1
  Si  Si18  1  0.708038  0.583994  0.000066  1
  Si  Si19  1  0.290553  0.415942  0.999997  1
  Si  Si20  1  0.000259  0.292580  0.707418  1
  Si  Si21  1  0.000151  0.707382  0.292611  1
  Si  Si22  1  0.709487  0.292834  0.292769  1
  Si  Si23  1  0.293490  0.707248  0.707292  1
  Si  Si24  1  0.501098  0.408946  0.591081  1
  Si  Si25  1  0.501407  0.590999  0.408853  1
  Si  Si26  1  0.088479  0.409144  0.408968  1
  Si  Si27  1  0.907900  0.590952  0.591032  1
  Si  Si28  1  0.748989  0.000125  0.000123  1
  Ge  Ge29  1  0.250785  0.999859  0.999888  1
