# generated using pymatgen
data_Er6Al24Os5Pd3
_symmetry_space_group_name_H-M   'P 1'
_cell_length_a   8.80348935
_cell_length_b   8.82397455
_cell_length_c   9.52621389
_cell_angle_alpha   90.17025461
_cell_angle_beta   89.65471870
_cell_angle_gamma   119.43649985
_symmetry_Int_Tables_number   1
_chemical_formula_structural   Er6Al24Os5Pd3
_chemical_formula_sum   'Er6 Al24 Os5 Pd3'
_cell_volume   644.46639380
_cell_formula_units_Z   1
loop_
 _symmetry_equiv_pos_site_id
 _symmetry_equiv_pos_as_xyz
  1  'x, y, z'
loop_
 _atom_site_type_symbol
 _atom_site_label
 _atom_site_symmetry_multiplicity
 _atom_site_fract_x
 _atom_site_fract_y
 _atom_site_fract_z
 _atom_site_occupancy
  Er  Er0  1  0.187669  0.384748  0.251986  1
  Er  Er1  1  0.812331  0.615252  0.748014  1
  Er  Er2  1  0.612434  0.814837  0.252756  1
  Er  Er3  1  0.387566  0.185163  0.747244  1
  Er  Er4  1  0.196769  0.808591  0.251994  1
  Er  Er5  1  0.803231  0.191409  0.748006  1
  Al  Al6  1  0.334997  0.670616  0.028832  1
  Al  Al7  1  0.665003  0.329384  0.971168  1
  Al  Al8  1  0.669105  0.331759  0.526185  1
  Al  Al9  1  0.330895  0.668241  0.473815  1
  Al  Al10  1  0.157335  0.324746  0.576729  1
  Al  Al11  1  0.842665  0.675254  0.423271  1
  Al  Al12  1  0.674114  0.841101  0.576927  1
  Al  Al13  1  0.836914  0.676893  0.079596  1
  Al  Al14  1  0.325886  0.158899  0.423073  1
  Al  Al15  1  0.163086  0.323107  0.920404  1
  Al  Al16  1  0.163505  0.835008  0.576434  1
  Al  Al17  1  0.325032  0.158619  0.077433  1
  Al  Al18  1  0.836495  0.164992  0.423566  1
  Al  Al19  1  0.674968  0.841381  0.922567  1
  Al  Al20  1  0.831500  0.159041  0.078602  1
  Al  Al21  1  0.168500  0.840959  0.921398  1
  Al  Al22  1  0.561284  0.125679  0.249807  1
  Al  Al23  1  0.438716  0.874321  0.750193  1
  Al  Al24  1  0.874665  0.438182  0.252225  1
  Al  Al25  1  0.125335  0.561818  0.747775  1
  Al  Al26  1  0.561207  0.438243  0.249756  1
  Al  Al27  1  0.438793  0.561757  0.750244  1
  Al  Al28  1  0.998750  0.002959  0.250250  1
  Al  Al29  1  0.001250  0.997041  0.749750  1
  Os  Os30  1  0.500000  0.000000  0.000000  1
  Os  Os31  1  0.500000  0.000000  0.500000  1
  Os  Os32  1  0.000000  0.500000  0.500000  1
  Os  Os33  1  0.000000  0.000000  0.000000  1
  Os  Os34  1  0.000000  0.000000  0.500000  1
  Pd  Pd35  1  0.000000  0.500000  0.000000  1
  Pd  Pd36  1  0.500000  0.500000  0.000000  1
  Pd  Pd37  1  0.500000  0.500000  0.500000  1
