# generated using pymatgen
data_Er8Tm2(SnSb)3
_symmetry_space_group_name_H-M   'P 1'
_cell_length_a   8.88222900
_cell_length_b   8.87577891
_cell_length_c   6.38424934
_cell_angle_alpha   90.03254339
_cell_angle_beta   90.00000000
_cell_angle_gamma   120.02403847
_symmetry_Int_Tables_number   1
_chemical_formula_structural   Er8Tm2(SnSb)3
_chemical_formula_sum   'Er8 Tm2 Sn3 Sb3'
_cell_volume   435.77626364
_cell_formula_units_Z   1
loop_
 _symmetry_equiv_pos_site_id
 _symmetry_equiv_pos_as_xyz
  1  'x, y, z'
loop_
 _atom_site_type_symbol
 _atom_site_label
 _atom_site_symmetry_multiplicity
 _atom_site_fract_x
 _atom_site_fract_y
 _atom_site_fract_z
 _atom_site_occupancy
  Er  Er0  1  0.001124  0.760531  0.750033  1
  Er  Er1  1  0.001234  0.242064  0.250014  1
  Er  Er2  1  0.759170  0.757936  0.249986  1
  Er  Er3  1  0.757723  0.000000  0.750000  1
  Er  Er4  1  0.240594  0.239469  0.749967  1
  Er  Er5  1  0.239206  0.000000  0.250000  1
  Er  Er6  1  0.666585  0.333676  0.500032  1
  Er  Er7  1  0.332907  0.666324  0.999968  1
  Tm  Tm8  1  0.332814  0.666325  0.500081  1
  Tm  Tm9  1  0.666491  0.333675  0.999919  1
  Sn  Sn10  1  0.393842  0.000000  0.750000  1
  Sn  Sn11  1  0.392997  0.393165  0.250004  1
  Sn  Sn12  1  0.999832  0.606835  0.249996  1
  Sb  Sb13  1  0.999364  0.391456  0.749964  1
  Sb  Sb14  1  0.607908  0.608544  0.750036  1
  Sb  Sb15  1  0.608211  0.000000  0.250000  1
