# generated using pymatgen
data_Ho5In4RuPt
_symmetry_space_group_name_H-M   'P 1'
_cell_length_a   3.61419400
_cell_length_b   8.05968119
_cell_length_c   18.25982705
_cell_angle_alpha   89.94357657
_cell_angle_beta   90.00000000
_cell_angle_gamma   90.00000000
_symmetry_Int_Tables_number   1
_chemical_formula_structural   Ho5In4RuPt
_chemical_formula_sum   'Ho10 In8 Ru2 Pt2'
_cell_volume   531.89483430
_cell_formula_units_Z   2
loop_
 _symmetry_equiv_pos_site_id
 _symmetry_equiv_pos_as_xyz
  1  'x, y, z'
loop_
 _atom_site_type_symbol
 _atom_site_label
 _atom_site_symmetry_multiplicity
 _atom_site_fract_x
 _atom_site_fract_y
 _atom_site_fract_z
 _atom_site_occupancy
  Ho  Ho0  1  0.000000  0.115796  0.412055  1
  Ho  Ho1  1  0.000000  0.884204  0.587945  1
  Ho  Ho2  1  0.000000  0.382239  0.913945  1
  Ho  Ho3  1  0.000000  0.617761  0.086055  1
  Ho  Ho4  1  0.000000  0.235198  0.221912  1
  Ho  Ho5  1  0.000000  0.764802  0.778088  1
  Ho  Ho6  1  0.000000  0.248473  0.719852  1
  Ho  Ho7  1  0.000000  0.751527  0.280148  1
  Ho  Ho8  1  0.000000  0.000000  0.000000  1
  Ho  Ho9  1  0.000000  0.500000  0.500000  1
  In  In10  1  0.500000  0.423957  0.351267  1
  In  In11  1  0.500000  0.576043  0.648733  1
  In  In12  1  0.500000  0.071258  0.849954  1
  In  In13  1  0.500000  0.928742  0.150046  1
  In  In14  1  0.500000  0.291614  0.066280  1
  In  In15  1  0.500000  0.708386  0.933720  1
  In  In16  1  0.500000  0.206404  0.567819  1
  In  In17  1  0.500000  0.793596  0.432181  1
  Ru  Ru18  1  0.500000  0.021088  0.303649  1
  Ru  Ru19  1  0.500000  0.978912  0.696351  1
  Pt  Pt20  1  0.500000  0.476850  0.803455  1
  Pt  Pt21  1  0.500000  0.523150  0.196545  1
