# generated using pymatgen
data_Yb2DyY(ReB4)4
_symmetry_space_group_name_H-M   'P 1'
_cell_length_a   3.60256100
_cell_length_b   5.97642816
_cell_length_c   11.56869143
_cell_angle_alpha   89.99745625
_cell_angle_beta   90.00000000
_cell_angle_gamma   90.00000000
_symmetry_Int_Tables_number   1
_chemical_formula_structural   Yb2DyY(ReB4)4
_chemical_formula_sum   'Yb2 Dy1 Y1 Re4 B16'
_cell_volume   249.07909734
_cell_formula_units_Z   1
loop_
 _symmetry_equiv_pos_site_id
 _symmetry_equiv_pos_as_xyz
  1  'x, y, z'
loop_
 _atom_site_type_symbol
 _atom_site_label
 _atom_site_symmetry_multiplicity
 _atom_site_fract_x
 _atom_site_fract_y
 _atom_site_fract_z
 _atom_site_occupancy
  Yb  Yb0  1  0.000000  0.872308  0.850233  1
  Yb  Yb1  1  0.000000  0.627929  0.349694  1
  Dy  Dy2  1  0.000000  0.127259  0.150433  1
  Y  Y3  1  0.000000  0.372838  0.650523  1
  Re  Re4  1  0.000000  0.131653  0.415103  1
  Re  Re5  1  0.000000  0.868810  0.584930  1
  Re  Re6  1  0.000000  0.631152  0.085029  1
  Re  Re7  1  0.000000  0.368247  0.915383  1
  B  B8  1  0.500000  0.477302  0.192498  1
  B  B9  1  0.500000  0.523572  0.808230  1
  B  B10  1  0.500000  0.976699  0.307910  1
  B  B11  1  0.500000  0.022389  0.692734  1
  B  B12  1  0.500000  0.285917  0.315113  1
  B  B13  1  0.500000  0.715103  0.684955  1
  B  B14  1  0.500000  0.785195  0.184807  1
  B  B15  1  0.500000  0.213835  0.815539  1
  B  B16  1  0.500000  0.364426  0.467496  1
  B  B17  1  0.500000  0.636236  0.531411  1
  B  B18  1  0.500000  0.863799  0.031754  1
  B  B19  1  0.500000  0.135561  0.967921  1
  B  B20  1  0.500000  0.387010  0.047079  1
  B  B21  1  0.500000  0.615043  0.952259  1
  B  B22  1  0.500000  0.884949  0.452006  1
  B  B23  1  0.500000  0.112767  0.546960  1
