# generated using pymatgen
data_Nb3Fe2SiN
_symmetry_space_group_name_H-M   'P 1'
_cell_length_a   8.00337083
_cell_length_b   8.00298411
_cell_length_c   8.00298901
_cell_angle_alpha   60.00464407
_cell_angle_beta   60.00373072
_cell_angle_gamma   60.00497947
_symmetry_Int_Tables_number   1
_chemical_formula_structural   Nb3Fe2SiN
_chemical_formula_sum   'Nb12 Fe8 Si4 N4'
_cell_volume   362.49827529
_cell_formula_units_Z   4
loop_
 _symmetry_equiv_pos_site_id
 _symmetry_equiv_pos_as_xyz
  1  'x, y, z'
loop_
 _atom_site_type_symbol
 _atom_site_label
 _atom_site_symmetry_multiplicity
 _atom_site_fract_x
 _atom_site_fract_y
 _atom_site_fract_z
 _atom_site_occupancy
  Nb  Nb0  1  0.799168  0.799163  0.200824  1
  Nb  Nb1  1  0.200870  0.200804  0.799158  1
  Nb  Nb2  1  0.799174  0.200797  0.799158  1
  Nb  Nb3  1  0.200842  0.799163  0.200828  1
  Nb  Nb4  1  0.200820  0.799181  0.799172  1
  Nb  Nb5  1  0.799152  0.200824  0.200876  1
  Nb  Nb6  1  0.450832  0.450837  0.049176  1
  Nb  Nb7  1  0.049130  0.049196  0.450842  1
  Nb  Nb8  1  0.450826  0.049203  0.450842  1
  Nb  Nb9  1  0.049158  0.450837  0.049172  1
  Nb  Nb10  1  0.049180  0.450819  0.450828  1
  Nb  Nb11  1  0.450848  0.049176  0.049124  1
  Fe  Fe12  1  0.735667  0.421397  0.421442  1
  Fe  Fe13  1  0.421459  0.735622  0.421432  1
  Fe  Fe14  1  0.421454  0.421379  0.735670  1
  Fe  Fe15  1  0.421475  0.421402  0.421467  1
  Fe  Fe16  1  0.514333  0.828603  0.828558  1
  Fe  Fe17  1  0.828541  0.514378  0.828568  1
  Fe  Fe18  1  0.828546  0.828621  0.514330  1
  Fe  Fe19  1  0.828525  0.828598  0.828533  1
  Si  Si20  1  0.125000  0.625000  0.625000  1
  Si  Si21  1  0.625000  0.125000  0.625000  1
  Si  Si22  1  0.625000  0.625000  0.125000  1
  Si  Si23  1  0.625000  0.625000  0.625000  1
  N  N24  1  0.625000  0.125000  0.125000  1
  N  N25  1  0.125000  0.625000  0.125000  1
  N  N26  1  0.125000  0.125000  0.625000  1
  N  N27  1  0.125000  0.125000  0.125000  1
