# generated using pymatgen
data_GaPCl8
_symmetry_space_group_name_H-M   'P 1'
_cell_length_a   7.23947194
_cell_length_b   7.24043985
_cell_length_c   7.33024586
_cell_angle_alpha   98.38403110
_cell_angle_beta   84.22417557
_cell_angle_gamma   98.28893729
_symmetry_Int_Tables_number   1
_chemical_formula_structural   GaPCl8
_chemical_formula_sum   'Ga1 P1 Cl8'
_cell_volume   374.90608166
_cell_formula_units_Z   1
loop_
 _symmetry_equiv_pos_site_id
 _symmetry_equiv_pos_as_xyz
  1  'x, y, z'
loop_
 _atom_site_type_symbol
 _atom_site_label
 _atom_site_symmetry_multiplicity
 _atom_site_fract_x
 _atom_site_fract_y
 _atom_site_fract_z
 _atom_site_occupancy
  Ga  Ga0  1  0.362150  0.428770  0.662982  1
  P  P1  1  0.849410  0.786158  0.225376  1
  Cl  Cl2  1  0.924753  0.695277  0.442010  1
  Cl  Cl3  1  0.750410  0.574221  0.048569  1
  Cl  Cl4  1  0.283517  0.358667  0.375920  1
  Cl  Cl5  1  0.065657  0.929149  0.104522  1
  Cl  Cl6  1  0.406086  0.737843  0.735487  1
  Cl  Cl7  1  0.145505  0.302946  0.856954  1
  Cl  Cl8  1  0.629168  0.318803  0.680310  1
  Cl  Cl9  1  0.657627  0.952462  0.306105  1
