# generated using pymatgen
data_La8CdHgOs2
_symmetry_space_group_name_H-M   'P 1'
_cell_length_a   10.11873577
_cell_length_b   10.09464740
_cell_length_c   10.09464617
_cell_angle_alpha   59.92716966
_cell_angle_beta   59.92103043
_cell_angle_gamma   59.92102799
_symmetry_Int_Tables_number   1
_chemical_formula_structural   La8CdHgOs2
_chemical_formula_sum   'La16 Cd2 Hg2 Os4'
_cell_volume   727.83853624
_cell_formula_units_Z   2
loop_
 _symmetry_equiv_pos_site_id
 _symmetry_equiv_pos_as_xyz
  1  'x, y, z'
loop_
 _atom_site_type_symbol
 _atom_site_label
 _atom_site_symmetry_multiplicity
 _atom_site_fract_x
 _atom_site_fract_y
 _atom_site_fract_z
 _atom_site_occupancy
  La  La0  1  0.942025  0.941907  0.558351  1
  La  La1  1  0.557715  0.941907  0.558351  1
  La  La2  1  0.558293  0.941707  0.941707  1
  La  La3  1  0.689665  0.689802  0.310347  1
  La  La4  1  0.153425  0.153977  0.539173  1
  La  La5  1  0.309228  0.690772  0.690772  1
  La  La6  1  0.154177  0.154628  0.154628  1
  La  La7  1  0.536566  0.154628  0.154628  1
  La  La8  1  0.310186  0.689802  0.310347  1
  La  La9  1  0.310186  0.310347  0.689802  1
  La  La10  1  0.689665  0.310347  0.689802  1
  La  La11  1  0.942239  0.557761  0.557761  1
  La  La12  1  0.557715  0.558351  0.941907  1
  La  La13  1  0.153425  0.539173  0.153977  1
  La  La14  1  0.688931  0.311069  0.311069  1
  La  La15  1  0.942025  0.558351  0.941907  1
  Cd  Cd16  1  0.921135  0.921965  0.235764  1
  Cd  Cd17  1  0.921135  0.235764  0.921965  1
  Hg  Hg18  1  0.246967  0.918405  0.918405  1
  Hg  Hg19  1  0.916222  0.918405  0.918405  1
  Os  Os20  1  0.913070  0.362544  0.362544  1
  Os  Os21  1  0.362078  0.362706  0.913136  1
  Os  Os22  1  0.362078  0.913136  0.362706  1
  Os  Os23  1  0.361841  0.362544  0.362544  1
