# generated using pymatgen
data_Y7ErAl8
_symmetry_space_group_name_H-M   'P 1'
_cell_length_a   5.62187200
_cell_length_b   5.85840300
_cell_length_c   11.41709600
_cell_angle_alpha   90.00253129
_cell_angle_beta   90.00030844
_cell_angle_gamma   90.00027960
_symmetry_Int_Tables_number   1
_chemical_formula_structural   Y7ErAl8
_chemical_formula_sum   'Y7 Er1 Al8'
_cell_volume   376.02424626
_cell_formula_units_Z   1
loop_
 _symmetry_equiv_pos_site_id
 _symmetry_equiv_pos_as_xyz
  1  'x, y, z'
loop_
 _atom_site_type_symbol
 _atom_site_label
 _atom_site_symmetry_multiplicity
 _atom_site_fract_x
 _atom_site_fract_y
 _atom_site_fract_z
 _atom_site_occupancy
  Y  Y0  1  0.750003  0.161590  0.484584  1
  Y  Y1  1  0.249996  0.838317  0.516057  1
  Y  Y2  1  0.250002  0.161153  0.015689  1
  Y  Y3  1  0.750002  0.838902  0.984070  1
  Y  Y4  1  0.749997  0.398790  0.167357  1
  Y  Y5  1  0.250000  0.601215  0.832301  1
  Y  Y6  1  0.249996  0.398792  0.332472  1
  Er  Er7  1  0.750005  0.601705  0.667482  1
  Al  Al8  1  0.500029  0.932561  0.250005  1
  Al  Al9  1  0.999830  0.067065  0.749879  1
  Al  Al10  1  0.500170  0.067065  0.749879  1
  Al  Al11  1  0.999972  0.932561  0.250005  1
  Al  Al12  1  0.750000  0.660813  0.401602  1
  Al  Al13  1  0.250000  0.339335  0.598937  1
  Al  Al14  1  0.250000  0.660913  0.098807  1
  Al  Al15  1  0.750000  0.339222  0.900876  1
