# generated using pymatgen
data_Dy3In3GaPt2
_symmetry_space_group_name_H-M   'P 1'
_cell_length_a   7.67606400
_cell_length_b   7.67606450
_cell_length_c   3.94201300
_cell_angle_alpha   90.00000000
_cell_angle_beta   90.00000000
_cell_angle_gamma   119.99999785
_symmetry_Int_Tables_number   1
_chemical_formula_structural   Dy3In3GaPt2
_chemical_formula_sum   'Dy3 In3 Ga1 Pt2'
_cell_volume   201.15271353
_cell_formula_units_Z   1
loop_
 _symmetry_equiv_pos_site_id
 _symmetry_equiv_pos_as_xyz
  1  'x, y, z'
loop_
 _atom_site_type_symbol
 _atom_site_label
 _atom_site_symmetry_multiplicity
 _atom_site_fract_x
 _atom_site_fract_y
 _atom_site_fract_z
 _atom_site_occupancy
  Dy  Dy0  1  0.605380  0.013742  0.500000  1
  Dy  Dy1  1  0.408362  0.394620  0.500000  1
  Dy  Dy2  1  0.986258  0.591638  0.500000  1
  In  In3  1  0.741173  0.740392  0.000000  1
  In  In4  1  0.999219  0.258827  0.000000  1
  In  In5  1  0.259608  0.000781  0.000000  1
  Ga  Ga6  1  0.333333  0.666667  0.000000  1
  Pt  Pt7  1  0.666667  0.333333  0.000000  1
  Pt  Pt8  1  0.000000  0.000000  0.500000  1
