# generated using pymatgen
data_Tb7SmSi13Ge
_symmetry_space_group_name_H-M   'P 1'
_cell_length_a   7.33932003
_cell_length_b   7.33899304
_cell_length_c   11.41277126
_cell_angle_alpha   90.03316486
_cell_angle_beta   90.08731633
_cell_angle_gamma   134.29683477
_symmetry_Int_Tables_number   1
_chemical_formula_structural   Tb7SmSi13Ge
_chemical_formula_sum   'Tb7 Sm1 Si13 Ge1'
_cell_volume   439.97883454
_cell_formula_units_Z   1
loop_
 _symmetry_equiv_pos_site_id
 _symmetry_equiv_pos_as_xyz
  1  'x, y, z'
loop_
 _atom_site_type_symbol
 _atom_site_label
 _atom_site_symmetry_multiplicity
 _atom_site_fract_x
 _atom_site_fract_y
 _atom_site_fract_z
 _atom_site_occupancy
  Tb  Tb0  1  0.494298  0.986711  0.379309  1
  Tb  Tb1  1  0.988373  0.493888  0.620279  1
  Tb  Tb2  1  0.505976  0.011499  0.878651  1
  Tb  Tb3  1  0.013308  0.505515  0.121942  1
  Tb  Tb4  1  0.998405  0.003491  0.250225  1
  Tb  Tb5  1  0.002664  0.998612  0.749732  1
  Tb  Tb6  1  0.496826  0.496522  0.497472  1
  Sm  Sm7  1  0.503979  0.503353  0.002183  1
  Si  Si8  1  0.917655  0.091985  0.993584  1
  Si  Si9  1  0.090813  0.916708  0.006177  1
  Si  Si10  1  0.083814  0.910669  0.493606  1
  Si  Si11  1  0.908460  0.082322  0.506628  1
  Si  Si12  1  0.577305  0.913584  0.130375  1
  Si  Si13  1  0.916957  0.576391  0.870987  1
  Si  Si14  1  0.424672  0.082880  0.627807  1
  Si  Si15  1  0.086187  0.423639  0.371158  1
  Si  Si16  1  0.448768  0.134216  0.146353  1
  Si  Si17  1  0.139670  0.450189  0.852782  1
  Si  Si18  1  0.548139  0.856414  0.646169  1
  Si  Si19  1  0.862549  0.550236  0.354848  1
  Si  Si20  1  0.436380  0.565130  0.251914  1
  Ge  Ge21  1  0.554801  0.446048  0.747818  1
