# generated using pymatgen
data_TiZn3P7N12
_symmetry_space_group_name_H-M   'P 1'
_cell_length_a   7.18233797
_cell_length_b   7.17457174
_cell_length_c   7.18233752
_cell_angle_alpha   109.44931639
_cell_angle_beta   109.49311782
_cell_angle_gamma   109.44931881
_symmetry_Int_Tables_number   1
_chemical_formula_structural   TiZn3P7N12
_chemical_formula_sum   'Ti1 Zn3 P7 N12'
_cell_volume   284.98568590
_cell_formula_units_Z   1
loop_
 _symmetry_equiv_pos_site_id
 _symmetry_equiv_pos_as_xyz
  1  'x, y, z'
loop_
 _atom_site_type_symbol
 _atom_site_label
 _atom_site_symmetry_multiplicity
 _atom_site_fract_x
 _atom_site_fract_y
 _atom_site_fract_z
 _atom_site_occupancy
  Ti  Ti0  1  0.000000  0.340749  0.000000  1
  Zn  Zn1  1  0.676411  0.675507  0.676411  1
  Zn  Zn2  1  0.323589  0.999095  0.000000  1
  Zn  Zn3  1  0.000000  0.999095  0.323589  1
  P  P4  1  0.749513  0.249301  0.497136  1
  P  P5  1  0.252377  0.752165  0.502864  1
  P  P6  1  0.502864  0.752165  0.252377  1
  P  P7  1  0.497136  0.249301  0.749513  1
  P  P8  1  0.747623  0.499788  0.250487  1
  P  P9  1  0.250487  0.499788  0.747623  1
  P  P10  1  0.000000  0.998870  0.000000  1
  N  N11  1  0.560980  0.269428  0.000000  1
  N  N12  1  0.445276  0.444866  0.717551  1
  N  N13  1  0.000000  0.269428  0.560980  1
  N  N14  1  0.272276  0.999590  0.554724  1
  N  N15  1  0.717551  0.444866  0.445276  1
  N  N16  1  0.000000  0.555754  0.273927  1
  N  N17  1  0.554724  0.999590  0.272276  1
  N  N18  1  0.439020  0.708447  0.439020  1
  N  N19  1  0.273927  0.555754  0.000000  1
  N  N20  1  0.726073  0.281827  0.726073  1
  N  N21  1  0.727724  0.727314  0.282449  1
  N  N22  1  0.282449  0.727314  0.727724  1
