# generated using pymatgen
data_Nb2ZnB2Ir2Ru3
_symmetry_space_group_name_H-M   'P 1'
_cell_length_a   9.47966300
_cell_length_b   9.37205100
_cell_length_c   2.96033200
_cell_angle_alpha   90.00000000
_cell_angle_beta   90.00000000
_cell_angle_gamma   90.00000000
_symmetry_Int_Tables_number   1
_chemical_formula_structural   Nb2ZnB2Ir2Ru3
_chemical_formula_sum   'Nb4 Zn2 B4 Ir4 Ru6'
_cell_volume   263.00739606
_cell_formula_units_Z   2
loop_
 _symmetry_equiv_pos_site_id
 _symmetry_equiv_pos_as_xyz
  1  'x, y, z'
loop_
 _atom_site_type_symbol
 _atom_site_label
 _atom_site_symmetry_multiplicity
 _atom_site_fract_x
 _atom_site_fract_y
 _atom_site_fract_z
 _atom_site_occupancy
  Nb  Nb0  1  0.821997  0.677046  0.000000  1
  Nb  Nb1  1  0.178003  0.322954  0.000000  1
  Nb  Nb2  1  0.321997  0.822954  0.000000  1
  Nb  Nb3  1  0.678003  0.177046  0.000000  1
  Zn  Zn4  1  0.500000  0.500000  0.000000  1
  Zn  Zn5  1  0.000000  0.000000  0.000000  1
  B  B6  1  0.627588  0.879896  0.000000  1
  B  B7  1  0.372412  0.120104  0.000000  1
  B  B8  1  0.127588  0.620104  0.000000  1
  B  B9  1  0.872412  0.379896  0.000000  1
  Ir  Ir10  1  0.569213  0.717541  0.500000  1
  Ir  Ir11  1  0.430787  0.282459  0.500000  1
  Ir  Ir12  1  0.069213  0.782459  0.500000  1
  Ir  Ir13  1  0.930787  0.217541  0.500000  1
  Ru  Ru14  1  0.283417  0.568440  0.500000  1
  Ru  Ru15  1  0.716583  0.431560  0.500000  1
  Ru  Ru16  1  0.216583  0.068440  0.500000  1
  Ru  Ru17  1  0.783417  0.931560  0.500000  1
  Ru  Ru18  1  0.500000  0.000000  0.500000  1
  Ru  Ru19  1  0.000000  0.500000  0.500000  1
