# generated using pymatgen
data_Er2Lu10TcOs3
_symmetry_space_group_name_H-M   'P 1'
_cell_length_a   6.17273806
_cell_length_b   7.35118867
_cell_length_c   8.80448800
_cell_angle_alpha   90.00000000
_cell_angle_beta   90.00000000
_cell_angle_gamma   90.09091988
_symmetry_Int_Tables_number   1
_chemical_formula_structural   Er2Lu10TcOs3
_chemical_formula_sum   'Er2 Lu10 Tc1 Os3'
_cell_volume   399.52041554
_cell_formula_units_Z   1
loop_
 _symmetry_equiv_pos_site_id
 _symmetry_equiv_pos_as_xyz
  1  'x, y, z'
loop_
 _atom_site_type_symbol
 _atom_site_label
 _atom_site_symmetry_multiplicity
 _atom_site_fract_x
 _atom_site_fract_y
 _atom_site_fract_z
 _atom_site_occupancy
  Er  Er0  1  0.873963  0.539574  0.250000  1
  Er  Er1  1  0.624371  0.038731  0.250000  1
  Lu  Lu2  1  0.336888  0.674280  0.061034  1
  Lu  Lu3  1  0.163935  0.175139  0.438876  1
  Lu  Lu4  1  0.665260  0.324904  0.562424  1
  Lu  Lu5  1  0.836160  0.825471  0.936853  1
  Lu  Lu6  1  0.665260  0.324904  0.937576  1
  Lu  Lu7  1  0.836160  0.825471  0.563147  1
  Lu  Lu8  1  0.336888  0.674280  0.438966  1
  Lu  Lu9  1  0.163935  0.175139  0.061124  1
  Lu  Lu10  1  0.128755  0.459786  0.750000  1
  Lu  Lu11  1  0.370634  0.960527  0.750000  1
  Tc  Tc12  1  0.039300  0.882044  0.250000  1
  Os  Os13  1  0.459817  0.381204  0.250000  1
  Os  Os14  1  0.961064  0.119766  0.750000  1
  Os  Os15  1  0.537609  0.618780  0.750000  1
