# generated using pymatgen
data_Er12Fe2Co2SnPd
_symmetry_space_group_name_H-M   'P 1'
_cell_length_a   8.25112971
_cell_length_b   8.25163683
_cell_length_c   8.25113153
_cell_angle_alpha   110.51803561
_cell_angle_beta   110.44110689
_cell_angle_gamma   107.47041913
_symmetry_Int_Tables_number   1
_chemical_formula_structural   Er12Fe2Co2SnPd
_chemical_formula_sum   'Er12 Fe2 Co2 Sn1 Pd1'
_cell_volume   432.07848306
_cell_formula_units_Z   1
loop_
 _symmetry_equiv_pos_site_id
 _symmetry_equiv_pos_as_xyz
  1  'x, y, z'
loop_
 _atom_site_type_symbol
 _atom_site_label
 _atom_site_symmetry_multiplicity
 _atom_site_fract_x
 _atom_site_fract_y
 _atom_site_fract_z
 _atom_site_occupancy
  Er  Er0  1  0.312063  0.614765  0.302702  1
  Er  Er1  1  0.687937  0.385236  0.697298  1
  Er  Er2  1  0.312051  0.009398  0.697348  1
  Er  Er3  1  0.687949  0.990602  0.302652  1
  Er  Er4  1  0.416222  0.213536  0.202667  1
  Er  Er5  1  0.583778  0.786464  0.797333  1
  Er  Er6  1  0.010869  0.213536  0.797313  1
  Er  Er7  1  0.989131  0.786464  0.202687  1
  Er  Er8  1  0.187141  0.293928  0.481095  1
  Er  Er9  1  0.812859  0.706072  0.518905  1
  Er  Er10  1  0.187167  0.706072  0.893213  1
  Er  Er11  1  0.812833  0.293928  0.106787  1
  Fe  Fe12  1  0.108844  0.608967  0.500123  1
  Fe  Fe13  1  0.891157  0.391034  0.499877  1
  Co  Co14  1  0.381949  0.000000  0.381949  1
  Co  Co15  1  0.618051  0.000000  0.618051  1
  Sn  Sn16  1  0.500000  0.500000  0.000000  1
  Pd  Pd17  1  0.000000  0.000000  0.000000  1
