# generated using pymatgen
data_Pr5Dy3Sc12Ga5Si11
_symmetry_space_group_name_H-M   'P 1'
_cell_length_a   7.24879462
_cell_length_b   7.49776219
_cell_length_c   14.35709493
_cell_angle_alpha   90.01522030
_cell_angle_beta   90.07232286
_cell_angle_gamma   90.07142229
_symmetry_Int_Tables_number   1
_chemical_formula_structural   Pr5Dy3Sc12Ga5Si11
_chemical_formula_sum   'Pr5 Dy3 Sc12 Ga5 Si11'
_cell_volume   780.30309598
_cell_formula_units_Z   1
loop_
 _symmetry_equiv_pos_site_id
 _symmetry_equiv_pos_as_xyz
  1  'x, y, z'
loop_
 _atom_site_type_symbol
 _atom_site_label
 _atom_site_symmetry_multiplicity
 _atom_site_fract_x
 _atom_site_fract_y
 _atom_site_fract_z
 _atom_site_occupancy
  Pr  Pr0  1  0.487750  0.673749  0.595743  1
  Pr  Pr1  1  0.987997  0.826037  0.596844  1
  Pr  Pr2  1  0.988726  0.831028  0.900351  1
  Pr  Pr3  1  0.511188  0.327330  0.099523  1
  Pr  Pr4  1  0.010744  0.172010  0.100529  1
  Dy  Dy5  1  0.012463  0.174634  0.398105  1
  Dy  Dy6  1  0.512193  0.325521  0.398393  1
  Dy  Dy7  1  0.490713  0.675090  0.897462  1
  Sc  Sc8  1  0.329945  0.173418  0.625557  1
  Sc  Sc9  1  0.671043  0.823959  0.374788  1
  Sc  Sc10  1  0.663764  0.001649  0.752121  1
  Sc  Sc11  1  0.170491  0.676215  0.374577  1
  Sc  Sc12  1  0.825870  0.324836  0.874365  1
  Sc  Sc13  1  0.829090  0.326909  0.625299  1
  Sc  Sc14  1  0.836805  0.500749  0.253488  1
  Sc  Sc15  1  0.337892  0.997934  0.254018  1
  Sc  Sc16  1  0.333584  0.175307  0.872560  1
  Sc  Sc17  1  0.170070  0.672317  0.129525  1
  Sc  Sc18  1  0.668935  0.826269  0.128339  1
  Sc  Sc19  1  0.162986  0.498034  0.751334  1
  Ga  Ga20  1  0.154984  0.453783  0.535720  1
  Ga  Ga21  1  0.842818  0.543355  0.038893  1
  Ga  Ga22  1  0.345037  0.952499  0.037392  1
  Ga  Ga23  1  0.160204  0.460757  0.959297  1
  Ga  Ga24  1  0.655220  0.046535  0.535855  1
  Si  Si25  1  0.289772  0.878506  0.750473  1
  Si  Si26  1  0.466802  0.620344  0.253097  1
  Si  Si27  1  0.034031  0.124907  0.749272  1
  Si  Si28  1  0.533681  0.380846  0.750121  1
  Si  Si29  1  0.966807  0.880210  0.252715  1
  Si  Si30  1  0.711765  0.122666  0.254357  1
  Si  Si31  1  0.344164  0.968742  0.457611  1
  Si  Si32  1  0.844409  0.531544  0.457458  1
  Si  Si33  1  0.785391  0.620093  0.750739  1
  Si  Si34  1  0.212223  0.377081  0.254252  1
  Si  Si35  1  0.650444  0.035141  0.959833  1
