# generated using pymatgen
data_Tm9Lu3InFe3Au
_symmetry_space_group_name_H-M   'P 1'
_cell_length_a   8.14324197
_cell_length_b   8.13978685
_cell_length_c   8.13991184
_cell_angle_alpha   110.24346149
_cell_angle_beta   107.21141888
_cell_angle_gamma   110.96547022
_symmetry_Int_Tables_number   1
_chemical_formula_structural   Tm9Lu3InFe3Au
_chemical_formula_sum   'Tm9 Lu3 In1 Fe3 Au1'
_cell_volume   414.93649028
_cell_formula_units_Z   1
loop_
 _symmetry_equiv_pos_site_id
 _symmetry_equiv_pos_as_xyz
  1  'x, y, z'
loop_
 _atom_site_type_symbol
 _atom_site_label
 _atom_site_symmetry_multiplicity
 _atom_site_fract_x
 _atom_site_fract_y
 _atom_site_fract_z
 _atom_site_occupancy
  Tm  Tm0  1  0.307508  0.309660  0.616695  1
  Tm  Tm1  1  0.692668  0.690129  0.383015  1
  Tm  Tm2  1  0.692665  0.309656  0.002534  1
  Tm  Tm3  1  0.307509  0.690815  0.997850  1
  Tm  Tm4  1  0.193214  0.448444  0.255658  1
  Tm  Tm5  1  0.806918  0.552065  0.744856  1
  Tm  Tm6  1  0.193208  0.937551  0.744770  1
  Tm  Tm7  1  0.961466  0.187685  0.773784  1
  Tm  Tm8  1  0.806918  0.062060  0.254856  1
  Lu  Lu9  1  0.038264  0.812436  0.225819  1
  Lu  Lu10  1  0.413439  0.187478  0.225959  1
  Lu  Lu11  1  0.586308  0.812205  0.774110  1
  In  In12  1  0.499511  0.999770  0.499744  1
  Fe  Fe13  1  0.381765  0.381594  0.000168  1
  Fe  Fe14  1  0.618658  0.618689  0.999975  1
  Fe  Fe15  1  0.999972  0.999751  0.000207  1
  Au  Au16  1  0.000009  0.500010  0.499999  1
