# generated using pymatgen
data_Er10Al2Bi3Sb
_symmetry_space_group_name_H-M   'P 1'
_cell_length_a   8.90509439
_cell_length_b   8.91459970
_cell_length_c   6.39736300
_cell_angle_alpha   90.00000000
_cell_angle_beta   90.00000000
_cell_angle_gamma   120.04948897
_symmetry_Int_Tables_number   1
_chemical_formula_structural   Er10Al2Bi3Sb
_chemical_formula_sum   'Er10 Al2 Bi3 Sb1'
_cell_volume   439.59749389
_cell_formula_units_Z   1
loop_
 _symmetry_equiv_pos_site_id
 _symmetry_equiv_pos_as_xyz
  1  'x, y, z'
loop_
 _atom_site_type_symbol
 _atom_site_label
 _atom_site_symmetry_multiplicity
 _atom_site_fract_x
 _atom_site_fract_y
 _atom_site_fract_z
 _atom_site_occupancy
  Er  Er0  1  0.011731  0.770311  0.750000  1
  Er  Er1  1  0.009039  0.239680  0.250000  1
  Er  Er2  1  0.754821  0.758825  0.250000  1
  Er  Er3  1  0.754511  0.998822  0.750000  1
  Er  Er4  1  0.241521  0.229121  0.750000  1
  Er  Er5  1  0.243694  0.012423  0.250000  1
  Er  Er6  1  0.338235  0.670623  0.498693  1
  Er  Er7  1  0.651852  0.323824  0.001292  1
  Er  Er8  1  0.651852  0.323824  0.498708  1
  Er  Er9  1  0.338235  0.670623  0.001307  1
  Al  Al10  1  0.397749  0.996837  0.750000  1
  Al  Al11  1  0.397483  0.400682  0.250000  1
  Bi  Bi12  1  0.997933  0.606365  0.250000  1
  Bi  Bi13  1  0.998462  0.392208  0.750000  1
  Bi  Bi14  1  0.606455  0.604796  0.750000  1
  Sb  Sb15  1  0.606429  0.001036  0.250000  1
