# generated using pymatgen
data_Nd20Ge8OsRu3
_symmetry_space_group_name_H-M   'P 1'
_cell_length_a   7.99090457
_cell_length_b   8.91958400
_cell_length_c   12.26904488
_cell_angle_alpha   90.00000000
_cell_angle_beta   90.04333016
_cell_angle_gamma   90.00000000
_symmetry_Int_Tables_number   1
_chemical_formula_structural   Nd20Ge8OsRu3
_chemical_formula_sum   'Nd20 Ge8 Os1 Ru3'
_cell_volume   874.48260477
_cell_formula_units_Z   1
loop_
 _symmetry_equiv_pos_site_id
 _symmetry_equiv_pos_as_xyz
  1  'x, y, z'
loop_
 _atom_site_type_symbol
 _atom_site_label
 _atom_site_symmetry_multiplicity
 _atom_site_fract_x
 _atom_site_fract_y
 _atom_site_fract_z
 _atom_site_occupancy
  Nd  Nd0  1  0.669304  0.750000  0.715555  1
  Nd  Nd1  1  0.330801  0.250000  0.284590  1
  Nd  Nd2  1  0.169191  0.250000  0.784518  1
  Nd  Nd3  1  0.830899  0.750000  0.215467  1
  Nd  Nd4  1  0.143949  0.750000  0.796863  1
  Nd  Nd5  1  0.856226  0.250000  0.202916  1
  Nd  Nd6  1  0.643818  0.250000  0.702802  1
  Nd  Nd7  1  0.356281  0.750000  0.297188  1
  Nd  Nd8  1  0.538676  0.750000  0.998931  1
  Nd  Nd9  1  0.461513  0.250000  0.001298  1
  Nd  Nd10  1  0.038353  0.250000  0.501234  1
  Nd  Nd11  1  0.961684  0.750000  0.498750  1
  Nd  Nd12  1  0.820336  0.464625  0.926700  1
  Nd  Nd13  1  0.179324  0.534930  0.073220  1
  Nd  Nd14  1  0.320477  0.534775  0.573330  1
  Nd  Nd15  1  0.179324  0.965070  0.073220  1
  Nd  Nd16  1  0.679545  0.465097  0.426681  1
  Nd  Nd17  1  0.820336  0.035375  0.926700  1
  Nd  Nd18  1  0.679545  0.034903  0.426681  1
  Nd  Nd19  1  0.320477  0.965225  0.573330  1
  Ge  Ge20  1  0.938018  0.005251  0.671387  1
  Ge  Ge21  1  0.061898  0.994945  0.328505  1
  Ge  Ge22  1  0.438179  0.994905  0.828318  1
  Ge  Ge23  1  0.061898  0.505055  0.328505  1
  Ge  Ge24  1  0.561758  0.005346  0.171666  1
  Ge  Ge25  1  0.938018  0.494749  0.671387  1
  Ge  Ge26  1  0.561758  0.494654  0.171666  1
  Ge  Ge27  1  0.438179  0.505095  0.828318  1
  Os  Os28  1  0.921114  0.750000  0.983679  1
  Ru  Ru29  1  0.079253  0.250000  0.016661  1
  Ru  Ru30  1  0.420925  0.250000  0.516641  1
  Ru  Ru31  1  0.578942  0.750000  0.483291  1
