# generated using pymatgen
data_Cs3Ho(PS4)2
_symmetry_space_group_name_H-M   'P 1'
_cell_length_a   10.05802125
_cell_length_b   6.98266700
_cell_length_c   11.98862860
_cell_angle_alpha   90.00000000
_cell_angle_beta   88.46195301
_cell_angle_gamma   90.00000000
_symmetry_Int_Tables_number   1
_chemical_formula_structural   Cs3Ho(PS4)2
_chemical_formula_sum   'Cs6 Ho2 P4 S16'
_cell_volume   841.67977532
_cell_formula_units_Z   2
loop_
 _symmetry_equiv_pos_site_id
 _symmetry_equiv_pos_as_xyz
  1  'x, y, z'
loop_
 _atom_site_type_symbol
 _atom_site_label
 _atom_site_symmetry_multiplicity
 _atom_site_fract_x
 _atom_site_fract_y
 _atom_site_fract_z
 _atom_site_occupancy
  Cs  Cs0  1  0.361791  0.803229  0.085292  1
  Cs  Cs1  1  0.396923  0.308439  0.342904  1
  Cs  Cs2  1  0.836833  0.308609  0.434543  1
  Cs  Cs3  1  0.163167  0.808609  0.565458  1
  Cs  Cs4  1  0.603077  0.808439  0.657096  1
  Cs  Cs5  1  0.638210  0.303229  0.914708  1
  Ho  Ho6  1  0.890403  0.786404  0.144462  1
  Ho  Ho7  1  0.109597  0.286404  0.855538  1
  P  P8  1  0.082373  0.329359  0.148968  1
  P  P9  1  0.641738  0.808849  0.305302  1
  P  P10  1  0.358262  0.308848  0.694698  1
  P  P11  1  0.917627  0.829359  0.851032  1
  S  S12  1  0.939119  0.399076  0.035684  1
  S  S13  1  0.254863  0.305665  0.053930  1
  S  S14  1  0.672125  0.039861  0.200744  1
  S  S15  1  0.665807  0.567648  0.205703  1
  S  S16  1  0.051971  0.083753  0.240815  1
  S  S17  1  0.083845  0.562076  0.255032  1
  S  S18  1  0.461339  0.812513  0.384259  1
  S  S19  1  0.804962  0.806800  0.404277  1
  S  S20  1  0.195039  0.306799  0.595723  1
  S  S21  1  0.538660  0.312512  0.615741  1
  S  S22  1  0.916155  0.062075  0.744968  1
  S  S23  1  0.948029  0.583753  0.759185  1
  S  S24  1  0.334193  0.067649  0.794297  1
  S  S25  1  0.327875  0.539859  0.799256  1
  S  S26  1  0.745136  0.805666  0.946070  1
  S  S27  1  0.060881  0.899076  0.964315  1
