# generated using pymatgen
data_Hf3Co2Si4Ni2Mo
_symmetry_space_group_name_H-M   'P 1'
_cell_length_a   3.73299500
_cell_length_b   6.32262447
_cell_length_c   7.15735721
_cell_angle_alpha   89.11679596
_cell_angle_beta   90.00000000
_cell_angle_gamma   90.00000000
_symmetry_Int_Tables_number   1
_chemical_formula_structural   Hf3Co2Si4Ni2Mo
_chemical_formula_sum   'Hf3 Co2 Si4 Ni2 Mo1'
_cell_volume   168.91020483
_cell_formula_units_Z   1
loop_
 _symmetry_equiv_pos_site_id
 _symmetry_equiv_pos_as_xyz
  1  'x, y, z'
loop_
 _atom_site_type_symbol
 _atom_site_label
 _atom_site_symmetry_multiplicity
 _atom_site_fract_x
 _atom_site_fract_y
 _atom_site_fract_z
 _atom_site_occupancy
  Hf  Hf0  1  0.250000  0.515609  0.191286  1
  Hf  Hf1  1  0.750000  0.983215  0.676346  1
  Hf  Hf2  1  0.750000  0.478134  0.813612  1
  Co  Co3  1  0.250000  0.647328  0.565056  1
  Co  Co4  1  0.750000  0.363856  0.436132  1
  Si  Si5  1  0.250000  0.278300  0.598361  1
  Si  Si6  1  0.250000  0.773420  0.884558  1
  Si  Si7  1  0.750000  0.732949  0.383674  1
  Si  Si8  1  0.750000  0.211612  0.129013  1
  Ni  Ni9  1  0.250000  0.143788  0.935082  1
  Ni  Ni10  1  0.750000  0.849671  0.063459  1
  Mo  Mo11  1  0.250000  0.022117  0.323419  1
