# generated using pymatgen
data_Nd3C2I3
_symmetry_space_group_name_H-M   'P 1'
_cell_length_a   10.55295400
_cell_length_b   10.55295370
_cell_length_c   17.43964800
_cell_angle_alpha   90.00000000
_cell_angle_beta   90.00000000
_cell_angle_gamma   111.71550117
_symmetry_Int_Tables_number   1
_chemical_formula_structural   Nd3C2I3
_chemical_formula_sum   'Nd24 C16 I24'
_cell_volume   1804.33303926
_cell_formula_units_Z   8
loop_
 _symmetry_equiv_pos_site_id
 _symmetry_equiv_pos_as_xyz
  1  'x, y, z'
loop_
 _atom_site_type_symbol
 _atom_site_label
 _atom_site_symmetry_multiplicity
 _atom_site_fract_x
 _atom_site_fract_y
 _atom_site_fract_z
 _atom_site_occupancy
  Nd  Nd0  1  0.157134  0.895523  0.998988  1
  Nd  Nd1  1  0.739652  0.770689  0.400235  1
  Nd  Nd2  1  0.616235  0.323650  0.978500  1
  Nd  Nd3  1  0.629659  0.370337  0.750001  1
  Nd  Nd4  1  0.552225  0.009578  0.603035  1
  Nd  Nd5  1  0.383765  0.676350  0.478500  1
  Nd  Nd6  1  0.770693  0.739653  0.599765  1
  Nd  Nd7  1  0.467828  0.974063  0.380610  1
  Nd  Nd8  1  0.974067  0.467828  0.619390  1
  Nd  Nd9  1  0.532172  0.025937  0.880610  1
  Nd  Nd10  1  0.447775  0.990422  0.103035  1
  Nd  Nd11  1  0.104472  0.842865  0.501017  1
  Nd  Nd12  1  0.323645  0.616234  0.021496  1
  Nd  Nd13  1  0.009580  0.552225  0.396966  1
  Nd  Nd14  1  0.830144  0.169848  0.750000  1
  Nd  Nd15  1  0.229307  0.260347  0.099765  1
  Nd  Nd16  1  0.260348  0.229311  0.900235  1
  Nd  Nd17  1  0.990420  0.447775  0.896966  1
  Nd  Nd18  1  0.676355  0.383766  0.521496  1
  Nd  Nd19  1  0.169856  0.830152  0.250000  1
  Nd  Nd20  1  0.842866  0.104477  0.498988  1
  Nd  Nd21  1  0.025933  0.532172  0.119390  1
  Nd  Nd22  1  0.370341  0.629663  0.250001  1
  Nd  Nd23  1  0.895528  0.157135  0.001017  1
  C  C24  1  0.281170  0.723720  0.349767  1
  C  C25  1  0.903535  0.591616  0.529626  1
  C  C26  1  0.657125  0.853332  0.524373  1
  C  C27  1  0.591616  0.903530  0.470374  1
  C  C28  1  0.718830  0.276280  0.849767  1
  C  C29  1  0.780975  0.224274  0.904796  1
  C  C30  1  0.219025  0.775726  0.404796  1
  C  C31  1  0.276302  0.718806  0.150252  1
  C  C32  1  0.723698  0.281194  0.650252  1
  C  C33  1  0.342875  0.146668  0.024373  1
  C  C34  1  0.853333  0.657121  0.475629  1
  C  C35  1  0.146667  0.342879  0.975629  1
  C  C36  1  0.224258  0.780991  0.095185  1
  C  C37  1  0.096465  0.408384  0.029626  1
  C  C38  1  0.408384  0.096470  0.970374  1
  C  C39  1  0.775742  0.219009  0.595185  1
  I  I40  1  0.361745  0.098261  0.742559  1
  I  I41  1  0.862652  0.630383  0.993690  1
  I  I42  1  0.901741  0.638255  0.757439  1
  I  I43  1  0.501119  0.518090  0.880808  1
  I  I44  1  0.141097  0.370349  0.753854  1
  I  I45  1  0.369622  0.137348  0.506313  1
  I  I46  1  0.481921  0.498878  0.619189  1
  I  I47  1  0.985176  0.980575  0.132318  1
  I  I48  1  0.498881  0.481910  0.380808  1
  I  I49  1  0.137348  0.369617  0.493690  1
  I  I50  1  0.745780  0.260313  0.366857  1
  I  I51  1  0.980581  0.985175  0.867682  1
  I  I52  1  0.019419  0.014825  0.367682  1
  I  I53  1  0.260314  0.745778  0.633141  1
  I  I54  1  0.739686  0.254222  0.133141  1
  I  I55  1  0.254220  0.739687  0.866857  1
  I  I56  1  0.630378  0.862652  0.006313  1
  I  I57  1  0.098259  0.361745  0.257439  1
  I  I58  1  0.014824  0.019425  0.632318  1
  I  I59  1  0.370355  0.141109  0.246144  1
  I  I60  1  0.638255  0.901739  0.242559  1
  I  I61  1  0.629645  0.858891  0.746144  1
  I  I62  1  0.518079  0.501122  0.119189  1
  I  I63  1  0.858903  0.629651  0.253854  1
