# generated using pymatgen
data_TaNb11Co8(OsC)4
_symmetry_space_group_name_H-M   'P 1'
_cell_length_a   8.14848960
_cell_length_b   8.14578714
_cell_length_c   8.14889717
_cell_angle_alpha   60.01608597
_cell_angle_beta   60.01149811
_cell_angle_gamma   60.01432527
_symmetry_Int_Tables_number   1
_chemical_formula_structural   TaNb11Co8(OsC)4
_chemical_formula_sum   'Ta1 Nb11 Co8 Os4 C4'
_cell_volume   382.58816440
_cell_formula_units_Z   1
loop_
 _symmetry_equiv_pos_site_id
 _symmetry_equiv_pos_as_xyz
  1  'x, y, z'
loop_
 _atom_site_type_symbol
 _atom_site_label
 _atom_site_symmetry_multiplicity
 _atom_site_fract_x
 _atom_site_fract_y
 _atom_site_fract_z
 _atom_site_occupancy
  Ta  Ta0  1  0.695028  0.304984  0.695046  1
  Nb  Nb1  1  0.944411  0.556090  0.555642  1
  Nb  Nb2  1  0.555615  0.943894  0.944442  1
  Nb  Nb3  1  0.944031  0.555955  0.944042  1
  Nb  Nb4  1  0.555643  0.556066  0.944434  1
  Nb  Nb5  1  0.944420  0.943895  0.555613  1
  Nb  Nb6  1  0.693904  0.693838  0.306234  1
  Nb  Nb7  1  0.306228  0.693827  0.693910  1
  Nb  Nb8  1  0.693951  0.306021  0.306187  1
  Nb  Nb9  1  0.306180  0.306036  0.693956  1
  Nb  Nb10  1  0.556366  0.943655  0.556339  1
  Nb  Nb11  1  0.305551  0.694465  0.305563  1
  Co  Co12  1  0.326828  0.326985  0.326825  1
  Co  Co13  1  0.230558  0.923309  0.922866  1
  Co  Co14  1  0.922997  0.230843  0.923002  1
  Co  Co15  1  0.922866  0.923314  0.230551  1
  Co  Co16  1  0.326857  0.019278  0.326854  1
  Co  Co17  1  0.327507  0.327080  0.018346  1
  Co  Co18  1  0.018358  0.327077  0.327500  1
  Co  Co19  1  0.923006  0.923208  0.923020  1
  Os  Os20  1  0.124825  0.125042  0.124814  1
  Os  Os21  1  0.625147  0.125532  0.123746  1
  Os  Os22  1  0.124824  0.625272  0.124817  1
  Os  Os23  1  0.123752  0.125535  0.625132  1
  C  C24  1  0.625479  0.623210  0.625465  1
  C  C25  1  0.125150  0.624896  0.625027  1
  C  C26  1  0.625484  0.125796  0.625475  1
  C  C27  1  0.625031  0.624894  0.125151  1
