# generated using pymatgen
data_Pr3Y(Si5Os3)2
_symmetry_space_group_name_H-M   'P 1'
_cell_length_a   8.22889374
_cell_length_b   8.21674566
_cell_length_c   5.88451685
_cell_angle_alpha   70.44099047
_cell_angle_beta   70.32958087
_cell_angle_gamma   93.65601957
_symmetry_Int_Tables_number   1
_chemical_formula_structural   Pr3Y(Si5Os3)2
_chemical_formula_sum   'Pr3 Y1 Si10 Os6'
_cell_volume   345.99106118
_cell_formula_units_Z   1
loop_
 _symmetry_equiv_pos_site_id
 _symmetry_equiv_pos_as_xyz
  1  'x, y, z'
loop_
 _atom_site_type_symbol
 _atom_site_label
 _atom_site_symmetry_multiplicity
 _atom_site_fract_x
 _atom_site_fract_y
 _atom_site_fract_z
 _atom_site_occupancy
  Pr  Pr0  1  0.868555  0.602567  0.753754  1
  Pr  Pr1  1  0.397036  0.133209  0.744844  1
  Pr  Pr2  1  0.133122  0.396614  0.245355  1
  Y  Y3  1  0.601779  0.867780  0.255093  1
  Si  Si4  1  0.061876  0.261309  0.836509  1
  Si  Si5  1  0.738866  0.937275  0.664993  1
  Si  Si6  1  0.933569  0.741080  0.163656  1
  Si  Si7  1  0.260134  0.059593  0.337073  1
  Si  Si8  1  0.208325  0.791547  0.751441  1
  Si  Si9  1  0.789728  0.206324  0.250184  1
  Si  Si10  1  0.513470  0.489165  0.749983  1
  Si  Si11  1  0.490479  0.515065  0.246669  1
  Si  Si12  1  0.772027  0.225895  0.752406  1
  Si  Si13  1  0.230698  0.772531  0.249317  1
  Os  Os14  1  0.259850  0.543718  0.630717  1
  Os  Os15  1  0.459114  0.744462  0.865992  1
  Os  Os16  1  0.743077  0.457593  0.368470  1
  Os  Os17  1  0.541708  0.254773  0.132097  1
  Os  Os18  1  0.001372  0.997148  0.750756  1
  Os  Os19  1  0.995216  0.002355  0.250693  1
