# generated using pymatgen
data_Tb2CeTh(ReC2)2
_symmetry_space_group_name_H-M   'P 1'
_cell_length_a   5.26925000
_cell_length_b   6.61674700
_cell_length_c   9.90677100
_cell_angle_alpha   90.00000000
_cell_angle_beta   90.00000000
_cell_angle_gamma   90.00000000
_symmetry_Int_Tables_number   1
_chemical_formula_structural   Tb2CeTh(ReC2)2
_chemical_formula_sum   'Tb4 Ce2 Th2 Re4 C8'
_cell_volume   345.40248479
_cell_formula_units_Z   2
loop_
 _symmetry_equiv_pos_site_id
 _symmetry_equiv_pos_as_xyz
  1  'x, y, z'
loop_
 _atom_site_type_symbol
 _atom_site_label
 _atom_site_symmetry_multiplicity
 _atom_site_fract_x
 _atom_site_fract_y
 _atom_site_fract_z
 _atom_site_occupancy
  Tb  Tb0  1  0.250000  0.821346  0.050951  1
  Tb  Tb1  1  0.750000  0.678654  0.550951  1
  Tb  Tb2  1  0.250000  0.319704  0.449453  1
  Tb  Tb3  1  0.750000  0.180296  0.949453  1
  Ce  Ce4  1  0.250000  0.470622  0.784300  1
  Ce  Ce5  1  0.750000  0.029378  0.284300  1
  Th  Th6  1  0.250000  0.971725  0.716618  1
  Th  Th7  1  0.750000  0.528275  0.216618  1
  Re  Re8  1  0.250000  0.273576  0.136278  1
  Re  Re9  1  0.750000  0.226424  0.636278  1
  Re  Re10  1  0.250000  0.774178  0.363627  1
  Re  Re11  1  0.750000  0.725822  0.863627  1
  C  C12  1  0.250000  0.175222  0.948775  1
  C  C13  1  0.750000  0.825727  0.050742  1
  C  C14  1  0.250000  0.674273  0.550742  1
  C  C15  1  0.750000  0.324778  0.448775  1
  C  C16  1  0.250000  0.040851  0.260073  1
  C  C17  1  0.750000  0.459149  0.760073  1
  C  C18  1  0.250000  0.541032  0.239184  1
  C  C19  1  0.750000  0.958968  0.739184  1
