# generated using pymatgen
data_Ho7TmTlCd3Au8
_symmetry_space_group_name_H-M   'P 1'
_cell_length_a   8.00327101
_cell_length_b   7.99913526
_cell_length_c   7.30311600
_cell_angle_alpha   90.02855071
_cell_angle_beta   90.00294237
_cell_angle_gamma   89.87424209
_symmetry_Int_Tables_number   1
_chemical_formula_structural   Ho7TmTlCd3Au8
_chemical_formula_sum   'Ho7 Tm1 Tl1 Cd3 Au8'
_cell_volume   467.53880474
_cell_formula_units_Z   1
loop_
 _symmetry_equiv_pos_site_id
 _symmetry_equiv_pos_as_xyz
  1  'x, y, z'
loop_
 _atom_site_type_symbol
 _atom_site_label
 _atom_site_symmetry_multiplicity
 _atom_site_fract_x
 _atom_site_fract_y
 _atom_site_fract_z
 _atom_site_occupancy
  Ho  Ho0  1  0.156243  0.836561  0.500320  1
  Ho  Ho1  1  0.336780  0.343262  0.999738  1
  Ho  Ho2  1  0.663975  0.656151  0.999758  1
  Ho  Ho3  1  0.684494  0.677939  0.500583  1
  Ho  Ho4  1  0.315420  0.321832  0.500546  1
  Ho  Ho5  1  0.177775  0.816016  0.999505  1
  Ho  Ho6  1  0.821836  0.184484  0.999468  1
  Tm  Tm7  1  0.844113  0.163305  0.500363  1
  Tl  Tl8  1  0.999932  0.500130  0.249942  1
  Cd  Cd9  1  0.500058  0.000241  0.250072  1
  Cd  Cd10  1  0.999749  0.500046  0.749194  1
  Cd  Cd11  1  0.499885  0.000138  0.750239  1
  Au  Au12  1  0.623248  0.365344  0.273709  1
  Au  Au13  1  0.377820  0.633540  0.271851  1
  Au  Au14  1  0.130105  0.127161  0.770807  1
  Au  Au15  1  0.868689  0.873854  0.770819  1
  Au  Au16  1  0.373457  0.630771  0.728683  1
  Au  Au17  1  0.627547  0.368135  0.726944  1
  Au  Au18  1  0.865854  0.878333  0.228873  1
  Au  Au19  1  0.133019  0.122756  0.228584  1
