# generated using pymatgen
data_Yb6Mn3WC12
_symmetry_space_group_name_H-M   'P 1'
_cell_length_a   8.12407900
_cell_length_b   8.12407893
_cell_length_c   5.08670000
_cell_angle_alpha   90.00000000
_cell_angle_beta   90.00000000
_cell_angle_gamma   119.99999623
_symmetry_Int_Tables_number   1
_chemical_formula_structural   Yb6Mn3WC12
_chemical_formula_sum   'Yb6 Mn3 W1 C12'
_cell_volume   290.74686790
_cell_formula_units_Z   1
loop_
 _symmetry_equiv_pos_site_id
 _symmetry_equiv_pos_as_xyz
  1  'x, y, z'
loop_
 _atom_site_type_symbol
 _atom_site_label
 _atom_site_symmetry_multiplicity
 _atom_site_fract_x
 _atom_site_fract_y
 _atom_site_fract_z
 _atom_site_occupancy
  Yb  Yb0  1  0.606457  0.682054  0.746740  1
  Yb  Yb1  1  0.924403  0.606457  0.253260  1
  Yb  Yb2  1  0.682054  0.075597  0.253260  1
  Yb  Yb3  1  0.317946  0.924403  0.746740  1
  Yb  Yb4  1  0.075597  0.393543  0.746740  1
  Yb  Yb5  1  0.393543  0.317946  0.253260  1
  Mn  Mn6  1  0.000000  0.000000  0.000000  1
  Mn  Mn7  1  0.666667  0.333333  0.757710  1
  Mn  Mn8  1  0.333333  0.666667  0.242290  1
  W  W9  1  0.000000  0.000000  0.500000  1
  C  C10  1  0.953129  0.768214  0.750374  1
  C  C11  1  0.184916  0.953129  0.249626  1
  C  C12  1  0.768214  0.815084  0.249626  1
  C  C13  1  0.231786  0.184916  0.750374  1
  C  C14  1  0.815084  0.046871  0.750374  1
  C  C15  1  0.046871  0.231786  0.249626  1
  C  C16  1  0.855346  0.576309  0.758695  1
  C  C17  1  0.279037  0.855346  0.241305  1
  C  C18  1  0.576309  0.720963  0.241305  1
  C  C19  1  0.423691  0.279037  0.758695  1
  C  C20  1  0.144654  0.423691  0.241305  1
  C  C21  1  0.720963  0.144654  0.758695  1
