# generated using pymatgen
data_Ho3In3IrPtRh
_symmetry_space_group_name_H-M   'P 1'
_cell_length_a   7.64693100
_cell_length_b   7.64693168
_cell_length_c   3.81916200
_cell_angle_alpha   90.00000000
_cell_angle_beta   90.00000000
_cell_angle_gamma   120.00000140
_symmetry_Int_Tables_number   1
_chemical_formula_structural   Ho3In3IrPtRh
_chemical_formula_sum   'Ho3 In3 Ir1 Pt1 Rh1'
_cell_volume   193.40740036
_cell_formula_units_Z   1
loop_
 _symmetry_equiv_pos_site_id
 _symmetry_equiv_pos_as_xyz
  1  'x, y, z'
loop_
 _atom_site_type_symbol
 _atom_site_label
 _atom_site_symmetry_multiplicity
 _atom_site_fract_x
 _atom_site_fract_y
 _atom_site_fract_z
 _atom_site_occupancy
  Ho  Ho0  1  0.009658  0.412366  0.500000  1
  Ho  Ho1  1  0.587634  0.597294  0.500000  1
  Ho  Ho2  1  0.402706  0.990342  0.500000  1
  In  In3  1  0.256604  0.257507  0.000000  1
  In  In4  1  0.000903  0.743396  0.000000  1
  In  In5  1  0.742493  0.999097  0.000000  1
  Ir  Ir6  1  0.333333  0.666667  0.000000  1
  Pt  Pt7  1  0.666667  0.333333  0.000000  1
  Rh  Rh8  1  0.000000  0.000000  0.500000  1
