# generated using pymatgen
data_PrCo4P3Ru
_symmetry_space_group_name_H-M   'P 1'
_cell_length_a   3.74598400
_cell_length_b   10.57121800
_cell_length_c   11.92582000
_cell_angle_alpha   90.00000000
_cell_angle_beta   90.00000000
_cell_angle_gamma   90.00000000
_symmetry_Int_Tables_number   1
_chemical_formula_structural   PrCo4P3Ru
_chemical_formula_sum   'Pr4 Co16 P12 Ru4'
_cell_volume   472.25786253
_cell_formula_units_Z   4
loop_
 _symmetry_equiv_pos_site_id
 _symmetry_equiv_pos_as_xyz
  1  'x, y, z'
loop_
 _atom_site_type_symbol
 _atom_site_label
 _atom_site_symmetry_multiplicity
 _atom_site_fract_x
 _atom_site_fract_y
 _atom_site_fract_z
 _atom_site_occupancy
  Pr  Pr0  1  0.250000  0.586377  0.703301  1
  Pr  Pr1  1  0.250000  0.913623  0.203301  1
  Pr  Pr2  1  0.750000  0.413623  0.296699  1
  Pr  Pr3  1  0.750000  0.086377  0.796699  1
  Co  Co4  1  0.250000  0.407503  0.492570  1
  Co  Co5  1  0.250000  0.092497  0.992570  1
  Co  Co6  1  0.750000  0.592497  0.507430  1
  Co  Co7  1  0.750000  0.907503  0.007430  1
  Co  Co8  1  0.250000  0.221116  0.175681  1
  Co  Co9  1  0.250000  0.278884  0.675681  1
  Co  Co10  1  0.750000  0.778884  0.824319  1
  Co  Co11  1  0.750000  0.721116  0.324319  1
  Co  Co12  1  0.250000  0.886321  0.701553  1
  Co  Co13  1  0.250000  0.613679  0.201553  1
  Co  Co14  1  0.750000  0.113679  0.298447  1
  Co  Co15  1  0.750000  0.386321  0.798447  1
  Co  Co16  1  0.250000  0.465426  0.931711  1
  Co  Co17  1  0.250000  0.034574  0.431711  1
  Co  Co18  1  0.750000  0.534574  0.068289  1
  Co  Co19  1  0.750000  0.965426  0.568289  1
  P  P20  1  0.250000  0.420016  0.109270  1
  P  P21  1  0.250000  0.079984  0.609270  1
  P  P22  1  0.750000  0.579984  0.890730  1
  P  P23  1  0.750000  0.920016  0.390730  1
  P  P24  1  0.250000  0.276950  0.866943  1
  P  P25  1  0.250000  0.223050  0.366943  1
  P  P26  1  0.750000  0.723050  0.133057  1
  P  P27  1  0.750000  0.776950  0.633057  1
  P  P28  1  0.250000  0.599761  0.392083  1
  P  P29  1  0.250000  0.900239  0.892083  1
  P  P30  1  0.750000  0.400239  0.607917  1
  P  P31  1  0.750000  0.099761  0.107917  1
  Ru  Ru32  1  0.250000  0.714408  0.991358  1
  Ru  Ru33  1  0.250000  0.785592  0.491358  1
  Ru  Ru34  1  0.750000  0.285592  0.008642  1
  Ru  Ru35  1  0.750000  0.214408  0.508642  1
