# generated using pymatgen
data_PrSi2Ir2Rh
_symmetry_space_group_name_H-M   'P 1'
_cell_length_a   6.72334346
_cell_length_b   6.72334274
_cell_length_c   6.72334267
_cell_angle_alpha   130.25385415
_cell_angle_beta   114.80235532
_cell_angle_gamma   86.23497766
_symmetry_Int_Tables_number   1
_chemical_formula_structural   PrSi2Ir2Rh
_chemical_formula_sum   'Pr2 Si4 Ir4 Rh2'
_cell_volume   201.08525844
_cell_formula_units_Z   2
loop_
 _symmetry_equiv_pos_site_id
 _symmetry_equiv_pos_as_xyz
  1  'x, y, z'
loop_
 _atom_site_type_symbol
 _atom_site_label
 _atom_site_symmetry_multiplicity
 _atom_site_fract_x
 _atom_site_fract_y
 _atom_site_fract_z
 _atom_site_occupancy
  Pr  Pr0  1  0.250000  0.971388  0.721388  1
  Pr  Pr1  1  0.750000  0.028612  0.278612  1
  Si  Si2  1  0.078751  0.279197  0.200446  1
  Si  Si3  1  0.921249  0.720803  0.799554  1
  Si  Si4  1  0.421249  0.621695  0.200446  1
  Si  Si5  1  0.578751  0.378305  0.799554  1
  Ir  Ir6  1  0.280669  0.000000  0.280669  1
  Ir  Ir7  1  0.719331  0.000000  0.719331  1
  Ir  Ir8  1  0.219331  0.500000  0.719331  1
  Ir  Ir9  1  0.780669  0.500000  0.280669  1
  Rh  Rh10  1  0.500000  0.500000  0.500000  1
  Rh  Rh11  1  0.000000  0.500000  0.000000  1
