# generated using pymatgen
data_Ba3UMnSe6
_symmetry_space_group_name_H-M   'P 1'
_cell_length_a   8.77847789
_cell_length_b   8.77847622
_cell_length_c   8.77847700
_cell_angle_alpha   92.96276649
_cell_angle_beta   92.96276593
_cell_angle_gamma   92.96276141
_symmetry_Int_Tables_number   1
_chemical_formula_structural   Ba3UMnSe6
_chemical_formula_sum   'Ba6 U2 Mn2 Se12'
_cell_volume   673.67387357
_cell_formula_units_Z   2
loop_
 _symmetry_equiv_pos_site_id
 _symmetry_equiv_pos_as_xyz
  1  'x, y, z'
loop_
 _atom_site_type_symbol
 _atom_site_label
 _atom_site_symmetry_multiplicity
 _atom_site_fract_x
 _atom_site_fract_y
 _atom_site_fract_z
 _atom_site_occupancy
  Ba  Ba0  1  0.368226  0.750000  0.131774  1
  Ba  Ba1  1  0.131774  0.368226  0.750000  1
  Ba  Ba2  1  0.750000  0.131774  0.368226  1
  Ba  Ba3  1  0.631774  0.250000  0.868226  1
  Ba  Ba4  1  0.868226  0.631774  0.250000  1
  Ba  Ba5  1  0.250000  0.868226  0.631774  1
  U  U6  1  0.250000  0.250000  0.250000  1
  U  U7  1  0.750000  0.750000  0.750000  1
  Mn  Mn8  1  0.500000  0.500000  0.500000  1
  Mn  Mn9  1  0.000000  0.000000  0.000000  1
  Se  Se10  1  0.537159  0.409606  0.202109  1
  Se  Se11  1  0.202109  0.537159  0.409606  1
  Se  Se12  1  0.409606  0.202109  0.537159  1
  Se  Se13  1  0.962841  0.297891  0.090394  1
  Se  Se14  1  0.090394  0.962841  0.297891  1
  Se  Se15  1  0.297891  0.090394  0.962841  1
  Se  Se16  1  0.462841  0.590394  0.797891  1
  Se  Se17  1  0.797891  0.462841  0.590394  1
  Se  Se18  1  0.590394  0.797891  0.462841  1
  Se  Se19  1  0.037159  0.702109  0.909606  1
  Se  Se20  1  0.702109  0.909606  0.037159  1
  Se  Se21  1  0.909606  0.037159  0.702109  1
