# generated using pymatgen
data_Gd2DyY7Ir4
_symmetry_space_group_name_H-M   'P 1'
_cell_length_a   6.50135123
_cell_length_b   7.23064502
_cell_length_c   8.61687600
_cell_angle_alpha   96.70889066
_cell_angle_beta   112.16316191
_cell_angle_gamma   89.99999966
_symmetry_Int_Tables_number   1
_chemical_formula_structural   Gd2DyY7Ir4
_chemical_formula_sum   'Gd2 Dy1 Y7 Ir4'
_cell_volume   372.14438702
_cell_formula_units_Z   1
loop_
 _symmetry_equiv_pos_site_id
 _symmetry_equiv_pos_as_xyz
  1  'x, y, z'
loop_
 _atom_site_type_symbol
 _atom_site_label
 _atom_site_symmetry_multiplicity
 _atom_site_fract_x
 _atom_site_fract_y
 _atom_site_fract_z
 _atom_site_occupancy
  Gd  Gd0  1  0.792100  0.083560  0.814311  1
  Gd  Gd1  1  0.977789  0.416440  0.185689  1
  Dy  Dy2  1  0.570332  0.750000  0.000000  1
  Y  Y3  1  0.208014  0.916407  0.185692  1
  Y  Y4  1  0.022322  0.583593  0.814308  1
  Y  Y5  1  0.209694  0.184268  0.560763  1
  Y  Y6  1  0.648931  0.315732  0.439237  1
  Y  Y7  1  0.790207  0.815686  0.439210  1
  Y  Y8  1  0.350997  0.684314  0.560790  1
  Y  Y9  1  0.429381  0.250000  0.000000  1
  Ir  Ir10  1  0.600974  0.425839  0.777882  1
  Ir  Ir11  1  0.823092  0.074161  0.222118  1
  Ir  Ir12  1  0.399167  0.574718  0.222167  1
  Ir  Ir13  1  0.177000  0.925282  0.777833  1
