# generated using pymatgen
data_TbDy4Bi(SbO7)2
_symmetry_space_group_name_H-M   'P 1'
_cell_length_a   6.50539338
_cell_length_b   6.50539283
_cell_length_c   7.56544404
_cell_angle_alpha   90.13773537
_cell_angle_beta   89.86226933
_cell_angle_gamma   109.00194219
_symmetry_Int_Tables_number   1
_chemical_formula_structural   TbDy4Bi(SbO7)2
_chemical_formula_sum   'Tb1 Dy4 Bi1 Sb2 O14'
_cell_volume   302.72244095
_cell_formula_units_Z   1
loop_
 _symmetry_equiv_pos_site_id
 _symmetry_equiv_pos_as_xyz
  1  'x, y, z'
loop_
 _atom_site_type_symbol
 _atom_site_label
 _atom_site_symmetry_multiplicity
 _atom_site_fract_x
 _atom_site_fract_y
 _atom_site_fract_z
 _atom_site_occupancy
  Tb  Tb0  1  0.500000  0.500000  0.000000  1
  Dy  Dy1  1  0.532601  0.000129  0.751406  1
  Dy  Dy2  1  0.000129  0.532601  0.248594  1
  Dy  Dy3  1  0.467399  0.999871  0.248594  1
  Dy  Dy4  1  0.999871  0.467399  0.751406  1
  Bi  Bi5  1  0.500000  0.500000  0.500000  1
  Sb  Sb6  1  0.000000  0.000000  0.500000  1
  Sb  Sb7  1  0.000000  0.000000  0.000000  1
  O  O8  1  0.680097  0.934940  0.469409  1
  O  O9  1  0.934940  0.680097  0.530591  1
  O  O10  1  0.678893  0.928833  0.029660  1
  O  O11  1  0.928833  0.678893  0.970340  1
  O  O12  1  0.319903  0.065060  0.530591  1
  O  O13  1  0.065060  0.319903  0.469409  1
  O  O14  1  0.321107  0.071167  0.970340  1
  O  O15  1  0.071167  0.321107  0.029660  1
  O  O16  1  0.930430  0.069570  0.750030  1
  O  O17  1  0.069570  0.930430  0.249970  1
  O  O18  1  0.365707  0.634293  0.758361  1
  O  O19  1  0.634293  0.365707  0.241639  1
  O  O20  1  0.639960  0.360040  0.757032  1
  O  O21  1  0.360040  0.639960  0.242968  1
