# generated using pymatgen
data_Sc4GaGeB4(RuRh4)2
_symmetry_space_group_name_H-M   'P 1'
_cell_length_a   9.40332900
_cell_length_b   9.40332900
_cell_length_c   3.03241100
_cell_angle_alpha   90.00000000
_cell_angle_beta   90.00000000
_cell_angle_gamma   90.00000000
_symmetry_Int_Tables_number   1
_chemical_formula_structural   Sc4GaGeB4(RuRh4)2
_chemical_formula_sum   'Sc4 Ga1 Ge1 B4 Ru2 Rh8'
_cell_volume   268.13365361
_cell_formula_units_Z   1
loop_
 _symmetry_equiv_pos_site_id
 _symmetry_equiv_pos_as_xyz
  1  'x, y, z'
loop_
 _atom_site_type_symbol
 _atom_site_label
 _atom_site_symmetry_multiplicity
 _atom_site_fract_x
 _atom_site_fract_y
 _atom_site_fract_z
 _atom_site_occupancy
  Sc  Sc0  1  0.674174  0.172140  0.000000  1
  Sc  Sc1  1  0.325826  0.827860  0.000000  1
  Sc  Sc2  1  0.172140  0.325826  0.000000  1
  Sc  Sc3  1  0.827860  0.674174  0.000000  1
  Ga  Ga4  1  0.000000  0.000000  0.000000  1
  Ge  Ge5  1  0.500000  0.500000  0.000000  1
  B  B6  1  0.121246  0.623794  0.000000  1
  B  B7  1  0.878754  0.376206  0.000000  1
  B  B8  1  0.623794  0.878754  0.000000  1
  B  B9  1  0.376206  0.121246  0.000000  1
  Ru  Ru10  1  0.500000  0.000000  0.500000  1
  Ru  Ru11  1  0.000000  0.500000  0.500000  1
  Rh  Rh12  1  0.571882  0.713808  0.500000  1
  Rh  Rh13  1  0.428118  0.286192  0.500000  1
  Rh  Rh14  1  0.073422  0.784840  0.500000  1
  Rh  Rh15  1  0.926578  0.215160  0.500000  1
  Rh  Rh16  1  0.286192  0.571882  0.500000  1
  Rh  Rh17  1  0.713808  0.428118  0.500000  1
  Rh  Rh18  1  0.215160  0.073422  0.500000  1
  Rh  Rh19  1  0.784840  0.926578  0.500000  1
