# generated using pymatgen
data_NdHg(PdPt)2
_symmetry_space_group_name_H-M   'P 1'
_cell_length_a   5.44053518
_cell_length_b   5.44053526
_cell_length_c   5.44595000
_cell_angle_alpha   59.96707165
_cell_angle_beta   59.96707118
_cell_angle_gamma   59.93412643
_symmetry_Int_Tables_number   1
_chemical_formula_structural   NdHg(PdPt)2
_chemical_formula_sum   'Nd1 Hg1 Pd2 Pt2'
_cell_volume   113.86994473
_cell_formula_units_Z   1
loop_
 _symmetry_equiv_pos_site_id
 _symmetry_equiv_pos_as_xyz
  1  'x, y, z'
loop_
 _atom_site_type_symbol
 _atom_site_label
 _atom_site_symmetry_multiplicity
 _atom_site_fract_x
 _atom_site_fract_y
 _atom_site_fract_z
 _atom_site_occupancy
  Nd  Nd0  1  0.748836  0.748836  0.751164  1
  Hg  Hg1  1  0.999819  0.999819  0.000181  1
  Pd  Pd2  1  0.876762  0.374862  0.374188  1
  Pd  Pd3  1  0.374862  0.876762  0.374188  1
  Pt  Pt4  1  0.374860  0.374860  0.374292  1
  Pt  Pt5  1  0.374860  0.374860  0.875987  1
