# generated using pymatgen
data_Ac6Sb13Rh20
_symmetry_space_group_name_H-M   'P 1'
_cell_length_a   14.78552000
_cell_length_b   14.78552006
_cell_length_c   4.34604100
_cell_angle_alpha   90.00000000
_cell_angle_beta   90.00000000
_cell_angle_gamma   119.99999986
_symmetry_Int_Tables_number   1
_chemical_formula_structural   Ac6Sb13Rh20
_chemical_formula_sum   'Ac6 Sb13 Rh20'
_cell_volume   822.80639671
_cell_formula_units_Z   1
loop_
 _symmetry_equiv_pos_site_id
 _symmetry_equiv_pos_as_xyz
  1  'x, y, z'
loop_
 _atom_site_type_symbol
 _atom_site_label
 _atom_site_symmetry_multiplicity
 _atom_site_fract_x
 _atom_site_fract_y
 _atom_site_fract_z
 _atom_site_occupancy
  Ac  Ac0  1  0.532547  0.720360  0.251161  1
  Ac  Ac1  1  0.279640  0.812188  0.251161  1
  Ac  Ac2  1  0.187812  0.467453  0.251161  1
  Ac  Ac3  1  0.467453  0.279640  0.748839  1
  Ac  Ac4  1  0.720360  0.187812  0.748839  1
  Ac  Ac5  1  0.812188  0.532547  0.748839  1
  Sb  Sb6  1  0.520777  0.131639  0.249874  1
  Sb  Sb7  1  0.868361  0.389139  0.249874  1
  Sb  Sb8  1  0.610861  0.479223  0.249874  1
  Sb  Sb9  1  0.953833  0.727302  0.245160  1
  Sb  Sb10  1  0.272698  0.226531  0.245160  1
  Sb  Sb11  1  0.773469  0.046167  0.245160  1
  Sb  Sb12  1  0.389139  0.520777  0.750126  1
  Sb  Sb13  1  0.479223  0.868361  0.750126  1
  Sb  Sb14  1  0.131639  0.610861  0.750126  1
  Sb  Sb15  1  0.727302  0.773469  0.754840  1
  Sb  Sb16  1  0.226531  0.953833  0.754840  1
  Sb  Sb17  1  0.046167  0.272698  0.754840  1
  Sb  Sb18  1  0.000000  0.000000  0.000000  1
  Rh  Rh19  1  0.333333  0.666667  0.749518  1
  Rh  Rh20  1  0.924284  0.247640  0.253662  1
  Rh  Rh21  1  0.752360  0.676643  0.253662  1
  Rh  Rh22  1  0.323357  0.075716  0.253662  1
  Rh  Rh23  1  0.434142  0.021926  0.751203  1
  Rh  Rh24  1  0.978074  0.412217  0.751203  1
  Rh  Rh25  1  0.587783  0.565858  0.751203  1
  Rh  Rh26  1  0.666667  0.333333  0.250482  1
  Rh  Rh27  1  0.083083  0.185905  0.258964  1
  Rh  Rh28  1  0.814095  0.897178  0.258964  1
  Rh  Rh29  1  0.102822  0.916917  0.258964  1
  Rh  Rh30  1  0.021926  0.587783  0.248797  1
  Rh  Rh31  1  0.412217  0.434142  0.248797  1
  Rh  Rh32  1  0.565858  0.978074  0.248797  1
  Rh  Rh33  1  0.676643  0.924284  0.746338  1
  Rh  Rh34  1  0.075716  0.752360  0.746338  1
  Rh  Rh35  1  0.247640  0.323357  0.746338  1
  Rh  Rh36  1  0.916917  0.814095  0.741036  1
  Rh  Rh37  1  0.185905  0.102822  0.741036  1
  Rh  Rh38  1  0.897178  0.083083  0.741036  1
