# generated using pymatgen
data_FeIrRhO6
_symmetry_space_group_name_H-M   'P 1'
_cell_length_a   4.57186000
_cell_length_b   4.57186000
_cell_length_c   9.37350700
_cell_angle_alpha   90.00000000
_cell_angle_beta   90.00000000
_cell_angle_gamma   90.00000000
_symmetry_Int_Tables_number   1
_chemical_formula_structural   FeIrRhO6
_chemical_formula_sum   'Fe2 Ir2 Rh2 O12'
_cell_volume   195.92414214
_cell_formula_units_Z   2
loop_
 _symmetry_equiv_pos_site_id
 _symmetry_equiv_pos_as_xyz
  1  'x, y, z'
loop_
 _atom_site_type_symbol
 _atom_site_label
 _atom_site_symmetry_multiplicity
 _atom_site_fract_x
 _atom_site_fract_y
 _atom_site_fract_z
 _atom_site_occupancy
  Fe  Fe0  1  0.500000  0.500000  0.166378  1
  Fe  Fe1  1  0.000000  0.000000  0.666378  1
  Ir  Ir2  1  0.500000  0.500000  0.498689  1
  Ir  Ir3  1  0.000000  0.000000  0.998689  1
  Rh  Rh4  1  0.500000  0.500000  0.835134  1
  Rh  Rh5  1  0.000000  0.000000  0.335134  1
  O  O6  1  0.200458  0.799542  0.500455  1
  O  O7  1  0.799542  0.200458  0.500455  1
  O  O8  1  0.299542  0.299542  0.000455  1
  O  O9  1  0.700458  0.700458  0.000455  1
  O  O10  1  0.190981  0.809019  0.164887  1
  O  O11  1  0.809019  0.190981  0.164887  1
  O  O12  1  0.309019  0.309019  0.664887  1
  O  O13  1  0.690981  0.690981  0.664887  1
  O  O14  1  0.807311  0.192689  0.834558  1
  O  O15  1  0.192689  0.807311  0.834558  1
  O  O16  1  0.692689  0.692689  0.334558  1
  O  O17  1  0.307311  0.307311  0.334558  1
