# generated using pymatgen
data_Ca2YbIrC4
_symmetry_space_group_name_H-M   'P 1'
_cell_length_a   7.86043059
_cell_length_b   7.86043012
_cell_length_c   4.78573172
_cell_angle_alpha   104.37731935
_cell_angle_beta   104.37732022
_cell_angle_gamma   26.88756959
_symmetry_Int_Tables_number   1
_chemical_formula_structural   Ca2YbIrC4
_chemical_formula_sum   'Ca2 Yb1 Ir1 C4'
_cell_volume   129.29309522
_cell_formula_units_Z   1
loop_
 _symmetry_equiv_pos_site_id
 _symmetry_equiv_pos_as_xyz
  1  'x, y, z'
loop_
 _atom_site_type_symbol
 _atom_site_label
 _atom_site_symmetry_multiplicity
 _atom_site_fract_x
 _atom_site_fract_y
 _atom_site_fract_z
 _atom_site_occupancy
  Ca  Ca0  1  0.168086  0.168086  0.218313  1
  Ca  Ca1  1  0.831915  0.831915  0.781687  1
  Yb  Yb2  1  0.000000  0.000000  0.500000  1
  Ir  Ir3  1  0.500000  0.500000  0.000000  1
  C  C4  1  0.398583  0.398583  0.186147  1
  C  C5  1  0.340731  0.340731  0.343474  1
  C  C6  1  0.659269  0.659269  0.656524  1
  C  C7  1  0.601417  0.601417  0.813854  1
