# generated using pymatgen
data_Dy3Y13CdHg3Pt4
_symmetry_space_group_name_H-M   'P 1'
_cell_length_a   9.69229559
_cell_length_b   9.70220876
_cell_length_c   9.70220900
_cell_angle_alpha   60.00000259
_cell_angle_beta   59.96616324
_cell_angle_gamma   59.96616804
_symmetry_Int_Tables_number   1
_chemical_formula_structural   Dy3Y13CdHg3Pt4
_chemical_formula_sum   'Dy3 Y13 Cd1 Hg3 Pt4'
_cell_volume   644.80828871
_cell_formula_units_Z   1
loop_
 _symmetry_equiv_pos_site_id
 _symmetry_equiv_pos_as_xyz
  1  'x, y, z'
loop_
 _atom_site_type_symbol
 _atom_site_label
 _atom_site_symmetry_multiplicity
 _atom_site_fract_x
 _atom_site_fract_y
 _atom_site_fract_z
 _atom_site_occupancy
  Dy  Dy0  1  0.354462  0.353223  0.353223  1
  Dy  Dy1  1  0.354462  0.353223  0.939092  1
  Dy  Dy2  1  0.354462  0.939092  0.353223  1
  Y  Y3  1  0.934810  0.355064  0.355064  1
  Y  Y4  1  0.809930  0.189904  0.189904  1
  Y  Y5  1  0.188887  0.810722  0.810722  1
  Y  Y6  1  0.188887  0.810722  0.189670  1
  Y  Y7  1  0.809930  0.189904  0.810262  1
  Y  Y8  1  0.188887  0.189670  0.810722  1
  Y  Y9  1  0.809930  0.810262  0.189904  1
  Y  Y10  1  0.934124  0.564932  0.564932  1
  Y  Y11  1  0.563766  0.935859  0.935859  1
  Y  Y12  1  0.563766  0.935859  0.564516  1
  Y  Y13  1  0.934124  0.564932  0.936011  1
  Y  Y14  1  0.563766  0.564516  0.935859  1
  Y  Y15  1  0.934124  0.936011  0.564932  1
  Cd  Cd16  1  0.254532  0.581822  0.581822  1
  Hg  Hg17  1  0.585308  0.587337  0.587337  1
  Hg  Hg18  1  0.585308  0.587337  0.240018  1
  Hg  Hg19  1  0.585308  0.240018  0.587337  1
  Pt  Pt20  1  0.144720  0.144038  0.144038  1
  Pt  Pt21  1  0.144720  0.144038  0.567205  1
  Pt  Pt22  1  0.144720  0.567205  0.144038  1
  Pt  Pt23  1  0.567069  0.144310  0.144310  1
