# generated using pymatgen
data_Zr4Co3ReOs4
_symmetry_space_group_name_H-M   'P 1'
_cell_length_a   5.11528929
_cell_length_b   5.05419018
_cell_length_c   8.45971800
_cell_angle_alpha   90.00000000
_cell_angle_beta   90.00000000
_cell_angle_gamma   119.16761540
_symmetry_Int_Tables_number   1
_chemical_formula_structural   Zr4Co3ReOs4
_chemical_formula_sum   'Zr4 Co3 Re1 Os4'
_cell_volume   190.98103457
_cell_formula_units_Z   1
loop_
 _symmetry_equiv_pos_site_id
 _symmetry_equiv_pos_as_xyz
  1  'x, y, z'
loop_
 _atom_site_type_symbol
 _atom_site_label
 _atom_site_symmetry_multiplicity
 _atom_site_fract_x
 _atom_site_fract_y
 _atom_site_fract_z
 _atom_site_occupancy
  Zr  Zr0  1  0.329818  0.666981  0.438386  1
  Zr  Zr1  1  0.664464  0.336072  0.568270  1
  Zr  Zr2  1  0.664464  0.336072  0.931730  1
  Zr  Zr3  1  0.329818  0.666981  0.061614  1
  Co  Co4  1  0.833949  0.656073  0.250000  1
  Co  Co5  1  0.176844  0.832134  0.750000  1
  Co  Co6  1  0.172935  0.340624  0.750000  1
  Re  Re7  1  0.831485  0.166525  0.250000  1
  Os  Os8  1  0.997668  0.000421  0.505404  1
  Os  Os9  1  0.997668  0.000421  0.994596  1
  Os  Os10  1  0.347398  0.168574  0.250000  1
  Os  Os11  1  0.653490  0.829120  0.750000  1
