# generated using pymatgen
data_Rb2TaSbCl12
_symmetry_space_group_name_H-M   'P 1'
_cell_length_a   10.16310570
_cell_length_b   7.21613749
_cell_length_c   7.12053500
_cell_angle_alpha   89.73298641
_cell_angle_beta   89.74367325
_cell_angle_gamma   89.96668867
_symmetry_Int_Tables_number   1
_chemical_formula_structural   Rb2TaSbCl12
_chemical_formula_sum   'Rb2 Ta1 Sb1 Cl12'
_cell_volume   522.19743859
_cell_formula_units_Z   1
loop_
 _symmetry_equiv_pos_site_id
 _symmetry_equiv_pos_as_xyz
  1  'x, y, z'
loop_
 _atom_site_type_symbol
 _atom_site_label
 _atom_site_symmetry_multiplicity
 _atom_site_fract_x
 _atom_site_fract_y
 _atom_site_fract_z
 _atom_site_occupancy
  Rb  Rb0  1  0.739685  0.250280  0.258255  1
  Rb  Rb1  1  0.237776  0.749372  0.743949  1
  Ta  Ta2  1  0.992727  0.249239  0.755046  1
  Sb  Sb3  1  0.492445  0.750780  0.244810  1
  Cl  Cl4  1  0.488067  0.986941  0.483470  1
  Cl  Cl5  1  0.759331  0.248881  0.762682  1
  Cl  Cl6  1  0.996260  0.016544  0.990212  1
  Cl  Cl7  1  0.995616  0.481307  0.988865  1
  Cl  Cl8  1  0.496517  0.987224  0.005556  1
  Cl  Cl9  1  0.729360  0.750293  0.253596  1
  Cl  Cl10  1  0.255139  0.751536  0.238367  1
  Cl  Cl11  1  0.487320  0.513368  0.484337  1
  Cl  Cl12  1  0.988705  0.017205  0.520146  1
  Cl  Cl13  1  0.988224  0.482143  0.518924  1
  Cl  Cl14  1  0.225479  0.249732  0.745069  1
  Cl  Cl15  1  0.496254  0.515157  0.006717  1
