# generated using pymatgen
data_La3Pr3(RhI3)2
_symmetry_space_group_name_H-M   'P 1'
_cell_length_a   4.30812700
_cell_length_b   9.56439773
_cell_length_c   12.71413098
_cell_angle_alpha   87.27803186
_cell_angle_beta   90.00000000
_cell_angle_gamma   90.00000000
_symmetry_Int_Tables_number   1
_chemical_formula_structural   La3Pr3(RhI3)2
_chemical_formula_sum   'La3 Pr3 Rh2 I6'
_cell_volume   523.29011669
_cell_formula_units_Z   1
loop_
 _symmetry_equiv_pos_site_id
 _symmetry_equiv_pos_as_xyz
  1  'x, y, z'
loop_
 _atom_site_type_symbol
 _atom_site_label
 _atom_site_symmetry_multiplicity
 _atom_site_fract_x
 _atom_site_fract_y
 _atom_site_fract_z
 _atom_site_occupancy
  La  La0  1  0.750000  0.688503  0.118719  1
  La  La1  1  0.250000  0.886360  0.337554  1
  La  La2  1  0.250000  0.310038  0.879845  1
  Pr  Pr3  1  0.250000  0.908904  0.892500  1
  Pr  Pr4  1  0.750000  0.114197  0.661953  1
  Pr  Pr5  1  0.750000  0.093124  0.108528  1
  Rh  Rh6  1  0.250000  0.883673  0.121282  1
  Rh  Rh7  1  0.750000  0.115995  0.881858  1
  I  I8  1  0.250000  0.390184  0.134952  1
  I  I9  1  0.750000  0.139324  0.383075  1
  I  I10  1  0.750000  0.608863  0.864440  1
  I  I11  1  0.250000  0.366490  0.621201  1
  I  I12  1  0.750000  0.629465  0.376920  1
  I  I13  1  0.250000  0.864879  0.617172  1
