# generated using pymatgen
data_Tm8Lu2Ir5Os
_symmetry_space_group_name_H-M   'P 1'
_cell_length_a   10.67971800
_cell_length_b   10.67971800
_cell_length_c   6.30552700
_cell_angle_alpha   90.00000000
_cell_angle_beta   90.00000000
_cell_angle_gamma   90.00000000
_symmetry_Int_Tables_number   1
_chemical_formula_structural   Tm8Lu2Ir5Os
_chemical_formula_sum   'Tm16 Lu4 Ir10 Os2'
_cell_volume   719.18556192
_cell_formula_units_Z   2
loop_
 _symmetry_equiv_pos_site_id
 _symmetry_equiv_pos_as_xyz
  1  'x, y, z'
loop_
 _atom_site_type_symbol
 _atom_site_label
 _atom_site_symmetry_multiplicity
 _atom_site_fract_x
 _atom_site_fract_y
 _atom_site_fract_z
 _atom_site_occupancy
  Tm  Tm0  1  0.293484  0.085940  0.376542  1
  Tm  Tm1  1  0.293484  0.914060  0.876542  1
  Tm  Tm2  1  0.706516  0.085940  0.876542  1
  Tm  Tm3  1  0.706516  0.914060  0.376542  1
  Tm  Tm4  1  0.585940  0.793484  0.876542  1
  Tm  Tm5  1  0.585940  0.206516  0.376542  1
  Tm  Tm6  1  0.414060  0.793484  0.376542  1
  Tm  Tm7  1  0.414060  0.206516  0.876542  1
  Tm  Tm8  1  0.209763  0.412572  0.622682  1
  Tm  Tm9  1  0.209763  0.587428  0.122682  1
  Tm  Tm10  1  0.790237  0.412572  0.122682  1
  Tm  Tm11  1  0.790237  0.587428  0.622682  1
  Tm  Tm12  1  0.912572  0.709763  0.122682  1
  Tm  Tm13  1  0.912572  0.290237  0.622682  1
  Tm  Tm14  1  0.087428  0.709763  0.622682  1
  Tm  Tm15  1  0.087428  0.290237  0.122682  1
  Lu  Lu16  1  0.000000  0.000000  0.499458  1
  Lu  Lu17  1  0.000000  0.000000  0.999458  1
  Lu  Lu18  1  0.500000  0.500000  0.999458  1
  Lu  Lu19  1  0.500000  0.500000  0.499458  1
  Ir  Ir20  1  0.848714  0.153034  0.250266  1
  Ir  Ir21  1  0.848714  0.846966  0.750266  1
  Ir  Ir22  1  0.151286  0.153034  0.750266  1
  Ir  Ir23  1  0.151286  0.846966  0.250266  1
  Ir  Ir24  1  0.653034  0.348714  0.750266  1
  Ir  Ir25  1  0.653034  0.651286  0.250266  1
  Ir  Ir26  1  0.346966  0.348714  0.250266  1
  Ir  Ir27  1  0.346966  0.651286  0.750266  1
  Ir  Ir28  1  0.000000  0.500000  0.878277  1
  Ir  Ir29  1  0.000000  0.500000  0.378277  1
  Os  Os30  1  0.500000  0.000000  0.124845  1
  Os  Os31  1  0.500000  0.000000  0.624845  1
