# generated using pymatgen
data_RbNa2AsSe3
_symmetry_space_group_name_H-M   'P 1'
_cell_length_a   9.45164700
_cell_length_b   9.45164700
_cell_length_c   9.45164700
_cell_angle_alpha   90.00000000
_cell_angle_beta   90.00000000
_cell_angle_gamma   90.00000000
_symmetry_Int_Tables_number   1
_chemical_formula_structural   RbNa2AsSe3
_chemical_formula_sum   'Rb4 Na8 As4 Se12'
_cell_volume   844.34994556
_cell_formula_units_Z   4
loop_
 _symmetry_equiv_pos_site_id
 _symmetry_equiv_pos_as_xyz
  1  'x, y, z'
loop_
 _atom_site_type_symbol
 _atom_site_label
 _atom_site_symmetry_multiplicity
 _atom_site_fract_x
 _atom_site_fract_y
 _atom_site_fract_z
 _atom_site_occupancy
  Rb  Rb0  1  0.922825  0.422825  0.077175  1
  Rb  Rb1  1  0.422825  0.077175  0.922825  1
  Rb  Rb2  1  0.077175  0.922825  0.422825  1
  Rb  Rb3  1  0.577175  0.577175  0.577175  1
  Na  Na4  1  0.180988  0.680988  0.819012  1
  Na  Na5  1  0.680988  0.819012  0.180988  1
  Na  Na6  1  0.819012  0.180988  0.680988  1
  Na  Na7  1  0.319012  0.319012  0.319012  1
  Na  Na8  1  0.686995  0.186995  0.313005  1
  Na  Na9  1  0.186995  0.313005  0.686995  1
  Na  Na10  1  0.313005  0.686995  0.186995  1
  Na  Na11  1  0.813005  0.813005  0.813005  1
  As  As12  1  0.477283  0.977283  0.522717  1
  As  As13  1  0.977283  0.522717  0.477283  1
  As  As14  1  0.522717  0.477283  0.977283  1
  As  As15  1  0.022717  0.022717  0.022717  1
  Se  Se16  1  0.003414  0.776621  0.090386  1
  Se  Se17  1  0.909614  0.503414  0.723379  1
  Se  Se18  1  0.276621  0.409614  0.996586  1
  Se  Se19  1  0.503414  0.723379  0.909614  1
  Se  Se20  1  0.409614  0.996586  0.276621  1
  Se  Se21  1  0.776621  0.090386  0.003414  1
  Se  Se22  1  0.996586  0.276621  0.409614  1
  Se  Se23  1  0.090386  0.003414  0.776621  1
  Se  Se24  1  0.723379  0.909614  0.503414  1
  Se  Se25  1  0.496586  0.223379  0.590386  1
  Se  Se26  1  0.590386  0.496586  0.223379  1
  Se  Se27  1  0.223379  0.590386  0.496586  1
