# generated using pymatgen
data_Tb3Lu9Tc3Pt
_symmetry_space_group_name_H-M   'P 1'
_cell_length_a   6.22773589
_cell_length_b   7.33334735
_cell_length_c   8.99749700
_cell_angle_alpha   90.00000000
_cell_angle_beta   90.00000000
_cell_angle_gamma   89.85450334
_symmetry_Int_Tables_number   1
_chemical_formula_structural   Tb3Lu9Tc3Pt
_chemical_formula_sum   'Tb3 Lu9 Tc3 Pt1'
_cell_volume   410.91571742
_cell_formula_units_Z   1
loop_
 _symmetry_equiv_pos_site_id
 _symmetry_equiv_pos_as_xyz
  1  'x, y, z'
loop_
 _atom_site_type_symbol
 _atom_site_label
 _atom_site_symmetry_multiplicity
 _atom_site_fract_x
 _atom_site_fract_y
 _atom_site_fract_z
 _atom_site_occupancy
  Tb  Tb0  1  0.628197  0.043492  0.250000  1
  Tb  Tb1  1  0.123963  0.462259  0.750000  1
  Tb  Tb2  1  0.871265  0.535911  0.250000  1
  Lu  Lu3  1  0.372932  0.957950  0.750000  1
  Lu  Lu4  1  0.165692  0.179404  0.058004  1
  Lu  Lu5  1  0.828959  0.824576  0.932202  1
  Lu  Lu6  1  0.662219  0.322146  0.935652  1
  Lu  Lu7  1  0.828959  0.824576  0.567798  1
  Lu  Lu8  1  0.338897  0.673377  0.059585  1
  Lu  Lu9  1  0.165692  0.179404  0.441996  1
  Lu  Lu10  1  0.338897  0.673377  0.440415  1
  Lu  Lu11  1  0.662219  0.322146  0.564348  1
  Tc  Tc12  1  0.452925  0.384529  0.250000  1
  Tc  Tc13  1  0.541924  0.615969  0.750000  1
  Tc  Tc14  1  0.962846  0.112875  0.750000  1
  Pt  Pt15  1  0.054416  0.888006  0.250000  1
