# generated using pymatgen
data_TbPr4Dy5Sn8
_symmetry_space_group_name_H-M   'P 1'
_cell_length_a   8.15424100
_cell_length_b   8.33013203
_cell_length_c   15.70953605
_cell_angle_alpha   89.99108245
_cell_angle_beta   90.00000000
_cell_angle_gamma   90.00000000
_symmetry_Int_Tables_number   1
_chemical_formula_structural   TbPr4Dy5Sn8
_chemical_formula_sum   'Tb2 Pr8 Dy10 Sn16'
_cell_volume   1067.08442603
_cell_formula_units_Z   2
loop_
 _symmetry_equiv_pos_site_id
 _symmetry_equiv_pos_as_xyz
  1  'x, y, z'
loop_
 _atom_site_type_symbol
 _atom_site_label
 _atom_site_symmetry_multiplicity
 _atom_site_fract_x
 _atom_site_fract_y
 _atom_site_fract_z
 _atom_site_occupancy
  Tb  Tb0  1  0.360541  0.835972  0.877205  1
  Tb  Tb1  1  0.860541  0.664028  0.622795  1
  Pr  Pr2  1  0.513939  0.321714  0.903121  1
  Pr  Pr3  1  0.013939  0.178286  0.596879  1
  Pr  Pr4  1  0.486056  0.678249  0.403042  1
  Pr  Pr5  1  0.986056  0.821751  0.096958  1
  Pr  Pr6  1  0.486065  0.678254  0.097022  1
  Pr  Pr7  1  0.986065  0.821746  0.402978  1
  Pr  Pr8  1  0.513889  0.321674  0.596852  1
  Pr  Pr9  1  0.013889  0.178326  0.903148  1
  Dy  Dy10  1  0.639491  0.163991  0.376966  1
  Dy  Dy11  1  0.139491  0.336009  0.123034  1
  Dy  Dy12  1  0.639460  0.163952  0.122972  1
  Dy  Dy13  1  0.139460  0.336048  0.377028  1
  Dy  Dy14  1  0.360440  0.836042  0.622857  1
  Dy  Dy15  1  0.860440  0.663958  0.877143  1
  Dy  Dy16  1  0.194920  0.502198  0.749976  1
  Dy  Dy17  1  0.694920  0.997802  0.750024  1
  Dy  Dy18  1  0.805179  0.497605  0.249990  1
  Dy  Dy19  1  0.305179  0.002395  0.250010  1
  Sn  Sn20  1  0.303790  0.041215  0.042231  1
  Sn  Sn21  1  0.803790  0.458785  0.457769  1
  Sn  Sn22  1  0.695908  0.959286  0.541886  1
  Sn  Sn23  1  0.195908  0.540714  0.958114  1
  Sn  Sn24  1  0.696552  0.959077  0.958095  1
  Sn  Sn25  1  0.196552  0.540923  0.541905  1
  Sn  Sn26  1  0.303887  0.041036  0.457963  1
  Sn  Sn27  1  0.803887  0.458964  0.042037  1
  Sn  Sn28  1  0.560180  0.623949  0.750011  1
  Sn  Sn29  1  0.060180  0.876051  0.749989  1
  Sn  Sn30  1  0.439927  0.375667  0.250001  1
  Sn  Sn31  1  0.939927  0.124333  0.249999  1
  Sn  Sn32  1  0.323374  0.141931  0.749933  1
  Sn  Sn33  1  0.823374  0.358069  0.750067  1
  Sn  Sn34  1  0.676401  0.858140  0.250001  1
  Sn  Sn35  1  0.176401  0.641860  0.249999  1
