# generated using pymatgen
data_Nd2YGa6(NiRh2)3
_symmetry_space_group_name_H-M   'P 1'
_cell_length_a   9.57030600
_cell_length_b   9.57030503
_cell_length_c   3.88096700
_cell_angle_alpha   90.00000000
_cell_angle_beta   90.00000000
_cell_angle_gamma   120.00000335
_symmetry_Int_Tables_number   1
_chemical_formula_structural   Nd2YGa6(NiRh2)3
_chemical_formula_sum   'Nd2 Y1 Ga6 Ni3 Rh6'
_cell_volume   307.83795920
_cell_formula_units_Z   1
loop_
 _symmetry_equiv_pos_site_id
 _symmetry_equiv_pos_as_xyz
  1  'x, y, z'
loop_
 _atom_site_type_symbol
 _atom_site_label
 _atom_site_symmetry_multiplicity
 _atom_site_fract_x
 _atom_site_fract_y
 _atom_site_fract_z
 _atom_site_occupancy
  Nd  Nd0  1  0.000000  0.000000  0.000000  1
  Nd  Nd1  1  0.333333  0.666667  0.500000  1
  Y  Y2  1  0.666667  0.333333  0.500000  1
  Ga  Ga3  1  0.332999  0.331514  0.500000  1
  Ga  Ga4  1  0.668486  0.001486  0.500000  1
  Ga  Ga5  1  0.668486  0.667001  0.500000  1
  Ga  Ga6  1  0.998514  0.331514  0.500000  1
  Ga  Ga7  1  0.998514  0.667001  0.500000  1
  Ga  Ga8  1  0.332999  0.001486  0.500000  1
  Ni  Ni9  1  0.500802  0.001603  0.000000  1
  Ni  Ni10  1  0.998397  0.499198  0.000000  1
  Ni  Ni11  1  0.500802  0.499198  0.000000  1
  Rh  Rh12  1  0.180680  0.361358  0.000000  1
  Rh  Rh13  1  0.817151  0.634303  0.000000  1
  Rh  Rh14  1  0.180680  0.819320  0.000000  1
  Rh  Rh15  1  0.638642  0.819320  0.000000  1
  Rh  Rh16  1  0.365697  0.182849  0.000000  1
  Rh  Rh17  1  0.817151  0.182849  0.000000  1
