# generated using pymatgen
data_HfThScFe9
_symmetry_space_group_name_H-M   'P 1'
_cell_length_a   8.53874987
_cell_length_b   8.53874983
_cell_length_c   8.53874938
_cell_angle_alpha   33.93216844
_cell_angle_beta   33.93216649
_cell_angle_gamma   33.93216743
_symmetry_Int_Tables_number   1
_chemical_formula_structural   HfThScFe9
_chemical_formula_sum   'Hf1 Th1 Sc1 Fe9'
_cell_volume   172.89867563
_cell_formula_units_Z   1
loop_
 _symmetry_equiv_pos_site_id
 _symmetry_equiv_pos_as_xyz
  1  'x, y, z'
loop_
 _atom_site_type_symbol
 _atom_site_label
 _atom_site_symmetry_multiplicity
 _atom_site_fract_x
 _atom_site_fract_y
 _atom_site_fract_z
 _atom_site_occupancy
  Hf  Hf0  1  0.144217  0.144217  0.144217  1
  Th  Th1  1  0.999640  0.999640  0.999640  1
  Sc  Sc2  1  0.856463  0.856463  0.856463  1
  Fe  Fe3  1  0.412822  0.916301  0.412822  1
  Fe  Fe4  1  0.412822  0.412822  0.916301  1
  Fe  Fe5  1  0.916301  0.412822  0.412822  1
  Fe  Fe6  1  0.587135  0.083447  0.587135  1
  Fe  Fe7  1  0.587135  0.587135  0.083447  1
  Fe  Fe8  1  0.083447  0.587135  0.587135  1
  Fe  Fe9  1  0.667486  0.667486  0.667486  1
  Fe  Fe10  1  0.332592  0.332592  0.332592  1
  Fe  Fe11  1  0.499941  0.499941  0.499941  1
