# generated using pymatgen
data_Dy2Lu2Ni13C4
_symmetry_space_group_name_H-M   'P 1'
_cell_length_a   8.35352202
_cell_length_b   8.35352110
_cell_length_c   3.84263500
_cell_angle_alpha   90.00000000
_cell_angle_beta   90.00000000
_cell_angle_gamma   91.15587637
_symmetry_Int_Tables_number   1
_chemical_formula_structural   Dy2Lu2Ni13C4
_chemical_formula_sum   'Dy2 Lu2 Ni13 C4'
_cell_volume   268.08958855
_cell_formula_units_Z   1
loop_
 _symmetry_equiv_pos_site_id
 _symmetry_equiv_pos_as_xyz
  1  'x, y, z'
loop_
 _atom_site_type_symbol
 _atom_site_label
 _atom_site_symmetry_multiplicity
 _atom_site_fract_x
 _atom_site_fract_y
 _atom_site_fract_z
 _atom_site_occupancy
  Dy  Dy0  1  0.847849  0.847849  0.000000  1
  Dy  Dy1  1  0.152151  0.152151  0.000000  1
  Lu  Lu2  1  0.313157  0.686843  0.000000  1
  Lu  Lu3  1  0.686843  0.313157  0.000000  1
  Ni  Ni4  1  0.500000  0.500000  0.500000  1
  Ni  Ni5  1  0.715034  0.071806  0.500000  1
  Ni  Ni6  1  0.284966  0.928194  0.500000  1
  Ni  Ni7  1  0.928194  0.284966  0.500000  1
  Ni  Ni8  1  0.071806  0.715034  0.500000  1
  Ni  Ni9  1  0.500000  0.000000  0.000000  1
  Ni  Ni10  1  0.000000  0.500000  0.000000  1
  Ni  Ni11  1  0.572358  0.790426  0.500000  1
  Ni  Ni12  1  0.427642  0.209574  0.500000  1
  Ni  Ni13  1  0.209574  0.427642  0.500000  1
  Ni  Ni14  1  0.790426  0.572358  0.500000  1
  Ni  Ni15  1  0.621826  0.621826  0.000000  1
  Ni  Ni16  1  0.378174  0.378174  0.000000  1
  C  C17  1  0.500000  0.000000  0.500000  1
  C  C18  1  0.000000  0.500000  0.500000  1
  C  C19  1  0.942925  0.057075  0.500000  1
  C  C20  1  0.057075  0.942925  0.500000  1
