# generated using pymatgen
data_TmLu(Al5Ru)4
_symmetry_space_group_name_H-M   'P 1'
_cell_length_a   6.84057029
_cell_length_b   6.84057088
_cell_length_c   9.12906400
_cell_angle_alpha   90.00000000
_cell_angle_beta   90.00000000
_cell_angle_gamma   96.64610448
_symmetry_Int_Tables_number   1
_chemical_formula_structural   TmLu(Al5Ru)4
_chemical_formula_sum   'Tm1 Lu1 Al20 Ru4'
_cell_volume   424.30932967
_cell_formula_units_Z   1
loop_
 _symmetry_equiv_pos_site_id
 _symmetry_equiv_pos_as_xyz
  1  'x, y, z'
loop_
 _atom_site_type_symbol
 _atom_site_label
 _atom_site_symmetry_multiplicity
 _atom_site_fract_x
 _atom_site_fract_y
 _atom_site_fract_z
 _atom_site_occupancy
  Tm  Tm0  1  0.127598  0.872402  0.250000  1
  Lu  Lu1  1  0.872090  0.127910  0.750000  1
  Al  Al2  1  0.623146  0.376854  0.550396  1
  Al  Al3  1  0.377010  0.622990  0.449746  1
  Al  Al4  1  0.377010  0.622990  0.050254  1
  Al  Al5  1  0.623146  0.376854  0.949604  1
  Al  Al6  1  0.225457  0.225547  0.500114  1
  Al  Al7  1  0.774453  0.774543  0.500114  1
  Al  Al8  1  0.774453  0.774543  0.999886  1
  Al  Al9  1  0.225457  0.225547  0.999886  1
  Al  Al10  1  0.843832  0.156168  0.099113  1
  Al  Al11  1  0.156081  0.843919  0.900725  1
  Al  Al12  1  0.156081  0.843919  0.599275  1
  Al  Al13  1  0.843832  0.156168  0.400887  1
  Al  Al14  1  0.858691  0.586085  0.750000  1
  Al  Al15  1  0.141163  0.413529  0.250000  1
  Al  Al16  1  0.413915  0.141309  0.750000  1
  Al  Al17  1  0.586471  0.858837  0.250000  1
  Al  Al18  1  0.220278  0.478923  0.750000  1
  Al  Al19  1  0.779633  0.520849  0.250000  1
  Al  Al20  1  0.521077  0.779722  0.750000  1
  Al  Al21  1  0.479151  0.220367  0.250000  1
  Ru  Ru22  1  0.999961  0.499972  0.500137  1
  Ru  Ru23  1  0.999961  0.499972  0.999863  1
  Ru  Ru24  1  0.500028  0.000039  0.999863  1
  Ru  Ru25  1  0.500028  0.000039  0.500137  1
