# generated using pymatgen
data_RbPrCr2O8
_symmetry_space_group_name_H-M   'P 1'
_cell_length_a   5.92114000
_cell_length_b   5.92114029
_cell_length_c   8.20119500
_cell_angle_alpha   90.00000000
_cell_angle_beta   90.00000000
_cell_angle_gamma   119.99999835
_symmetry_Int_Tables_number   1
_chemical_formula_structural   RbPrCr2O8
_chemical_formula_sum   'Rb1 Pr1 Cr2 O8'
_cell_volume   249.01095747
_cell_formula_units_Z   1
loop_
 _symmetry_equiv_pos_site_id
 _symmetry_equiv_pos_as_xyz
  1  'x, y, z'
loop_
 _atom_site_type_symbol
 _atom_site_label
 _atom_site_symmetry_multiplicity
 _atom_site_fract_x
 _atom_site_fract_y
 _atom_site_fract_z
 _atom_site_occupancy
  Rb  Rb0  1  0.000000  0.000000  0.500000  1
  Pr  Pr1  1  0.000000  0.000000  0.000000  1
  Cr  Cr2  1  0.333333  0.666666  0.251689  1
  Cr  Cr3  1  0.666668  0.333334  0.748310  1
  O  O4  1  0.178565  0.357130  0.184297  1
  O  O5  1  0.178566  0.821435  0.184297  1
  O  O6  1  0.642869  0.821435  0.184297  1
  O  O7  1  0.666668  0.333334  0.550555  1
  O  O8  1  0.333333  0.666666  0.449444  1
  O  O9  1  0.357130  0.178565  0.815703  1
  O  O10  1  0.821435  0.178565  0.815703  1
  O  O11  1  0.821436  0.642870  0.815703  1
