# generated using pymatgen
data_Er6C2Br7
_symmetry_space_group_name_H-M   'P 1'
_cell_length_a   10.43336637
_cell_length_b   10.43336554
_cell_length_c   12.22948959
_cell_angle_alpha   57.56234739
_cell_angle_beta   57.56234950
_cell_angle_gamma   20.84295729
_symmetry_Int_Tables_number   1
_chemical_formula_structural   Er6C2Br7
_chemical_formula_sum   'Er6 C2 Br7'
_cell_volume   397.02249907
_cell_formula_units_Z   1
loop_
 _symmetry_equiv_pos_site_id
 _symmetry_equiv_pos_as_xyz
  1  'x, y, z'
loop_
 _atom_site_type_symbol
 _atom_site_label
 _atom_site_symmetry_multiplicity
 _atom_site_fract_x
 _atom_site_fract_y
 _atom_site_fract_z
 _atom_site_occupancy
  Er  Er0  1  0.235334  0.235334  0.817405  1
  Er  Er1  1  0.311369  0.311369  0.370329  1
  Er  Er2  1  0.130540  0.130540  0.449430  1
  Er  Er3  1  0.869460  0.869460  0.550570  1
  Er  Er4  1  0.688631  0.688631  0.629671  1
  Er  Er5  1  0.764666  0.764666  0.182595  1
  C  C6  1  0.281428  0.281428  0.598203  1
  C  C7  1  0.718572  0.718572  0.401797  1
  Br  Br8  1  0.161484  0.161484  0.180112  1
  Br  Br9  1  0.838516  0.838516  0.819888  1
  Br  Br10  1  0.059227  0.059227  0.717910  1
  Br  Br11  1  0.940773  0.940773  0.282090  1
  Br  Br12  1  0.500000  0.500000  0.500000  1
  Br  Br13  1  0.384418  0.384418  0.077790  1
  Br  Br14  1  0.615582  0.615582  0.922210  1
