# generated using pymatgen
data_La2GeI
_symmetry_space_group_name_H-M   'P 1'
_cell_length_a   8.08596423
_cell_length_b   8.08596427
_cell_length_c   8.08596481
_cell_angle_alpha   32.20666312
_cell_angle_beta   32.20666277
_cell_angle_gamma   32.20666329
_symmetry_Int_Tables_number   1
_chemical_formula_structural   La2GeI
_chemical_formula_sum   'La2 Ge1 I1'
_cell_volume   133.47648603
_cell_formula_units_Z   1
loop_
 _symmetry_equiv_pos_site_id
 _symmetry_equiv_pos_as_xyz
  1  'x, y, z'
loop_
 _atom_site_type_symbol
 _atom_site_label
 _atom_site_symmetry_multiplicity
 _atom_site_fract_x
 _atom_site_fract_y
 _atom_site_fract_z
 _atom_site_occupancy
  La  La0  1  0.235437  0.235437  0.235437  1
  La  La1  1  0.764563  0.764563  0.764563  1
  Ge  Ge2  1  0.500000  0.500000  0.500000  1
  I  I3  1  0.000000  0.000000  0.000000  1
