# generated using pymatgen
data_Y4ErOs2
_symmetry_space_group_name_H-M   'P 1'
_cell_length_a   6.38326491
_cell_length_b   7.37859924
_cell_length_c   8.46475391
_cell_angle_alpha   96.77322172
_cell_angle_beta   112.15104712
_cell_angle_gamma   89.99999738
_symmetry_Int_Tables_number   1
_chemical_formula_structural   Y4ErOs2
_chemical_formula_sum   'Y8 Er2 Os4'
_cell_volume   366.25430959
_cell_formula_units_Z   2
loop_
 _symmetry_equiv_pos_site_id
 _symmetry_equiv_pos_as_xyz
  1  'x, y, z'
loop_
 _atom_site_type_symbol
 _atom_site_label
 _atom_site_symmetry_multiplicity
 _atom_site_fract_x
 _atom_site_fract_y
 _atom_site_fract_z
 _atom_site_occupancy
  Y  Y0  1  0.792694  0.583679  0.817182  1
  Y  Y1  1  0.975512  0.916321  0.182818  1
  Y  Y2  1  0.207306  0.416321  0.182818  1
  Y  Y3  1  0.024488  0.083679  0.817182  1
  Y  Y4  1  0.203916  0.682791  0.565077  1
  Y  Y5  1  0.638839  0.817209  0.434923  1
  Y  Y6  1  0.796084  0.317209  0.434923  1
  Y  Y7  1  0.361161  0.182791  0.565077  1
  Er  Er8  1  0.422704  0.750000  0.000000  1
  Er  Er9  1  0.577296  0.250000  0.000000  1
  Os  Os10  1  0.601542  0.923403  0.783336  1
  Os  Os11  1  0.818207  0.576597  0.216664  1
  Os  Os12  1  0.398458  0.076597  0.216664  1
  Os  Os13  1  0.181793  0.423403  0.783336  1
