# generated using pymatgen
data_Ti3GaIrO
_symmetry_space_group_name_H-M   'P 1'
_cell_length_a   6.84711100
_cell_length_b   6.84711100
_cell_length_c   6.84711100
_cell_angle_alpha   90.00000000
_cell_angle_beta   90.00000000
_cell_angle_gamma   90.00000000
_symmetry_Int_Tables_number   1
_chemical_formula_structural   Ti3GaIrO
_chemical_formula_sum   'Ti12 Ga4 Ir4 O4'
_cell_volume   321.01261919
_cell_formula_units_Z   4
loop_
 _symmetry_equiv_pos_site_id
 _symmetry_equiv_pos_as_xyz
  1  'x, y, z'
loop_
 _atom_site_type_symbol
 _atom_site_label
 _atom_site_symmetry_multiplicity
 _atom_site_fract_x
 _atom_site_fract_y
 _atom_site_fract_z
 _atom_site_occupancy
  Ti  Ti0  1  0.797613  0.958760  0.375346  1
  Ti  Ti1  1  0.702387  0.041240  0.875346  1
  Ti  Ti2  1  0.202387  0.458760  0.124654  1
  Ti  Ti3  1  0.297613  0.541240  0.624654  1
  Ti  Ti4  1  0.958760  0.375346  0.797613  1
  Ti  Ti5  1  0.041240  0.875346  0.702387  1
  Ti  Ti6  1  0.458760  0.124654  0.202387  1
  Ti  Ti7  1  0.541240  0.624654  0.297613  1
  Ti  Ti8  1  0.375346  0.797613  0.958760  1
  Ti  Ti9  1  0.875346  0.702387  0.041240  1
  Ti  Ti10  1  0.124654  0.202387  0.458760  1
  Ti  Ti11  1  0.624654  0.297613  0.541240  1
  Ga  Ga12  1  0.566614  0.433386  0.933386  1
  Ga  Ga13  1  0.433386  0.933386  0.566614  1
  Ga  Ga14  1  0.933386  0.566614  0.433386  1
  Ga  Ga15  1  0.066614  0.066614  0.066614  1
  Ir  Ir16  1  0.179173  0.820827  0.320827  1
  Ir  Ir17  1  0.320827  0.179173  0.820827  1
  Ir  Ir18  1  0.820827  0.320827  0.179173  1
  Ir  Ir19  1  0.679173  0.679173  0.679173  1
  O  O20  1  0.871236  0.128764  0.628764  1
  O  O21  1  0.628764  0.871236  0.128764  1
  O  O22  1  0.128764  0.628764  0.871236  1
  O  O23  1  0.371236  0.371236  0.371236  1
