# generated using pymatgen
data_Ho5Tm5(Bi2Ir)2
_symmetry_space_group_name_H-M   'P 1'
_cell_length_a   7.90430501
_cell_length_b   8.97911300
_cell_length_c   12.45317457
_cell_angle_alpha   90.00000000
_cell_angle_beta   89.94232020
_cell_angle_gamma   90.00000000
_symmetry_Int_Tables_number   1
_chemical_formula_structural   Ho5Tm5(Bi2Ir)2
_chemical_formula_sum   'Ho10 Tm10 Bi8 Ir4'
_cell_volume   883.84677851
_cell_formula_units_Z   2
loop_
 _symmetry_equiv_pos_site_id
 _symmetry_equiv_pos_as_xyz
  1  'x, y, z'
loop_
 _atom_site_type_symbol
 _atom_site_label
 _atom_site_symmetry_multiplicity
 _atom_site_fract_x
 _atom_site_fract_y
 _atom_site_fract_z
 _atom_site_occupancy
  Ho  Ho0  1  0.339768  0.250000  0.706760  1
  Ho  Ho1  1  0.660232  0.750000  0.293240  1
  Ho  Ho2  1  0.375703  0.750000  0.691489  1
  Ho  Ho3  1  0.624297  0.250000  0.308511  1
  Ho  Ho4  1  0.875399  0.250000  0.808778  1
  Ho  Ho5  1  0.124601  0.750000  0.191222  1
  Ho  Ho6  1  0.945963  0.750000  0.501874  1
  Ho  Ho7  1  0.054037  0.250000  0.498126  1
  Ho  Ho8  1  0.445677  0.250000  0.998495  1
  Ho  Ho9  1  0.554323  0.750000  0.001505  1
  Tm  Tm10  1  0.840148  0.750000  0.793856  1
  Tm  Tm11  1  0.159852  0.250000  0.206144  1
  Tm  Tm12  1  0.673931  0.042227  0.566077  1
  Tm  Tm13  1  0.326069  0.957773  0.433923  1
  Tm  Tm14  1  0.173656  0.957517  0.933828  1
  Tm  Tm15  1  0.326069  0.542227  0.433923  1
  Tm  Tm16  1  0.826344  0.042483  0.066172  1
  Tm  Tm17  1  0.673931  0.457773  0.566077  1
  Tm  Tm18  1  0.826344  0.457517  0.066172  1
  Tm  Tm19  1  0.173656  0.542483  0.933828  1
  Bi  Bi20  1  0.566298  0.491664  0.826829  1
  Bi  Bi21  1  0.433702  0.508336  0.173171  1
  Bi  Bi22  1  0.064986  0.509061  0.673349  1
  Bi  Bi23  1  0.433702  0.991664  0.173171  1
  Bi  Bi24  1  0.935014  0.490939  0.326651  1
  Bi  Bi25  1  0.566298  0.008336  0.826829  1
  Bi  Bi26  1  0.935014  0.009061  0.326651  1
  Bi  Bi27  1  0.064986  0.990939  0.673349  1
  Ir  Ir28  1  0.571045  0.750000  0.508668  1
  Ir  Ir29  1  0.428955  0.250000  0.491332  1
  Ir  Ir30  1  0.071759  0.250000  0.992382  1
  Ir  Ir31  1  0.928241  0.750000  0.007618  1
