# generated using pymatgen
data_Ba5Tb8Mn4O21
_symmetry_space_group_name_H-M   'P 1'
_cell_length_a   10.35625184
_cell_length_b   10.35624844
_cell_length_c   10.35624322
_cell_angle_alpha   94.51961451
_cell_angle_beta   94.51949065
_cell_angle_gamma   147.39460336
_symmetry_Int_Tables_number   1
_chemical_formula_structural   Ba5Tb8Mn4O21
_chemical_formula_sum   'Ba5 Tb8 Mn4 O21'
_cell_volume   574.45022151
_cell_formula_units_Z   1
loop_
 _symmetry_equiv_pos_site_id
 _symmetry_equiv_pos_as_xyz
  1  'x, y, z'
loop_
 _atom_site_type_symbol
 _atom_site_label
 _atom_site_symmetry_multiplicity
 _atom_site_fract_x
 _atom_site_fract_y
 _atom_site_fract_z
 _atom_site_occupancy
  Ba  Ba0  1  0.000000  0.000000  0.000000  1
  Ba  Ba1  1  0.139043  0.533638  0.672679  1
  Ba  Ba2  1  0.860957  0.466362  0.327321  1
  Ba  Ba3  1  0.466362  0.139043  0.605405  1
  Ba  Ba4  1  0.533638  0.860957  0.394595  1
  Tb  Tb5  1  0.169776  0.248448  0.418222  1
  Tb  Tb6  1  0.830224  0.751552  0.581778  1
  Tb  Tb7  1  0.751553  0.169775  0.921327  1
  Tb  Tb8  1  0.248447  0.830225  0.078673  1
  Tb  Tb9  1  0.359068  0.410374  0.769443  1
  Tb  Tb10  1  0.640932  0.589626  0.230557  1
  Tb  Tb11  1  0.589625  0.359068  0.948694  1
  Tb  Tb12  1  0.410375  0.640932  0.051306  1
  Mn  Mn13  1  0.248408  0.040301  0.288711  1
  Mn  Mn14  1  0.751592  0.959699  0.711289  1
  Mn  Mn15  1  0.959709  0.248433  0.208138  1
  Mn  Mn16  1  0.040291  0.751567  0.791862  1
  O  O17  1  0.500000  0.500000  0.000000  1
  O  O18  1  0.961792  0.627107  0.588900  1
  O  O19  1  0.038208  0.372893  0.411100  1
  O  O20  1  0.372892  0.961792  0.334686  1
  O  O21  1  0.627108  0.038208  0.665314  1
  O  O22  1  0.299054  0.428556  0.225436  1
  O  O23  1  0.203119  0.073617  0.774563  1
  O  O24  1  0.073615  0.299052  0.870497  1
  O  O25  1  0.428556  0.203119  0.129502  1
  O  O26  1  0.700946  0.571444  0.774564  1
  O  O27  1  0.796881  0.926383  0.225437  1
  O  O28  1  0.926385  0.700948  0.129503  1
  O  O29  1  0.571444  0.796881  0.870498  1
  O  O30  1  0.493226  0.600048  0.594330  1
  O  O31  1  0.005717  0.898896  0.405671  1
  O  O32  1  0.898896  0.493226  0.893179  1
  O  O33  1  0.600046  0.005717  0.106821  1
  O  O34  1  0.506774  0.399952  0.405670  1
  O  O35  1  0.994283  0.101104  0.594329  1
  O  O36  1  0.101104  0.506774  0.106821  1
  O  O37  1  0.399954  0.994283  0.893179  1
