# generated using pymatgen
data_Sc2(TaRe8)3
_symmetry_space_group_name_H-M   'P 1'
_cell_length_a   8.43302787
_cell_length_b   8.43302628
_cell_length_c   8.42002500
_cell_angle_alpha   109.43999305
_cell_angle_beta   109.43998923
_cell_angle_gamma   109.50243102
_symmetry_Int_Tables_number   1
_chemical_formula_structural   Sc2(TaRe8)3
_chemical_formula_sum   'Sc2 Ta3 Re24'
_cell_volume   461.13249093
_cell_formula_units_Z   1
loop_
 _symmetry_equiv_pos_site_id
 _symmetry_equiv_pos_as_xyz
  1  'x, y, z'
loop_
 _atom_site_type_symbol
 _atom_site_label
 _atom_site_symmetry_multiplicity
 _atom_site_fract_x
 _atom_site_fract_y
 _atom_site_fract_z
 _atom_site_occupancy
  Sc  Sc0  1  0.000000  0.000000  0.631525  1
  Sc  Sc1  1  0.000000  0.000000  0.998155  1
  Ta  Ta2  1  0.368086  0.368086  0.367630  1
  Ta  Ta3  1  0.000000  0.631914  0.999544  1
  Ta  Ta4  1  0.631914  0.000000  0.999544  1
  Re  Re5  1  0.000000  0.397316  0.680924  1
  Re  Re6  1  0.282207  0.600800  0.600185  1
  Re  Re7  1  0.717793  0.318593  0.317979  1
  Re  Re8  1  0.318593  0.717793  0.317979  1
  Re  Re9  1  0.676542  0.000000  0.396305  1
  Re  Re10  1  0.000000  0.676542  0.396305  1
  Re  Re11  1  0.602684  0.602684  0.283609  1
  Re  Re12  1  0.805974  0.805974  0.181859  1
  Re  Re13  1  0.376350  0.193529  0.000811  1
  Re  Re14  1  0.193529  0.376350  0.000811  1
  Re  Re15  1  0.623650  0.817179  0.624460  1
  Re  Re16  1  0.376496  0.000000  0.196145  1
  Re  Re17  1  0.000000  0.376496  0.196145  1
  Re  Re18  1  0.817179  0.623650  0.624460  1
  Re  Re19  1  0.182821  0.806471  0.807282  1
  Re  Re20  1  0.806471  0.182821  0.807282  1
  Re  Re21  1  0.194026  0.000000  0.375885  1
  Re  Re22  1  0.000000  0.194026  0.375885  1
  Re  Re23  1  0.623504  0.623504  0.819648  1
  Re  Re24  1  0.397316  0.000000  0.680924  1
  Re  Re25  1  0.600800  0.282207  0.600185  1
  Re  Re26  1  0.681407  0.399200  0.999386  1
  Re  Re27  1  0.399200  0.681407  0.999386  1
  Re  Re28  1  0.323458  0.323458  0.719762  1
