# generated using pymatgen
data_SmBRu2C
_symmetry_space_group_name_H-M   'P 1'
_cell_length_a   6.69601455
_cell_length_b   5.89426562
_cell_length_c   5.53322920
_cell_angle_alpha   71.66198841
_cell_angle_beta   56.67443313
_cell_angle_gamma   51.66358300
_symmetry_Int_Tables_number   1
_chemical_formula_structural   SmBRu2C
_chemical_formula_sum   'Sm2 B2 Ru4 C2'
_cell_volume   143.01620342
_cell_formula_units_Z   2
loop_
 _symmetry_equiv_pos_site_id
 _symmetry_equiv_pos_as_xyz
  1  'x, y, z'
loop_
 _atom_site_type_symbol
 _atom_site_label
 _atom_site_symmetry_multiplicity
 _atom_site_fract_x
 _atom_site_fract_y
 _atom_site_fract_z
 _atom_site_occupancy
  Sm  Sm0  1  0.000000  0.000000  0.000000  1
  Sm  Sm1  1  0.250000  0.250000  0.250000  1
  B  B2  1  0.933386  0.566614  0.933386  1
  B  B3  1  0.566614  0.933386  0.566614  1
  Ru  Ru4  1  0.608165  0.608165  0.891835  1
  Ru  Ru5  1  0.632278  0.632278  0.367722  1
  Ru  Ru6  1  0.367722  0.367722  0.632278  1
  Ru  Ru7  1  0.891835  0.891835  0.608165  1
  C  C8  1  0.683278  0.316722  0.683278  1
  C  C9  1  0.316722  0.683278  0.316722  1
