# generated using pymatgen
data_BaGa6PtAu3
_symmetry_space_group_name_H-M   'P 1'
_cell_length_a   7.78107400
_cell_length_b   7.78107335
_cell_length_c   4.18775500
_cell_angle_alpha   90.00000000
_cell_angle_beta   90.00000000
_cell_angle_gamma   120.00000277
_symmetry_Int_Tables_number   1
_chemical_formula_structural   BaGa6PtAu3
_chemical_formula_sum   'Ba1 Ga6 Pt1 Au3'
_cell_volume   219.57906941
_cell_formula_units_Z   1
loop_
 _symmetry_equiv_pos_site_id
 _symmetry_equiv_pos_as_xyz
  1  'x, y, z'
loop_
 _atom_site_type_symbol
 _atom_site_label
 _atom_site_symmetry_multiplicity
 _atom_site_fract_x
 _atom_site_fract_y
 _atom_site_fract_z
 _atom_site_occupancy
  Ba  Ba0  1  0.000000  0.000000  0.000000  1
  Ga  Ga1  1  0.942678  0.471339  0.000000  1
  Ga  Ga2  1  0.206041  0.793959  0.500000  1
  Ga  Ga3  1  0.528661  0.057322  0.000000  1
  Ga  Ga4  1  0.528661  0.471339  0.000000  1
  Ga  Ga5  1  0.206041  0.412082  0.500000  1
  Ga  Ga6  1  0.587918  0.793959  0.500000  1
  Pt  Pt7  1  0.333333  0.666667  0.000000  1
  Au  Au8  1  0.406301  0.203150  0.500000  1
  Au  Au9  1  0.796850  0.203150  0.500000  1
  Au  Au10  1  0.796850  0.593699  0.500000  1
