# generated using pymatgen
data_Tb2Tm2Sc3AlPt4
_symmetry_space_group_name_H-M   'P 1'
_cell_length_a   4.50741900
_cell_length_b   7.00471138
_cell_length_c   8.28202563
_cell_angle_alpha   86.77748883
_cell_angle_beta   90.00000000
_cell_angle_gamma   90.00000000
_symmetry_Int_Tables_number   1
_chemical_formula_structural   Tb2Tm2Sc3AlPt4
_chemical_formula_sum   'Tb2 Tm2 Sc3 Al1 Pt4'
_cell_volume   261.07631701
_cell_formula_units_Z   1
loop_
 _symmetry_equiv_pos_site_id
 _symmetry_equiv_pos_as_xyz
  1  'x, y, z'
loop_
 _atom_site_type_symbol
 _atom_site_label
 _atom_site_symmetry_multiplicity
 _atom_site_fract_x
 _atom_site_fract_y
 _atom_site_fract_z
 _atom_site_occupancy
  Tb  Tb0  1  0.250000  0.039803  0.672850  1
  Tb  Tb1  1  0.750000  0.988358  0.339730  1
  Tm  Tm2  1  0.250000  0.521197  0.815947  1
  Tm  Tm3  1  0.750000  0.468339  0.182637  1
  Sc  Sc4  1  0.250000  0.133685  0.070008  1
  Sc  Sc5  1  0.250000  0.638879  0.435055  1
  Sc  Sc6  1  0.750000  0.861031  0.929629  1
  Al  Al7  1  0.750000  0.362052  0.567623  1
  Pt  Pt8  1  0.250000  0.265875  0.382323  1
  Pt  Pt9  1  0.250000  0.743360  0.100077  1
  Pt  Pt10  1  0.750000  0.729841  0.616167  1
  Pt  Pt11  1  0.750000  0.247578  0.887954  1
