# generated using pymatgen
data_Zr3GaSi2Ru3
_symmetry_space_group_name_H-M   'P 1'
_cell_length_a   6.86021900
_cell_length_b   6.86021931
_cell_length_c   3.60759800
_cell_angle_alpha   90.00000000
_cell_angle_beta   90.00000000
_cell_angle_gamma   120.00000332
_symmetry_Int_Tables_number   1
_chemical_formula_structural   Zr3GaSi2Ru3
_chemical_formula_sum   'Zr3 Ga1 Si2 Ru3'
_cell_volume   147.03635710
_cell_formula_units_Z   1
loop_
 _symmetry_equiv_pos_site_id
 _symmetry_equiv_pos_as_xyz
  1  'x, y, z'
loop_
 _atom_site_type_symbol
 _atom_site_label
 _atom_site_symmetry_multiplicity
 _atom_site_fract_x
 _atom_site_fract_y
 _atom_site_fract_z
 _atom_site_occupancy
  Zr  Zr0  1  0.407453  0.413965  0.500000  1
  Zr  Zr1  1  0.586035  0.993487  0.500000  1
  Zr  Zr2  1  0.006513  0.592547  0.500000  1
  Ga  Ga3  1  0.666667  0.333333  0.000000  1
  Si  Si4  1  0.000000  0.000000  0.500000  1
  Si  Si5  1  0.333333  0.666667  0.000000  1
  Ru  Ru6  1  0.009634  0.248393  0.000000  1
  Ru  Ru7  1  0.238759  0.990366  0.000000  1
  Ru  Ru8  1  0.751607  0.761241  0.000000  1
