# generated using pymatgen
data_Ho5In2Te
_symmetry_space_group_name_H-M   'P 1'
_cell_length_a   8.93961958
_cell_length_b   8.96106344
_cell_length_c   6.52233800
_cell_angle_alpha   90.00000000
_cell_angle_beta   90.00000000
_cell_angle_gamma   120.07938543
_symmetry_Int_Tables_number   1
_chemical_formula_structural   Ho5In2Te
_chemical_formula_sum   'Ho10 In4 Te2'
_cell_volume   452.13128314
_cell_formula_units_Z   2
loop_
 _symmetry_equiv_pos_site_id
 _symmetry_equiv_pos_as_xyz
  1  'x, y, z'
loop_
 _atom_site_type_symbol
 _atom_site_label
 _atom_site_symmetry_multiplicity
 _atom_site_fract_x
 _atom_site_fract_y
 _atom_site_fract_z
 _atom_site_occupancy
  Ho  Ho0  1  0.668083  0.336232  0.003313  1
  Ho  Ho1  1  0.331917  0.668150  0.003313  1
  Ho  Ho2  1  0.331917  0.668150  0.496687  1
  Ho  Ho3  1  0.668083  0.336232  0.496687  1
  Ho  Ho4  1  0.765888  0.759433  0.750000  1
  Ho  Ho5  1  0.234112  0.993545  0.750000  1
  Ho  Ho6  1  0.000000  0.238298  0.750000  1
  Ho  Ho7  1  0.235625  0.236695  0.250000  1
  Ho  Ho8  1  0.764375  0.001070  0.250000  1
  Ho  Ho9  1  0.000000  0.762655  0.250000  1
  In  In10  1  0.000000  0.599736  0.750000  1
  In  In11  1  0.603935  0.607383  0.250000  1
  In  In12  1  0.396065  0.003448  0.250000  1
  In  In13  1  0.000000  0.396099  0.250000  1
  Te  Te14  1  0.389479  0.391177  0.750000  1
  Te  Te15  1  0.610521  0.001698  0.750000  1
