# generated using pymatgen
data_PrNd2Pu(MoN3)4
_symmetry_space_group_name_H-M   'P 1'
_cell_length_a   7.31358073
_cell_length_b   7.31357762
_cell_length_c   6.27638752
_cell_angle_alpha   76.13947750
_cell_angle_beta   76.13951435
_cell_angle_gamma   83.66320166
_symmetry_Int_Tables_number   1
_chemical_formula_structural   PrNd2Pu(MoN3)4
_chemical_formula_sum   'Pr1 Nd2 Pu1 Mo4 N12'
_cell_volume   315.94775218
_cell_formula_units_Z   1
loop_
 _symmetry_equiv_pos_site_id
 _symmetry_equiv_pos_as_xyz
  1  'x, y, z'
loop_
 _atom_site_type_symbol
 _atom_site_label
 _atom_site_symmetry_multiplicity
 _atom_site_fract_x
 _atom_site_fract_y
 _atom_site_fract_z
 _atom_site_occupancy
  Pr  Pr0  1  0.312840  0.687160  0.750000  1
  Nd  Nd1  1  0.911179  0.088821  0.750000  1
  Nd  Nd2  1  0.686330  0.313670  0.250000  1
  Pu  Pu3  1  0.088468  0.911532  0.250000  1
  Mo  Mo4  1  0.801264  0.618738  0.746687  1
  Mo  Mo5  1  0.199749  0.383111  0.250000  1
  Mo  Mo6  1  0.616890  0.800250  0.250000  1
  Mo  Mo7  1  0.381262  0.198736  0.753314  1
  N  N8  1  0.221198  0.998942  0.864028  1
  N  N9  1  0.335440  0.370785  0.485519  1
  N  N10  1  0.658908  0.623896  0.516530  1
  N  N11  1  0.614167  0.110164  0.648435  1
  N  N12  1  0.001058  0.778802  0.635972  1
  N  N13  1  0.781642  0.995445  0.158853  1
  N  N14  1  0.112488  0.622593  0.157309  1
  N  N15  1  0.889836  0.385834  0.851565  1
  N  N16  1  0.004555  0.218358  0.341146  1
  N  N17  1  0.376104  0.341092  0.983469  1
  N  N18  1  0.629214  0.664559  0.014481  1
  N  N19  1  0.377407  0.887512  0.342690  1
