# generated using pymatgen
data_Ti8Re3MoIr4
_symmetry_space_group_name_H-M   'P 1'
_cell_length_a   6.22118900
_cell_length_b   4.40457200
_cell_length_c   8.80609700
_cell_angle_alpha   90.00000000
_cell_angle_beta   90.00033494
_cell_angle_gamma   90.00000000
_symmetry_Int_Tables_number   1
_chemical_formula_structural   Ti8Re3MoIr4
_chemical_formula_sum   'Ti8 Re3 Mo1 Ir4'
_cell_volume   241.30180692
_cell_formula_units_Z   1
loop_
 _symmetry_equiv_pos_site_id
 _symmetry_equiv_pos_as_xyz
  1  'x, y, z'
loop_
 _atom_site_type_symbol
 _atom_site_label
 _atom_site_symmetry_multiplicity
 _atom_site_fract_x
 _atom_site_fract_y
 _atom_site_fract_z
 _atom_site_occupancy
  Ti  Ti0  1  0.999421  0.750001  0.125002  1
  Ti  Ti1  1  0.500611  0.750001  0.125001  1
  Ti  Ti2  1  0.999473  0.249999  0.374840  1
  Ti  Ti3  1  0.500585  0.249999  0.374841  1
  Ti  Ti4  1  0.500383  0.750001  0.625002  1
  Ti  Ti5  1  0.999562  0.750001  0.625004  1
  Ti  Ti6  1  0.500538  0.249999  0.875150  1
  Ti  Ti7  1  0.999430  0.249999  0.875152  1
  Re  Re8  1  0.250010  0.750001  0.375596  1
  Re  Re9  1  0.749974  0.249999  0.625005  1
  Re  Re10  1  0.249971  0.750001  0.874409  1
  Mo  Mo11  1  0.750030  0.249999  0.125001  1
  Ir  Ir12  1  0.250036  0.249999  0.124994  1
  Ir  Ir13  1  0.750025  0.750001  0.375879  1
  Ir  Ir14  1  0.249979  0.249999  0.624997  1
  Ir  Ir15  1  0.749973  0.750001  0.874126  1
