# generated using pymatgen
data_LiIn5S8
_symmetry_space_group_name_H-M   'P 1'
_cell_length_a   7.71744798
_cell_length_b   7.71744798
_cell_length_c   7.71744800
_cell_angle_alpha   59.99999991
_cell_angle_beta   59.99999992
_cell_angle_gamma   60.00000241
_symmetry_Int_Tables_number   1
_chemical_formula_structural   LiIn5S8
_chemical_formula_sum   'Li1 In5 S8'
_cell_volume   325.01704918
_cell_formula_units_Z   1
loop_
 _symmetry_equiv_pos_site_id
 _symmetry_equiv_pos_as_xyz
  1  'x, y, z'
loop_
 _atom_site_type_symbol
 _atom_site_label
 _atom_site_symmetry_multiplicity
 _atom_site_fract_x
 _atom_site_fract_y
 _atom_site_fract_z
 _atom_site_occupancy
  Li  Li0  1  0.750000  0.750000  0.750000  1
  In  In1  1  0.645643  0.118119  0.118119  1
  In  In2  1  0.118119  0.118119  0.645643  1
  In  In3  1  0.118119  0.118119  0.118119  1
  In  In4  1  0.500000  0.500000  0.500000  1
  In  In5  1  0.118119  0.645643  0.118119  1
  S  S6  1  0.902877  0.365707  0.365707  1
  S  S7  1  0.365707  0.902877  0.365707  1
  S  S8  1  0.365707  0.365707  0.365707  1
  S  S9  1  0.880366  0.880366  0.358904  1
  S  S10  1  0.365707  0.365707  0.902877  1
  S  S11  1  0.880366  0.358904  0.880366  1
  S  S12  1  0.880366  0.880366  0.880366  1
  S  S13  1  0.358904  0.880366  0.880366  1
