# generated using pymatgen
data_Tm6Sc4BiPb5
_symmetry_space_group_name_H-M   'P 1'
_cell_length_a   6.28666400
_cell_length_b   8.83493506
_cell_length_c   8.83110540
_cell_angle_alpha   120.01434856
_cell_angle_beta   90.00027952
_cell_angle_gamma   89.99943319
_symmetry_Int_Tables_number   1
_chemical_formula_structural   Tm6Sc4BiPb5
_chemical_formula_sum   'Tm6 Sc4 Bi1 Pb5'
_cell_volume   424.72370389
_cell_formula_units_Z   1
loop_
 _symmetry_equiv_pos_site_id
 _symmetry_equiv_pos_as_xyz
  1  'x, y, z'
loop_
 _atom_site_type_symbol
 _atom_site_label
 _atom_site_symmetry_multiplicity
 _atom_site_fract_x
 _atom_site_fract_y
 _atom_site_fract_z
 _atom_site_occupancy
  Tm  Tm0  1  0.749995  0.236193  0.000000  1
  Tm  Tm1  1  0.749992  0.763184  0.760411  1
  Tm  Tm2  1  0.749992  0.002773  0.239589  1
  Tm  Tm3  1  0.249994  0.762397  0.000000  1
  Tm  Tm4  1  0.249989  0.237531  0.238057  1
  Tm  Tm5  1  0.249989  0.999475  0.761943  1
  Sc  Sc6  1  0.499299  0.332344  0.665313  1
  Sc  Sc7  1  0.499299  0.667032  0.334687  1
  Sc  Sc8  1  0.000727  0.667070  0.334754  1
  Sc  Sc9  1  0.000727  0.332316  0.665246  1
  Bi  Bi10  1  0.750010  0.602048  0.000000  1
  Pb  Pb11  1  0.750000  0.398594  0.398508  1
  Pb  Pb12  1  0.750000  0.000086  0.601492  1
  Pb  Pb13  1  0.249986  0.397971  0.000000  1
  Pb  Pb14  1  0.250002  0.601488  0.601991  1
  Pb  Pb15  1  0.250002  0.999498  0.398009  1
