# generated using pymatgen
data_Li2TbThIr2
_symmetry_space_group_name_H-M   'P 1'
_cell_length_a   4.02516900
_cell_length_b   7.13312850
_cell_length_c   8.38671700
_cell_angle_alpha   90.13396364
_cell_angle_beta   90.00000000
_cell_angle_gamma   90.00000000
_symmetry_Int_Tables_number   1
_chemical_formula_structural   Li2TbThIr2
_chemical_formula_sum   'Li4 Tb2 Th2 Ir4'
_cell_volume   240.79916036
_cell_formula_units_Z   2
loop_
 _symmetry_equiv_pos_site_id
 _symmetry_equiv_pos_as_xyz
  1  'x, y, z'
loop_
 _atom_site_type_symbol
 _atom_site_label
 _atom_site_symmetry_multiplicity
 _atom_site_fract_x
 _atom_site_fract_y
 _atom_site_fract_z
 _atom_site_occupancy
  Li  Li0  1  0.250000  0.120248  0.946447  1
  Li  Li1  1  0.750000  0.879752  0.053553  1
  Li  Li2  1  0.250000  0.633607  0.552572  1
  Li  Li3  1  0.750000  0.366393  0.447428  1
  Tb  Tb4  1  0.250000  0.048829  0.323570  1
  Tb  Tb5  1  0.750000  0.951171  0.676430  1
  Th  Th6  1  0.250000  0.547166  0.187527  1
  Th  Th7  1  0.750000  0.452834  0.812473  1
  Ir  Ir8  1  0.750000  0.757747  0.366572  1
  Ir  Ir9  1  0.250000  0.242253  0.633428  1
  Ir  Ir10  1  0.750000  0.268970  0.124814  1
  Ir  Ir11  1  0.250000  0.731030  0.875186  1
