# generated using pymatgen
data_Dy5Sn2BiS
_symmetry_space_group_name_H-M   'P 1'
_cell_length_a   9.09949498
_cell_length_b   9.11598374
_cell_length_c   6.60493900
_cell_angle_alpha   90.00000000
_cell_angle_beta   90.00000000
_cell_angle_gamma   120.05995612
_symmetry_Int_Tables_number   1
_chemical_formula_structural   Dy5Sn2BiS
_chemical_formula_sum   'Dy10 Sn4 Bi2 S2'
_cell_volume   474.19566010
_cell_formula_units_Z   2
loop_
 _symmetry_equiv_pos_site_id
 _symmetry_equiv_pos_as_xyz
  1  'x, y, z'
loop_
 _atom_site_type_symbol
 _atom_site_label
 _atom_site_symmetry_multiplicity
 _atom_site_fract_x
 _atom_site_fract_y
 _atom_site_fract_z
 _atom_site_occupancy
  Dy  Dy0  1  0.670281  0.336102  0.003896  1
  Dy  Dy1  1  0.329719  0.665822  0.003896  1
  Dy  Dy2  1  0.329719  0.665822  0.496104  1
  Dy  Dy3  1  0.670281  0.336102  0.496104  1
  Dy  Dy4  1  0.759419  0.754436  0.750000  1
  Dy  Dy5  1  0.240581  0.995017  0.750000  1
  Dy  Dy6  1  0.000000  0.246451  0.750000  1
  Dy  Dy7  1  0.244256  0.243903  0.250000  1
  Dy  Dy8  1  0.755744  0.999647  0.250000  1
  Dy  Dy9  1  0.000000  0.754204  0.250000  1
  Sn  Sn10  1  0.000000  0.601637  0.750000  1
  Sn  Sn11  1  0.604020  0.604421  0.250000  1
  Sn  Sn12  1  0.395980  0.000402  0.250000  1
  Sn  Sn13  1  0.000000  0.396717  0.250000  1
  Bi  Bi14  1  0.396446  0.396853  0.750000  1
  Bi  Bi15  1  0.603554  0.000406  0.750000  1
  S  S16  1  0.000000  0.001028  0.999319  1
  S  S17  1  0.000000  0.001028  0.500681  1
