# generated using pymatgen
data_ZrSc3(Co5P3)4
_symmetry_space_group_name_H-M   'P 1'
_cell_length_a   3.59137200
_cell_length_b   10.15607974
_cell_length_c   11.61998132
_cell_angle_alpha   90.09860279
_cell_angle_beta   90.00000000
_cell_angle_gamma   90.00000000
_symmetry_Int_Tables_number   1
_chemical_formula_structural   ZrSc3(Co5P3)4
_chemical_formula_sum   'Zr1 Sc3 Co20 P12'
_cell_volume   423.82959715
_cell_formula_units_Z   1
loop_
 _symmetry_equiv_pos_site_id
 _symmetry_equiv_pos_as_xyz
  1  'x, y, z'
loop_
 _atom_site_type_symbol
 _atom_site_label
 _atom_site_symmetry_multiplicity
 _atom_site_fract_x
 _atom_site_fract_y
 _atom_site_fract_z
 _atom_site_occupancy
  Zr  Zr0  1  0.250000  0.581626  0.702522  1
  Sc  Sc1  1  0.250000  0.918283  0.202465  1
  Sc  Sc2  1  0.750000  0.418108  0.297654  1
  Sc  Sc3  1  0.750000  0.081562  0.797437  1
  Co  Co4  1  0.250000  0.718673  0.992606  1
  Co  Co5  1  0.250000  0.781097  0.492413  1
  Co  Co6  1  0.750000  0.281449  0.006841  1
  Co  Co7  1  0.750000  0.218506  0.507062  1
  Co  Co8  1  0.250000  0.408908  0.486174  1
  Co  Co9  1  0.250000  0.091668  0.985904  1
  Co  Co10  1  0.750000  0.591989  0.514089  1
  Co  Co11  1  0.750000  0.907631  0.013976  1
  Co  Co12  1  0.250000  0.221834  0.176771  1
  Co  Co13  1  0.250000  0.278116  0.677381  1
  Co  Co14  1  0.750000  0.776987  0.822557  1
  Co  Co15  1  0.750000  0.722001  0.323299  1
  Co  Co16  1  0.250000  0.883094  0.699927  1
  Co  Co17  1  0.250000  0.617001  0.199988  1
  Co  Co18  1  0.750000  0.116576  0.299982  1
  Co  Co19  1  0.750000  0.383891  0.799972  1
  Co  Co20  1  0.250000  0.466522  0.931244  1
  Co  Co21  1  0.250000  0.033463  0.430902  1
  Co  Co22  1  0.750000  0.533027  0.069787  1
  Co  Co23  1  0.750000  0.967459  0.568934  1
  P  P24  1  0.250000  0.418932  0.115603  1
  P  P25  1  0.250000  0.081155  0.615070  1
  P  P26  1  0.750000  0.581151  0.886597  1
  P  P27  1  0.750000  0.919321  0.384788  1
  P  P28  1  0.250000  0.265367  0.869144  1
  P  P29  1  0.250000  0.234165  0.368608  1
  P  P30  1  0.750000  0.734288  0.131399  1
  P  P31  1  0.750000  0.767524  0.630149  1
  P  P32  1  0.250000  0.598716  0.388991  1
  P  P33  1  0.250000  0.901421  0.889570  1
  P  P34  1  0.750000  0.399995  0.609882  1
  P  P35  1  0.750000  0.098494  0.110312  1
