# generated using pymatgen
data_Zn2Fe(AsO4)2
_symmetry_space_group_name_H-M   'P 1'
_cell_length_a   7.92293124
_cell_length_b   8.69290900
_cell_length_c   5.35611580
_cell_angle_alpha   90.00000000
_cell_angle_beta   96.10805005
_cell_angle_gamma   90.00000000
_symmetry_Int_Tables_number   1
_chemical_formula_structural   Zn2Fe(AsO4)2
_chemical_formula_sum   'Zn4 Fe2 As4 O16'
_cell_volume   366.79927272
_cell_formula_units_Z   2
loop_
 _symmetry_equiv_pos_site_id
 _symmetry_equiv_pos_as_xyz
  1  'x, y, z'
loop_
 _atom_site_type_symbol
 _atom_site_label
 _atom_site_symmetry_multiplicity
 _atom_site_fract_x
 _atom_site_fract_y
 _atom_site_fract_z
 _atom_site_occupancy
  Zn  Zn0  1  0.611836  0.137855  0.093239  1
  Zn  Zn1  1  0.888164  0.637856  0.406761  1
  Zn  Zn2  1  0.111837  0.362144  0.593240  1
  Zn  Zn3  1  0.388163  0.862144  0.906762  1
  Fe  Fe4  1  0.500001  0.500001  0.000000  1
  Fe  Fe5  1  0.000000  0.000000  0.500000  1
  As  As6  1  0.194397  0.193338  0.044906  1
  As  As7  1  0.305603  0.693338  0.455092  1
  As  As8  1  0.694398  0.306661  0.544907  1
  As  As9  1  0.805603  0.806662  0.955093  1
  O  O10  1  0.744735  0.630427  0.071934  1
  O  O11  1  0.364862  0.067910  0.068257  1
  O  O12  1  0.965292  0.859464  0.178980  1
  O  O13  1  0.378353  0.696655  0.162676  1
  O  O14  1  0.121647  0.196654  0.337322  1
  O  O15  1  0.534708  0.359464  0.321021  1
  O  O16  1  0.135139  0.567911  0.431743  1
  O  O17  1  0.755264  0.130427  0.428065  1
  O  O18  1  0.244736  0.869573  0.571934  1
  O  O19  1  0.864862  0.432089  0.568258  1
  O  O20  1  0.465292  0.640536  0.678980  1
  O  O21  1  0.878353  0.803345  0.662677  1
  O  O22  1  0.621647  0.303345  0.837323  1
  O  O23  1  0.034708  0.140537  0.821021  1
  O  O24  1  0.635138  0.932090  0.931742  1
  O  O25  1  0.255265  0.369573  0.928065  1
