# generated using pymatgen
data_Ta10Ga2Si3P
_symmetry_space_group_name_H-M   'P 1'
_cell_length_a   7.56746018
_cell_length_b   7.56745904
_cell_length_c   7.55981372
_cell_angle_alpha   128.16136278
_cell_angle_beta   128.16135804
_cell_angle_gamma   76.43737026
_symmetry_Int_Tables_number   1
_chemical_formula_structural   Ta10Ga2Si3P
_chemical_formula_sum   'Ta10 Ga2 Si3 P1'
_cell_volume   259.94057320
_cell_formula_units_Z   1
loop_
 _symmetry_equiv_pos_site_id
 _symmetry_equiv_pos_as_xyz
  1  'x, y, z'
loop_
 _atom_site_type_symbol
 _atom_site_label
 _atom_site_symmetry_multiplicity
 _atom_site_fract_x
 _atom_site_fract_y
 _atom_site_fract_z
 _atom_site_occupancy
  Ta  Ta0  1  0.016220  0.188647  0.500000  1
  Ta  Ta1  1  0.688889  0.513157  0.500000  1
  Ta  Ta2  1  0.513306  0.014924  0.823443  1
  Ta  Ta3  1  0.189864  0.691482  0.176557  1
  Ta  Ta4  1  0.986843  0.811111  0.500000  1
  Ta  Ta5  1  0.311353  0.483780  0.500000  1
  Ta  Ta6  1  0.485076  0.986694  0.176557  1
  Ta  Ta7  1  0.808518  0.310136  0.823443  1
  Ta  Ta8  1  0.001839  0.001248  0.003087  1
  Ta  Ta9  1  0.498752  0.498161  0.996913  1
  Ga  Ga10  1  0.748926  0.751074  0.000000  1
  Ga  Ga11  1  0.248926  0.251074  0.000000  1
  Si  Si12  1  0.634104  0.865896  0.500000  1
  Si  Si13  1  0.868971  0.369667  0.238637  1
  Si  Si14  1  0.130333  0.631029  0.761363  1
  P  P15  1  0.368081  0.131919  0.500000  1
