# generated using pymatgen
data_Tb7Y(ThRh)6
_symmetry_space_group_name_H-M   'P 1'
_cell_length_a   9.93684500
_cell_length_b   9.82541117
_cell_length_c   6.35693524
_cell_angle_alpha   90.20563371
_cell_angle_beta   90.00000000
_cell_angle_gamma   120.37588813
_symmetry_Int_Tables_number   1
_chemical_formula_structural   Tb7Y(ThRh)6
_chemical_formula_sum   'Tb7 Y1 Th6 Rh6'
_cell_volume   535.44693933
_cell_formula_units_Z   1
loop_
 _symmetry_equiv_pos_site_id
 _symmetry_equiv_pos_as_xyz
  1  'x, y, z'
loop_
 _atom_site_type_symbol
 _atom_site_label
 _atom_site_symmetry_multiplicity
 _atom_site_fract_x
 _atom_site_fract_y
 _atom_site_fract_z
 _atom_site_occupancy
  Tb  Tb0  1  0.873226  0.746453  0.739405  1
  Tb  Tb1  1  0.539468  0.462140  0.444358  1
  Tb  Tb2  1  0.922672  0.462140  0.444358  1
  Tb  Tb3  1  0.538497  0.076994  0.443829  1
  Tb  Tb4  1  0.461759  0.540277  0.939399  1
  Tb  Tb5  1  0.078518  0.540277  0.939399  1
  Tb  Tb6  1  0.461341  0.922682  0.939887  1
  Y  Y7  1  0.332868  0.665736  0.457135  1
  Th  Th8  1  0.666362  0.332724  0.961957  1
  Th  Th9  1  0.127369  0.870518  0.242938  1
  Th  Th10  1  0.743149  0.870518  0.242938  1
  Th  Th11  1  0.128020  0.256040  0.241366  1
  Th  Th12  1  0.869539  0.124861  0.739204  1
  Th  Th13  1  0.255322  0.124861  0.739204  1
  Rh  Rh14  1  0.814071  0.185024  0.193158  1
  Rh  Rh15  1  0.370955  0.185024  0.193158  1
  Rh  Rh16  1  0.814369  0.628737  0.198383  1
  Rh  Rh17  1  0.191402  0.821031  0.692895  1
  Rh  Rh18  1  0.629628  0.821031  0.692895  1
  Rh  Rh19  1  0.181466  0.362933  0.700697  1
