# generated using pymatgen
data_La8NdYSn6
_symmetry_space_group_name_H-M   'P 1'
_cell_length_a   9.54511709
_cell_length_b   9.54511565
_cell_length_c   9.54511646
_cell_angle_alpha   96.19570415
_cell_angle_beta   96.19571447
_cell_angle_gamma   141.64215032
_symmetry_Int_Tables_number   1
_chemical_formula_structural   La8NdYSn6
_chemical_formula_sum   'La8 Nd1 Y1 Sn6'
_cell_volume   509.72498703
_cell_formula_units_Z   1
loop_
 _symmetry_equiv_pos_site_id
 _symmetry_equiv_pos_as_xyz
  1  'x, y, z'
loop_
 _atom_site_type_symbol
 _atom_site_label
 _atom_site_symmetry_multiplicity
 _atom_site_fract_x
 _atom_site_fract_y
 _atom_site_fract_z
 _atom_site_occupancy
  La  La0  1  0.911952  0.222186  0.133086  1
  La  La1  1  0.221134  0.088048  0.310233  1
  La  La2  1  0.777814  0.910900  0.689767  1
  La  La3  1  0.089100  0.778866  0.866914  1
  La  La4  1  0.722186  0.411952  0.133086  1
  La  La5  1  0.278866  0.589100  0.866914  1
  La  La6  1  0.588048  0.721134  0.310233  1
  La  La7  1  0.410900  0.277814  0.689767  1
  Nd  Nd8  1  0.750000  0.250000  0.500000  1
  Y  Y9  1  0.250000  0.750000  0.500000  1
  Sn  Sn10  1  0.750000  0.750000  0.000000  1
  Sn  Sn11  1  0.250000  0.250000  0.000000  1
  Sn  Sn12  1  0.846060  0.658451  0.500000  1
  Sn  Sn13  1  0.653940  0.153940  0.812392  1
  Sn  Sn14  1  0.341549  0.841549  0.187608  1
  Sn  Sn15  1  0.158451  0.346060  0.500000  1
