# generated using pymatgen
data_Tb12Th4Cd4IrRu3
_symmetry_space_group_name_H-M   'P 1'
_cell_length_a   9.74117081
_cell_length_b   9.74280006
_cell_length_c   9.74280000
_cell_angle_alpha   60.00000021
_cell_angle_beta   59.99446733
_cell_angle_gamma   59.99446892
_symmetry_Int_Tables_number   1
_chemical_formula_structural   Tb12Th4Cd4IrRu3
_chemical_formula_sum   'Tb12 Th4 Cd4 Ir1 Ru3'
_cell_volume   653.77366268
_cell_formula_units_Z   1
loop_
 _symmetry_equiv_pos_site_id
 _symmetry_equiv_pos_as_xyz
  1  'x, y, z'
loop_
 _atom_site_type_symbol
 _atom_site_label
 _atom_site_symmetry_multiplicity
 _atom_site_fract_x
 _atom_site_fract_y
 _atom_site_fract_z
 _atom_site_occupancy
  Tb  Tb0  1  0.063056  0.438479  0.438479  1
  Tb  Tb1  1  0.438184  0.061946  0.061946  1
  Tb  Tb2  1  0.438184  0.061946  0.437924  1
  Tb  Tb3  1  0.063056  0.438479  0.059987  1
  Tb  Tb4  1  0.438184  0.437924  0.061946  1
  Tb  Tb5  1  0.063056  0.059987  0.438479  1
  Tb  Tb6  1  0.185491  0.813996  0.813996  1
  Tb  Tb7  1  0.812846  0.186373  0.186373  1
  Tb  Tb8  1  0.812846  0.186373  0.814408  1
  Tb  Tb9  1  0.185491  0.813996  0.186517  1
  Tb  Tb10  1  0.812846  0.814408  0.186373  1
  Tb  Tb11  1  0.185491  0.186517  0.813996  1
  Th  Th12  1  0.595370  0.599545  0.599545  1
  Th  Th13  1  0.595370  0.599545  0.205539  1
  Th  Th14  1  0.595370  0.205539  0.599545  1
  Th  Th15  1  0.207905  0.597365  0.597365  1
  Cd  Cd16  1  0.831231  0.831393  0.831393  1
  Cd  Cd17  1  0.831231  0.831393  0.505983  1
  Cd  Cd18  1  0.831231  0.505983  0.831393  1
  Cd  Cd19  1  0.505679  0.831440  0.831440  1
  Ir  Ir20  1  0.821964  0.392679  0.392679  1
  Ru  Ru21  1  0.395306  0.393678  0.393678  1
  Ru  Ru22  1  0.395306  0.393678  0.817340  1
  Ru  Ru23  1  0.395306  0.817340  0.393678  1
