# generated using pymatgen
data_Lu12Ga(TcPb)2
_symmetry_space_group_name_H-M   'P 1'
_cell_length_a   8.35694206
_cell_length_b   8.35708956
_cell_length_c   8.35694387
_cell_angle_alpha   110.05783393
_cell_angle_beta   110.05001421
_cell_angle_gamma   108.31129982
_symmetry_Int_Tables_number   1
_chemical_formula_structural   Lu12Ga(TcPb)2
_chemical_formula_sum   'Lu12 Ga1 Tc2 Pb2'
_cell_volume   449.15751156
_cell_formula_units_Z   1
loop_
 _symmetry_equiv_pos_site_id
 _symmetry_equiv_pos_as_xyz
  1  'x, y, z'
loop_
 _atom_site_type_symbol
 _atom_site_label
 _atom_site_symmetry_multiplicity
 _atom_site_fract_x
 _atom_site_fract_y
 _atom_site_fract_z
 _atom_site_occupancy
  Lu  Lu0  1  0.320229  0.320216  0.640447  1
  Lu  Lu1  1  0.679771  0.679784  0.359553  1
  Lu  Lu2  1  0.320233  0.679784  0.000014  1
  Lu  Lu3  1  0.679767  0.320216  0.999986  1
  Lu  Lu4  1  0.440214  0.194278  0.245925  1
  Lu  Lu5  1  0.559786  0.805722  0.754075  1
  Lu  Lu6  1  0.948353  0.194278  0.754064  1
  Lu  Lu7  1  0.194286  0.948345  0.754060  1
  Lu  Lu8  1  0.051647  0.805722  0.245936  1
  Lu  Lu9  1  0.805714  0.051655  0.245940  1
  Lu  Lu10  1  0.194284  0.440218  0.245934  1
  Lu  Lu11  1  0.805716  0.559782  0.754066  1
  Ga  Ga12  1  0.000000  0.000000  0.000000  1
  Tc  Tc13  1  0.340239  0.340242  0.000003  1
  Tc  Tc14  1  0.659761  0.659758  0.999997  1
  Pb  Pb15  1  0.500000  0.000000  0.500000  1
  Pb  Pb16  1  0.000000  0.500000  0.500000  1
