# generated using pymatgen
data_Tm4MnAl18Ni2Pd3
_symmetry_space_group_name_H-M   'P 1'
_cell_length_a   7.54822933
_cell_length_b   7.54822847
_cell_length_c   9.43786200
_cell_angle_alpha   89.75090523
_cell_angle_beta   89.75091285
_cell_angle_gamma   119.56451981
_symmetry_Int_Tables_number   1
_chemical_formula_structural   Tm4MnAl18Ni2Pd3
_chemical_formula_sum   'Tm4 Mn1 Al18 Ni2 Pd3'
_cell_volume   467.69988454
_cell_formula_units_Z   1
loop_
 _symmetry_equiv_pos_site_id
 _symmetry_equiv_pos_as_xyz
  1  'x, y, z'
loop_
 _atom_site_type_symbol
 _atom_site_label
 _atom_site_symmetry_multiplicity
 _atom_site_fract_x
 _atom_site_fract_y
 _atom_site_fract_z
 _atom_site_occupancy
  Tm  Tm0  1  0.995618  0.670402  0.247973  1
  Tm  Tm1  1  0.007389  0.332073  0.752126  1
  Tm  Tm2  1  0.667927  0.992611  0.247874  1
  Tm  Tm3  1  0.329598  0.004382  0.752027  1
  Mn  Mn4  1  0.999157  0.000843  0.000000  1
  Al  Al5  1  0.118384  0.119277  0.245442  1
  Al  Al6  1  0.880723  0.881616  0.754558  1
  Al  Al7  1  0.990822  0.324167  0.071692  1
  Al  Al8  1  0.997187  0.671497  0.928501  1
  Al  Al9  1  0.998504  0.670700  0.576882  1
  Al  Al10  1  0.329300  0.001496  0.423118  1
  Al  Al11  1  0.999805  0.328192  0.423415  1
  Al  Al12  1  0.671808  0.000195  0.576585  1
  Al  Al13  1  0.675833  0.009178  0.928308  1
  Al  Al14  1  0.328503  0.002813  0.071499  1
  Al  Al15  1  0.327992  0.327403  0.555732  1
  Al  Al16  1  0.672597  0.672008  0.444268  1
  Al  Al17  1  0.676207  0.672997  0.048925  1
  Al  Al18  1  0.327003  0.323793  0.951075  1
  Al  Al19  1  0.340248  0.543872  0.248461  1
  Al  Al20  1  0.660031  0.448519  0.757496  1
  Al  Al21  1  0.551481  0.339969  0.242504  1
  Al  Al22  1  0.456128  0.659752  0.751539  1
  Ni  Ni23  1  0.671053  0.328947  0.000000  1
  Ni  Ni24  1  0.999995  0.000005  0.500000  1
  Pd  Pd25  1  0.327100  0.672900  0.000000  1
  Pd  Pd26  1  0.327687  0.672313  0.500000  1
  Pd  Pd27  1  0.671922  0.328078  0.500000  1
