# generated using pymatgen
data_Sm8Si12Ir3Pd
_symmetry_space_group_name_H-M   'P 1'
_cell_length_a   8.22438500
_cell_length_b   8.22438409
_cell_length_c   8.31725300
_cell_angle_alpha   90.00000000
_cell_angle_beta   90.00000000
_cell_angle_gamma   120.00000769
_symmetry_Int_Tables_number   1
_chemical_formula_structural   Sm8Si12Ir3Pd
_chemical_formula_sum   'Sm8 Si12 Ir3 Pd1'
_cell_volume   487.21127143
_cell_formula_units_Z   1
loop_
 _symmetry_equiv_pos_site_id
 _symmetry_equiv_pos_as_xyz
  1  'x, y, z'
loop_
 _atom_site_type_symbol
 _atom_site_label
 _atom_site_symmetry_multiplicity
 _atom_site_fract_x
 _atom_site_fract_y
 _atom_site_fract_z
 _atom_site_occupancy
  Sm  Sm0  1  0.502953  0.005903  0.247233  1
  Sm  Sm1  1  0.501248  0.002498  0.752401  1
  Sm  Sm2  1  0.994097  0.497047  0.247233  1
  Sm  Sm3  1  0.997502  0.498752  0.752401  1
  Sm  Sm4  1  0.502953  0.497047  0.247233  1
  Sm  Sm5  1  0.501248  0.498752  0.752401  1
  Sm  Sm6  1  0.000000  0.000000  0.250796  1
  Sm  Sm7  1  0.000000  0.000000  0.749751  1
  Si  Si8  1  0.167232  0.334465  0.001172  1
  Si  Si9  1  0.833891  0.667782  0.999208  1
  Si  Si10  1  0.665535  0.832768  0.001172  1
  Si  Si11  1  0.833098  0.666197  0.498408  1
  Si  Si12  1  0.332218  0.166109  0.999208  1
  Si  Si13  1  0.164734  0.329468  0.501728  1
  Si  Si14  1  0.167232  0.832768  0.001172  1
  Si  Si15  1  0.333803  0.166902  0.498408  1
  Si  Si16  1  0.833891  0.166109  0.999208  1
  Si  Si17  1  0.670532  0.835266  0.501728  1
  Si  Si18  1  0.833098  0.166902  0.498408  1
  Si  Si19  1  0.164734  0.835266  0.501728  1
  Ir  Ir20  1  0.333333  0.666667  0.001061  1
  Ir  Ir21  1  0.666667  0.333333  0.998710  1
  Ir  Ir22  1  0.666667  0.333333  0.504483  1
  Pd  Pd23  1  0.333333  0.666667  0.494748  1
