# generated using pymatgen
data_Hf9TiZnRe3
_symmetry_space_group_name_H-M   'P 1'
_cell_length_a   8.68923200
_cell_length_b   8.68923280
_cell_length_c   8.51202300
_cell_angle_alpha   90.00000000
_cell_angle_beta   90.00000000
_cell_angle_gamma   120.00000456
_symmetry_Int_Tables_number   1
_chemical_formula_structural   Hf9TiZnRe3
_chemical_formula_sum   'Hf18 Ti2 Zn2 Re6'
_cell_volume   556.57824378
_cell_formula_units_Z   2
loop_
 _symmetry_equiv_pos_site_id
 _symmetry_equiv_pos_as_xyz
  1  'x, y, z'
loop_
 _atom_site_type_symbol
 _atom_site_label
 _atom_site_symmetry_multiplicity
 _atom_site_fract_x
 _atom_site_fract_y
 _atom_site_fract_z
 _atom_site_occupancy
  Hf  Hf0  1  0.194655  0.805345  0.450610  1
  Hf  Hf1  1  0.194655  0.389308  0.450610  1
  Hf  Hf2  1  0.610692  0.805345  0.450610  1
  Hf  Hf3  1  0.805345  0.194655  0.549390  1
  Hf  Hf4  1  0.805345  0.610692  0.549390  1
  Hf  Hf5  1  0.389308  0.194655  0.549390  1
  Hf  Hf6  1  0.805345  0.194655  0.950610  1
  Hf  Hf7  1  0.805345  0.610692  0.950610  1
  Hf  Hf8  1  0.389308  0.194655  0.950610  1
  Hf  Hf9  1  0.194655  0.805345  0.049390  1
  Hf  Hf10  1  0.194655  0.389308  0.049390  1
  Hf  Hf11  1  0.610692  0.805345  0.049390  1
  Hf  Hf12  1  0.540509  0.459491  0.250000  1
  Hf  Hf13  1  0.540509  0.081019  0.250000  1
  Hf  Hf14  1  0.918981  0.459491  0.250000  1
  Hf  Hf15  1  0.459491  0.540509  0.750000  1
  Hf  Hf16  1  0.459491  0.918981  0.750000  1
  Hf  Hf17  1  0.081019  0.540509  0.750000  1
  Ti  Ti18  1  0.000000  0.000000  0.500000  1
  Ti  Ti19  1  0.000000  0.000000  0.000000  1
  Zn  Zn20  1  0.333333  0.666667  0.250000  1
  Zn  Zn21  1  0.666667  0.333333  0.750000  1
  Re  Re22  1  0.887369  0.112631  0.250000  1
  Re  Re23  1  0.887369  0.774736  0.250000  1
  Re  Re24  1  0.225264  0.112631  0.250000  1
  Re  Re25  1  0.112631  0.887369  0.750000  1
  Re  Re26  1  0.112631  0.225264  0.750000  1
  Re  Re27  1  0.774736  0.887369  0.750000  1
