# generated using pymatgen
data_Dy11Tm(Si3Ir)4
_symmetry_space_group_name_H-M   'P 1'
_cell_length_a   4.23972300
_cell_length_b   10.63710004
_cell_length_c   12.30051500
_cell_angle_alpha   89.95005720
_cell_angle_beta   90.00000000
_cell_angle_gamma   90.00000000
_symmetry_Int_Tables_number   1
_chemical_formula_structural   Dy11Tm(Si3Ir)4
_chemical_formula_sum   'Dy11 Tm1 Si12 Ir4'
_cell_volume   554.73281459
_cell_formula_units_Z   1
loop_
 _symmetry_equiv_pos_site_id
 _symmetry_equiv_pos_as_xyz
  1  'x, y, z'
loop_
 _atom_site_type_symbol
 _atom_site_label
 _atom_site_symmetry_multiplicity
 _atom_site_fract_x
 _atom_site_fract_y
 _atom_site_fract_z
 _atom_site_occupancy
  Dy  Dy0  1  0.250000  0.880872  0.020211  1
  Dy  Dy1  1  0.250000  0.619227  0.520253  1
  Dy  Dy2  1  0.750000  0.119695  0.978920  1
  Dy  Dy3  1  0.750000  0.379389  0.480184  1
  Dy  Dy4  1  0.250000  0.918855  0.603339  1
  Dy  Dy5  1  0.250000  0.581617  0.103647  1
  Dy  Dy6  1  0.750000  0.081102  0.397495  1
  Dy  Dy7  1  0.750000  0.418484  0.896168  1
  Dy  Dy8  1  0.250000  0.659038  0.800901  1
  Dy  Dy9  1  0.250000  0.841772  0.301116  1
  Dy  Dy10  1  0.750000  0.340249  0.199118  1
  Tm  Tm11  1  0.750000  0.158925  0.699764  1
  Si  Si12  1  0.250000  0.010658  0.820250  1
  Si  Si13  1  0.250000  0.489601  0.321062  1
  Si  Si14  1  0.750000  0.990961  0.179172  1
  Si  Si15  1  0.750000  0.510121  0.678774  1
  Si  Si16  1  0.250000  0.246044  0.840121  1
  Si  Si17  1  0.250000  0.253237  0.341455  1
  Si  Si18  1  0.750000  0.754356  0.159405  1
  Si  Si19  1  0.750000  0.745977  0.658925  1
  Si  Si20  1  0.250000  0.200246  0.545368  1
  Si  Si21  1  0.250000  0.298622  0.043134  1
  Si  Si22  1  0.750000  0.798185  0.456497  1
  Si  Si23  1  0.750000  0.702057  0.956216  1
  Ir  Ir24  1  0.250000  0.388738  0.681251  1
  Ir  Ir25  1  0.250000  0.110922  0.181246  1
  Ir  Ir26  1  0.750000  0.610547  0.318650  1
  Ir  Ir27  1  0.750000  0.890504  0.817360  1
