# generated using pymatgen
data_LaPr4Th3(ZnRh)8
_symmetry_space_group_name_H-M   'P 1'
_cell_length_a   4.00592900
_cell_length_b   7.45651335
_cell_length_c   16.67515997
_cell_angle_alpha   90.55217431
_cell_angle_beta   90.00000000
_cell_angle_gamma   90.00000000
_symmetry_Int_Tables_number   1
_chemical_formula_structural   LaPr4Th3(ZnRh)8
_chemical_formula_sum   'La1 Pr4 Th3 Zn8 Rh8'
_cell_volume   498.06828418
_cell_formula_units_Z   1
loop_
 _symmetry_equiv_pos_site_id
 _symmetry_equiv_pos_as_xyz
  1  'x, y, z'
loop_
 _atom_site_type_symbol
 _atom_site_label
 _atom_site_symmetry_multiplicity
 _atom_site_fract_x
 _atom_site_fract_y
 _atom_site_fract_z
 _atom_site_occupancy
  La  La0  1  0.750000  0.441102  0.215690  1
  Pr  Pr1  1  0.250000  0.170552  0.940009  1
  Pr  Pr2  1  0.250000  0.556190  0.784535  1
  Pr  Pr3  1  0.750000  0.328211  0.440797  1
  Pr  Pr4  1  0.250000  0.676459  0.559721  1
  Th  Th5  1  0.750000  0.946234  0.284893  1
  Th  Th6  1  0.750000  0.824781  0.059296  1
  Th  Th7  1  0.250000  0.056031  0.715760  1
  Zn  Zn8  1  0.250000  0.002101  0.441928  1
  Zn  Zn9  1  0.750000  0.496219  0.938968  1
  Zn  Zn10  1  0.750000  0.004564  0.558043  1
  Zn  Zn11  1  0.250000  0.615748  0.349709  1
  Zn  Zn12  1  0.750000  0.387130  0.651273  1
  Zn  Zn13  1  0.750000  0.879740  0.850862  1
  Zn  Zn14  1  0.250000  0.490337  0.059798  1
  Zn  Zn15  1  0.250000  0.114452  0.150532  1
  Rh  Rh16  1  0.250000  0.244899  0.569514  1
  Rh  Rh17  1  0.750000  0.245929  0.066796  1
  Rh  Rh18  1  0.250000  0.230004  0.311828  1
  Rh  Rh19  1  0.750000  0.247027  0.807178  1
  Rh  Rh20  1  0.250000  0.749007  0.942875  1
  Rh  Rh21  1  0.750000  0.777349  0.687470  1
  Rh  Rh22  1  0.750000  0.764760  0.427821  1
  Rh  Rh23  1  0.250000  0.751174  0.184707  1
