# generated using pymatgen
data_ErNb2B2Ru5
_symmetry_space_group_name_H-M   'P 1'
_cell_length_a   9.53433591
_cell_length_b   9.53433632
_cell_length_c   3.09039400
_cell_angle_alpha   90.00000000
_cell_angle_beta   90.00000000
_cell_angle_gamma   89.41558789
_symmetry_Int_Tables_number   1
_chemical_formula_structural   ErNb2B2Ru5
_chemical_formula_sum   'Er2 Nb4 B4 Ru10'
_cell_volume   280.91321879
_cell_formula_units_Z   2
loop_
 _symmetry_equiv_pos_site_id
 _symmetry_equiv_pos_as_xyz
  1  'x, y, z'
loop_
 _atom_site_type_symbol
 _atom_site_label
 _atom_site_symmetry_multiplicity
 _atom_site_fract_x
 _atom_site_fract_y
 _atom_site_fract_z
 _atom_site_occupancy
  Er  Er0  1  0.175723  0.175723  0.000000  1
  Er  Er1  1  0.824277  0.824277  0.000000  1
  Nb  Nb2  1  0.500000  0.000000  0.000000  1
  Nb  Nb3  1  0.000000  0.500000  0.000000  1
  Nb  Nb4  1  0.675976  0.324024  0.000000  1
  Nb  Nb5  1  0.324024  0.675976  0.000000  1
  B  B6  1  0.378950  0.378950  0.000000  1
  B  B7  1  0.621050  0.621050  0.000000  1
  B  B8  1  0.879248  0.120752  0.000000  1
  B  B9  1  0.120752  0.879248  0.000000  1
  Ru  Ru10  1  0.500000  0.500000  0.500000  1
  Ru  Ru11  1  0.000000  0.000000  0.500000  1
  Ru  Ru12  1  0.439023  0.222422  0.500000  1
  Ru  Ru13  1  0.560977  0.777578  0.500000  1
  Ru  Ru14  1  0.919649  0.284746  0.500000  1
  Ru  Ru15  1  0.080351  0.715254  0.500000  1
  Ru  Ru16  1  0.715254  0.080351  0.500000  1
  Ru  Ru17  1  0.284746  0.919649  0.500000  1
  Ru  Ru18  1  0.777578  0.560977  0.500000  1
  Ru  Ru19  1  0.222422  0.439023  0.500000  1
