# generated using pymatgen
data_TbDy(IrO4)2
_symmetry_space_group_name_H-M   'P 1'
_cell_length_a   5.36332009
_cell_length_b   7.63482084
_cell_length_c   7.41571143
_cell_angle_alpha   80.77105646
_cell_angle_beta   90.66139232
_cell_angle_gamma   92.53764684
_symmetry_Int_Tables_number   1
_chemical_formula_structural   TbDy(IrO4)2
_chemical_formula_sum   'Tb2 Dy2 Ir4 O16'
_cell_volume   299.43074952
_cell_formula_units_Z   2
loop_
 _symmetry_equiv_pos_site_id
 _symmetry_equiv_pos_as_xyz
  1  'x, y, z'
loop_
 _atom_site_type_symbol
 _atom_site_label
 _atom_site_symmetry_multiplicity
 _atom_site_fract_x
 _atom_site_fract_y
 _atom_site_fract_z
 _atom_site_occupancy
  Tb  Tb0  1  0.266670  0.131460  0.610859  1
  Tb  Tb1  1  0.733330  0.868540  0.389141  1
  Dy  Dy2  1  0.204237  0.163752  0.105488  1
  Dy  Dy3  1  0.795763  0.836248  0.894512  1
  Ir  Ir4  1  0.235993  0.660421  0.202601  1
  Ir  Ir5  1  0.764007  0.339579  0.797399  1
  Ir  Ir6  1  0.719596  0.338173  0.300694  1
  Ir  Ir7  1  0.280404  0.661827  0.699306  1
  O  O8  1  0.082284  0.444811  0.689882  1
  O  O9  1  0.917716  0.555189  0.310118  1
  O  O10  1  0.613750  0.328816  0.553789  1
  O  O11  1  0.386250  0.671184  0.446211  1
  O  O12  1  0.864041  0.333394  0.055617  1
  O  O13  1  0.135959  0.666606  0.944383  1
  O  O14  1  0.402026  0.438194  0.194314  1
  O  O15  1  0.597974  0.561806  0.805686  1
  O  O16  1  0.040653  0.886874  0.171283  1
  O  O17  1  0.959347  0.113126  0.828717  1
  O  O18  1  0.501025  0.109960  0.323196  1
  O  O19  1  0.498975  0.890040  0.676804  1
  O  O20  1  0.465259  0.197167  0.876499  1
  O  O21  1  0.534741  0.802833  0.123501  1
  O  O22  1  0.986182  0.171566  0.380914  1
  O  O23  1  0.013818  0.828434  0.619086  1
