# generated using pymatgen
data_Cs3Np(O2F)2
_symmetry_space_group_name_H-M   'P 1'
_cell_length_a   6.89368519
_cell_length_b   6.86750558
_cell_length_c   12.45293325
_cell_angle_alpha   91.61094683
_cell_angle_beta   106.06869860
_cell_angle_gamma   120.12618067
_symmetry_Int_Tables_number   1
_chemical_formula_structural   Cs3Np(O2F)2
_chemical_formula_sum   'Cs6 Np2 O8 F4'
_cell_volume   479.99692256
_cell_formula_units_Z   2
loop_
 _symmetry_equiv_pos_site_id
 _symmetry_equiv_pos_as_xyz
  1  'x, y, z'
loop_
 _atom_site_type_symbol
 _atom_site_label
 _atom_site_symmetry_multiplicity
 _atom_site_fract_x
 _atom_site_fract_y
 _atom_site_fract_z
 _atom_site_occupancy
  Cs  Cs0  1  0.237756  0.862827  0.120105  1
  Cs  Cs1  1  0.999031  0.250000  0.250000  1
  Cs  Cs2  1  0.754825  0.637173  0.379895  1
  Cs  Cs3  1  0.245175  0.362827  0.620105  1
  Cs  Cs4  1  0.000970  0.750000  0.750000  1
  Cs  Cs5  1  0.762244  0.137173  0.879895  1
  Np  Np6  1  0.500000  0.500000  0.000000  1
  Np  Np7  1  0.499999  0.000000  0.499999  1
  O  O8  1  0.739992  0.818728  0.052737  1
  O  O9  1  0.722410  0.423283  0.083937  1
  O  O10  1  0.715191  0.076717  0.416063  1
  O  O11  1  0.368527  0.681272  0.447263  1
  O  O12  1  0.631473  0.318728  0.552738  1
  O  O13  1  0.284810  0.923284  0.583936  1
  O  O14  1  0.277590  0.576717  0.916063  1
  O  O15  1  0.260008  0.181272  0.947262  1
  F  F16  1  0.379555  0.507169  0.156071  1
  F  F17  1  0.216314  0.992831  0.343928  1
  F  F18  1  0.783686  0.007169  0.656072  1
  F  F19  1  0.620445  0.492831  0.843928  1
