# generated using pymatgen
data_La2Co2Ag
_symmetry_space_group_name_H-M   'P 1'
_cell_length_a   4.03265100
_cell_length_b   4.03265193
_cell_length_c   17.23122900
_cell_angle_alpha   90.00000000
_cell_angle_beta   90.00000000
_cell_angle_gamma   120.00000054
_symmetry_Int_Tables_number   1
_chemical_formula_structural   La2Co2Ag
_chemical_formula_sum   'La4 Co4 Ag2'
_cell_volume   242.67680052
_cell_formula_units_Z   2
loop_
 _symmetry_equiv_pos_site_id
 _symmetry_equiv_pos_as_xyz
  1  'x, y, z'
loop_
 _atom_site_type_symbol
 _atom_site_label
 _atom_site_symmetry_multiplicity
 _atom_site_fract_x
 _atom_site_fract_y
 _atom_site_fract_z
 _atom_site_occupancy
  La  La0  1  0.000000  0.000000  0.111659  1
  La  La1  1  0.000000  0.000000  0.888341  1
  La  La2  1  0.000000  0.000000  0.611659  1
  La  La3  1  0.000000  0.000000  0.388341  1
  Co  Co4  1  0.333333  0.666667  0.500216  1
  Co  Co5  1  0.666667  0.333333  0.499784  1
  Co  Co6  1  0.666667  0.333333  0.000216  1
  Co  Co7  1  0.333333  0.666667  0.999784  1
  Ag  Ag8  1  0.333333  0.666667  0.250000  1
  Ag  Ag9  1  0.666667  0.333333  0.750000  1
