# generated using pymatgen
data_Tb6Ho6TcOs3
_symmetry_space_group_name_H-M   'P 1'
_cell_length_a   6.30562757
_cell_length_b   7.42239011
_cell_length_c   9.08107986
_cell_angle_alpha   90.05500978
_cell_angle_beta   90.20734438
_cell_angle_gamma   90.03878062
_symmetry_Int_Tables_number   1
_chemical_formula_structural   Tb6Ho6TcOs3
_chemical_formula_sum   'Tb6 Ho6 Tc1 Os3'
_cell_volume   425.01713895
_cell_formula_units_Z   1
loop_
 _symmetry_equiv_pos_site_id
 _symmetry_equiv_pos_as_xyz
  1  'x, y, z'
loop_
 _atom_site_type_symbol
 _atom_site_label
 _atom_site_symmetry_multiplicity
 _atom_site_fract_x
 _atom_site_fract_y
 _atom_site_fract_z
 _atom_site_occupancy
  Tb  Tb0  1  0.335110  0.675206  0.063014  1
  Tb  Tb1  1  0.165750  0.175731  0.436689  1
  Tb  Tb2  1  0.871811  0.539872  0.250091  1
  Tb  Tb3  1  0.626683  0.039798  0.249917  1
  Tb  Tb4  1  0.128906  0.459707  0.749912  1
  Tb  Tb5  1  0.370835  0.960485  0.750009  1
  Ho  Ho6  1  0.667569  0.324788  0.563413  1
  Ho  Ho7  1  0.834067  0.825197  0.936097  1
  Ho  Ho8  1  0.667851  0.324181  0.936476  1
  Ho  Ho9  1  0.833609  0.824613  0.563923  1
  Ho  Ho10  1  0.335602  0.674587  0.437386  1
  Ho  Ho11  1  0.165536  0.175499  0.062988  1
  Tc  Tc12  1  0.037437  0.883723  0.250160  1
  Os  Os13  1  0.460357  0.383513  0.249865  1
  Os  Os14  1  0.957499  0.117120  0.750926  1
  Os  Os15  1  0.541378  0.615977  0.749134  1
