# generated using pymatgen
data_Yb3Ce3ZrTaSb10
_symmetry_space_group_name_H-M   'P 1'
_cell_length_a   9.41990748
_cell_length_b   9.39563716
_cell_length_c   6.19062805
_cell_angle_alpha   90.03483797
_cell_angle_beta   89.98259448
_cell_angle_gamma   119.91395053
_symmetry_Int_Tables_number   1
_chemical_formula_structural   Yb3Ce3ZrTaSb10
_chemical_formula_sum   'Yb3 Ce3 Zr1 Ta1 Sb10'
_cell_volume   474.91299889
_cell_formula_units_Z   1
loop_
 _symmetry_equiv_pos_site_id
 _symmetry_equiv_pos_as_xyz
  1  'x, y, z'
loop_
 _atom_site_type_symbol
 _atom_site_label
 _atom_site_symmetry_multiplicity
 _atom_site_fract_x
 _atom_site_fract_y
 _atom_site_fract_z
 _atom_site_occupancy
  Yb  Yb0  1  0.615110  0.000663  0.251755  1
  Yb  Yb1  1  0.383333  0.999728  0.747300  1
  Yb  Yb2  1  0.000723  0.620703  0.252748  1
  Ce  Ce3  1  0.997827  0.382763  0.749732  1
  Ce  Ce4  1  0.382084  0.379247  0.250990  1
  Ce  Ce5  1  0.621706  0.621923  0.748128  1
  Zr  Zr6  1  0.999504  0.997506  0.496916  1
  Ta  Ta7  1  0.999267  0.996462  0.003065  1
  Sb  Sb8  1  0.261430  0.000266  0.241842  1
  Sb  Sb9  1  0.742614  0.002442  0.757580  1
  Sb  Sb10  1  0.001016  0.264886  0.243179  1
  Sb  Sb11  1  0.001680  0.738627  0.756869  1
  Sb  Sb12  1  0.733745  0.735211  0.243822  1
  Sb  Sb13  1  0.261311  0.263879  0.756063  1
  Sb  Sb14  1  0.332080  0.663489  0.000310  1
  Sb  Sb15  1  0.667227  0.334828  0.999912  1
  Sb  Sb16  1  0.667026  0.333762  0.500093  1
  Sb  Sb17  1  0.332317  0.663615  0.499694  1
