# generated using pymatgen
data_LiTa2N3
_symmetry_space_group_name_H-M   'P 1'
_cell_length_a   5.23162700
_cell_length_b   5.23162598
_cell_length_c   10.33536000
_cell_angle_alpha   90.00000000
_cell_angle_beta   90.00000000
_cell_angle_gamma   120.00000010
_symmetry_Int_Tables_number   1
_chemical_formula_structural   LiTa2N3
_chemical_formula_sum   'Li4 Ta8 N12'
_cell_volume   244.97947540
_cell_formula_units_Z   4
loop_
 _symmetry_equiv_pos_site_id
 _symmetry_equiv_pos_as_xyz
  1  'x, y, z'
loop_
 _atom_site_type_symbol
 _atom_site_label
 _atom_site_symmetry_multiplicity
 _atom_site_fract_x
 _atom_site_fract_y
 _atom_site_fract_z
 _atom_site_occupancy
  Li  Li0  1  0.333333  0.666667  0.000000  1
  Li  Li1  1  0.333333  0.666667  0.500000  1
  Li  Li2  1  0.666667  0.333333  0.500000  1
  Li  Li3  1  0.666667  0.333333  0.000000  1
  Ta  Ta4  1  0.000000  0.352855  0.250000  1
  Ta  Ta5  1  0.647145  0.000000  0.750000  1
  Ta  Ta6  1  0.352855  0.352855  0.750000  1
  Ta  Ta7  1  0.000000  0.000000  0.500000  1
  Ta  Ta8  1  0.000000  0.000000  0.000000  1
  Ta  Ta9  1  0.647145  0.647145  0.250000  1
  Ta  Ta10  1  0.352855  0.000000  0.250000  1
  Ta  Ta11  1  0.000000  0.647145  0.750000  1
  N  N12  1  0.678260  0.678260  0.624126  1
  N  N13  1  0.678260  0.678260  0.875874  1
  N  N14  1  0.321740  0.321740  0.124126  1
  N  N15  1  0.321740  0.321740  0.375874  1
  N  N16  1  0.321740  0.000000  0.875874  1
  N  N17  1  0.321740  0.000000  0.624126  1
  N  N18  1  0.000000  0.678260  0.375874  1
  N  N19  1  0.000000  0.678260  0.124126  1
  N  N20  1  0.678260  0.000000  0.124126  1
  N  N21  1  0.678260  0.000000  0.375874  1
  N  N22  1  0.000000  0.321740  0.875874  1
  N  N23  1  0.000000  0.321740  0.624126  1
