# generated using pymatgen
data_Er5In4CuRu
_symmetry_space_group_name_H-M   'P 1'
_cell_length_a   3.59808100
_cell_length_b   8.04012943
_cell_length_c   18.05097735
_cell_angle_alpha   89.95177130
_cell_angle_beta   90.00000000
_cell_angle_gamma   90.00000000
_symmetry_Int_Tables_number   1
_chemical_formula_structural   Er5In4CuRu
_chemical_formula_sum   'Er10 In8 Cu2 Ru2'
_cell_volume   522.19720579
_cell_formula_units_Z   2
loop_
 _symmetry_equiv_pos_site_id
 _symmetry_equiv_pos_as_xyz
  1  'x, y, z'
loop_
 _atom_site_type_symbol
 _atom_site_label
 _atom_site_symmetry_multiplicity
 _atom_site_fract_x
 _atom_site_fract_y
 _atom_site_fract_z
 _atom_site_occupancy
  Er  Er0  1  0.000000  0.118540  0.415207  1
  Er  Er1  1  0.000000  0.881460  0.584793  1
  Er  Er2  1  0.000000  0.383361  0.912694  1
  Er  Er3  1  0.000000  0.616639  0.087306  1
  Er  Er4  1  0.000000  0.258861  0.219586  1
  Er  Er5  1  0.000000  0.741139  0.780414  1
  Er  Er6  1  0.000000  0.271378  0.721465  1
  Er  Er7  1  0.000000  0.728622  0.278535  1
  Er  Er8  1  0.000000  0.000000  0.000000  1
  Er  Er9  1  0.000000  0.500000  0.500000  1
  In  In10  1  0.500000  0.425090  0.350768  1
  In  In11  1  0.500000  0.574910  0.649232  1
  In  In12  1  0.500000  0.075605  0.849093  1
  In  In13  1  0.500000  0.924395  0.150907  1
  In  In14  1  0.500000  0.293252  0.068080  1
  In  In15  1  0.500000  0.706748  0.931920  1
  In  In16  1  0.500000  0.206413  0.567722  1
  In  In17  1  0.500000  0.793587  0.432278  1
  Cu  Cu18  1  0.500000  0.022548  0.302291  1
  Cu  Cu19  1  0.500000  0.977452  0.697709  1
  Ru  Ru20  1  0.500000  0.475677  0.803512  1
  Ru  Ru21  1  0.500000  0.524323  0.196488  1
