# generated using pymatgen
data_Ca10RhAu3
_symmetry_space_group_name_H-M   'P 1'
_cell_length_a   8.97215858
_cell_length_b   8.95967985
_cell_length_c   7.77943204
_cell_angle_alpha   82.85894788
_cell_angle_beta   83.11952969
_cell_angle_gamma   44.61171891
_symmetry_Int_Tables_number   1
_chemical_formula_structural   Ca10RhAu3
_chemical_formula_sum   'Ca10 Rh1 Au3'
_cell_volume   435.35011513
_cell_formula_units_Z   1
loop_
 _symmetry_equiv_pos_site_id
 _symmetry_equiv_pos_as_xyz
  1  'x, y, z'
loop_
 _atom_site_type_symbol
 _atom_site_label
 _atom_site_symmetry_multiplicity
 _atom_site_fract_x
 _atom_site_fract_y
 _atom_site_fract_z
 _atom_site_occupancy
  Ca  Ca0  1  0.355328  0.212189  0.810093  1
  Ca  Ca1  1  0.807120  0.637303  0.681890  1
  Ca  Ca2  1  0.636786  0.800341  0.183031  1
  Ca  Ca3  1  0.200620  0.367974  0.326489  1
  Ca  Ca4  1  0.412767  0.581183  0.260049  1
  Ca  Ca5  1  0.571409  0.424378  0.744730  1
  Ca  Ca6  1  0.810713  0.006007  0.426847  1
  Ca  Ca7  1  0.979407  0.201716  0.077755  1
  Ca  Ca8  1  0.200107  0.975824  0.577973  1
  Ca  Ca9  1  0.024370  0.792144  0.908718  1
  Rh  Rh10  1  0.179707  0.599317  0.583291  1
  Au  Au11  1  0.405511  0.816300  0.919600  1
  Au  Au12  1  0.816795  0.404546  0.418274  1
  Au  Au13  1  0.599360  0.180777  0.081262  1
