# generated using pymatgen
data_Dy2YIn3Pt2Rh
_symmetry_space_group_name_H-M   'P 1'
_cell_length_a   7.71085705
_cell_length_b   7.70388192
_cell_length_c   3.82011900
_cell_angle_alpha   90.00000000
_cell_angle_beta   90.00000000
_cell_angle_gamma   119.97006158
_symmetry_Int_Tables_number   1
_chemical_formula_structural   Dy2YIn3Pt2Rh
_chemical_formula_sum   'Dy2 Y1 In3 Pt2 Rh1'
_cell_volume   196.58516053
_cell_formula_units_Z   1
loop_
 _symmetry_equiv_pos_site_id
 _symmetry_equiv_pos_as_xyz
  1  'x, y, z'
loop_
 _atom_site_type_symbol
 _atom_site_label
 _atom_site_symmetry_multiplicity
 _atom_site_fract_x
 _atom_site_fract_y
 _atom_site_fract_z
 _atom_site_occupancy
  Dy  Dy0  1  0.594787  0.999977  0.500000  1
  Dy  Dy1  1  0.405213  0.405190  0.500000  1
  Y  Y2  1  0.000000  0.594815  0.500000  1
  In  In3  1  0.000000  0.256810  0.000000  1
  In  In4  1  0.256785  0.999980  0.000000  1
  In  In5  1  0.743215  0.743195  0.000000  1
  Pt  Pt6  1  0.665917  0.332770  0.000000  1
  Pt  Pt7  1  0.334083  0.666854  0.000000  1
  Rh  Rh8  1  0.000000  0.000409  0.500000  1
