# generated using pymatgen
data_Y20Cd3Fe2Ag3
_symmetry_space_group_name_H-M   'P 1'
_cell_length_a   9.61847800
_cell_length_b   9.61847948
_cell_length_c   9.68840000
_cell_angle_alpha   90.00000000
_cell_angle_beta   90.00000000
_cell_angle_gamma   119.99999492
_symmetry_Int_Tables_number   1
_chemical_formula_structural   Y20Cd3Fe2Ag3
_chemical_formula_sum   'Y20 Cd3 Fe2 Ag3'
_cell_volume   776.23906206
_cell_formula_units_Z   1
loop_
 _symmetry_equiv_pos_site_id
 _symmetry_equiv_pos_as_xyz
  1  'x, y, z'
loop_
 _atom_site_type_symbol
 _atom_site_label
 _atom_site_symmetry_multiplicity
 _atom_site_fract_x
 _atom_site_fract_y
 _atom_site_fract_z
 _atom_site_occupancy
  Y  Y0  1  0.000000  0.000000  0.478287  1
  Y  Y1  1  0.000000  0.000000  0.021713  1
  Y  Y2  1  0.541498  0.458502  0.250000  1
  Y  Y3  1  0.541498  0.082995  0.250000  1
  Y  Y4  1  0.917005  0.458502  0.250000  1
  Y  Y5  1  0.458217  0.541783  0.750000  1
  Y  Y6  1  0.458217  0.916434  0.750000  1
  Y  Y7  1  0.083566  0.541783  0.750000  1
  Y  Y8  1  0.212175  0.787825  0.437072  1
  Y  Y9  1  0.212175  0.424352  0.437072  1
  Y  Y10  1  0.575648  0.787825  0.437072  1
  Y  Y11  1  0.788794  0.211206  0.563644  1
  Y  Y12  1  0.788794  0.577585  0.563644  1
  Y  Y13  1  0.422415  0.211206  0.563644  1
  Y  Y14  1  0.788794  0.211206  0.936356  1
  Y  Y15  1  0.788794  0.577585  0.936356  1
  Y  Y16  1  0.422415  0.211206  0.936356  1
  Y  Y17  1  0.212175  0.787825  0.062928  1
  Y  Y18  1  0.212175  0.424352  0.062928  1
  Y  Y19  1  0.575648  0.787825  0.062928  1
  Cd  Cd20  1  0.111068  0.888932  0.750000  1
  Cd  Cd21  1  0.111068  0.222136  0.750000  1
  Cd  Cd22  1  0.777864  0.888932  0.750000  1
  Fe  Fe23  1  0.333333  0.666667  0.250000  1
  Fe  Fe24  1  0.666667  0.333333  0.750000  1
  Ag  Ag25  1  0.876975  0.123025  0.250000  1
  Ag  Ag26  1  0.876975  0.753950  0.250000  1
  Ag  Ag27  1  0.246050  0.123025  0.250000  1
