# generated using pymatgen
data_Sr4Ga7SiIr8
_symmetry_space_group_name_H-M   'P 1'
_cell_length_a   5.96602942
_cell_length_b   8.51141442
_cell_length_c   8.51080635
_cell_angle_alpha   75.86581250
_cell_angle_beta   89.43234783
_cell_angle_gamma   89.42567938
_symmetry_Int_Tables_number   1
_chemical_formula_structural   Sr4Ga7SiIr8
_chemical_formula_sum   'Sr4 Ga7 Si1 Ir8'
_cell_volume   419.05634695
_cell_formula_units_Z   1
loop_
 _symmetry_equiv_pos_site_id
 _symmetry_equiv_pos_as_xyz
  1  'x, y, z'
loop_
 _atom_site_type_symbol
 _atom_site_label
 _atom_site_symmetry_multiplicity
 _atom_site_fract_x
 _atom_site_fract_y
 _atom_site_fract_z
 _atom_site_occupancy
  Sr  Sr0  1  0.374990  0.997927  0.251989  1
  Sr  Sr1  1  0.875068  0.500683  0.750155  1
  Sr  Sr2  1  0.119397  0.500713  0.250984  1
  Sr  Sr3  1  0.630507  0.998906  0.749269  1
  Ga  Ga4  1  0.375276  0.312772  0.936996  1
  Ga  Ga5  1  0.131801  0.184149  0.564691  1
  Ga  Ga6  1  0.622582  0.318530  0.435934  1
  Ga  Ga7  1  0.875088  0.817435  0.432382  1
  Ga  Ga8  1  0.875035  0.183581  0.066277  1
  Ga  Ga9  1  0.617795  0.685100  0.066217  1
  Ga  Ga10  1  0.127966  0.814254  0.931454  1
  Si  Si11  1  0.374719  0.678332  0.571672  1
  Ir  Ir12  1  0.369204  0.391367  0.633943  1
  Ir  Ir13  1  0.610970  0.623597  0.372839  1
  Ir  Ir14  1  0.138849  0.877402  0.626308  1
  Ir  Ir15  1  0.127824  0.115358  0.865924  1
  Ir  Ir16  1  0.622241  0.383849  0.134712  1
  Ir  Ir17  1  0.872640  0.881568  0.131230  1
  Ir  Ir18  1  0.380723  0.615889  0.858705  1
  Ir  Ir19  1  0.877324  0.118588  0.368320  1
