# generated using pymatgen
data_Nd3Tl3HgRh2
_symmetry_space_group_name_H-M   'P 1'
_cell_length_a   8.06011900
_cell_length_b   8.02363889
_cell_length_c   3.91499600
_cell_angle_alpha   90.00000000
_cell_angle_beta   90.00000000
_cell_angle_gamma   119.65433184
_symmetry_Int_Tables_number   1
_chemical_formula_structural   Nd3Tl3HgRh2
_chemical_formula_sum   'Nd3 Tl3 Hg1 Rh2'
_cell_volume   220.02751578
_cell_formula_units_Z   1
loop_
 _symmetry_equiv_pos_site_id
 _symmetry_equiv_pos_as_xyz
  1  'x, y, z'
loop_
 _atom_site_type_symbol
 _atom_site_label
 _atom_site_symmetry_multiplicity
 _atom_site_fract_x
 _atom_site_fract_y
 _atom_site_fract_z
 _atom_site_occupancy
  Nd  Nd0  1  0.612546  0.027352  0.500000  1
  Nd  Nd1  1  0.416933  0.387964  0.500000  1
  Nd  Nd2  1  0.972239  0.585891  0.500000  1
  Tl  Tl3  1  0.257841  0.002239  0.000000  1
  Tl  Tl4  1  0.743393  0.742557  0.000000  1
  Tl  Tl5  1  0.998563  0.255836  0.000000  1
  Hg  Hg6  1  0.333348  0.666624  0.000000  1
  Rh  Rh7  1  0.999321  0.998255  0.500000  1
  Rh  Rh8  1  0.665815  0.333284  0.000000  1
