# generated using pymatgen
data_Lu8Mg2Ga4HgBi
_symmetry_space_group_name_H-M   'P 1'
_cell_length_a   8.78835059
_cell_length_b   8.78835018
_cell_length_c   8.78835061
_cell_angle_alpha   130.34275026
_cell_angle_beta   130.34276210
_cell_angle_gamma   72.85940435
_symmetry_Int_Tables_number   1
_chemical_formula_structural   Lu8Mg2Ga4HgBi
_chemical_formula_sum   'Lu8 Mg2 Ga4 Hg1 Bi1'
_cell_volume   385.17468736
_cell_formula_units_Z   1
loop_
 _symmetry_equiv_pos_site_id
 _symmetry_equiv_pos_as_xyz
  1  'x, y, z'
loop_
 _atom_site_type_symbol
 _atom_site_label
 _atom_site_symmetry_multiplicity
 _atom_site_fract_x
 _atom_site_fract_y
 _atom_site_fract_z
 _atom_site_occupancy
  Lu  Lu0  1  0.814711  0.299168  0.826749  1
  Lu  Lu1  1  0.200832  0.685289  0.173251  1
  Lu  Lu2  1  0.472420  0.987961  0.173251  1
  Lu  Lu3  1  0.299168  0.472420  0.484459  1
  Lu  Lu4  1  0.027580  0.200832  0.515541  1
  Lu  Lu5  1  0.512039  0.027580  0.826749  1
  Lu  Lu6  1  0.685289  0.512039  0.484459  1
  Lu  Lu7  1  0.987961  0.814711  0.515541  1
  Mg  Mg8  1  0.002505  0.002505  0.000000  1
  Mg  Mg9  1  0.497495  0.497495  0.000000  1
  Ga  Ga10  1  0.129962  0.629962  0.759925  1
  Ga  Ga11  1  0.870038  0.370038  0.240075  1
  Ga  Ga12  1  0.629962  0.870038  0.500000  1
  Ga  Ga13  1  0.370038  0.129962  0.500000  1
  Hg  Hg14  1  0.250000  0.250000  0.000000  1
  Bi  Bi15  1  0.750000  0.750000  0.000000  1
