# generated using pymatgen
data_Tb2Dy2Sn6Ir7
_symmetry_space_group_name_H-M   'P 1'
_cell_length_a   7.60794564
_cell_length_b   7.60794557
_cell_length_c   7.61404125
_cell_angle_alpha   109.47278192
_cell_angle_beta   109.47278639
_cell_angle_gamma   109.43563166
_symmetry_Int_Tables_number   1
_chemical_formula_structural   Tb2Dy2Sn6Ir7
_chemical_formula_sum   'Tb2 Dy2 Sn6 Ir7'
_cell_volume   339.39227520
_cell_formula_units_Z   1
loop_
 _symmetry_equiv_pos_site_id
 _symmetry_equiv_pos_as_xyz
  1  'x, y, z'
loop_
 _atom_site_type_symbol
 _atom_site_label
 _atom_site_symmetry_multiplicity
 _atom_site_fract_x
 _atom_site_fract_y
 _atom_site_fract_z
 _atom_site_occupancy
  Tb  Tb0  1  0.000000  0.500000  0.000000  1
  Tb  Tb1  1  0.500000  0.000000  0.000000  1
  Dy  Dy2  1  0.000000  0.000000  0.500000  1
  Dy  Dy3  1  0.500000  0.500000  0.500000  1
  Sn  Sn4  1  0.685811  0.685811  0.000000  1
  Sn  Sn5  1  0.314186  0.000248  0.314434  1
  Sn  Sn6  1  0.000248  0.314186  0.314434  1
  Sn  Sn7  1  0.314189  0.314189  0.000000  1
  Sn  Sn8  1  0.685814  0.999752  0.685566  1
  Sn  Sn9  1  0.999752  0.685814  0.685566  1
  Ir  Ir10  1  0.750000  0.250000  0.500000  1
  Ir  Ir11  1  0.750000  0.500335  0.250335  1
  Ir  Ir12  1  0.499665  0.250000  0.749665  1
  Ir  Ir13  1  0.250000  0.499665  0.749665  1
  Ir  Ir14  1  0.250000  0.750000  0.500000  1
  Ir  Ir15  1  0.500335  0.750000  0.250335  1
  Ir  Ir16  1  0.000000  0.000000  0.000000  1
