# generated using pymatgen
data_LaCe(Mn9Si4)2
_symmetry_space_group_name_H-M   'P 1'
_cell_length_a   7.87678680
_cell_length_b   7.87678730
_cell_length_c   8.06479891
_cell_angle_alpha   119.23176045
_cell_angle_beta   119.23176154
_cell_angle_gamma   90.00001140
_symmetry_Int_Tables_number   1
_chemical_formula_structural   LaCe(Mn9Si4)2
_chemical_formula_sum   'La1 Ce1 Mn18 Si8'
_cell_volume   361.87593627
_cell_formula_units_Z   1
loop_
 _symmetry_equiv_pos_site_id
 _symmetry_equiv_pos_as_xyz
  1  'x, y, z'
loop_
 _atom_site_type_symbol
 _atom_site_label
 _atom_site_symmetry_multiplicity
 _atom_site_fract_x
 _atom_site_fract_y
 _atom_site_fract_z
 _atom_site_occupancy
  La  La0  1  0.750000  0.750000  0.500000  1
  Ce  Ce1  1  0.250000  0.250000  0.500000  1
  Mn  Mn2  1  0.307907  0.556825  0.997926  1
  Mn  Mn3  1  0.690020  0.441102  0.997926  1
  Mn  Mn4  1  0.192093  0.058898  0.002074  1
  Mn  Mn5  1  0.809980  0.943175  0.002074  1
  Mn  Mn6  1  0.441102  0.307907  0.997926  1
  Mn  Mn7  1  0.556825  0.690020  0.997926  1
  Mn  Mn8  1  0.943175  0.192093  0.002074  1
  Mn  Mn9  1  0.058898  0.809980  0.002074  1
  Mn  Mn10  1  0.555916  0.295099  0.353117  1
  Mn  Mn11  1  0.797200  0.058017  0.353117  1
  Mn  Mn12  1  0.295099  0.797200  0.353117  1
  Mn  Mn13  1  0.058017  0.555916  0.353117  1
  Mn  Mn14  1  0.441983  0.702800  0.646883  1
  Mn  Mn15  1  0.204901  0.944084  0.646883  1
  Mn  Mn16  1  0.702800  0.204901  0.646883  1
  Mn  Mn17  1  0.944084  0.441983  0.646883  1
  Mn  Mn18  1  0.000000  0.500000  0.000000  1
  Mn  Mn19  1  0.500000  0.000000  0.000000  1
  Si  Si20  1  0.945528  0.796751  0.242315  1
  Si  Si21  1  0.296789  0.445565  0.242315  1
  Si  Si22  1  0.796751  0.296789  0.242315  1
  Si  Si23  1  0.445565  0.945528  0.242315  1
  Si  Si24  1  0.054435  0.203211  0.757685  1
  Si  Si25  1  0.703249  0.554472  0.757685  1
  Si  Si26  1  0.203211  0.703249  0.757685  1
  Si  Si27  1  0.554472  0.054435  0.757685  1
