# generated using pymatgen
data_Er2Be2GaIr5
_symmetry_space_group_name_H-M   'P 1'
_cell_length_a   9.61324700
_cell_length_b   9.61324700
_cell_length_c   3.21318500
_cell_angle_alpha   90.00000000
_cell_angle_beta   90.00000000
_cell_angle_gamma   90.00000000
_symmetry_Int_Tables_number   1
_chemical_formula_structural   Er2Be2GaIr5
_chemical_formula_sum   'Er4 Be4 Ga2 Ir10'
_cell_volume   296.94494264
_cell_formula_units_Z   2
loop_
 _symmetry_equiv_pos_site_id
 _symmetry_equiv_pos_as_xyz
  1  'x, y, z'
loop_
 _atom_site_type_symbol
 _atom_site_label
 _atom_site_symmetry_multiplicity
 _atom_site_fract_x
 _atom_site_fract_y
 _atom_site_fract_z
 _atom_site_occupancy
  Er  Er0  1  0.676054  0.176054  0.000000  1
  Er  Er1  1  0.323946  0.823946  0.000000  1
  Er  Er2  1  0.176054  0.323946  0.000000  1
  Er  Er3  1  0.823946  0.676054  0.000000  1
  Be  Be4  1  0.122608  0.622608  0.000000  1
  Be  Be5  1  0.877392  0.377392  0.000000  1
  Be  Be6  1  0.622608  0.877392  0.000000  1
  Be  Be7  1  0.377392  0.122608  0.000000  1
  Ga  Ga8  1  0.000000  0.000000  0.000000  1
  Ga  Ga9  1  0.500000  0.500000  0.000000  1
  Ir  Ir10  1  0.211625  0.066269  0.500000  1
  Ir  Ir11  1  0.788375  0.933731  0.500000  1
  Ir  Ir12  1  0.066269  0.788375  0.500000  1
  Ir  Ir13  1  0.711625  0.433731  0.500000  1
  Ir  Ir14  1  0.933731  0.211625  0.500000  1
  Ir  Ir15  1  0.288375  0.566269  0.500000  1
  Ir  Ir16  1  0.566269  0.711625  0.500000  1
  Ir  Ir17  1  0.433731  0.288375  0.500000  1
  Ir  Ir18  1  0.500000  0.000000  0.500000  1
  Ir  Ir19  1  0.000000  0.500000  0.500000  1
