# generated using pymatgen
data_SmDy15(ErPb4)4
_symmetry_space_group_name_H-M   'P 1'
_cell_length_a   8.21436975
_cell_length_b   8.29057861
_cell_length_c   15.68200693
_cell_angle_alpha   90.00443737
_cell_angle_beta   89.69875079
_cell_angle_gamma   89.94442847
_symmetry_Int_Tables_number   1
_chemical_formula_structural   SmDy15(ErPb4)4
_chemical_formula_sum   'Sm1 Dy15 Er4 Pb16'
_cell_volume   1067.95885712
_cell_formula_units_Z   1
loop_
 _symmetry_equiv_pos_site_id
 _symmetry_equiv_pos_as_xyz
  1  'x, y, z'
loop_
 _atom_site_type_symbol
 _atom_site_label
 _atom_site_symmetry_multiplicity
 _atom_site_fract_x
 _atom_site_fract_y
 _atom_site_fract_z
 _atom_site_occupancy
  Sm  Sm0  1  0.967258  0.822410  0.598309  1
  Dy  Dy1  1  0.623923  0.157808  0.621366  1
  Dy  Dy2  1  0.121506  0.341441  0.879804  1
  Dy  Dy3  1  0.378212  0.842270  0.120895  1
  Dy  Dy4  1  0.875449  0.657765  0.378082  1
  Dy  Dy5  1  0.376309  0.842399  0.378519  1
  Dy  Dy6  1  0.878609  0.657944  0.120906  1
  Dy  Dy7  1  0.621027  0.157975  0.879383  1
  Dy  Dy8  1  0.122786  0.342054  0.621413  1
  Dy  Dy9  1  0.463652  0.675177  0.599589  1
  Dy  Dy10  1  0.960385  0.824913  0.899039  1
  Dy  Dy11  1  0.538706  0.324720  0.100710  1
  Dy  Dy12  1  0.036601  0.176561  0.399818  1
  Dy  Dy13  1  0.535449  0.324270  0.400362  1
  Dy  Dy14  1  0.038718  0.175183  0.100863  1
  Dy  Dy15  1  0.461940  0.675160  0.900345  1
  Er  Er16  1  0.790183  0.495562  0.750468  1
  Er  Er17  1  0.290547  0.004681  0.750569  1
  Er  Er18  1  0.209558  0.504225  0.250007  1
  Er  Er19  1  0.709437  0.995703  0.249349  1
  Pb  Pb20  1  0.717394  0.967557  0.455354  1
  Pb  Pb21  1  0.220244  0.532128  0.043722  1
  Pb  Pb22  1  0.279290  0.031364  0.956681  1
  Pb  Pb23  1  0.780793  0.464503  0.542720  1
  Pb  Pb24  1  0.285090  0.037256  0.542681  1
  Pb  Pb25  1  0.779829  0.467408  0.956942  1
  Pb  Pb26  1  0.720232  0.967555  0.043315  1
  Pb  Pb27  1  0.217248  0.535268  0.457011  1
  Pb  Pb28  1  0.427290  0.374230  0.750227  1
  Pb  Pb29  1  0.927219  0.126158  0.750360  1
  Pb  Pb30  1  0.571991  0.625786  0.249680  1
  Pb  Pb31  1  0.072448  0.874150  0.249896  1
  Pb  Pb32  1  0.649702  0.844580  0.750000  1
  Pb  Pb33  1  0.152535  0.653639  0.751149  1
  Pb  Pb34  1  0.349382  0.155454  0.250253  1
  Pb  Pb35  1  0.849055  0.344744  0.250210  1
