# generated using pymatgen
data_V4Ga2SnMo5
_symmetry_space_group_name_H-M   'P 1'
_cell_length_a   4.95501399
_cell_length_b   4.94864439
_cell_length_c   14.78714024
_cell_angle_alpha   90.07623695
_cell_angle_beta   90.05843081
_cell_angle_gamma   90.23396190
_symmetry_Int_Tables_number   1
_chemical_formula_structural   V4Ga2SnMo5
_chemical_formula_sum   'V8 Ga4 Sn2 Mo10'
_cell_volume   362.58604853
_cell_formula_units_Z   2
loop_
 _symmetry_equiv_pos_site_id
 _symmetry_equiv_pos_as_xyz
  1  'x, y, z'
loop_
 _atom_site_type_symbol
 _atom_site_label
 _atom_site_symmetry_multiplicity
 _atom_site_fract_x
 _atom_site_fract_y
 _atom_site_fract_z
 _atom_site_occupancy
  V  V0  1  0.503609  0.996487  0.419804  1
  V  V1  1  0.505041  0.996598  0.752717  1
  V  V2  1  0.249801  0.503027  0.998842  1
  V  V3  1  0.257244  0.506602  0.332284  1
  V  V4  1  0.258862  0.505505  0.666295  1
  V  V5  1  0.996882  0.255197  0.162812  1
  V  V6  1  0.996388  0.258200  0.502204  1
  V  V7  1  0.995156  0.256625  0.838663  1
  Ga  Ga8  1  0.492647  0.493937  0.165097  1
  Ga  Ga9  1  0.493093  0.493461  0.498120  1
  Ga  Ga10  1  0.492217  0.494043  0.832143  1
  Ga  Ga11  1  0.004928  0.008008  0.000067  1
  Sn  Sn12  1  0.007876  0.008733  0.334667  1
  Sn  Sn13  1  0.008036  0.008666  0.670991  1
  Mo  Mo14  1  0.504010  0.996800  0.248786  1
  Mo  Mo15  1  0.503263  0.997002  0.580788  1
  Mo  Mo16  1  0.500972  0.997291  0.913444  1
  Mo  Mo17  1  0.751105  0.501001  0.999188  1
  Mo  Mo18  1  0.741376  0.502364  0.332159  1
  Mo  Mo19  1  0.740323  0.502979  0.666844  1
  Mo  Mo20  1  0.998905  0.742049  0.163074  1
  Mo  Mo21  1  0.998157  0.738345  0.501442  1
  Mo  Mo22  1  0.998391  0.739677  0.837489  1
  Mo  Mo23  1  0.501715  0.997401  0.082080  1
