# generated using pymatgen
data_Ta2Zn(Co10B3)2
_symmetry_space_group_name_H-M   'P 1'
_cell_length_a   7.44059090
_cell_length_b   7.44059159
_cell_length_c   7.44059200
_cell_angle_alpha   60.00000706
_cell_angle_beta   60.00000401
_cell_angle_gamma   60.00000316
_symmetry_Int_Tables_number   1
_chemical_formula_structural   Ta2Zn(Co10B3)2
_chemical_formula_sum   'Ta2 Zn1 Co20 B6'
_cell_volume   291.27783205
_cell_formula_units_Z   1
loop_
 _symmetry_equiv_pos_site_id
 _symmetry_equiv_pos_as_xyz
  1  'x, y, z'
loop_
 _atom_site_type_symbol
 _atom_site_label
 _atom_site_symmetry_multiplicity
 _atom_site_fract_x
 _atom_site_fract_y
 _atom_site_fract_z
 _atom_site_occupancy
  Ta  Ta0  1  0.750000  0.750000  0.750000  1
  Ta  Ta1  1  0.250000  0.250000  0.250000  1
  Zn  Zn2  1  0.000000  0.000000  0.000000  1
  Co  Co3  1  0.616467  0.616467  0.150600  1
  Co  Co4  1  0.616467  0.150600  0.616467  1
  Co  Co5  1  0.150600  0.616467  0.616467  1
  Co  Co6  1  0.616467  0.616467  0.616467  1
  Co  Co7  1  0.383533  0.383533  0.849400  1
  Co  Co8  1  0.383533  0.849400  0.383533  1
  Co  Co9  1  0.849400  0.383533  0.383533  1
  Co  Co10  1  0.383533  0.383533  0.383533  1
  Co  Co11  1  0.000000  0.000000  0.341885  1
  Co  Co12  1  0.658115  0.000000  0.341885  1
  Co  Co13  1  0.000000  0.658115  0.341885  1
  Co  Co14  1  0.658115  0.341885  0.000000  1
  Co  Co15  1  0.000000  0.341885  0.000000  1
  Co  Co16  1  0.000000  0.341885  0.658115  1
  Co  Co17  1  0.341885  0.658115  0.000000  1
  Co  Co18  1  0.341885  0.000000  0.658115  1
  Co  Co19  1  0.341885  0.000000  0.000000  1
  Co  Co20  1  0.000000  0.000000  0.658115  1
  Co  Co21  1  0.000000  0.658115  0.000000  1
  Co  Co22  1  0.658115  0.000000  0.000000  1
  B  B23  1  0.724416  0.724416  0.275584  1
  B  B24  1  0.275584  0.724416  0.275584  1
  B  B25  1  0.724416  0.275584  0.275584  1
  B  B26  1  0.275584  0.275584  0.724416  1
  B  B27  1  0.724416  0.275584  0.724416  1
  B  B28  1  0.275584  0.724416  0.724416  1
