# generated using pymatgen
data_Ce3Er13(CoHg)4
_symmetry_space_group_name_H-M   'P 1'
_cell_length_a   9.38110209
_cell_length_b   9.43029647
_cell_length_c   9.43029600
_cell_angle_alpha   60.00000163
_cell_angle_beta   59.82637981
_cell_angle_gamma   59.82637968
_symmetry_Int_Tables_number   1
_chemical_formula_structural   Ce3Er13(CoHg)4
_chemical_formula_sum   'Ce3 Er13 Co4 Hg4'
_cell_volume   588.36229863
_cell_formula_units_Z   1
loop_
 _symmetry_equiv_pos_site_id
 _symmetry_equiv_pos_as_xyz
  1  'x, y, z'
loop_
 _atom_site_type_symbol
 _atom_site_label
 _atom_site_symmetry_multiplicity
 _atom_site_fract_x
 _atom_site_fract_y
 _atom_site_fract_z
 _atom_site_occupancy
  Ce  Ce0  1  0.591918  0.596799  0.596799  1
  Ce  Ce1  1  0.591918  0.596799  0.214485  1
  Ce  Ce2  1  0.591918  0.214485  0.596799  1
  Er  Er3  1  0.199493  0.600169  0.600169  1
  Er  Er4  1  0.062842  0.438282  0.438282  1
  Er  Er5  1  0.438595  0.062235  0.062235  1
  Er  Er6  1  0.438595  0.062235  0.436936  1
  Er  Er7  1  0.062842  0.438282  0.060595  1
  Er  Er8  1  0.438595  0.436936  0.062235  1
  Er  Er9  1  0.062842  0.060595  0.438282  1
  Er  Er10  1  0.187704  0.812744  0.812744  1
  Er  Er11  1  0.811929  0.187627  0.187627  1
  Er  Er12  1  0.811929  0.187627  0.812818  1
  Er  Er13  1  0.187704  0.812744  0.186809  1
  Er  Er14  1  0.811929  0.812818  0.187627  1
  Er  Er15  1  0.187704  0.186809  0.812744  1
  Co  Co16  1  0.401900  0.390580  0.390580  1
  Co  Co17  1  0.401900  0.390580  0.816941  1
  Co  Co18  1  0.401900  0.816941  0.390580  1
  Co  Co19  1  0.813649  0.395451  0.395451  1
  Hg  Hg20  1  0.835658  0.834620  0.834620  1
  Hg  Hg21  1  0.835658  0.834620  0.495101  1
  Hg  Hg22  1  0.835658  0.495101  0.834620  1
  Hg  Hg23  1  0.495223  0.834926  0.834926  1
