# generated using pymatgen
data_DyNb6CoS12
_symmetry_space_group_name_H-M   'P 1'
_cell_length_a   5.83361300
_cell_length_b   5.83361320
_cell_length_c   12.87574300
_cell_angle_alpha   90.00000000
_cell_angle_beta   90.00000000
_cell_angle_gamma   120.00000452
_symmetry_Int_Tables_number   1
_chemical_formula_structural   DyNb6CoS12
_chemical_formula_sum   'Dy1 Nb6 Co1 S12'
_cell_volume   379.47061943
_cell_formula_units_Z   1
loop_
 _symmetry_equiv_pos_site_id
 _symmetry_equiv_pos_as_xyz
  1  'x, y, z'
loop_
 _atom_site_type_symbol
 _atom_site_label
 _atom_site_symmetry_multiplicity
 _atom_site_fract_x
 _atom_site_fract_y
 _atom_site_fract_z
 _atom_site_occupancy
  Dy  Dy0  1  0.666667  0.333333  0.750000  1
  Nb  Nb1  1  0.333333  0.666667  0.017341  1
  Nb  Nb2  1  0.666667  0.333333  0.481146  1
  Nb  Nb3  1  0.333333  0.666667  0.482659  1
  Nb  Nb4  1  0.000000  0.000000  0.019353  1
  Nb  Nb5  1  0.666667  0.333333  0.018854  1
  Nb  Nb6  1  0.000000  0.000000  0.480647  1
  Co  Co7  1  0.333333  0.666667  0.250000  1
  S  S8  1  0.000662  0.666566  0.139224  1
  S  S9  1  0.668370  0.671254  0.604996  1
  S  S10  1  0.000662  0.334096  0.360776  1
  S  S11  1  0.333434  0.334096  0.139224  1
  S  S12  1  0.328746  0.997116  0.604996  1
  S  S13  1  0.328746  0.331630  0.895004  1
  S  S14  1  0.665904  0.666566  0.360776  1
  S  S15  1  0.002884  0.671254  0.895004  1
  S  S16  1  0.668370  0.997116  0.895004  1
  S  S17  1  0.333434  0.999338  0.360776  1
  S  S18  1  0.665904  0.999338  0.139224  1
  S  S19  1  0.002884  0.331630  0.604996  1
