# generated using pymatgen
data_LuIn3B4AsIr9
_symmetry_space_group_name_H-M   'P 1'
_cell_length_a   5.57159600
_cell_length_b   5.57159578
_cell_length_c   10.46646500
_cell_angle_alpha   90.00000000
_cell_angle_beta   90.00000000
_cell_angle_gamma   119.99998943
_symmetry_Int_Tables_number   1
_chemical_formula_structural   LuIn3B4AsIr9
_chemical_formula_sum   'Lu1 In3 B4 As1 Ir9'
_cell_volume   281.37785995
_cell_formula_units_Z   1
loop_
 _symmetry_equiv_pos_site_id
 _symmetry_equiv_pos_as_xyz
  1  'x, y, z'
loop_
 _atom_site_type_symbol
 _atom_site_label
 _atom_site_symmetry_multiplicity
 _atom_site_fract_x
 _atom_site_fract_y
 _atom_site_fract_z
 _atom_site_occupancy
  Lu  Lu0  1  0.000000  0.000000  0.917028  1
  In  In1  1  0.666667  0.333333  0.506192  1
  In  In2  1  0.000000  0.000000  0.332935  1
  In  In3  1  0.333333  0.666667  0.506192  1
  B  B4  1  0.666667  0.333333  0.153782  1
  B  B5  1  0.333333  0.666667  0.862395  1
  B  B6  1  0.666667  0.333333  0.862395  1
  B  B7  1  0.333333  0.666667  0.153782  1
  As  As8  1  0.000000  0.000000  0.642764  1
  Ir  Ir9  1  0.000000  0.499446  0.282748  1
  Ir  Ir10  1  0.431773  0.000000  0.729215  1
  Ir  Ir11  1  0.499446  0.000000  0.282748  1
  Ir  Ir12  1  0.000000  0.490055  0.008883  1
  Ir  Ir13  1  0.568227  0.568227  0.729215  1
  Ir  Ir14  1  0.000000  0.431773  0.729215  1
  Ir  Ir15  1  0.509945  0.509945  0.008883  1
  Ir  Ir16  1  0.490055  0.000000  0.008883  1
  Ir  Ir17  1  0.500554  0.500554  0.282748  1
