# generated using pymatgen
data_Eu20Si11Bi
_symmetry_space_group_name_H-M   'P 1'
_cell_length_a   7.84873300
_cell_length_b   7.84873300
_cell_length_c   14.99894700
_cell_angle_alpha   90.00000000
_cell_angle_beta   90.00000000
_cell_angle_gamma   90.00000000
_symmetry_Int_Tables_number   1
_chemical_formula_structural   Eu20Si11Bi
_chemical_formula_sum   'Eu20 Si11 Bi1'
_cell_volume   923.97427803
_cell_formula_units_Z   1
loop_
 _symmetry_equiv_pos_site_id
 _symmetry_equiv_pos_as_xyz
  1  'x, y, z'
loop_
 _atom_site_type_symbol
 _atom_site_label
 _atom_site_symmetry_multiplicity
 _atom_site_fract_x
 _atom_site_fract_y
 _atom_site_fract_z
 _atom_site_occupancy
  Eu  Eu0  1  0.331734  0.686052  0.111787  1
  Eu  Eu1  1  0.186052  0.168266  0.111787  1
  Eu  Eu2  1  0.500000  0.000000  0.725002  1
  Eu  Eu3  1  0.323512  0.674379  0.396946  1
  Eu  Eu4  1  0.663207  0.690645  0.889300  1
  Eu  Eu5  1  0.174379  0.176488  0.396946  1
  Eu  Eu6  1  0.676488  0.325621  0.396946  1
  Eu  Eu7  1  0.171813  0.821818  0.601980  1
  Eu  Eu8  1  0.336793  0.309355  0.889300  1
  Eu  Eu9  1  0.190645  0.836793  0.889300  1
  Eu  Eu10  1  0.500000  0.000000  0.267170  1
  Eu  Eu11  1  0.828187  0.178182  0.601980  1
  Eu  Eu12  1  0.321818  0.328187  0.601980  1
  Eu  Eu13  1  0.825621  0.823512  0.396946  1
  Eu  Eu14  1  0.809355  0.163207  0.889300  1
  Eu  Eu15  1  0.813948  0.831734  0.111787  1
  Eu  Eu16  1  0.000000  0.500000  0.258827  1
  Eu  Eu17  1  0.000000  0.500000  0.749014  1
  Eu  Eu18  1  0.668266  0.313948  0.111787  1
  Eu  Eu19  1  0.678182  0.671813  0.601980  1
  Si  Si20  1  0.110728  0.110841  0.746953  1
  Si  Si21  1  0.389159  0.610728  0.746953  1
  Si  Si22  1  0.611353  0.610072  0.252884  1
  Si  Si23  1  0.500000  0.000000  0.003670  1
  Si  Si24  1  0.110072  0.888647  0.252884  1
  Si  Si25  1  0.610841  0.389272  0.746953  1
  Si  Si26  1  0.889272  0.889159  0.746953  1
  Si  Si27  1  0.388647  0.389928  0.252884  1
  Si  Si28  1  0.889928  0.111353  0.252884  1
  Si  Si29  1  0.500000  0.000000  0.499947  1
  Si  Si30  1  0.000000  0.500000  0.498685  1
  Bi  Bi31  1  0.000000  0.500000  0.998291  1
