# generated using pymatgen
data_Ho7Er(InPd)2
_symmetry_space_group_name_H-M   'P 1'
_cell_length_a   9.68323375
_cell_length_b   9.68323310
_cell_length_c   9.68306300
_cell_angle_alpha   60.00058451
_cell_angle_beta   60.00058674
_cell_angle_gamma   59.99884034
_symmetry_Int_Tables_number   1
_chemical_formula_structural   Ho7Er(InPd)2
_chemical_formula_sum   'Ho14 Er2 In4 Pd4'
_cell_volume   642.00528011
_cell_formula_units_Z   2
loop_
 _symmetry_equiv_pos_site_id
 _symmetry_equiv_pos_as_xyz
  1  'x, y, z'
loop_
 _atom_site_type_symbol
 _atom_site_label
 _atom_site_symmetry_multiplicity
 _atom_site_fract_x
 _atom_site_fract_y
 _atom_site_fract_z
 _atom_site_occupancy
  Ho  Ho0  1  0.352636  0.352636  0.352546  1
  Ho  Ho1  1  0.352636  0.352636  0.942180  1
  Ho  Ho2  1  0.352546  0.942180  0.352636  1
  Ho  Ho3  1  0.942180  0.352546  0.352636  1
  Ho  Ho4  1  0.810464  0.189536  0.189536  1
  Ho  Ho5  1  0.189536  0.810464  0.810464  1
  Ho  Ho6  1  0.189536  0.810464  0.189536  1
  Ho  Ho7  1  0.810464  0.189536  0.810464  1
  Ho  Ho8  1  0.189522  0.189522  0.810478  1
  Ho  Ho9  1  0.810478  0.810478  0.189522  1
  Ho  Ho10  1  0.935669  0.564331  0.564331  1
  Ho  Ho11  1  0.564331  0.935669  0.935669  1
  Ho  Ho12  1  0.564331  0.935669  0.564331  1
  Ho  Ho13  1  0.935669  0.564331  0.935669  1
  Er  Er14  1  0.564125  0.564125  0.935875  1
  Er  Er15  1  0.935875  0.935875  0.564125  1
  In  In16  1  0.583334  0.583334  0.583410  1
  In  In17  1  0.583334  0.583334  0.249923  1
  In  In18  1  0.583410  0.249923  0.583334  1
  In  In19  1  0.249923  0.583410  0.583334  1
  Pd  Pd20  1  0.143999  0.143999  0.144158  1
  Pd  Pd21  1  0.143999  0.143999  0.567844  1
  Pd  Pd22  1  0.144158  0.567844  0.143999  1
  Pd  Pd23  1  0.567844  0.144158  0.143999  1
