# generated using pymatgen
data_Ho12Si11Ir
_symmetry_space_group_name_H-M   'P 1'
_cell_length_a   3.84562600
_cell_length_b   5.67400145
_cell_length_c   23.63716200
_cell_angle_alpha   82.68027769
_cell_angle_beta   90.00000000
_cell_angle_gamma   90.00000000
_symmetry_Int_Tables_number   1
_chemical_formula_structural   Ho12Si11Ir
_chemical_formula_sum   'Ho12 Si11 Ir1'
_cell_volume   511.56179167
_cell_formula_units_Z   1
loop_
 _symmetry_equiv_pos_site_id
 _symmetry_equiv_pos_as_xyz
  1  'x, y, z'
loop_
 _atom_site_type_symbol
 _atom_site_label
 _atom_site_symmetry_multiplicity
 _atom_site_fract_x
 _atom_site_fract_y
 _atom_site_fract_z
 _atom_site_occupancy
  Ho  Ho0  1  0.500000  0.081777  0.059338  1
  Ho  Ho1  1  0.500000  0.086775  0.563885  1
  Ho  Ho2  1  0.000000  0.925206  0.440117  1
  Ho  Ho3  1  0.000000  0.914605  0.939908  1
  Ho  Ho4  1  0.500000  0.450341  0.392600  1
  Ho  Ho5  1  0.500000  0.440515  0.893370  1
  Ho  Ho6  1  0.000000  0.555731  0.106222  1
  Ho  Ho7  1  0.000000  0.549186  0.607477  1
  Ho  Ho8  1  0.500000  0.257125  0.226075  1
  Ho  Ho9  1  0.500000  0.246991  0.723691  1
  Ho  Ho10  1  0.000000  0.747562  0.273397  1
  Ho  Ho11  1  0.000000  0.735221  0.774882  1
  Si  Si12  1  0.500000  0.621823  0.012171  1
  Si  Si13  1  0.500000  0.624640  0.512257  1
  Si  Si14  1  0.000000  0.385882  0.486800  1
  Si  Si15  1  0.000000  0.375872  0.986865  1
  Si  Si16  1  0.500000  0.768519  0.178871  1
  Si  Si17  1  0.500000  0.771020  0.680010  1
  Si  Si18  1  0.000000  0.235773  0.320557  1
  Si  Si19  1  0.000000  0.222535  0.821117  1
  Si  Si20  1  0.500000  0.960975  0.345824  1
  Si  Si21  1  0.500000  0.953167  0.845520  1
  Si  Si22  1  0.000000  0.043643  0.153605  1
  Ir  Ir23  1  0.000000  0.045116  0.655437  1
