# generated using pymatgen
data_Cd21CuPd4
_symmetry_space_group_name_H-M   'P 1'
_cell_length_a   8.82847585
_cell_length_b   8.81290638
_cell_length_c   8.81290600
_cell_angle_alpha   109.43540504
_cell_angle_beta   109.50701028
_cell_angle_gamma   109.50701679
_symmetry_Int_Tables_number   1
_chemical_formula_structural   Cd21CuPd4
_chemical_formula_sum   'Cd21 Cu1 Pd4'
_cell_volume   527.60645325
_cell_formula_units_Z   1
loop_
 _symmetry_equiv_pos_site_id
 _symmetry_equiv_pos_as_xyz
  1  'x, y, z'
loop_
 _atom_site_type_symbol
 _atom_site_label
 _atom_site_symmetry_multiplicity
 _atom_site_fract_x
 _atom_site_fract_y
 _atom_site_fract_z
 _atom_site_occupancy
  Cd  Cd0  1  0.649561  0.240116  0.000000  1
  Cd  Cd1  1  0.364725  0.358739  0.000000  1
  Cd  Cd2  1  0.645150  0.657075  0.000000  1
  Cd  Cd3  1  0.256105  0.647069  0.000000  1
  Cd  Cd4  1  0.994605  0.793514  0.000000  1
  Cd  Cd5  1  0.201091  0.206486  0.206486  1
  Cd  Cd6  1  0.649561  0.000000  0.240116  1
  Cd  Cd7  1  0.996681  0.645669  0.258734  1
  Cd  Cd8  1  0.609035  0.352931  0.352931  1
  Cd  Cd9  1  0.351012  0.613065  0.354331  1
  Cd  Cd10  1  0.364725  0.000000  0.358739  1
  Cd  Cd11  1  0.988076  0.342925  0.342925  1
  Cd  Cd12  1  0.737948  0.741266  0.386935  1
  Cd  Cd13  1  0.351012  0.354331  0.613065  1
  Cd  Cd14  1  0.645150  0.000000  0.657075  1
  Cd  Cd15  1  0.005987  0.641261  0.641261  1
  Cd  Cd16  1  0.256105  0.000000  0.647069  1
  Cd  Cd17  1  0.996681  0.258734  0.645669  1
  Cd  Cd18  1  0.409445  0.759884  0.759884  1
  Cd  Cd19  1  0.737948  0.386935  0.741266  1
  Cd  Cd20  1  0.994605  0.000000  0.793514  1
  Cu  Cu21  1  0.803393  0.000000  0.000000  1
  Pd  Pd22  1  0.334487  0.000000  0.000000  1
  Pd  Pd23  1  0.000039  0.343207  0.000000  1
  Pd  Pd24  1  0.000039  0.000000  0.343207  1
  Pd  Pd25  1  0.656832  0.656793  0.656793  1
