# generated using pymatgen
data_Tb2Fe5Mo(P3Ir2)2
_symmetry_space_group_name_H-M   'P 1'
_cell_length_a   3.84560500
_cell_length_b   10.40301600
_cell_length_c   12.28428800
_cell_angle_alpha   90.00000000
_cell_angle_beta   90.00000000
_cell_angle_gamma   90.00000000
_symmetry_Int_Tables_number   1
_chemical_formula_structural   Tb2Fe5Mo(P3Ir2)2
_chemical_formula_sum   'Tb4 Fe10 Mo2 P12 Ir8'
_cell_volume   491.44387869
_cell_formula_units_Z   2
loop_
 _symmetry_equiv_pos_site_id
 _symmetry_equiv_pos_as_xyz
  1  'x, y, z'
loop_
 _atom_site_type_symbol
 _atom_site_label
 _atom_site_symmetry_multiplicity
 _atom_site_fract_x
 _atom_site_fract_y
 _atom_site_fract_z
 _atom_site_occupancy
  Tb  Tb0  1  0.250000  0.582299  0.712670  1
  Tb  Tb1  1  0.250000  0.917701  0.212670  1
  Tb  Tb2  1  0.750000  0.421643  0.288213  1
  Tb  Tb3  1  0.750000  0.078357  0.788213  1
  Fe  Fe4  1  0.750000  0.775784  0.828840  1
  Fe  Fe5  1  0.750000  0.724216  0.328840  1
  Fe  Fe6  1  0.250000  0.876243  0.695176  1
  Fe  Fe7  1  0.250000  0.623757  0.195176  1
  Fe  Fe8  1  0.750000  0.119061  0.304792  1
  Fe  Fe9  1  0.750000  0.380939  0.804792  1
  Fe  Fe10  1  0.250000  0.464430  0.937082  1
  Fe  Fe11  1  0.250000  0.035570  0.437082  1
  Fe  Fe12  1  0.750000  0.545103  0.061817  1
  Fe  Fe13  1  0.750000  0.954897  0.561817  1
  Mo  Mo14  1  0.750000  0.295195  0.010310  1
  Mo  Mo15  1  0.750000  0.204805  0.510310  1
  P  P16  1  0.250000  0.435028  0.110107  1
  P  P17  1  0.250000  0.064972  0.610107  1
  P  P18  1  0.750000  0.571063  0.885705  1
  P  P19  1  0.750000  0.928937  0.385705  1
  P  P20  1  0.250000  0.274315  0.865654  1
  P  P21  1  0.250000  0.225685  0.365654  1
  P  P22  1  0.750000  0.727056  0.148722  1
  P  P23  1  0.750000  0.772944  0.648722  1
  P  P24  1  0.250000  0.608209  0.375590  1
  P  P25  1  0.250000  0.891791  0.875590  1
  P  P26  1  0.750000  0.402362  0.618023  1
  P  P27  1  0.750000  0.097638  0.118023  1
  Ir  Ir28  1  0.250000  0.707540  0.983376  1
  Ir  Ir29  1  0.250000  0.792460  0.483376  1
  Ir  Ir30  1  0.250000  0.411215  0.475375  1
  Ir  Ir31  1  0.250000  0.088785  0.975375  1
  Ir  Ir32  1  0.750000  0.600914  0.522204  1
  Ir  Ir33  1  0.750000  0.899086  0.022204  1
  Ir  Ir34  1  0.250000  0.226261  0.176343  1
  Ir  Ir35  1  0.250000  0.273739  0.676343  1
