# generated using pymatgen
data_CeZnInPt3
_symmetry_space_group_name_H-M   'P 1'
_cell_length_a   5.52455924
_cell_length_b   5.52455837
_cell_length_c   5.29066058
_cell_angle_alpha   58.52645935
_cell_angle_beta   58.52646298
_cell_angle_gamma   59.99999973
_symmetry_Int_Tables_number   1
_chemical_formula_structural   CeZnInPt3
_chemical_formula_sum   'Ce1 Zn1 In1 Pt3'
_cell_volume   111.57048813
_cell_formula_units_Z   1
loop_
 _symmetry_equiv_pos_site_id
 _symmetry_equiv_pos_as_xyz
  1  'x, y, z'
loop_
 _atom_site_type_symbol
 _atom_site_label
 _atom_site_symmetry_multiplicity
 _atom_site_fract_x
 _atom_site_fract_y
 _atom_site_fract_z
 _atom_site_occupancy
  Ce  Ce0  1  0.001487  0.001487  0.995539  1
  Zn  Zn1  1  0.624349  0.624349  0.126952  1
  In  In2  1  0.253418  0.253418  0.239745  1
  Pt  Pt3  1  0.622455  0.125836  0.629255  1
  Pt  Pt4  1  0.125836  0.622455  0.629255  1
  Pt  Pt5  1  0.622455  0.622455  0.629255  1
