# generated using pymatgen
data_Y3Ga6Ni4Rh5
_symmetry_space_group_name_H-M   'P 1'
_cell_length_a   9.45945396
_cell_length_b   9.45945351
_cell_length_c   3.88726800
_cell_angle_alpha   90.00000000
_cell_angle_beta   90.00000000
_cell_angle_gamma   121.28523807
_symmetry_Int_Tables_number   1
_chemical_formula_structural   Y3Ga6Ni4Rh5
_chemical_formula_sum   'Y3 Ga6 Ni4 Rh5'
_cell_volume   297.25950704
_cell_formula_units_Z   1
loop_
 _symmetry_equiv_pos_site_id
 _symmetry_equiv_pos_as_xyz
  1  'x, y, z'
loop_
 _atom_site_type_symbol
 _atom_site_label
 _atom_site_symmetry_multiplicity
 _atom_site_fract_x
 _atom_site_fract_y
 _atom_site_fract_z
 _atom_site_occupancy
  Y  Y0  1  0.002326  0.997674  0.000000  1
  Y  Y1  1  0.334217  0.665783  0.500000  1
  Y  Y2  1  0.664232  0.335768  0.500000  1
  Ga  Ga3  1  0.328844  0.332206  0.500000  1
  Ga  Ga4  1  0.681099  0.013203  0.500000  1
  Ga  Ga5  1  0.667794  0.671156  0.500000  1
  Ga  Ga6  1  0.986797  0.318901  0.500000  1
  Ga  Ga7  1  0.001196  0.665783  0.500000  1
  Ga  Ga8  1  0.334217  0.998804  0.500000  1
  Ni  Ni9  1  0.819225  0.180775  0.000000  1
  Ni  Ni10  1  0.511301  0.011057  0.000000  1
  Ni  Ni11  1  0.988943  0.488699  0.000000  1
  Ni  Ni12  1  0.496285  0.503715  0.000000  1
  Rh  Rh13  1  0.171904  0.354634  0.000000  1
  Rh  Rh14  1  0.818386  0.637012  0.000000  1
  Rh  Rh15  1  0.184881  0.815119  0.000000  1
  Rh  Rh16  1  0.645366  0.828096  0.000000  1
  Rh  Rh17  1  0.362988  0.181614  0.000000  1
