# generated using pymatgen
data_Li2Er4TiPd13
_symmetry_space_group_name_H-M   'P 1'
_cell_length_a   4.16210000
_cell_length_b   4.09311400
_cell_length_c   19.99760500
_cell_angle_alpha   90.00000000
_cell_angle_beta   90.00000000
_cell_angle_gamma   90.00000000
_symmetry_Int_Tables_number   1
_chemical_formula_structural   Li2Er4TiPd13
_chemical_formula_sum   'Li2 Er4 Ti1 Pd13'
_cell_volume   340.67819449
_cell_formula_units_Z   1
loop_
 _symmetry_equiv_pos_site_id
 _symmetry_equiv_pos_as_xyz
  1  'x, y, z'
loop_
 _atom_site_type_symbol
 _atom_site_label
 _atom_site_symmetry_multiplicity
 _atom_site_fract_x
 _atom_site_fract_y
 _atom_site_fract_z
 _atom_site_occupancy
  Li  Li0  1  0.500000  0.500000  0.000000  1
  Li  Li1  1  0.500000  0.000000  0.500000  1
  Er  Er2  1  0.000000  0.000000  0.192463  1
  Er  Er3  1  0.000000  0.000000  0.392429  1
  Er  Er4  1  0.000000  0.000000  0.607571  1
  Er  Er5  1  0.000000  0.000000  0.807537  1
  Ti  Ti6  1  0.000000  0.000000  0.000000  1
  Pd  Pd7  1  0.500000  0.500000  0.188059  1
  Pd  Pd8  1  0.500000  0.500000  0.398418  1
  Pd  Pd9  1  0.500000  0.500000  0.601582  1
  Pd  Pd10  1  0.500000  0.500000  0.811941  1
  Pd  Pd11  1  0.500000  0.000000  0.082374  1
  Pd  Pd12  1  0.500000  0.000000  0.293231  1
  Pd  Pd13  1  0.500000  0.000000  0.706769  1
  Pd  Pd14  1  0.500000  0.000000  0.917626  1
  Pd  Pd15  1  0.000000  0.500000  0.082574  1
  Pd  Pd16  1  0.000000  0.500000  0.293247  1
  Pd  Pd17  1  0.000000  0.500000  0.500000  1
  Pd  Pd18  1  0.000000  0.500000  0.706753  1
  Pd  Pd19  1  0.000000  0.500000  0.917426  1
