# generated using pymatgen
data_Nd5SmPt5Rh13
_symmetry_space_group_name_H-M   'P 1'
_cell_length_a   5.38520318
_cell_length_b   5.38520287
_cell_length_c   17.68574131
_cell_angle_alpha   89.97566996
_cell_angle_beta   90.02432914
_cell_angle_gamma   119.98203631
_symmetry_Int_Tables_number   1
_chemical_formula_structural   Nd5SmPt5Rh13
_chemical_formula_sum   'Nd5 Sm1 Pt5 Rh13'
_cell_volume   444.25936847
_cell_formula_units_Z   1
loop_
 _symmetry_equiv_pos_site_id
 _symmetry_equiv_pos_as_xyz
  1  'x, y, z'
loop_
 _atom_site_type_symbol
 _atom_site_label
 _atom_site_symmetry_multiplicity
 _atom_site_fract_x
 _atom_site_fract_y
 _atom_site_fract_z
 _atom_site_occupancy
  Nd  Nd0  1  0.333321  0.666679  0.956814  1
  Nd  Nd1  1  0.666841  0.333159  0.042939  1
  Nd  Nd2  1  0.666253  0.333747  0.457581  1
  Nd  Nd3  1  0.332979  0.667021  0.543791  1
  Nd  Nd4  1  0.333163  0.666837  0.750488  1
  Sm  Sm5  1  0.666780  0.333220  0.249009  1
  Pt  Pt6  1  0.169196  0.830804  0.373859  1
  Pt  Pt7  1  0.334552  0.665448  0.249386  1
  Pt  Pt8  1  0.666688  0.333312  0.749957  1
  Pt  Pt9  1  0.998794  0.001206  0.500567  1
  Pt  Pt10  1  0.000156  0.999844  0.999845  1
  Rh  Rh11  1  0.168645  0.332157  0.373284  1
  Rh  Rh12  1  0.667843  0.831355  0.373284  1
  Rh  Rh13  1  0.832140  0.167860  0.626581  1
  Rh  Rh14  1  0.832330  0.666679  0.626885  1
  Rh  Rh15  1  0.333321  0.167670  0.626885  1
  Rh  Rh16  1  0.832861  0.167139  0.873481  1
  Rh  Rh17  1  0.832783  0.665648  0.873185  1
  Rh  Rh18  1  0.334352  0.167217  0.873185  1
  Rh  Rh19  1  0.166751  0.833249  0.127034  1
  Rh  Rh20  1  0.167849  0.334829  0.126371  1
  Rh  Rh21  1  0.665171  0.832151  0.126371  1
  Rh  Rh22  1  0.996990  0.003010  0.249053  1
  Rh  Rh23  1  0.000241  0.999759  0.750164  1
