# generated using pymatgen
data_Zr3In2GaPdPt2
_symmetry_space_group_name_H-M   'P 1'
_cell_length_a   7.44185801
_cell_length_b   7.44185858
_cell_length_c   7.17937934
_cell_angle_alpha   89.90662014
_cell_angle_beta   90.09338057
_cell_angle_gamma   119.78866578
_symmetry_Int_Tables_number   1
_chemical_formula_structural   Zr3In2GaPdPt2
_chemical_formula_sum   'Zr6 In4 Ga2 Pd2 Pt4'
_cell_volume   345.06464963
_cell_formula_units_Z   2
loop_
 _symmetry_equiv_pos_site_id
 _symmetry_equiv_pos_as_xyz
  1  'x, y, z'
loop_
 _atom_site_type_symbol
 _atom_site_label
 _atom_site_symmetry_multiplicity
 _atom_site_fract_x
 _atom_site_fract_y
 _atom_site_fract_z
 _atom_site_occupancy
  Zr  Zr0  1  0.387072  0.412057  0.748582  1
  Zr  Zr1  1  0.027187  0.607731  0.743819  1
  Zr  Zr2  1  0.579076  0.974604  0.750165  1
  Zr  Zr3  1  0.607731  0.027187  0.256181  1
  Zr  Zr4  1  0.974604  0.579076  0.249835  1
  Zr  Zr5  1  0.412057  0.387072  0.251418  1
  In  In6  1  0.253660  0.996335  0.001335  1
  In  In7  1  0.749339  0.749339  0.000000  1
  In  In8  1  0.996335  0.253660  0.998665  1
  In  In9  1  0.722389  0.722389  0.500000  1
  Ga  Ga10  1  0.280680  0.998064  0.500280  1
  Ga  Ga11  1  0.998064  0.280680  0.499720  1
  Pd  Pd12  1  0.013163  0.012504  0.715395  1
  Pd  Pd13  1  0.012504  0.013163  0.284605  1
  Pt  Pt14  1  0.664581  0.333837  0.959878  1
  Pt  Pt15  1  0.663626  0.324092  0.538367  1
  Pt  Pt16  1  0.324092  0.663626  0.461633  1
  Pt  Pt17  1  0.333837  0.664581  0.040122  1
