# generated using pymatgen
data_YbCrP2O7
_symmetry_space_group_name_H-M   'P 1'
_cell_length_a   5.73566547
_cell_length_b   6.63387028
_cell_length_c   7.80450204
_cell_angle_alpha   79.50052849
_cell_angle_beta   86.53756955
_cell_angle_gamma   71.74580612
_symmetry_Int_Tables_number   1
_chemical_formula_structural   YbCrP2O7
_chemical_formula_sum   'Yb2 Cr2 P4 O14'
_cell_volume   277.29093395
_cell_formula_units_Z   2
loop_
 _symmetry_equiv_pos_site_id
 _symmetry_equiv_pos_as_xyz
  1  'x, y, z'
loop_
 _atom_site_type_symbol
 _atom_site_label
 _atom_site_symmetry_multiplicity
 _atom_site_fract_x
 _atom_site_fract_y
 _atom_site_fract_z
 _atom_site_occupancy
  Yb  Yb0  1  0.309556  0.651160  0.664275  1
  Yb  Yb1  1  0.690433  0.348776  0.335785  1
  Cr  Cr2  1  0.721612  0.854898  0.822902  1
  Cr  Cr3  1  0.278778  0.145331  0.176640  1
  P  P4  1  0.161112  0.678003  0.109030  1
  P  P5  1  0.838866  0.322044  0.890975  1
  P  P6  1  0.237048  0.198920  0.613659  1
  P  P7  1  0.762929  0.800923  0.386480  1
  O  O8  1  0.071071  0.710591  0.920693  1
  O  O9  1  0.928934  0.289458  0.079316  1
  O  O10  1  0.271913  0.846794  0.141028  1
  O  O11  1  0.728022  0.153277  0.858992  1
  O  O12  1  0.336162  0.447425  0.162403  1
  O  O13  1  0.663897  0.552618  0.837549  1
  O  O14  1  0.597735  0.661137  0.446195  1
  O  O15  1  0.402104  0.338843  0.553767  1
  O  O16  1  0.061074  0.201343  0.475164  1
  O  O17  1  0.938640  0.798656  0.525033  1
  O  O18  1  0.084814  0.314533  0.772757  1
  O  O19  1  0.915305  0.685356  0.227395  1
  O  O20  1  0.616491  0.031719  0.300977  1
  O  O21  1  0.383506  0.968194  0.698983  1
