# generated using pymatgen
data_HoLuHf2(Al3Rh)6
_symmetry_space_group_name_H-M   'P 1'
_cell_length_a   7.48823929
_cell_length_b   7.47636237
_cell_length_c   9.30588200
_cell_angle_alpha   90.00000000
_cell_angle_beta   90.00000000
_cell_angle_gamma   119.65769514
_symmetry_Int_Tables_number   1
_chemical_formula_structural   HoLuHf2(Al3Rh)6
_chemical_formula_sum   'Ho1 Lu1 Hf2 Al18 Rh6'
_cell_volume   452.73693653
_cell_formula_units_Z   1
loop_
 _symmetry_equiv_pos_site_id
 _symmetry_equiv_pos_as_xyz
  1  'x, y, z'
loop_
 _atom_site_type_symbol
 _atom_site_label
 _atom_site_symmetry_multiplicity
 _atom_site_fract_x
 _atom_site_fract_y
 _atom_site_fract_z
 _atom_site_occupancy
  Ho  Ho0  1  0.671023  0.993559  0.250000  1
  Lu  Lu1  1  0.328528  0.006310  0.750000  1
  Hf  Hf2  1  0.995383  0.672097  0.250000  1
  Hf  Hf3  1  0.004885  0.327973  0.750000  1
  Al  Al4  1  0.125877  0.123797  0.250000  1
  Al  Al5  1  0.874889  0.876495  0.750000  1
  Al  Al6  1  0.999338  0.337577  0.075947  1
  Al  Al7  1  0.001252  0.662975  0.923348  1
  Al  Al8  1  0.001252  0.662975  0.576652  1
  Al  Al9  1  0.332341  0.997744  0.421407  1
  Al  Al10  1  0.999338  0.337577  0.424053  1
  Al  Al11  1  0.667078  0.002336  0.579802  1
  Al  Al12  1  0.667078  0.002336  0.920198  1
  Al  Al13  1  0.332341  0.997744  0.078593  1
  Al  Al14  1  0.330759  0.333031  0.557109  1
  Al  Al15  1  0.669308  0.666468  0.443652  1
  Al  Al16  1  0.669308  0.666468  0.056348  1
  Al  Al17  1  0.330759  0.333031  0.942891  1
  Al  Al18  1  0.334580  0.548781  0.250000  1
  Al  Al19  1  0.664791  0.450406  0.750000  1
  Al  Al20  1  0.556189  0.343587  0.250000  1
  Al  Al21  1  0.443454  0.656673  0.750000  1
  Rh  Rh22  1  0.672707  0.327478  0.999093  1
  Rh  Rh23  1  0.327031  0.672486  0.000534  1
  Rh  Rh24  1  0.327031  0.672486  0.499466  1
  Rh  Rh25  1  0.672707  0.327478  0.500907  1
  Rh  Rh26  1  0.000386  0.000067  0.999744  1
  Rh  Rh27  1  0.000386  0.000067  0.500256  1
