# generated using pymatgen
data_CeHo11(Zn3C)4
_symmetry_space_group_name_H-M   'P 1'
_cell_length_a   9.12616593
_cell_length_b   9.12572096
_cell_length_c   9.14706100
_cell_angle_alpha   59.92492859
_cell_angle_beta   59.92265979
_cell_angle_gamma   59.97842991
_symmetry_Int_Tables_number   1
_chemical_formula_structural   CeHo11(Zn3C)4
_chemical_formula_sum   'Ce1 Ho11 Zn12 C4'
_cell_volume   537.96031082
_cell_formula_units_Z   1
loop_
 _symmetry_equiv_pos_site_id
 _symmetry_equiv_pos_as_xyz
  1  'x, y, z'
loop_
 _atom_site_type_symbol
 _atom_site_label
 _atom_site_symmetry_multiplicity
 _atom_site_fract_x
 _atom_site_fract_y
 _atom_site_fract_z
 _atom_site_occupancy
  Ce  Ce0  1  0.446851  0.446857  0.053042  1
  Ho  Ho1  1  0.052347  0.446552  0.053686  1
  Ho  Ho2  1  0.446550  0.052355  0.053683  1
  Ho  Ho3  1  0.053826  0.053823  0.446184  1
  Ho  Ho4  1  0.446547  0.052401  0.447398  1
  Ho  Ho5  1  0.052403  0.446554  0.447400  1
  Ho  Ho6  1  0.803088  0.803088  0.196913  1
  Ho  Ho7  1  0.196447  0.804233  0.196265  1
  Ho  Ho8  1  0.804243  0.196430  0.196276  1
  Ho  Ho9  1  0.196102  0.196102  0.803914  1
  Ho  Ho10  1  0.804263  0.196441  0.803050  1
  Ho  Ho11  1  0.196433  0.804262  0.803049  1
  Zn  Zn12  1  0.826404  0.826426  0.519357  1
  Zn  Zn13  1  0.828429  0.520016  0.825791  1
  Zn  Zn14  1  0.520013  0.828435  0.825770  1
  Zn  Zn15  1  0.826429  0.826419  0.827805  1
  Zn  Zn16  1  0.423183  0.423157  0.729484  1
  Zn  Zn17  1  0.422101  0.730538  0.423683  1
  Zn  Zn18  1  0.730546  0.422095  0.423697  1
  Zn  Zn19  1  0.423186  0.423198  0.424114  1
  Zn  Zn20  1  0.625904  0.625901  0.125268  1
  Zn  Zn21  1  0.625402  0.124761  0.624927  1
  Zn  Zn22  1  0.124759  0.625403  0.624923  1
  Zn  Zn23  1  0.625911  0.625908  0.622920  1
  C  C24  1  0.124667  0.124672  0.625647  1
  C  C25  1  0.125836  0.623461  0.125358  1
  C  C26  1  0.623459  0.125850  0.125356  1
  C  C27  1  0.124672  0.124663  0.125041  1
