# generated using pymatgen
data_HoEr3Si10Ir5Ru
_symmetry_space_group_name_H-M   'P 1'
_cell_length_a   8.12752377
_cell_length_b   8.13009470
_cell_length_c   8.13022718
_cell_angle_alpha   138.10629551
_cell_angle_beta   104.80235365
_cell_angle_gamma   90.00981786
_symmetry_Int_Tables_number   1
_chemical_formula_structural   HoEr3Si10Ir5Ru
_chemical_formula_sum   'Ho1 Er3 Si10 Ir5 Ru1'
_cell_volume   331.40887951
_cell_formula_units_Z   1
loop_
 _symmetry_equiv_pos_site_id
 _symmetry_equiv_pos_as_xyz
  1  'x, y, z'
loop_
 _atom_site_type_symbol
 _atom_site_label
 _atom_site_symmetry_multiplicity
 _atom_site_fract_x
 _atom_site_fract_y
 _atom_site_fract_z
 _atom_site_occupancy
  Ho  Ho0  1  0.902972  0.131119  0.770445  1
  Er  Er1  1  0.096825  0.867355  0.227721  1
  Er  Er2  1  0.639594  0.369093  0.272250  1
  Er  Er3  1  0.360431  0.632634  0.729555  1
  Si  Si4  1  0.000044  0.750038  0.750149  1
  Si  Si5  1  0.000051  0.249869  0.249985  1
  Si  Si6  1  0.723594  0.473663  0.750014  1
  Si  Si7  1  0.276508  0.026499  0.750115  1
  Si  Si8  1  0.278094  0.527964  0.249984  1
  Si  Si9  1  0.722005  0.971964  0.249896  1
  Si  Si10  1  0.241309  0.399530  0.847772  1
  Si  Si11  1  0.551356  0.893199  0.652105  1
  Si  Si12  1  0.448413  0.100534  0.341829  1
  Si  Si13  1  0.758717  0.606524  0.158158  1
  Ir  Ir14  1  0.745466  0.860512  0.888109  1
  Ir  Ir15  1  0.499960  0.249951  0.749958  1
  Ir  Ir16  1  0.972579  0.357607  0.611808  1
  Ir  Ir17  1  0.027624  0.639424  0.385060  1
  Ir  Ir18  1  0.254515  0.142547  0.115109  1
  Ru  Ru19  1  0.499943  0.749974  0.249977  1
