# generated using pymatgen
data_Ho9ErRu3Rh
_symmetry_space_group_name_H-M   'P 1'
_cell_length_a   6.31255453
_cell_length_b   7.29659905
_cell_length_c   8.43423207
_cell_angle_alpha   96.78039435
_cell_angle_beta   111.88689542
_cell_angle_gamma   90.05260459
_symmetry_Int_Tables_number   1
_chemical_formula_structural   Ho9ErRu3Rh
_chemical_formula_sum   'Ho9 Er1 Ru3 Rh1'
_cell_volume   357.53402741
_cell_formula_units_Z   1
loop_
 _symmetry_equiv_pos_site_id
 _symmetry_equiv_pos_as_xyz
  1  'x, y, z'
loop_
 _atom_site_type_symbol
 _atom_site_label
 _atom_site_symmetry_multiplicity
 _atom_site_fract_x
 _atom_site_fract_y
 _atom_site_fract_z
 _atom_site_occupancy
  Ho  Ho0  1  0.792993  0.582095  0.814719  1
  Ho  Ho1  1  0.980114  0.915200  0.188775  1
  Ho  Ho2  1  0.208134  0.415352  0.186162  1
  Ho  Ho3  1  0.024027  0.086009  0.814652  1
  Ho  Ho4  1  0.203660  0.683337  0.563661  1
  Ho  Ho5  1  0.642644  0.814896  0.432928  1
  Ho  Ho6  1  0.793003  0.314805  0.434875  1
  Ho  Ho7  1  0.356791  0.186743  0.563707  1
  Ho  Ho8  1  0.419024  0.749139  0.000794  1
  Er  Er9  1  0.580490  0.252069  0.001282  1
  Ru  Ru10  1  0.823851  0.576758  0.219707  1
  Ru  Ru11  1  0.396245  0.075589  0.220820  1
  Ru  Ru12  1  0.177585  0.424098  0.779454  1
  Rh  Rh13  1  0.601438  0.923910  0.778466  1
