# generated using pymatgen
data_Ba8USbS12
_symmetry_space_group_name_H-M   'P 1'
_cell_length_a   8.61010879
_cell_length_b   8.61010811
_cell_length_c   8.61010900
_cell_angle_alpha   89.50540640
_cell_angle_beta   89.50541309
_cell_angle_gamma   89.50540757
_symmetry_Int_Tables_number   1
_chemical_formula_structural   Ba8USbS12
_chemical_formula_sum   'Ba8 U1 Sb1 S12'
_cell_volume   638.23060391
_cell_formula_units_Z   1
loop_
 _symmetry_equiv_pos_site_id
 _symmetry_equiv_pos_as_xyz
  1  'x, y, z'
loop_
 _atom_site_type_symbol
 _atom_site_label
 _atom_site_symmetry_multiplicity
 _atom_site_fract_x
 _atom_site_fract_y
 _atom_site_fract_z
 _atom_site_occupancy
  Ba  Ba0  1  0.870397  0.620950  0.256712  1
  Ba  Ba1  1  0.256712  0.870397  0.620950  1
  Ba  Ba2  1  0.620950  0.256712  0.870397  1
  Ba  Ba3  1  0.743288  0.129603  0.379050  1
  Ba  Ba4  1  0.379050  0.743288  0.129603  1
  Ba  Ba5  1  0.129603  0.379050  0.743288  1
  Ba  Ba6  1  0.255920  0.255920  0.255920  1
  Ba  Ba7  1  0.744080  0.744080  0.744080  1
  U  U8  1  0.000000  0.000000  0.000000  1
  Sb  Sb9  1  0.500000  0.500000  0.500000  1
  S  S10  1  0.196032  0.565050  0.420364  1
  S  S11  1  0.420364  0.196032  0.565050  1
  S  S12  1  0.565050  0.420364  0.196032  1
  S  S13  1  0.927622  0.058343  0.709618  1
  S  S14  1  0.709618  0.927622  0.058343  1
  S  S15  1  0.058343  0.709618  0.927622  1
  S  S16  1  0.803968  0.434950  0.579636  1
  S  S17  1  0.579636  0.803968  0.434950  1
  S  S18  1  0.434950  0.579636  0.803968  1
  S  S19  1  0.072378  0.941657  0.290382  1
  S  S20  1  0.290382  0.072378  0.941657  1
  S  S21  1  0.941657  0.290382  0.072378  1
