# generated using pymatgen
data_DyY3(TiAl3)2
_symmetry_space_group_name_H-M   'P 1'
_cell_length_a   9.55062602
_cell_length_b   9.55062715
_cell_length_c   9.55062690
_cell_angle_alpha   34.79115576
_cell_angle_beta   34.79114816
_cell_angle_gamma   34.79115198
_symmetry_Int_Tables_number   1
_chemical_formula_structural   DyY3(TiAl3)2
_chemical_formula_sum   'Dy1 Y3 Ti2 Al6'
_cell_volume   253.14995280
_cell_formula_units_Z   1
loop_
 _symmetry_equiv_pos_site_id
 _symmetry_equiv_pos_as_xyz
  1  'x, y, z'
loop_
 _atom_site_type_symbol
 _atom_site_label
 _atom_site_symmetry_multiplicity
 _atom_site_fract_x
 _atom_site_fract_y
 _atom_site_fract_z
 _atom_site_occupancy
  Dy  Dy0  1  0.686698  0.686698  0.686698  1
  Y  Y1  1  0.186684  0.186684  0.186684  1
  Y  Y2  1  0.813235  0.813235  0.813235  1
  Y  Y3  1  0.313360  0.313360  0.313360  1
  Ti  Ti4  1  0.000011  0.000011  0.000011  1
  Ti  Ti5  1  0.500008  0.500008  0.500008  1
  Al  Al6  1  0.749950  0.249979  0.249979  1
  Al  Al7  1  0.250001  0.750047  0.750047  1
  Al  Al8  1  0.249979  0.749950  0.249979  1
  Al  Al9  1  0.750047  0.250001  0.750047  1
  Al  Al10  1  0.249979  0.249979  0.749950  1
  Al  Al11  1  0.750047  0.750047  0.250001  1
