# generated using pymatgen
data_Sc6Al6PtRh2Au3
_symmetry_space_group_name_H-M   'P 1'
_cell_length_a   7.25415600
_cell_length_b   7.25415604
_cell_length_c   7.14025300
_cell_angle_alpha   90.00000000
_cell_angle_beta   90.00000000
_cell_angle_gamma   119.99999071
_symmetry_Int_Tables_number   1
_chemical_formula_structural   Sc6Al6PtRh2Au3
_chemical_formula_sum   'Sc6 Al6 Pt1 Rh2 Au3'
_cell_volume   325.40038064
_cell_formula_units_Z   1
loop_
 _symmetry_equiv_pos_site_id
 _symmetry_equiv_pos_as_xyz
  1  'x, y, z'
loop_
 _atom_site_type_symbol
 _atom_site_label
 _atom_site_symmetry_multiplicity
 _atom_site_fract_x
 _atom_site_fract_y
 _atom_site_fract_z
 _atom_site_occupancy
  Sc  Sc0  1  0.603679  0.004501  0.754594  1
  Sc  Sc1  1  0.995499  0.599177  0.754594  1
  Sc  Sc2  1  0.400823  0.396321  0.754594  1
  Sc  Sc3  1  0.991300  0.597067  0.245478  1
  Sc  Sc4  1  0.605767  0.008700  0.245478  1
  Sc  Sc5  1  0.402933  0.394233  0.245478  1
  Al  Al6  1  0.734442  0.731654  0.999826  1
  Al  Al7  1  0.268346  0.002787  0.999826  1
  Al  Al8  1  0.997213  0.265558  0.999826  1
  Al  Al9  1  0.757208  0.762017  0.499873  1
  Al  Al10  1  0.237983  0.995192  0.499873  1
  Al  Al11  1  0.004808  0.242792  0.499873  1
  Pt  Pt12  1  0.666667  0.333333  0.998036  1
  Rh  Rh13  1  0.000000  0.000000  0.772937  1
  Rh  Rh14  1  0.000000  0.000000  0.226831  1
  Au  Au15  1  0.666667  0.333333  0.502876  1
  Au  Au16  1  0.333333  0.666667  0.497105  1
  Au  Au17  1  0.333333  0.666667  0.002904  1
