# generated using pymatgen
data_Gd2ScSi2
_symmetry_space_group_name_H-M   'P 1'
_cell_length_a   7.29073200
_cell_length_b   7.29073200
_cell_length_c   4.28170000
_cell_angle_alpha   90.00000000
_cell_angle_beta   90.00000000
_cell_angle_gamma   90.00000000
_symmetry_Int_Tables_number   1
_chemical_formula_structural   Gd2ScSi2
_chemical_formula_sum   'Gd4 Sc2 Si4'
_cell_volume   227.59279196
_cell_formula_units_Z   2
loop_
 _symmetry_equiv_pos_site_id
 _symmetry_equiv_pos_as_xyz
  1  'x, y, z'
loop_
 _atom_site_type_symbol
 _atom_site_label
 _atom_site_symmetry_multiplicity
 _atom_site_fract_x
 _atom_site_fract_y
 _atom_site_fract_z
 _atom_site_occupancy
  Gd  Gd0  1  0.677055  0.177055  0.500000  1
  Gd  Gd1  1  0.322945  0.822945  0.500000  1
  Gd  Gd2  1  0.177055  0.322945  0.500000  1
  Gd  Gd3  1  0.822945  0.677055  0.500000  1
  Sc  Sc4  1  0.000000  0.000000  0.000000  1
  Sc  Sc5  1  0.500000  0.500000  0.000000  1
  Si  Si6  1  0.119160  0.619160  0.000000  1
  Si  Si7  1  0.880840  0.380840  0.000000  1
  Si  Si8  1  0.619160  0.880840  0.000000  1
  Si  Si9  1  0.380840  0.119160  0.000000  1
