# generated using pymatgen
data_Dy15Ho(ErSn4)4
_symmetry_space_group_name_H-M   'P 1'
_cell_length_a   8.02128028
_cell_length_b   8.16590503
_cell_length_c   15.44770204
_cell_angle_alpha   90.00577988
_cell_angle_beta   90.00614551
_cell_angle_gamma   90.01910130
_symmetry_Int_Tables_number   1
_chemical_formula_structural   Dy15Ho(ErSn4)4
_chemical_formula_sum   'Dy15 Ho1 Er4 Sn16'
_cell_volume   1011.84006518
_cell_formula_units_Z   1
loop_
 _symmetry_equiv_pos_site_id
 _symmetry_equiv_pos_as_xyz
  1  'x, y, z'
loop_
 _atom_site_type_symbol
 _atom_site_label
 _atom_site_symmetry_multiplicity
 _atom_site_fract_x
 _atom_site_fract_y
 _atom_site_fract_z
 _atom_site_occupancy
  Dy  Dy0  1  0.867769  0.664088  0.621876  1
  Dy  Dy1  1  0.632144  0.164070  0.378165  1
  Dy  Dy2  1  0.132159  0.335956  0.121781  1
  Dy  Dy3  1  0.632176  0.164129  0.121875  1
  Dy  Dy4  1  0.132137  0.335942  0.378179  1
  Dy  Dy5  1  0.367846  0.835944  0.621900  1
  Dy  Dy6  1  0.867848  0.664072  0.878156  1
  Dy  Dy7  1  0.521188  0.320129  0.902284  1
  Dy  Dy8  1  0.021186  0.179809  0.597740  1
  Dy  Dy9  1  0.478819  0.679836  0.402292  1
  Dy  Dy10  1  0.978781  0.820141  0.097742  1
  Dy  Dy11  1  0.478766  0.679853  0.097629  1
  Dy  Dy12  1  0.978822  0.820178  0.402275  1
  Dy  Dy13  1  0.521189  0.320197  0.597741  1
  Dy  Dy14  1  0.021258  0.179785  0.902256  1
  Ho  Ho15  1  0.198574  0.502815  0.750076  1
  Er  Er16  1  0.367775  0.835995  0.878075  1
  Er  Er17  1  0.698350  0.997199  0.750052  1
  Er  Er18  1  0.801522  0.497263  0.249978  1
  Er  Er19  1  0.301533  0.002694  0.249960  1
  Sn  Sn20  1  0.292185  0.034456  0.041728  1
  Sn  Sn21  1  0.792075  0.465281  0.458050  1
  Sn  Sn22  1  0.707941  0.965264  0.541997  1
  Sn  Sn23  1  0.208186  0.535081  0.957943  1
  Sn  Sn24  1  0.707544  0.965174  0.957964  1
  Sn  Sn25  1  0.207930  0.534710  0.541977  1
  Sn  Sn26  1  0.292078  0.034720  0.458034  1
  Sn  Sn27  1  0.792053  0.465273  0.041966  1
  Sn  Sn28  1  0.564990  0.619255  0.750094  1
  Sn  Sn29  1  0.065324  0.880923  0.750103  1
  Sn  Sn30  1  0.434890  0.380931  0.250001  1
  Sn  Sn31  1  0.934902  0.119083  0.249996  1
  Sn  Sn32  1  0.329350  0.146872  0.750093  1
  Sn  Sn33  1  0.829335  0.352901  0.750009  1
  Sn  Sn34  1  0.670694  0.852908  0.250004  1
  Sn  Sn35  1  0.170685  0.647070  0.250010  1
