# generated using pymatgen
data_YbZr(ReO4)6
_symmetry_space_group_name_H-M   'P 1'
_cell_length_a   10.14400400
_cell_length_b   10.14400200
_cell_length_c   6.11719300
_cell_angle_alpha   90.00000000
_cell_angle_beta   90.00000000
_cell_angle_gamma   119.99999349
_symmetry_Int_Tables_number   1
_chemical_formula_structural   YbZr(ReO4)6
_chemical_formula_sum   'Yb1 Zr1 Re6 O24'
_cell_volume   545.13187994
_cell_formula_units_Z   1
loop_
 _symmetry_equiv_pos_site_id
 _symmetry_equiv_pos_as_xyz
  1  'x, y, z'
loop_
 _atom_site_type_symbol
 _atom_site_label
 _atom_site_symmetry_multiplicity
 _atom_site_fract_x
 _atom_site_fract_y
 _atom_site_fract_z
 _atom_site_occupancy
  Yb  Yb0  1  0.333333  0.666667  0.250000  1
  Zr  Zr1  1  0.666667  0.333333  0.750000  1
  Re  Re2  1  0.077339  0.390162  0.750000  1
  Re  Re3  1  0.403238  0.299838  0.250000  1
  Re  Re4  1  0.609838  0.687175  0.750000  1
  Re  Re5  1  0.896599  0.596762  0.250000  1
  Re  Re6  1  0.312825  0.922661  0.750000  1
  Re  Re7  1  0.700162  0.103401  0.250000  1
  O  O8  1  0.493908  0.645811  0.518805  1
  O  O9  1  0.354189  0.848096  0.518805  1
  O  O10  1  0.823832  0.718281  0.250000  1
  O  O11  1  0.121306  0.865586  0.750000  1
  O  O12  1  0.281719  0.105552  0.250000  1
  O  O13  1  0.134414  0.255720  0.750000  1
  O  O14  1  0.520798  0.353075  0.013498  1
  O  O15  1  0.894448  0.176168  0.250000  1
  O  O16  1  0.093754  0.703009  0.250000  1
  O  O17  1  0.151904  0.506092  0.981195  1
  O  O18  1  0.151904  0.506092  0.518805  1
  O  O19  1  0.874649  0.301082  0.750000  1
  O  O20  1  0.296991  0.390745  0.250000  1
  O  O21  1  0.698918  0.573566  0.750000  1
  O  O22  1  0.832278  0.479202  0.486502  1
  O  O23  1  0.426434  0.125351  0.750000  1
  O  O24  1  0.646925  0.167722  0.013498  1
  O  O25  1  0.493908  0.645811  0.981195  1
  O  O26  1  0.354189  0.848096  0.981195  1
  O  O27  1  0.646925  0.167722  0.486502  1
  O  O28  1  0.520798  0.353075  0.486502  1
  O  O29  1  0.832278  0.479202  0.013498  1
  O  O30  1  0.744280  0.878694  0.750000  1
  O  O31  1  0.609255  0.906246  0.250000  1
