# generated using pymatgen
data_La2Zn5In3
_symmetry_space_group_name_H-M   'P 1'
_cell_length_a   6.50594442
_cell_length_b   6.50594470
_cell_length_c   6.26139706
_cell_angle_alpha   90.03982461
_cell_angle_beta   90.03982017
_cell_angle_gamma   57.52774608
_symmetry_Int_Tables_number   1
_chemical_formula_structural   La2Zn5In3
_chemical_formula_sum   'La2 Zn5 In3'
_cell_volume   223.59131403
_cell_formula_units_Z   1
loop_
 _symmetry_equiv_pos_site_id
 _symmetry_equiv_pos_as_xyz
  1  'x, y, z'
loop_
 _atom_site_type_symbol
 _atom_site_label
 _atom_site_symmetry_multiplicity
 _atom_site_fract_x
 _atom_site_fract_y
 _atom_site_fract_z
 _atom_site_occupancy
  La  La0  1  0.750604  0.748643  0.246343  1
  La  La1  1  0.251357  0.249396  0.753656  1
  Zn  Zn2  1  0.245576  0.754425  0.499999  1
  Zn  Zn3  1  0.344159  0.372526  0.266304  1
  Zn  Zn4  1  0.627474  0.655841  0.733695  1
  Zn  Zn5  1  0.159180  0.131369  0.261247  1
  Zn  Zn6  1  0.868631  0.840820  0.738752  1
  In  In7  1  0.249838  0.750163  0.000000  1
  In  In8  1  0.753003  0.246998  0.499999  1
  In  In9  1  0.750180  0.249821  0.000000  1
