# generated using pymatgen
data_Y6C2Cl7
_symmetry_space_group_name_H-M   'P 1'
_cell_length_a   3.74817997
_cell_length_b   10.22748978
_cell_length_c   10.45990370
_cell_angle_alpha   107.22909513
_cell_angle_beta   100.32135503
_cell_angle_gamma   100.55855937
_symmetry_Int_Tables_number   1
_chemical_formula_structural   Y6C2Cl7
_chemical_formula_sum   'Y6 C2 Cl7'
_cell_volume   364.67613372
_cell_formula_units_Z   1
loop_
 _symmetry_equiv_pos_site_id
 _symmetry_equiv_pos_as_xyz
  1  'x, y, z'
loop_
 _atom_site_type_symbol
 _atom_site_label
 _atom_site_symmetry_multiplicity
 _atom_site_fract_x
 _atom_site_fract_y
 _atom_site_fract_z
 _atom_site_occupancy
  Y  Y0  1  0.928955  0.701112  0.156798  1
  Y  Y1  1  0.677021  0.993942  0.360099  1
  Y  Y2  1  0.572563  0.699871  0.445255  1
  Y  Y3  1  0.427437  0.300130  0.554744  1
  Y  Y4  1  0.322979  0.006057  0.639900  1
  Y  Y5  1  0.071045  0.298889  0.843201  1
  C  C6  1  0.112537  0.832173  0.392902  1
  C  C7  1  0.887462  0.167827  0.607098  1
  Cl  Cl8  1  0.456689  0.843393  0.069986  1
  Cl  Cl9  1  0.333293  0.501908  0.164677  1
  Cl  Cl10  1  0.223257  0.164036  0.282479  1
  Cl  Cl11  1  0.999999  0.499999  0.500000  1
  Cl  Cl12  1  0.776744  0.835965  0.717522  1
  Cl  Cl13  1  0.666706  0.498091  0.835322  1
  Cl  Cl14  1  0.543311  0.156608  0.930014  1
