# generated using pymatgen
data_K8Hf6BeBr20
_symmetry_space_group_name_H-M   'P 1'
_cell_length_a   11.73197132
_cell_length_b   11.73197210
_cell_length_c   11.73197200
_cell_angle_alpha   60.00000027
_cell_angle_beta   59.99999807
_cell_angle_gamma   59.99999766
_symmetry_Int_Tables_number   1
_chemical_formula_structural   K8Hf6BeBr20
_chemical_formula_sum   'K8 Hf6 Be1 Br20'
_cell_volume   1141.82098574
_cell_formula_units_Z   1
loop_
 _symmetry_equiv_pos_site_id
 _symmetry_equiv_pos_as_xyz
  1  'x, y, z'
loop_
 _atom_site_type_symbol
 _atom_site_label
 _atom_site_symmetry_multiplicity
 _atom_site_fract_x
 _atom_site_fract_y
 _atom_site_fract_z
 _atom_site_occupancy
  K  K0  1  0.360693  0.360693  0.360693  1
  K  K1  1  0.639307  0.639307  0.639307  1
  K  K2  1  0.360693  0.360693  0.917921  1
  K  K3  1  0.360693  0.917921  0.360693  1
  K  K4  1  0.639307  0.639307  0.082079  1
  K  K5  1  0.639307  0.082079  0.639307  1
  K  K6  1  0.917921  0.360693  0.360693  1
  K  K7  1  0.082079  0.639307  0.639307  1
  Hf  Hf8  1  0.858747  0.141253  0.141253  1
  Hf  Hf9  1  0.141253  0.858747  0.858747  1
  Hf  Hf10  1  0.141253  0.858747  0.141253  1
  Hf  Hf11  1  0.858747  0.141253  0.858747  1
  Hf  Hf12  1  0.141253  0.141253  0.858747  1
  Hf  Hf13  1  0.858747  0.858747  0.141253  1
  Be  Be14  1  0.000000  0.000000  0.000000  1
  Br  Br15  1  0.326155  0.000000  0.000000  1
  Br  Br16  1  0.673845  0.000000  0.000000  1
  Br  Br17  1  0.000000  0.326155  0.673845  1
  Br  Br18  1  0.000000  0.673845  0.326155  1
  Br  Br19  1  0.000000  0.326155  0.000000  1
  Br  Br20  1  0.673845  0.000000  0.326155  1
  Br  Br21  1  0.000000  0.673845  0.000000  1
  Br  Br22  1  0.326155  0.000000  0.673845  1
  Br  Br23  1  0.000000  0.000000  0.326155  1
  Br  Br24  1  0.000000  0.000000  0.673845  1
  Br  Br25  1  0.673845  0.326155  0.000000  1
  Br  Br26  1  0.326155  0.673845  0.000000  1
  Br  Br27  1  0.685316  0.314684  0.314684  1
  Br  Br28  1  0.314684  0.685316  0.685316  1
  Br  Br29  1  0.314684  0.685316  0.314684  1
  Br  Br30  1  0.685316  0.314684  0.685316  1
  Br  Br31  1  0.314684  0.314684  0.685316  1
  Br  Br32  1  0.685316  0.685316  0.314684  1
  Br  Br33  1  0.250000  0.250000  0.250000  1
  Br  Br34  1  0.750000  0.750000  0.750000  1
