# generated using pymatgen
data_Tm10In8RuRh3
_symmetry_space_group_name_H-M   'P 1'
_cell_length_a   3.55901000
_cell_length_b   7.96197787
_cell_length_c   18.20054040
_cell_angle_alpha   90.07541747
_cell_angle_beta   90.00000000
_cell_angle_gamma   90.00000000
_symmetry_Int_Tables_number   1
_chemical_formula_structural   Tm10In8RuRh3
_chemical_formula_sum   'Tm10 In8 Ru1 Rh3'
_cell_volume   515.74387791
_cell_formula_units_Z   1
loop_
 _symmetry_equiv_pos_site_id
 _symmetry_equiv_pos_as_xyz
  1  'x, y, z'
loop_
 _atom_site_type_symbol
 _atom_site_label
 _atom_site_symmetry_multiplicity
 _atom_site_fract_x
 _atom_site_fract_y
 _atom_site_fract_z
 _atom_site_occupancy
  Tm  Tm0  1  0.000000  0.117714  0.412171  1
  Tm  Tm1  1  0.000000  0.882388  0.587258  1
  Tm  Tm2  1  0.000000  0.382754  0.912691  1
  Tm  Tm3  1  0.000000  0.618047  0.088185  1
  Tm  Tm4  1  0.000000  0.250292  0.220489  1
  Tm  Tm5  1  0.000000  0.752274  0.778404  1
  Tm  Tm6  1  0.000000  0.252681  0.721200  1
  Tm  Tm7  1  0.000000  0.743213  0.278234  1
  Tm  Tm8  1  0.000000  0.000276  0.999666  1
  Tm  Tm9  1  0.000000  0.499520  0.500494  1
  In  In10  1  0.500000  0.433075  0.350358  1
  In  In11  1  0.500000  0.569452  0.649110  1
  In  In12  1  0.500000  0.069454  0.850747  1
  In  In13  1  0.500000  0.930688  0.149712  1
  In  In14  1  0.500000  0.293326  0.067907  1
  In  In15  1  0.500000  0.708577  0.931820  1
  In  In16  1  0.500000  0.207560  0.567548  1
  In  In17  1  0.500000  0.792582  0.433235  1
  Ru  Ru18  1  0.500000  0.523769  0.196041  1
  Rh  Rh19  1  0.500000  0.024429  0.305060  1
  Rh  Rh20  1  0.500000  0.974352  0.695534  1
  Rh  Rh21  1  0.500000  0.473574  0.804137  1
