# generated using pymatgen
data_Ho2LuAl3GeAu2
_symmetry_space_group_name_H-M   'P 1'
_cell_length_a   6.98761584
_cell_length_b   7.02831387
_cell_length_c   4.29592000
_cell_angle_alpha   90.00000000
_cell_angle_beta   90.00000000
_cell_angle_gamma   120.02758017
_symmetry_Int_Tables_number   1
_chemical_formula_structural   Ho2LuAl3GeAu2
_chemical_formula_sum   'Ho2 Lu1 Al3 Ge1 Au2'
_cell_volume   182.66116389
_cell_formula_units_Z   1
loop_
 _symmetry_equiv_pos_site_id
 _symmetry_equiv_pos_as_xyz
  1  'x, y, z'
loop_
 _atom_site_type_symbol
 _atom_site_label
 _atom_site_symmetry_multiplicity
 _atom_site_fract_x
 _atom_site_fract_y
 _atom_site_fract_z
 _atom_site_occupancy
  Ho  Ho0  1  0.423189  0.422838  0.500000  1
  Ho  Ho1  1  0.577883  0.002251  0.500000  1
  Lu  Lu2  1  0.001984  0.579095  0.500000  1
  Al  Al3  1  0.751017  0.764322  0.000000  1
  Al  Al4  1  0.235593  0.986915  0.000000  1
  Al  Al5  1  0.011091  0.247994  0.000000  1
  Ge  Ge6  1  0.670053  0.335361  0.000000  1
  Au  Au7  1  0.328861  0.665251  0.000000  1
  Au  Au8  1  0.000329  0.995975  0.500000  1
