# generated using pymatgen
data_Dy3Y13(HgPd)4
_symmetry_space_group_name_H-M   'P 1'
_cell_length_a   9.67382110
_cell_length_b   9.67926413
_cell_length_c   9.67926500
_cell_angle_alpha   60.00000046
_cell_angle_beta   59.98138619
_cell_angle_gamma   59.98137825
_symmetry_Int_Tables_number   1
_chemical_formula_structural   Dy3Y13(HgPd)4
_chemical_formula_sum   'Dy3 Y13 Hg4 Pd4'
_cell_volume   640.68640034
_cell_formula_units_Z   1
loop_
 _symmetry_equiv_pos_site_id
 _symmetry_equiv_pos_as_xyz
  1  'x, y, z'
loop_
 _atom_site_type_symbol
 _atom_site_label
 _atom_site_symmetry_multiplicity
 _atom_site_fract_x
 _atom_site_fract_y
 _atom_site_fract_z
 _atom_site_occupancy
  Dy  Dy0  1  0.358160  0.358130  0.358130  1
  Dy  Dy1  1  0.358160  0.358130  0.925581  1
  Dy  Dy2  1  0.358160  0.925581  0.358130  1
  Y  Y3  1  0.923405  0.358866  0.358866  1
  Y  Y4  1  0.812538  0.187459  0.187459  1
  Y  Y5  1  0.187858  0.812362  0.812362  1
  Y  Y6  1  0.187858  0.812362  0.187417  1
  Y  Y7  1  0.812538  0.187459  0.812544  1
  Y  Y8  1  0.187858  0.187417  0.812362  1
  Y  Y9  1  0.812538  0.812544  0.187459  1
  Y  Y10  1  0.934832  0.565188  0.565188  1
  Y  Y11  1  0.564803  0.935007  0.935007  1
  Y  Y12  1  0.564803  0.935007  0.565181  1
  Y  Y13  1  0.934832  0.565188  0.934793  1
  Y  Y14  1  0.564803  0.565181  0.935007  1
  Y  Y15  1  0.934832  0.934793  0.565188  1
  Hg  Hg16  1  0.587007  0.587487  0.587487  1
  Hg  Hg17  1  0.587007  0.587487  0.238019  1
  Hg  Hg18  1  0.587007  0.238019  0.587487  1
  Hg  Hg19  1  0.238518  0.587161  0.587161  1
  Pd  Pd20  1  0.147747  0.146130  0.146130  1
  Pd  Pd21  1  0.147747  0.146130  0.559992  1
  Pd  Pd22  1  0.147747  0.559992  0.146130  1
  Pd  Pd23  1  0.559241  0.146919  0.146919  1
