# generated using pymatgen
data_TbGd3(CCl)2
_symmetry_space_group_name_H-M   'P 1'
_cell_length_a   3.67875000
_cell_length_b   3.67874867
_cell_length_c   13.83786500
_cell_angle_alpha   90.00000000
_cell_angle_beta   90.00000000
_cell_angle_gamma   119.99999394
_symmetry_Int_Tables_number   1
_chemical_formula_structural   TbGd3(CCl)2
_chemical_formula_sum   'Tb1 Gd3 C2 Cl2'
_cell_volume   162.18106247
_cell_formula_units_Z   1
loop_
 _symmetry_equiv_pos_site_id
 _symmetry_equiv_pos_as_xyz
  1  'x, y, z'
loop_
 _atom_site_type_symbol
 _atom_site_label
 _atom_site_symmetry_multiplicity
 _atom_site_fract_x
 _atom_site_fract_y
 _atom_site_fract_z
 _atom_site_occupancy
  Tb  Tb0  1  0.333333  0.666667  0.905284  1
  Gd  Gd1  1  0.333333  0.666667  0.595452  1
  Gd  Gd2  1  0.666667  0.333333  0.405585  1
  Gd  Gd3  1  0.666667  0.333333  0.092754  1
  C  C4  1  0.000000  0.000000  0.998244  1
  C  C5  1  0.000000  0.000000  0.500757  1
  Cl  Cl6  1  0.333333  0.666667  0.248738  1
  Cl  Cl7  1  0.666667  0.333333  0.753187  1
