# generated using pymatgen
data_Pr8Er12Si15Rh
_symmetry_space_group_name_H-M   'P 1'
_cell_length_a   7.54712250
_cell_length_b   7.75945005
_cell_length_c   14.76293893
_cell_angle_alpha   90.23041072
_cell_angle_beta   90.63990769
_cell_angle_gamma   90.49691545
_symmetry_Int_Tables_number   1
_chemical_formula_structural   Pr8Er12Si15Rh
_chemical_formula_sum   'Pr8 Er12 Si15 Rh1'
_cell_volume   864.44638101
_cell_formula_units_Z   1
loop_
 _symmetry_equiv_pos_site_id
 _symmetry_equiv_pos_as_xyz
  1  'x, y, z'
loop_
 _atom_site_type_symbol
 _atom_site_label
 _atom_site_symmetry_multiplicity
 _atom_site_fract_x
 _atom_site_fract_y
 _atom_site_fract_z
 _atom_site_occupancy
  Pr  Pr0  1  0.026181  0.819517  0.598728  1
  Pr  Pr1  1  0.524256  0.679055  0.596785  1
  Pr  Pr2  1  0.316473  0.824271  0.120238  1
  Pr  Pr3  1  0.814628  0.683014  0.122609  1
  Pr  Pr4  1  0.470758  0.316607  0.102363  1
  Pr  Pr5  1  0.027956  0.819357  0.900862  1
  Pr  Pr6  1  0.474597  0.320764  0.405040  1
  Pr  Pr7  1  0.532292  0.679311  0.896565  1
  Er  Er8  1  0.851605  0.502094  0.746734  1
  Er  Er9  1  0.647994  0.011537  0.262837  1
  Er  Er10  1  0.686824  0.177640  0.872652  1
  Er  Er11  1  0.178991  0.318999  0.621769  1
  Er  Er12  1  0.187835  0.320977  0.874170  1
  Er  Er13  1  0.817674  0.691503  0.384068  1
  Er  Er14  1  0.316878  0.828568  0.380615  1
  Er  Er15  1  0.354123  0.992234  0.745527  1
  Er  Er16  1  0.685403  0.160378  0.617167  1
  Er  Er17  1  0.146717  0.493504  0.253629  1
  Er  Er18  1  0.964466  0.185023  0.105177  1
  Er  Er19  1  0.967911  0.179200  0.401502  1
  Si  Si20  1  0.231460  0.620795  0.749646  1
  Si  Si21  1  0.348994  0.029577  0.542039  1
  Si  Si22  1  0.023020  0.900320  0.252499  1
  Si  Si23  1  0.735726  0.873025  0.749399  1
  Si  Si24  1  0.255981  0.129599  0.252123  1
  Si  Si25  1  0.855395  0.462292  0.538812  1
  Si  Si26  1  0.481061  0.381760  0.746344  1
  Si  Si27  1  0.139784  0.528185  0.459696  1
  Si  Si28  1  0.140235  0.515493  0.039957  1
  Si  Si29  1  0.979921  0.110953  0.749549  1
  Si  Si30  1  0.770971  0.377573  0.254200  1
  Si  Si31  1  0.367811  0.034788  0.953025  1
  Si  Si32  1  0.862002  0.457216  0.958559  1
  Si  Si33  1  0.650065  0.980931  0.034895  1
  Si  Si34  1  0.522127  0.613041  0.256250  1
  Rh  Rh35  1  0.641886  0.980903  0.453970  1
