# generated using pymatgen
data_Li3Si2PRh6
_symmetry_space_group_name_H-M   'P 1'
_cell_length_a   4.09179000
_cell_length_b   5.78306500
_cell_length_c   12.26813600
_cell_angle_alpha   90.00037506
_cell_angle_beta   89.99885612
_cell_angle_gamma   90.00028864
_symmetry_Int_Tables_number   1
_chemical_formula_structural   Li3Si2PRh6
_chemical_formula_sum   'Li6 Si4 P2 Rh12'
_cell_volume   290.30197604
_cell_formula_units_Z   2
loop_
 _symmetry_equiv_pos_site_id
 _symmetry_equiv_pos_as_xyz
  1  'x, y, z'
loop_
 _atom_site_type_symbol
 _atom_site_label
 _atom_site_symmetry_multiplicity
 _atom_site_fract_x
 _atom_site_fract_y
 _atom_site_fract_z
 _atom_site_occupancy
  Li  Li0  1  0.000003  0.500004  0.999125  1
  Li  Li1  1  0.499743  0.999999  0.167562  1
  Li  Li2  1  0.999749  0.500001  0.333808  1
  Li  Li3  1  0.499999  0.999996  0.499550  1
  Li  Li4  1  0.000247  0.500003  0.667121  1
  Li  Li5  1  0.500250  0.999997  0.832830  1
  Si  Si6  1  0.999816  0.000000  0.334829  1
  Si  Si7  1  0.500001  0.500000  0.500505  1
  Si  Si8  1  0.000179  0.000002  0.666201  1
  Si  Si9  1  0.500181  0.500000  0.831853  1
  P  P10  1  0.999997  0.000004  0.998143  1
  P  P11  1  0.499828  0.500000  0.168452  1
  Rh  Rh12  1  0.500003  0.248723  0.002479  1
  Rh  Rh13  1  0.499984  0.751277  0.002477  1
  Rh  Rh14  1  0.999865  0.251256  0.164138  1
  Rh  Rh15  1  0.999858  0.748743  0.164135  1
  Rh  Rh16  1  0.499846  0.251975  0.330039  1
  Rh  Rh17  1  0.499846  0.748029  0.330038  1
  Rh  Rh18  1  0.000002  0.250405  0.499390  1
  Rh  Rh19  1  0.000003  0.749605  0.499388  1
  Rh  Rh20  1  0.500152  0.249599  0.667333  1
  Rh  Rh21  1  0.500154  0.750391  0.667329  1
  Rh  Rh22  1  0.000154  0.248036  0.836637  1
  Rh  Rh23  1  0.000137  0.751962  0.836637  1
