# generated using pymatgen
data_Yb10Cu3Hg2Ir
_symmetry_space_group_name_H-M   'P 1'
_cell_length_a   8.95402284
_cell_length_b   8.95402241
_cell_length_c   8.93287918
_cell_angle_alpha   129.35773136
_cell_angle_beta   129.35773504
_cell_angle_gamma   74.61368751
_symmetry_Int_Tables_number   1
_chemical_formula_structural   Yb10Cu3Hg2Ir
_chemical_formula_sum   'Yb10 Cu3 Hg2 Ir1'
_cell_volume   416.80133075
_cell_formula_units_Z   1
loop_
 _symmetry_equiv_pos_site_id
 _symmetry_equiv_pos_as_xyz
  1  'x, y, z'
loop_
 _atom_site_type_symbol
 _atom_site_label
 _atom_site_symmetry_multiplicity
 _atom_site_fract_x
 _atom_site_fract_y
 _atom_site_fract_z
 _atom_site_occupancy
  Yb  Yb0  1  0.493238  0.501700  0.994938  1
  Yb  Yb1  1  0.001700  0.993238  0.994938  1
  Yb  Yb2  1  0.531431  0.031431  0.835912  1
  Yb  Yb3  1  0.190465  0.690465  0.150175  1
  Yb  Yb4  1  0.032865  0.203358  0.507319  1
  Yb  Yb5  1  0.703358  0.532865  0.507319  1
  Yb  Yb6  1  0.459711  0.959711  0.150175  1
  Yb  Yb7  1  0.804480  0.304480  0.835912  1
  Yb  Yb8  1  0.974454  0.803961  0.507319  1
  Yb  Yb9  1  0.303961  0.474454  0.507319  1
  Cu  Cu10  1  0.879784  0.379784  0.259567  1
  Cu  Cu11  1  0.616480  0.883135  0.499615  1
  Cu  Cu12  1  0.383135  0.116480  0.499615  1
  Hg  Hg13  1  0.251023  0.251023  0.002046  1
  Hg  Hg14  1  0.751023  0.751023  0.002046  1
  Ir  Ir15  1  0.122892  0.622892  0.745784  1
