# generated using pymatgen
data_PaSi2IrRh
_symmetry_space_group_name_H-M   'P 1'
_cell_length_a   4.15763600
_cell_length_b   4.15763600
_cell_length_c   9.70005300
_cell_angle_alpha   90.00000000
_cell_angle_beta   90.00000000
_cell_angle_gamma   90.00000000
_symmetry_Int_Tables_number   1
_chemical_formula_structural   PaSi2IrRh
_chemical_formula_sum   'Pa2 Si4 Ir2 Rh2'
_cell_volume   167.67450611
_cell_formula_units_Z   2
loop_
 _symmetry_equiv_pos_site_id
 _symmetry_equiv_pos_as_xyz
  1  'x, y, z'
loop_
 _atom_site_type_symbol
 _atom_site_label
 _atom_site_symmetry_multiplicity
 _atom_site_fract_x
 _atom_site_fract_y
 _atom_site_fract_z
 _atom_site_occupancy
  Pa  Pa0  1  0.000000  0.500000  0.251685  1
  Pa  Pa1  1  0.500000  0.000000  0.748315  1
  Si  Si2  1  0.000000  0.000000  0.500000  1
  Si  Si3  1  0.500000  0.500000  0.500000  1
  Si  Si4  1  0.000000  0.500000  0.864029  1
  Si  Si5  1  0.500000  0.000000  0.135971  1
  Ir  Ir6  1  0.000000  0.000000  0.000000  1
  Ir  Ir7  1  0.500000  0.500000  0.000000  1
  Rh  Rh8  1  0.000000  0.500000  0.622805  1
  Rh  Rh9  1  0.500000  0.000000  0.377195  1
