# generated using pymatgen
data_Tb6Zn22PtS
_symmetry_space_group_name_H-M   'P 1'
_cell_length_a   9.01908755
_cell_length_b   8.97243671
_cell_length_c   9.01908800
_cell_angle_alpha   60.17095343
_cell_angle_beta   59.64050716
_cell_angle_gamma   60.17095808
_symmetry_Int_Tables_number   1
_chemical_formula_structural   Tb6Zn22PtS
_chemical_formula_sum   'Tb6 Zn22 Pt1 S1'
_cell_volume   515.98632122
_cell_formula_units_Z   1
loop_
 _symmetry_equiv_pos_site_id
 _symmetry_equiv_pos_as_xyz
  1  'x, y, z'
loop_
 _atom_site_type_symbol
 _atom_site_label
 _atom_site_symmetry_multiplicity
 _atom_site_fract_x
 _atom_site_fract_y
 _atom_site_fract_z
 _atom_site_occupancy
  Tb  Tb0  1  0.715336  0.288208  0.284664  1
  Tb  Tb1  1  0.713414  0.286586  0.713414  1
  Tb  Tb2  1  0.715336  0.711792  0.284664  1
  Tb  Tb3  1  0.284664  0.711792  0.715336  1
  Tb  Tb4  1  0.286586  0.713414  0.286586  1
  Tb  Tb5  1  0.284664  0.288208  0.715336  1
  Zn  Zn6  1  0.626319  0.125120  0.123441  1
  Zn  Zn7  1  0.124310  0.624652  0.124310  1
  Zn  Zn8  1  0.123441  0.125120  0.626319  1
  Zn  Zn9  1  0.124310  0.126730  0.124310  1
  Zn  Zn10  1  0.373681  0.874880  0.876559  1
  Zn  Zn11  1  0.875690  0.375348  0.875690  1
  Zn  Zn12  1  0.876559  0.874880  0.373681  1
  Zn  Zn13  1  0.875690  0.873270  0.875690  1
  Zn  Zn14  1  0.500000  0.000000  0.000000  1
  Zn  Zn15  1  0.500000  0.000000  0.500000  1
  Zn  Zn16  1  0.500000  0.500000  0.000000  1
  Zn  Zn17  1  0.000000  0.500000  0.500000  1
  Zn  Zn18  1  0.000000  0.000000  0.500000  1
  Zn  Zn19  1  0.000000  0.000000  0.000000  1
  Zn  Zn20  1  0.013925  0.327730  0.330613  1
  Zn  Zn21  1  0.330848  0.009650  0.330848  1
  Zn  Zn22  1  0.330613  0.327730  0.013925  1
  Zn  Zn23  1  0.330848  0.328652  0.330848  1
  Zn  Zn24  1  0.986075  0.672270  0.669387  1
  Zn  Zn25  1  0.669152  0.990350  0.669152  1
  Zn  Zn26  1  0.669387  0.672270  0.986075  1
  Zn  Zn27  1  0.669152  0.671348  0.669152  1
  Pt  Pt28  1  0.000000  0.500000  0.000000  1
  S  S29  1  0.500000  0.500000  0.500000  1
