# generated using pymatgen
data_TaNb7Ga6(BMo)2
_symmetry_space_group_name_H-M   'P 1'
_cell_length_a   7.79063700
_cell_length_b   7.79063540
_cell_length_c   5.31014100
_cell_angle_alpha   90.00000000
_cell_angle_beta   90.00000000
_cell_angle_gamma   120.00000253
_symmetry_Int_Tables_number   1
_chemical_formula_structural   TaNb7Ga6(BMo)2
_chemical_formula_sum   'Ta1 Nb7 Ga6 B2 Mo2'
_cell_volume   279.11457990
_cell_formula_units_Z   1
loop_
 _symmetry_equiv_pos_site_id
 _symmetry_equiv_pos_as_xyz
  1  'x, y, z'
loop_
 _atom_site_type_symbol
 _atom_site_label
 _atom_site_symmetry_multiplicity
 _atom_site_fract_x
 _atom_site_fract_y
 _atom_site_fract_z
 _atom_site_occupancy
  Ta  Ta0  1  0.333333  0.666667  0.500000  1
  Nb  Nb1  1  0.242942  0.999764  0.254405  1
  Nb  Nb2  1  0.756822  0.999764  0.745595  1
  Nb  Nb3  1  0.000236  0.243178  0.254405  1
  Nb  Nb4  1  0.000236  0.757058  0.745595  1
  Nb  Nb5  1  0.756822  0.757058  0.254405  1
  Nb  Nb6  1  0.242942  0.243178  0.745595  1
  Nb  Nb7  1  0.666667  0.333333  0.500000  1
  Ga  Ga8  1  0.597562  0.000013  0.240814  1
  Ga  Ga9  1  0.402451  0.000013  0.759186  1
  Ga  Ga10  1  0.999987  0.597549  0.240814  1
  Ga  Ga11  1  0.999987  0.402438  0.759186  1
  Ga  Ga12  1  0.402451  0.402438  0.240814  1
  Ga  Ga13  1  0.597562  0.597549  0.759186  1
  B  B14  1  0.000000  0.000000  0.000000  1
  B  B15  1  0.000000  0.000000  0.500000  1
  Mo  Mo16  1  0.333333  0.666667  0.000000  1
  Mo  Mo17  1  0.666667  0.333333  0.000000  1
