# generated using pymatgen
data_Sm2Y4CrCo17P12
_symmetry_space_group_name_H-M   'P 1'
_cell_length_a   3.70067300
_cell_length_b   10.53981500
_cell_length_c   12.21232200
_cell_angle_alpha   90.00000000
_cell_angle_beta   90.00000000
_cell_angle_gamma   90.00000000
_symmetry_Int_Tables_number   1
_chemical_formula_structural   Sm2Y4CrCo17P12
_chemical_formula_sum   'Sm2 Y4 Cr1 Co17 P12'
_cell_volume   476.33439963
_cell_formula_units_Z   1
loop_
 _symmetry_equiv_pos_site_id
 _symmetry_equiv_pos_as_xyz
  1  'x, y, z'
loop_
 _atom_site_type_symbol
 _atom_site_label
 _atom_site_symmetry_multiplicity
 _atom_site_fract_x
 _atom_site_fract_y
 _atom_site_fract_z
 _atom_site_occupancy
  Sm  Sm0  1  0.000000  0.500000  0.522846  1
  Sm  Sm1  1  0.500000  0.000000  0.477737  1
  Y  Y2  1  0.500000  0.817555  0.205569  1
  Y  Y3  1  0.500000  0.182445  0.205569  1
  Y  Y4  1  0.000000  0.682322  0.795999  1
  Y  Y5  1  0.000000  0.317678  0.795999  1
  Cr  Cr6  1  0.500000  0.500000  0.154365  1
  Co  Co7  1  0.000000  0.000000  0.841685  1
  Co  Co8  1  0.500000  0.500000  0.704297  1
  Co  Co9  1  0.000000  0.000000  0.294945  1
  Co  Co10  1  0.000000  0.500000  0.987690  1
  Co  Co11  1  0.500000  0.000000  0.014209  1
  Co  Co12  1  0.500000  0.332742  0.993508  1
  Co  Co13  1  0.500000  0.667258  0.993508  1
  Co  Co14  1  0.000000  0.166776  0.005835  1
  Co  Co15  1  0.000000  0.833224  0.005835  1
  Co  Co16  1  0.500000  0.296243  0.429820  1
  Co  Co17  1  0.500000  0.703757  0.429820  1
  Co  Co18  1  0.000000  0.203564  0.569929  1
  Co  Co19  1  0.000000  0.796436  0.569929  1
  Co  Co20  1  0.500000  0.879483  0.710678  1
  Co  Co21  1  0.500000  0.120517  0.710678  1
  Co  Co22  1  0.000000  0.620167  0.289185  1
  Co  Co23  1  0.000000  0.379833  0.289185  1
  P  P24  1  0.500000  0.500000  0.882901  1
  P  P25  1  0.000000  0.000000  0.116558  1
  P  P26  1  0.500000  0.500000  0.342752  1
  P  P27  1  0.000000  0.000000  0.659022  1
  P  P28  1  0.500000  0.309155  0.616973  1
  P  P29  1  0.500000  0.690845  0.616973  1
  P  P30  1  0.000000  0.190534  0.383477  1
  P  P31  1  0.000000  0.809466  0.383477  1
  P  P32  1  0.500000  0.848585  0.893131  1
  P  P33  1  0.500000  0.151415  0.893131  1
  P  P34  1  0.000000  0.653647  0.106391  1
  P  P35  1  0.000000  0.346353  0.106391  1
