# generated using pymatgen
data_Tm2Lu8Sn5Bi
_symmetry_space_group_name_H-M   'P 1'
_cell_length_a   8.81895812
_cell_length_b   8.81895897
_cell_length_c   6.37198000
_cell_angle_alpha   90.00000000
_cell_angle_beta   90.00000000
_cell_angle_gamma   119.91804439
_symmetry_Int_Tables_number   1
_chemical_formula_structural   Tm2Lu8Sn5Bi
_chemical_formula_sum   'Tm2 Lu8 Sn5 Bi1'
_cell_volume   429.53415552
_cell_formula_units_Z   1
loop_
 _symmetry_equiv_pos_site_id
 _symmetry_equiv_pos_as_xyz
  1  'x, y, z'
loop_
 _atom_site_type_symbol
 _atom_site_label
 _atom_site_symmetry_multiplicity
 _atom_site_fract_x
 _atom_site_fract_y
 _atom_site_fract_z
 _atom_site_occupancy
  Tm  Tm0  1  0.767283  0.767283  0.750000  1
  Tm  Tm1  1  0.235477  0.235477  0.250000  1
  Lu  Lu2  1  0.670972  0.332757  0.001896  1
  Lu  Lu3  1  0.332757  0.670972  0.001896  1
  Lu  Lu4  1  0.332757  0.670972  0.498104  1
  Lu  Lu5  1  0.670972  0.332757  0.498104  1
  Lu  Lu6  1  0.233970  0.993257  0.750000  1
  Lu  Lu7  1  0.993257  0.233970  0.750000  1
  Lu  Lu8  1  0.763144  0.000512  0.250000  1
  Lu  Lu9  1  0.000512  0.763144  0.250000  1
  Sn  Sn10  1  0.602262  0.999687  0.750000  1
  Sn  Sn11  1  0.999687  0.602262  0.750000  1
  Sn  Sn12  1  0.605296  0.605296  0.250000  1
  Sn  Sn13  1  0.395960  0.002276  0.250000  1
  Sn  Sn14  1  0.002276  0.395960  0.250000  1
  Bi  Bi15  1  0.393418  0.393418  0.750000  1
