# generated using pymatgen
data_Tb5YLu4(Si3H)2
_symmetry_space_group_name_H-M   'P 1'
_cell_length_a   8.40490241
_cell_length_b   8.41800819
_cell_length_c   6.15067200
_cell_angle_alpha   90.00000000
_cell_angle_beta   90.00000000
_cell_angle_gamma   120.05159673
_symmetry_Int_Tables_number   1
_chemical_formula_structural   Tb5YLu4(Si3H)2
_chemical_formula_sum   'Tb5 Y1 Lu4 Si6 H2'
_cell_volume   376.67707052
_cell_formula_units_Z   1
loop_
 _symmetry_equiv_pos_site_id
 _symmetry_equiv_pos_as_xyz
  1  'x, y, z'
loop_
 _atom_site_type_symbol
 _atom_site_label
 _atom_site_symmetry_multiplicity
 _atom_site_fract_x
 _atom_site_fract_y
 _atom_site_fract_z
 _atom_site_occupancy
  Tb  Tb0  1  0.749252  0.749277  0.750000  1
  Tb  Tb1  1  0.250748  0.000025  0.750000  1
  Tb  Tb2  1  0.000000  0.251046  0.750000  1
  Tb  Tb3  1  0.250841  0.250963  0.250000  1
  Tb  Tb4  1  0.749159  0.000122  0.250000  1
  Y  Y5  1  0.000000  0.748351  0.250000  1
  Lu  Lu6  1  0.666680  0.333427  0.999999  1
  Lu  Lu7  1  0.333320  0.666748  0.999999  1
  Lu  Lu8  1  0.333320  0.666748  0.500001  1
  Lu  Lu9  1  0.666680  0.333427  0.500001  1
  Si  Si10  1  0.392093  0.391984  0.750000  1
  Si  Si11  1  0.607907  0.999891  0.750000  1
  Si  Si12  1  0.000000  0.608047  0.750000  1
  Si  Si13  1  0.608767  0.608201  0.250000  1
  Si  Si14  1  0.391233  0.999435  0.250000  1
  Si  Si15  1  0.000000  0.392329  0.250000  1
  H  H16  1  0.000000  0.999989  0.499739  1
  H  H17  1  0.000000  0.999989  0.000261  1
