# generated using pymatgen
data_KGaSi3O8
_symmetry_space_group_name_H-M   'P 1'
_cell_length_a   7.38059266
_cell_length_b   7.73945271
_cell_length_c   8.13243669
_cell_angle_alpha   112.92734473
_cell_angle_beta   104.34279416
_cell_angle_gamma   103.41132734
_symmetry_Int_Tables_number   1
_chemical_formula_structural   KGaSi3O8
_chemical_formula_sum   'K2 Ga2 Si6 O16'
_cell_volume   385.40257539
_cell_formula_units_Z   2
loop_
 _symmetry_equiv_pos_site_id
 _symmetry_equiv_pos_as_xyz
  1  'x, y, z'
loop_
 _atom_site_type_symbol
 _atom_site_label
 _atom_site_symmetry_multiplicity
 _atom_site_fract_x
 _atom_site_fract_y
 _atom_site_fract_z
 _atom_site_occupancy
  K  K0  1  0.863615  0.709592  0.728204  1
  K  K1  1  0.136385  0.290408  0.271796  1
  Ga  Ga2  1  0.784536  0.178269  0.796997  1
  Ga  Ga3  1  0.215464  0.821731  0.203003  1
  Si  Si4  1  0.761881  0.808366  0.169426  1
  Si  Si5  1  0.238119  0.191634  0.830574  1
  Si  Si6  1  0.662212  0.408298  0.165470  1
  Si  Si7  1  0.337788  0.591702  0.834530  1
  Si  Si8  1  0.646259  0.180736  0.404146  1
  Si  Si9  1  0.353741  0.819264  0.595854  1
  O  O10  1  0.026390  0.140661  0.858159  1
  O  O11  1  0.973610  0.859339  0.141841  1
  O  O12  1  0.713187  0.367386  0.352325  1
  O  O13  1  0.286813  0.632614  0.647675  1
  O  O14  1  0.789789  0.331375  0.037801  1
  O  O15  1  0.210211  0.668625  0.962199  1
  O  O16  1  0.749663  0.020201  0.309275  1
  O  O17  1  0.250337  0.979799  0.690725  1
  O  O18  1  0.749339  0.293031  0.638237  1
  O  O19  1  0.250661  0.706969  0.361763  1
  O  O20  1  0.728827  0.655467  0.263142  1
  O  O21  1  0.271173  0.344533  0.736858  1
  O  O22  1  0.596575  0.920537  0.682823  1
  O  O23  1  0.403425  0.079463  0.317177  1
  O  O24  1  0.582477  0.699133  0.954089  1
  O  O25  1  0.417523  0.300867  0.045911  1
