# generated using pymatgen
data_Dy4InPd11
_symmetry_space_group_name_H-M   'P 1'
_cell_length_a   4.19036400
_cell_length_b   5.85122391
_cell_length_c   11.65683400
_cell_angle_alpha   86.77823839
_cell_angle_beta   90.00000000
_cell_angle_gamma   90.00000000
_symmetry_Int_Tables_number   1
_chemical_formula_structural   Dy4InPd11
_chemical_formula_sum   'Dy4 In1 Pd11'
_cell_volume   285.35936532
_cell_formula_units_Z   1
loop_
 _symmetry_equiv_pos_site_id
 _symmetry_equiv_pos_as_xyz
  1  'x, y, z'
loop_
 _atom_site_type_symbol
 _atom_site_label
 _atom_site_symmetry_multiplicity
 _atom_site_fract_x
 _atom_site_fract_y
 _atom_site_fract_z
 _atom_site_occupancy
  Dy  Dy0  1  0.500000  0.756302  0.376916  1
  Dy  Dy1  1  0.500000  0.713993  0.859138  1
  Dy  Dy2  1  0.500000  0.286007  0.140862  1
  Dy  Dy3  1  0.500000  0.243698  0.623084  1
  In  In4  1  0.000000  0.000000  0.000000  1
  Pd  Pd5  1  0.000000  0.014251  0.249201  1
  Pd  Pd6  1  0.000000  0.985749  0.750799  1
  Pd  Pd7  1  0.000000  0.500000  0.000000  1
  Pd  Pd8  1  0.000000  0.500000  0.500000  1
  Pd  Pd9  1  0.000000  0.519106  0.250767  1
  Pd  Pd10  1  0.000000  0.480894  0.749233  1
  Pd  Pd11  1  0.500000  0.255009  0.377738  1
  Pd  Pd12  1  0.500000  0.224433  0.882569  1
  Pd  Pd13  1  0.500000  0.775567  0.117431  1
  Pd  Pd14  1  0.500000  0.744991  0.622262  1
  Pd  Pd15  1  0.000000  0.000000  0.500000  1
