# generated using pymatgen
data_Dy2(Al3Co)3
_symmetry_space_group_name_H-M   'P 1'
_cell_length_a   7.36933650
_cell_length_b   7.36933637
_cell_length_c   9.31051100
_cell_angle_alpha   90.00000000
_cell_angle_beta   90.00000000
_cell_angle_gamma   119.23522595
_symmetry_Int_Tables_number   1
_chemical_formula_structural   Dy2(Al3Co)3
_chemical_formula_sum   'Dy4 Al18 Co6'
_cell_volume   441.22125887
_cell_formula_units_Z   2
loop_
 _symmetry_equiv_pos_site_id
 _symmetry_equiv_pos_as_xyz
  1  'x, y, z'
loop_
 _atom_site_type_symbol
 _atom_site_label
 _atom_site_symmetry_multiplicity
 _atom_site_fract_x
 _atom_site_fract_y
 _atom_site_fract_z
 _atom_site_occupancy
  Dy  Dy0  1  0.993087  0.671953  0.250000  1
  Dy  Dy1  1  0.006913  0.328047  0.750000  1
  Dy  Dy2  1  0.671953  0.993087  0.250000  1
  Dy  Dy3  1  0.328047  0.006913  0.750000  1
  Al  Al4  1  0.125114  0.125114  0.250000  1
  Al  Al5  1  0.874886  0.874886  0.750000  1
  Al  Al6  1  0.332187  0.332187  0.541983  1
  Al  Al7  1  0.667813  0.667813  0.041983  1
  Al  Al8  1  0.332187  0.332187  0.958017  1
  Al  Al9  1  0.667813  0.667813  0.458017  1
  Al  Al10  1  0.338724  0.553335  0.250000  1
  Al  Al11  1  0.661276  0.446665  0.750000  1
  Al  Al12  1  0.553335  0.338724  0.250000  1
  Al  Al13  1  0.446665  0.661276  0.750000  1
  Al  Al14  1  0.998194  0.335154  0.070784  1
  Al  Al15  1  0.001806  0.664846  0.570784  1
  Al  Al16  1  0.335154  0.998194  0.429216  1
  Al  Al17  1  0.664846  0.001806  0.929216  1
  Al  Al18  1  0.001806  0.664846  0.929216  1
  Al  Al19  1  0.998194  0.335154  0.429216  1
  Al  Al20  1  0.664846  0.001806  0.570784  1
  Al  Al21  1  0.335154  0.998194  0.070784  1
  Co  Co22  1  0.000000  0.000000  0.000000  1
  Co  Co23  1  0.000000  0.000000  0.500000  1
  Co  Co24  1  0.670924  0.329076  0.000000  1
  Co  Co25  1  0.329076  0.670924  0.500000  1
  Co  Co26  1  0.329076  0.670924  0.000000  1
  Co  Co27  1  0.670924  0.329076  0.500000  1
