# generated using pymatgen
data_YTm3(Lu4Bi3)4
_symmetry_space_group_name_H-M   'P 1'
_cell_length_a   8.14954768
_cell_length_b   9.39268400
_cell_length_c   11.83904198
_cell_angle_alpha   90.00000000
_cell_angle_beta   89.95334157
_cell_angle_gamma   90.00000000
_symmetry_Int_Tables_number   1
_chemical_formula_structural   YTm3(Lu4Bi3)4
_chemical_formula_sum   'Y1 Tm3 Lu16 Bi12'
_cell_volume   906.23249944
_cell_formula_units_Z   1
loop_
 _symmetry_equiv_pos_site_id
 _symmetry_equiv_pos_as_xyz
  1  'x, y, z'
loop_
 _atom_site_type_symbol
 _atom_site_label
 _atom_site_symmetry_multiplicity
 _atom_site_fract_x
 _atom_site_fract_y
 _atom_site_fract_z
 _atom_site_occupancy
  Y  Y0  1  0.187184  0.250000  0.781814  1
  Tm  Tm1  1  0.812217  0.750000  0.217367  1
  Tm  Tm2  1  0.312196  0.750000  0.282524  1
  Tm  Tm3  1  0.687582  0.250000  0.717537  1
  Lu  Lu4  1  0.024522  0.250000  0.510548  1
  Lu  Lu5  1  0.975147  0.750000  0.489020  1
  Lu  Lu6  1  0.475422  0.750000  0.011076  1
  Lu  Lu7  1  0.524840  0.250000  0.989315  1
  Lu  Lu8  1  0.355519  0.250000  0.282144  1
  Lu  Lu9  1  0.644827  0.750000  0.717828  1
  Lu  Lu10  1  0.144817  0.750000  0.781975  1
  Lu  Lu11  1  0.855043  0.250000  0.218239  1
  Lu  Lu12  1  0.193491  0.066972  0.060539  1
  Lu  Lu13  1  0.806620  0.932966  0.939623  1
  Lu  Lu14  1  0.306364  0.933042  0.560315  1
  Lu  Lu15  1  0.806620  0.567034  0.939623  1
  Lu  Lu16  1  0.693708  0.067013  0.439586  1
  Lu  Lu17  1  0.193491  0.433028  0.060539  1
  Lu  Lu18  1  0.693708  0.432987  0.439586  1
  Lu  Lu19  1  0.306364  0.566958  0.560315  1
  Bi  Bi20  1  0.405508  0.250000  0.541763  1
  Bi  Bi21  1  0.594935  0.750000  0.457905  1
  Bi  Bi22  1  0.095235  0.750000  0.042106  1
  Bi  Bi23  1  0.904130  0.250000  0.958875  1
  Bi  Bi24  1  0.067111  0.004155  0.325955  1
  Bi  Bi25  1  0.932236  0.995340  0.673648  1
  Bi  Bi26  1  0.434017  0.995119  0.826016  1
  Bi  Bi27  1  0.932236  0.504660  0.673648  1
  Bi  Bi28  1  0.566891  0.004115  0.174300  1
  Bi  Bi29  1  0.067111  0.495845  0.325955  1
  Bi  Bi30  1  0.566891  0.495885  0.174300  1
  Bi  Bi31  1  0.434017  0.504881  0.826016  1
