# generated using pymatgen
data_Pr2OsRuBr
_symmetry_space_group_name_H-M   'P 1'
_cell_length_a   4.30336700
_cell_length_b   4.30336713
_cell_length_c   17.08341200
_cell_angle_alpha   90.00000000
_cell_angle_beta   90.00000000
_cell_angle_gamma   120.00000672
_symmetry_Int_Tables_number   1
_chemical_formula_structural   Pr2OsRuBr
_chemical_formula_sum   'Pr4 Os2 Ru2 Br2'
_cell_volume   273.98198019
_cell_formula_units_Z   2
loop_
 _symmetry_equiv_pos_site_id
 _symmetry_equiv_pos_as_xyz
  1  'x, y, z'
loop_
 _atom_site_type_symbol
 _atom_site_label
 _atom_site_symmetry_multiplicity
 _atom_site_fract_x
 _atom_site_fract_y
 _atom_site_fract_z
 _atom_site_occupancy
  Pr  Pr0  1  0.000000  0.000000  0.113497  1
  Pr  Pr1  1  0.000000  0.000000  0.886503  1
  Pr  Pr2  1  0.000000  0.000000  0.609993  1
  Pr  Pr3  1  0.000000  0.000000  0.390007  1
  Os  Os4  1  0.666667  0.333333  0.004611  1
  Os  Os5  1  0.333333  0.666667  0.995389  1
  Ru  Ru6  1  0.333333  0.666667  0.504093  1
  Ru  Ru7  1  0.666667  0.333333  0.495907  1
  Br  Br8  1  0.333333  0.666667  0.249768  1
  Br  Br9  1  0.666667  0.333333  0.750232  1
