# generated using pymatgen
data_ErTmLu4ReBi2
_symmetry_space_group_name_H-M   'P 1'
_cell_length_a   8.13926301
_cell_length_b   8.12487935
_cell_length_c   4.30131400
_cell_angle_alpha   90.00000000
_cell_angle_beta   90.00000000
_cell_angle_gamma   120.02598624
_symmetry_Int_Tables_number   1
_chemical_formula_structural   ErTmLu4ReBi2
_chemical_formula_sum   'Er1 Tm1 Lu4 Re1 Bi2'
_cell_volume   246.27481452
_cell_formula_units_Z   1
loop_
 _symmetry_equiv_pos_site_id
 _symmetry_equiv_pos_as_xyz
  1  'x, y, z'
loop_
 _atom_site_type_symbol
 _atom_site_label
 _atom_site_symmetry_multiplicity
 _atom_site_fract_x
 _atom_site_fract_y
 _atom_site_fract_z
 _atom_site_occupancy
  Er  Er0  1  0.384930  0.385051  0.000000  1
  Tm  Tm1  1  0.617890  0.000376  0.000000  1
  Lu  Lu2  1  0.230024  0.999422  0.500000  1
  Lu  Lu3  1  0.999951  0.230333  0.500000  1
  Lu  Lu4  1  0.768189  0.767650  0.500000  1
  Lu  Lu5  1  0.000252  0.619110  0.000000  1
  Re  Re6  1  0.998706  0.997806  0.000000  1
  Bi  Bi7  1  0.332539  0.667241  0.500000  1
  Bi  Bi8  1  0.667516  0.333010  0.500000  1
