# generated using pymatgen
data_Dy5Co9As10(PRu5)2
_symmetry_space_group_name_H-M   'P 1'
_cell_length_a   12.68120833
_cell_length_b   12.63683370
_cell_length_c   3.84137800
_cell_angle_alpha   90.00000000
_cell_angle_beta   90.00000000
_cell_angle_gamma   119.86726166
_symmetry_Int_Tables_number   1
_chemical_formula_structural   Dy5Co9As10(PRu5)2
_chemical_formula_sum   'Dy5 Co9 As10 P2 Ru10'
_cell_volume   533.82133390
_cell_formula_units_Z   1
loop_
 _symmetry_equiv_pos_site_id
 _symmetry_equiv_pos_as_xyz
  1  'x, y, z'
loop_
 _atom_site_type_symbol
 _atom_site_label
 _atom_site_symmetry_multiplicity
 _atom_site_fract_x
 _atom_site_fract_y
 _atom_site_fract_z
 _atom_site_occupancy
  Dy  Dy0  1  0.663940  0.332057  0.000000  1
  Dy  Dy1  1  0.332692  0.667128  0.000000  1
  Dy  Dy2  1  0.178206  0.177270  0.500000  1
  Dy  Dy3  1  0.823655  0.003916  0.500000  1
  Dy  Dy4  1  0.004318  0.824234  0.500000  1
  Co  Co5  1  0.803532  0.631350  0.000000  1
  Co  Co6  1  0.362196  0.167194  0.000000  1
  Co  Co7  1  0.193334  0.832615  0.000000  1
  Co  Co8  1  0.629917  0.801232  0.000000  1
  Co  Co9  1  0.171922  0.364889  0.000000  1
  Co  Co10  1  0.721174  0.721048  0.500000  1
  Co  Co11  1  0.272008  0.999663  0.500000  1
  Co  Co12  1  0.006697  0.277228  0.500000  1
  Co  Co13  1  0.007891  0.007193  0.000000  1
  As  As14  1  0.357586  0.357067  0.000000  1
  As  As15  1  0.637564  0.996212  0.000000  1
  As  As16  1  0.000118  0.642273  0.000000  1
  As  As17  1  0.841060  0.318245  0.500000  1
  As  As18  1  0.682528  0.522362  0.500000  1
  As  As19  1  0.473116  0.156990  0.500000  1
  As  As20  1  0.316469  0.842179  0.500000  1
  As  As21  1  0.522669  0.681221  0.500000  1
  As  As22  1  0.160129  0.477560  0.500000  1
  As  As23  1  0.825385  0.825916  0.000000  1
  P  P24  1  0.178124  0.001026  0.000000  1
  P  P25  1  0.006824  0.180987  0.000000  1
  Ru  Ru26  1  0.556068  0.554398  0.000000  1
  Ru  Ru27  1  0.438993  0.997072  0.000000  1
  Ru  Ru28  1  0.006728  0.447578  0.000000  1
  Ru  Ru29  1  0.831486  0.194429  0.000000  1
  Ru  Ru30  1  0.643964  0.125550  0.500000  1
  Ru  Ru31  1  0.873381  0.521495  0.500000  1
  Ru  Ru32  1  0.477903  0.349943  0.500000  1
  Ru  Ru33  1  0.128562  0.651358  0.500000  1
  Ru  Ru34  1  0.518895  0.870738  0.500000  1
  Ru  Ru35  1  0.350965  0.478380  0.500000  1
