# generated using pymatgen
data_Yb3(AlP2)2
_symmetry_space_group_name_H-M   'P 1'
_cell_length_a   7.99231122
_cell_length_b   7.99231099
_cell_length_c   6.42293603
_cell_angle_alpha   89.45770005
_cell_angle_beta   89.45770134
_cell_angle_gamma   75.90947115
_symmetry_Int_Tables_number   1
_chemical_formula_structural   Yb3(AlP2)2
_chemical_formula_sum   'Yb6 Al4 P8'
_cell_volume   397.90511577
_cell_formula_units_Z   2
loop_
 _symmetry_equiv_pos_site_id
 _symmetry_equiv_pos_as_xyz
  1  'x, y, z'
loop_
 _atom_site_type_symbol
 _atom_site_label
 _atom_site_symmetry_multiplicity
 _atom_site_fract_x
 _atom_site_fract_y
 _atom_site_fract_z
 _atom_site_occupancy
  Yb  Yb0  1  0.750637  0.008229  0.969920  1
  Yb  Yb1  1  0.991771  0.249363  0.530080  1
  Yb  Yb2  1  0.249363  0.991771  0.030080  1
  Yb  Yb3  1  0.008229  0.750637  0.469920  1
  Yb  Yb4  1  0.598876  0.401124  0.250000  1
  Yb  Yb5  1  0.401124  0.598876  0.750000  1
  Al  Al6  1  0.579535  0.828116  0.412089  1
  Al  Al7  1  0.171884  0.420465  0.087911  1
  Al  Al8  1  0.420465  0.171884  0.587911  1
  Al  Al9  1  0.828116  0.579535  0.912089  1
  P  P10  1  0.717074  0.058932  0.476164  1
  P  P11  1  0.941068  0.282926  0.023836  1
  P  P12  1  0.282926  0.941068  0.523836  1
  P  P13  1  0.058932  0.717074  0.976164  1
  P  P14  1  0.568138  0.742683  0.062444  1
  P  P15  1  0.257317  0.431862  0.437556  1
  P  P16  1  0.431862  0.257317  0.937556  1
  P  P17  1  0.742683  0.568138  0.562444  1
