# generated using pymatgen
data_LiTi4CoSn2
_symmetry_space_group_name_H-M   'P 1'
_cell_length_a   4.93501607
_cell_length_b   7.91111001
_cell_length_c   7.91110957
_cell_angle_alpha   84.41719976
_cell_angle_beta   71.82599119
_cell_angle_gamma   71.82597913
_symmetry_Int_Tables_number   1
_chemical_formula_structural   LiTi4CoSn2
_chemical_formula_sum   'Li2 Ti8 Co2 Sn4'
_cell_volume   278.81393076
_cell_formula_units_Z   2
loop_
 _symmetry_equiv_pos_site_id
 _symmetry_equiv_pos_as_xyz
  1  'x, y, z'
loop_
 _atom_site_type_symbol
 _atom_site_label
 _atom_site_symmetry_multiplicity
 _atom_site_fract_x
 _atom_site_fract_y
 _atom_site_fract_z
 _atom_site_occupancy
  Li  Li0  1  0.250000  0.500000  0.500000  1
  Li  Li1  1  0.750000  0.500000  0.500000  1
  Ti  Ti2  1  0.073410  0.121119  0.732062  1
  Ti  Ti3  1  0.926590  0.878881  0.267938  1
  Ti  Ti4  1  0.805471  0.267938  0.121119  1
  Ti  Ti5  1  0.426590  0.267938  0.878881  1
  Ti  Ti6  1  0.194529  0.732062  0.878881  1
  Ti  Ti7  1  0.573410  0.732062  0.121119  1
  Ti  Ti8  1  0.694529  0.878881  0.732062  1
  Ti  Ti9  1  0.305471  0.121119  0.267938  1
  Co  Co10  1  0.250000  0.000000  0.000000  1
  Co  Co11  1  0.750000  0.000000  0.000000  1
  Sn  Sn12  1  0.158734  0.500000  0.182531  1
  Sn  Sn13  1  0.841266  0.500000  0.817469  1
  Sn  Sn14  1  0.341266  0.817469  0.500000  1
  Sn  Sn15  1  0.658734  0.182531  0.500000  1
