# generated using pymatgen
data_Sr16Sb11
_symmetry_space_group_name_H-M   'P 1'
_cell_length_a   12.05466500
_cell_length_b   13.03761800
_cell_length_c   13.05969300
_cell_angle_alpha   90.00000000
_cell_angle_beta   90.00000000
_cell_angle_gamma   90.00000000
_symmetry_Int_Tables_number   1
_chemical_formula_structural   Sr16Sb11
_chemical_formula_sum   'Sr32 Sb22'
_cell_volume   2052.51512370
_cell_formula_units_Z   2
loop_
 _symmetry_equiv_pos_site_id
 _symmetry_equiv_pos_as_xyz
  1  'x, y, z'
loop_
 _atom_site_type_symbol
 _atom_site_label
 _atom_site_symmetry_multiplicity
 _atom_site_fract_x
 _atom_site_fract_y
 _atom_site_fract_z
 _atom_site_occupancy
  Sr  Sr0  1  0.001347  0.793610  0.089593  1
  Sr  Sr1  1  0.998653  0.293611  0.410407  1
  Sr  Sr2  1  0.001347  0.206390  0.910407  1
  Sr  Sr3  1  0.998653  0.706390  0.589593  1
  Sr  Sr4  1  0.997821  0.090765  0.205729  1
  Sr  Sr5  1  0.002179  0.590765  0.294271  1
  Sr  Sr6  1  0.997821  0.909235  0.794271  1
  Sr  Sr7  1  0.002179  0.409235  0.705729  1
  Sr  Sr8  1  0.500713  0.626279  0.126742  1
  Sr  Sr9  1  0.499287  0.126279  0.373258  1
  Sr  Sr10  1  0.500713  0.373721  0.873258  1
  Sr  Sr11  1  0.499287  0.873721  0.626742  1
  Sr  Sr12  1  0.856709  0.500000  0.000000  1
  Sr  Sr13  1  0.143291  0.000000  0.500000  1
  Sr  Sr14  1  0.709787  0.921830  0.208488  1
  Sr  Sr15  1  0.290213  0.421830  0.291512  1
  Sr  Sr16  1  0.709787  0.078170  0.791512  1
  Sr  Sr17  1  0.290213  0.578170  0.708488  1
  Sr  Sr18  1  0.291874  0.207173  0.077172  1
  Sr  Sr19  1  0.708126  0.707173  0.422828  1
  Sr  Sr20  1  0.291874  0.792827  0.922828  1
  Sr  Sr21  1  0.708126  0.292827  0.577172  1
  Sr  Sr22  1  0.204501  0.500000  0.000000  1
  Sr  Sr23  1  0.795499  0.000000  0.500000  1
  Sr  Sr24  1  0.685197  0.572443  0.701909  1
  Sr  Sr25  1  0.314803  0.072443  0.798091  1
  Sr  Sr26  1  0.685197  0.427557  0.298091  1
  Sr  Sr27  1  0.314803  0.927557  0.201909  1
  Sr  Sr28  1  0.315068  0.701838  0.427427  1
  Sr  Sr29  1  0.684932  0.201838  0.072573  1
  Sr  Sr30  1  0.315068  0.298162  0.572573  1
  Sr  Sr31  1  0.684932  0.798162  0.927427  1
  Sb  Sb32  1  0.764340  0.664814  0.165789  1
  Sb  Sb33  1  0.235660  0.164814  0.334211  1
  Sb  Sb34  1  0.764340  0.335186  0.834211  1
  Sb  Sb35  1  0.235660  0.835186  0.665789  1
  Sb  Sb36  1  0.968101  0.855829  0.355111  1
  Sb  Sb37  1  0.031899  0.355829  0.144889  1
  Sb  Sb38  1  0.968101  0.144171  0.644889  1
  Sb  Sb39  1  0.031899  0.644171  0.855111  1
  Sb  Sb40  1  0.239135  0.678685  0.178646  1
  Sb  Sb41  1  0.760865  0.178685  0.321354  1
  Sb  Sb42  1  0.239135  0.321315  0.821354  1
  Sb  Sb43  1  0.760865  0.821315  0.678646  1
  Sb  Sb44  1  0.511746  0.872330  0.372659  1
  Sb  Sb45  1  0.488254  0.372330  0.127341  1
  Sb  Sb46  1  0.511746  0.127670  0.627341  1
  Sb  Sb47  1  0.488254  0.627670  0.872659  1
  Sb  Sb48  1  0.849466  0.500000  0.500000  1
  Sb  Sb49  1  0.150534  0.000000  0.000000  1
  Sb  Sb50  1  0.151404  0.500000  0.500000  1
  Sb  Sb51  1  0.848596  0.000000  0.000000  1
  Sb  Sb52  1  0.502189  0.500000  0.500000  1
  Sb  Sb53  1  0.497811  0.000000  0.000000  1
