# generated using pymatgen
data_Lu3In3GaPtRh
_symmetry_space_group_name_H-M   'P 1'
_cell_length_a   7.60823600
_cell_length_b   7.60823580
_cell_length_c   3.82543600
_cell_angle_alpha   90.00000000
_cell_angle_beta   90.00000000
_cell_angle_gamma   119.99999218
_symmetry_Int_Tables_number   1
_chemical_formula_structural   Lu3In3GaPtRh
_chemical_formula_sum   'Lu3 In3 Ga1 Pt1 Rh1'
_cell_volume   191.76950450
_cell_formula_units_Z   1
loop_
 _symmetry_equiv_pos_site_id
 _symmetry_equiv_pos_as_xyz
  1  'x, y, z'
loop_
 _atom_site_type_symbol
 _atom_site_label
 _atom_site_symmetry_multiplicity
 _atom_site_fract_x
 _atom_site_fract_y
 _atom_site_fract_z
 _atom_site_occupancy
  Lu  Lu0  1  0.014951  0.608337  0.500000  1
  Lu  Lu1  1  0.593386  0.985049  0.500000  1
  Lu  Lu2  1  0.391663  0.406614  0.500000  1
  In  In3  1  0.997009  0.258446  0.000000  1
  In  In4  1  0.261437  0.002991  0.000000  1
  In  In5  1  0.741554  0.738563  0.000000  1
  Ga  Ga6  1  0.666667  0.333333  0.000000  1
  Pt  Pt7  1  0.333333  0.666667  0.000000  1
  Rh  Rh8  1  0.000000  0.000000  0.500000  1
