# generated using pymatgen
data_Zn10B6IrRh13
_symmetry_space_group_name_H-M   'P 1'
_cell_length_a   2.86616400
_cell_length_b   11.13262013
_cell_length_c   11.85691613
_cell_angle_alpha   90.01702302
_cell_angle_beta   90.00000000
_cell_angle_gamma   90.00000000
_symmetry_Int_Tables_number   1
_chemical_formula_structural   Zn10B6IrRh13
_chemical_formula_sum   'Zn10 B6 Ir1 Rh13'
_cell_volume   378.32945563
_cell_formula_units_Z   1
loop_
 _symmetry_equiv_pos_site_id
 _symmetry_equiv_pos_as_xyz
  1  'x, y, z'
loop_
 _atom_site_type_symbol
 _atom_site_label
 _atom_site_symmetry_multiplicity
 _atom_site_fract_x
 _atom_site_fract_y
 _atom_site_fract_z
 _atom_site_occupancy
  Zn  Zn0  1  0.500000  0.750573  0.190888  1
  Zn  Zn1  1  0.500000  0.249427  0.809112  1
  Zn  Zn2  1  0.500000  0.450978  0.133601  1
  Zn  Zn3  1  0.500000  0.549022  0.866399  1
  Zn  Zn4  1  0.500000  0.048868  0.133865  1
  Zn  Zn5  1  0.500000  0.951132  0.866135  1
  Zn  Zn6  1  0.500000  0.368331  0.346537  1
  Zn  Zn7  1  0.500000  0.631669  0.653463  1
  Zn  Zn8  1  0.500000  0.130616  0.347827  1
  Zn  Zn9  1  0.500000  0.869384  0.652173  1
  B  B10  1  0.500000  0.749965  0.961978  1
  B  B11  1  0.500000  0.250035  0.038022  1
  B  B12  1  0.500000  0.883261  0.406839  1
  B  B13  1  0.500000  0.116739  0.593161  1
  B  B14  1  0.500000  0.616246  0.407115  1
  B  B15  1  0.500000  0.383754  0.592885  1
  Ir  Ir16  1  0.000000  0.500000  0.500000  1
  Rh  Rh17  1  0.000000  0.000000  0.500000  1
  Rh  Rh18  1  0.000000  0.750182  0.820124  1
  Rh  Rh19  1  0.000000  0.249818  0.179876  1
  Rh  Rh20  1  0.000000  0.750646  0.472780  1
  Rh  Rh21  1  0.000000  0.249354  0.527220  1
  Rh  Rh22  1  0.000000  0.874182  0.038007  1
  Rh  Rh23  1  0.000000  0.125818  0.961993  1
  Rh  Rh24  1  0.000000  0.626090  0.038348  1
  Rh  Rh25  1  0.000000  0.373910  0.961652  1
  Rh  Rh26  1  0.000000  0.922866  0.279927  1
  Rh  Rh27  1  0.000000  0.077134  0.720073  1
  Rh  Rh28  1  0.000000  0.577977  0.278922  1
  Rh  Rh29  1  0.000000  0.422023  0.721078  1
