# generated using pymatgen
data_Tb9Tm11(SiBi2)4
_symmetry_space_group_name_H-M   'P 1'
_cell_length_a   12.05805123
_cell_length_b   9.11711805
_cell_length_c   8.03338584
_cell_angle_alpha   90.01047574
_cell_angle_beta   89.94852751
_cell_angle_gamma   89.99399228
_symmetry_Int_Tables_number   1
_chemical_formula_structural   Tb9Tm11(SiBi2)4
_chemical_formula_sum   'Tb9 Tm11 Si4 Bi8'
_cell_volume   883.14729837
_cell_formula_units_Z   1
loop_
 _symmetry_equiv_pos_site_id
 _symmetry_equiv_pos_as_xyz
  1  'x, y, z'
loop_
 _atom_site_type_symbol
 _atom_site_label
 _atom_site_symmetry_multiplicity
 _atom_site_fract_x
 _atom_site_fract_y
 _atom_site_fract_z
 _atom_site_occupancy
  Tb  Tb0  1  0.563445  0.551849  0.681394  1
  Tb  Tb1  1  0.211519  0.750093  0.163842  1
  Tb  Tb2  1  0.711960  0.750484  0.335790  1
  Tb  Tb3  1  0.788489  0.249918  0.836345  1
  Tb  Tb4  1  0.288258  0.249976  0.663844  1
  Tb  Tb5  1  0.294347  0.750422  0.637051  1
  Tb  Tb6  1  0.795446  0.750414  0.862530  1
  Tb  Tb7  1  0.705305  0.250082  0.362353  1
  Tb  Tb8  1  0.205132  0.250161  0.137707  1
  Tm  Tm9  1  0.063079  0.553208  0.820286  1
  Tm  Tm10  1  0.563286  0.947193  0.679634  1
  Tm  Tm11  1  0.936977  0.053362  0.179628  1
  Tm  Tm12  1  0.436679  0.446529  0.320422  1
  Tm  Tm13  1  0.937043  0.446834  0.179830  1
  Tm  Tm14  1  0.436749  0.053338  0.320050  1
  Tm  Tm15  1  0.063225  0.946764  0.820189  1
  Tm  Tm16  1  0.000846  0.750163  0.460171  1
  Tm  Tm17  1  0.500600  0.750153  0.040700  1
  Tm  Tm18  1  0.999264  0.249880  0.539933  1
  Tm  Tm19  1  0.499120  0.249735  0.960395  1
  Si  Si20  1  0.478627  0.751332  0.411763  1
  Si  Si21  1  0.979009  0.749961  0.087626  1
  Si  Si22  1  0.520303  0.247315  0.586207  1
  Si  Si23  1  0.021080  0.250121  0.912686  1
  Bi  Bi24  1  0.327473  0.510395  0.931986  1
  Bi  Bi25  1  0.827857  0.989803  0.567624  1
  Bi  Bi26  1  0.672268  0.010579  0.067760  1
  Bi  Bi27  1  0.172014  0.489648  0.432167  1
  Bi  Bi28  1  0.672527  0.489628  0.068361  1
  Bi  Bi29  1  0.172079  0.010471  0.432224  1
  Bi  Bi30  1  0.327666  0.989778  0.932265  1
  Bi  Bi31  1  0.828329  0.510411  0.567240  1
