# generated using pymatgen
data_AcSiNi3Ir
_symmetry_space_group_name_H-M   'P 1'
_cell_length_a   5.09884897
_cell_length_b   4.97742403
_cell_length_c   4.04104500
_cell_angle_alpha   90.00000000
_cell_angle_beta   90.00000000
_cell_angle_gamma   114.11494860
_symmetry_Int_Tables_number   1
_chemical_formula_structural   AcSiNi3Ir
_chemical_formula_sum   'Ac1 Si1 Ni3 Ir1'
_cell_volume   93.60771932
_cell_formula_units_Z   1
loop_
 _symmetry_equiv_pos_site_id
 _symmetry_equiv_pos_as_xyz
  1  'x, y, z'
loop_
 _atom_site_type_symbol
 _atom_site_label
 _atom_site_symmetry_multiplicity
 _atom_site_fract_x
 _atom_site_fract_y
 _atom_site_fract_z
 _atom_site_occupancy
  Ac  Ac0  1  0.000000  0.000000  0.000000  1
  Si  Si1  1  0.500000  0.500000  0.500000  1
  Ni  Ni2  1  0.365417  0.669861  0.000000  1
  Ni  Ni3  1  0.634583  0.330139  0.000000  1
  Ni  Ni4  1  0.500000  0.000000  0.500000  1
  Ir  Ir5  1  0.000000  0.500000  0.500000  1
