# generated using pymatgen
data_Yb3Lu(Zn14Cu3)2
_symmetry_space_group_name_H-M   'P 1'
_cell_length_a   8.86991700
_cell_length_b   8.86991736
_cell_length_c   8.71515400
_cell_angle_alpha   90.00000000
_cell_angle_beta   90.00000000
_cell_angle_gamma   120.00000985
_symmetry_Int_Tables_number   1
_chemical_formula_structural   Yb3Lu(Zn14Cu3)2
_chemical_formula_sum   'Yb3 Lu1 Zn28 Cu6'
_cell_volume   593.80627647
_cell_formula_units_Z   1
loop_
 _symmetry_equiv_pos_site_id
 _symmetry_equiv_pos_as_xyz
  1  'x, y, z'
loop_
 _atom_site_type_symbol
 _atom_site_label
 _atom_site_symmetry_multiplicity
 _atom_site_fract_x
 _atom_site_fract_y
 _atom_site_fract_z
 _atom_site_occupancy
  Yb  Yb0  1  0.000000  0.000000  0.250000  1
  Yb  Yb1  1  0.000000  0.000000  0.750000  1
  Yb  Yb2  1  0.333333  0.666667  0.750000  1
  Lu  Lu3  1  0.666667  0.333333  0.250000  1
  Zn  Zn4  1  0.333333  0.666667  0.403517  1
  Zn  Zn5  1  0.666667  0.333333  0.595361  1
  Zn  Zn6  1  0.666667  0.333333  0.904639  1
  Zn  Zn7  1  0.333333  0.666667  0.096483  1
  Zn  Zn8  1  0.333763  0.368475  0.250000  1
  Zn  Zn9  1  0.631525  0.965288  0.250000  1
  Zn  Zn10  1  0.034712  0.666237  0.250000  1
  Zn  Zn11  1  0.631525  0.666237  0.250000  1
  Zn  Zn12  1  0.034712  0.368475  0.250000  1
  Zn  Zn13  1  0.333763  0.965288  0.250000  1
  Zn  Zn14  1  0.666370  0.631858  0.750000  1
  Zn  Zn15  1  0.368142  0.034512  0.750000  1
  Zn  Zn16  1  0.965488  0.333630  0.750000  1
  Zn  Zn17  1  0.368142  0.333630  0.750000  1
  Zn  Zn18  1  0.965488  0.631858  0.750000  1
  Zn  Zn19  1  0.666370  0.034512  0.750000  1
  Zn  Zn20  1  0.167035  0.832965  0.521819  1
  Zn  Zn21  1  0.167035  0.334069  0.521819  1
  Zn  Zn22  1  0.665931  0.832965  0.521819  1
  Zn  Zn23  1  0.832307  0.167693  0.479102  1
  Zn  Zn24  1  0.832307  0.664613  0.479102  1
  Zn  Zn25  1  0.335387  0.167693  0.479102  1
  Zn  Zn26  1  0.832307  0.167693  0.020898  1
  Zn  Zn27  1  0.832307  0.664613  0.020898  1
  Zn  Zn28  1  0.335387  0.167693  0.020898  1
  Zn  Zn29  1  0.167035  0.832965  0.978181  1
  Zn  Zn30  1  0.167035  0.334069  0.978181  1
  Zn  Zn31  1  0.665931  0.832965  0.978181  1
  Cu  Cu32  1  0.500331  0.499669  0.499551  1
  Cu  Cu33  1  0.500331  0.000662  0.499551  1
  Cu  Cu34  1  0.999338  0.499669  0.499551  1
  Cu  Cu35  1  0.500331  0.499669  0.000449  1
  Cu  Cu36  1  0.500331  0.000662  0.000449  1
  Cu  Cu37  1  0.999338  0.499669  0.000449  1
