# generated using pymatgen
data_Tb7(ErPb2)3
_symmetry_space_group_name_H-M   'P 1'
_cell_length_a   9.06792900
_cell_length_b   9.06792936
_cell_length_c   6.64826300
_cell_angle_alpha   90.00000000
_cell_angle_beta   90.00000000
_cell_angle_gamma   120.00000234
_symmetry_Int_Tables_number   1
_chemical_formula_structural   Tb7(ErPb2)3
_chemical_formula_sum   'Tb7 Er3 Pb6'
_cell_volume   473.42921256
_cell_formula_units_Z   1
loop_
 _symmetry_equiv_pos_site_id
 _symmetry_equiv_pos_as_xyz
  1  'x, y, z'
loop_
 _atom_site_type_symbol
 _atom_site_label
 _atom_site_symmetry_multiplicity
 _atom_site_fract_x
 _atom_site_fract_y
 _atom_site_fract_z
 _atom_site_occupancy
  Tb  Tb0  1  0.333333  0.666667  0.000000  1
  Tb  Tb1  1  0.237866  0.000097  0.250178  1
  Tb  Tb2  1  0.237866  0.237769  0.749822  1
  Tb  Tb3  1  0.999903  0.762134  0.749822  1
  Tb  Tb4  1  0.999903  0.237769  0.250178  1
  Tb  Tb5  1  0.762231  0.762134  0.250178  1
  Tb  Tb6  1  0.762231  0.000097  0.749822  1
  Er  Er7  1  0.666667  0.333333  0.500000  1
  Er  Er8  1  0.666667  0.333333  0.000000  1
  Er  Er9  1  0.333333  0.666667  0.500000  1
  Pb  Pb10  1  0.604866  0.000624  0.250561  1
  Pb  Pb11  1  0.604866  0.604241  0.749439  1
  Pb  Pb12  1  0.999376  0.395134  0.749439  1
  Pb  Pb13  1  0.999376  0.604241  0.250561  1
  Pb  Pb14  1  0.395759  0.395134  0.250561  1
  Pb  Pb15  1  0.395759  0.000624  0.749439  1
