# generated using pymatgen
data_Nd2Dy(Ni3As2)3
_symmetry_space_group_name_H-M   'P 1'
_cell_length_a   3.96193900
_cell_length_b   10.89854800
_cell_length_c   12.83209600
_cell_angle_alpha   90.00000000
_cell_angle_beta   90.00000000
_cell_angle_gamma   90.00000000
_symmetry_Int_Tables_number   1
_chemical_formula_structural   Nd2Dy(Ni3As2)3
_chemical_formula_sum   'Nd4 Dy2 Ni18 As12'
_cell_volume   554.08197972
_cell_formula_units_Z   2
loop_
 _symmetry_equiv_pos_site_id
 _symmetry_equiv_pos_as_xyz
  1  'x, y, z'
loop_
 _atom_site_type_symbol
 _atom_site_label
 _atom_site_symmetry_multiplicity
 _atom_site_fract_x
 _atom_site_fract_y
 _atom_site_fract_z
 _atom_site_occupancy
  Nd  Nd0  1  0.000000  0.500000  0.519848  1
  Nd  Nd1  1  0.500000  0.000000  0.478217  1
  Nd  Nd2  1  0.000000  0.686856  0.794101  1
  Nd  Nd3  1  0.000000  0.313144  0.794101  1
  Dy  Dy4  1  0.500000  0.814904  0.206160  1
  Dy  Dy5  1  0.500000  0.185096  0.206160  1
  Ni  Ni6  1  0.500000  0.500000  0.152700  1
  Ni  Ni7  1  0.000000  0.000000  0.847867  1
  Ni  Ni8  1  0.500000  0.500000  0.698283  1
  Ni  Ni9  1  0.000000  0.000000  0.300897  1
  Ni  Ni10  1  0.000000  0.500000  0.982462  1
  Ni  Ni11  1  0.500000  0.000000  0.022729  1
  Ni  Ni12  1  0.500000  0.332394  0.998603  1
  Ni  Ni13  1  0.500000  0.667606  0.998603  1
  Ni  Ni14  1  0.000000  0.165087  0.005077  1
  Ni  Ni15  1  0.000000  0.834913  0.005077  1
  Ni  Ni16  1  0.500000  0.303108  0.421237  1
  Ni  Ni17  1  0.500000  0.696892  0.421237  1
  Ni  Ni18  1  0.000000  0.196194  0.575203  1
  Ni  Ni19  1  0.000000  0.803806  0.575203  1
  Ni  Ni20  1  0.500000  0.881497  0.709471  1
  Ni  Ni21  1  0.500000  0.118503  0.709471  1
  Ni  Ni22  1  0.000000  0.620166  0.289139  1
  Ni  Ni23  1  0.000000  0.379834  0.289139  1
  As  As24  1  0.500000  0.500000  0.877742  1
  As  As25  1  0.000000  0.000000  0.125886  1
  As  As26  1  0.500000  0.500000  0.338280  1
  As  As27  1  0.000000  0.000000  0.660688  1
  As  As28  1  0.500000  0.311192  0.610401  1
  As  As29  1  0.500000  0.688808  0.610401  1
  As  As30  1  0.000000  0.188080  0.385718  1
  As  As31  1  0.000000  0.811920  0.385718  1
  As  As32  1  0.500000  0.850958  0.894543  1
  As  As33  1  0.500000  0.149042  0.894543  1
  As  As34  1  0.000000  0.653221  0.107548  1
  As  As35  1  0.000000  0.346779  0.107548  1
