# generated using pymatgen
data_Ho4Ta2Ir5Os
_symmetry_space_group_name_H-M   'P 1'
_cell_length_a   5.62918408
_cell_length_b   5.62751939
_cell_length_c   8.26203900
_cell_angle_alpha   90.00000000
_cell_angle_beta   90.00000000
_cell_angle_gamma   119.99023395
_symmetry_Int_Tables_number   1
_chemical_formula_structural   Ho4Ta2Ir5Os
_chemical_formula_sum   'Ho4 Ta2 Ir5 Os1'
_cell_volume   226.68514109
_cell_formula_units_Z   1
loop_
 _symmetry_equiv_pos_site_id
 _symmetry_equiv_pos_as_xyz
  1  'x, y, z'
loop_
 _atom_site_type_symbol
 _atom_site_label
 _atom_site_symmetry_multiplicity
 _atom_site_fract_x
 _atom_site_fract_y
 _atom_site_fract_z
 _atom_site_occupancy
  Ho  Ho0  1  0.334862  0.667431  0.437084  1
  Ho  Ho1  1  0.666860  0.333430  0.562617  1
  Ho  Ho2  1  0.666860  0.333430  0.937383  1
  Ho  Ho3  1  0.334862  0.667431  0.062916  1
  Ta  Ta4  1  0.996932  0.998466  0.501708  1
  Ta  Ta5  1  0.996932  0.998466  0.998292  1
  Ir  Ir6  1  0.828421  0.172930  0.250000  1
  Ir  Ir7  1  0.828421  0.655491  0.250000  1
  Ir  Ir8  1  0.345349  0.172675  0.250000  1
  Ir  Ir9  1  0.173756  0.827950  0.750000  1
  Ir  Ir10  1  0.173756  0.345806  0.750000  1
  Os  Os11  1  0.652989  0.826495  0.750000  1
