# generated using pymatgen
data_Na2Lu3Si12Ir19
_symmetry_space_group_name_H-M   'P 1'
_cell_length_a   12.75933791
_cell_length_b   12.76768117
_cell_length_c   3.99047300
_cell_angle_alpha   90.00000000
_cell_angle_beta   90.00000000
_cell_angle_gamma   120.02163288
_symmetry_Int_Tables_number   1
_chemical_formula_structural   Na2Lu3Si12Ir19
_chemical_formula_sum   'Na2 Lu3 Si12 Ir19'
_cell_volume   562.86010144
_cell_formula_units_Z   1
loop_
 _symmetry_equiv_pos_site_id
 _symmetry_equiv_pos_as_xyz
  1  'x, y, z'
loop_
 _atom_site_type_symbol
 _atom_site_label
 _atom_site_symmetry_multiplicity
 _atom_site_fract_x
 _atom_site_fract_y
 _atom_site_fract_z
 _atom_site_occupancy
  Na  Na0  1  0.183555  0.183579  0.500000  1
  Na  Na1  1  0.816445  0.000024  0.500000  1
  Lu  Lu2  1  0.000000  0.821538  0.500000  1
  Lu  Lu3  1  0.332730  0.666049  0.000000  1
  Lu  Lu4  1  0.667270  0.333318  0.000000  1
  Si  Si5  1  0.000000  0.182385  0.000000  1
  Si  Si6  1  0.818385  0.818904  0.000000  1
  Si  Si7  1  0.181615  0.000519  0.000000  1
  Si  Si8  1  0.520903  0.689351  0.500000  1
  Si  Si9  1  0.312356  0.831819  0.500000  1
  Si  Si10  1  0.168692  0.479046  0.500000  1
  Si  Si11  1  0.479097  0.168447  0.500000  1
  Si  Si12  1  0.687644  0.519462  0.500000  1
  Si  Si13  1  0.831308  0.310354  0.500000  1
  Si  Si14  1  0.000000  0.633497  0.000000  1
  Si  Si15  1  0.367209  0.367008  0.000000  1
  Si  Si16  1  0.632791  0.999799  0.000000  1
  Ir  Ir17  1  0.000000  0.282034  0.500000  1
  Ir  Ir18  1  0.718799  0.717009  0.500000  1
  Ir  Ir19  1  0.281201  0.998210  0.500000  1
  Ir  Ir20  1  0.621140  0.805097  0.000000  1
  Ir  Ir21  1  0.192308  0.816107  0.000000  1
  Ir  Ir22  1  0.184892  0.380415  0.000000  1
  Ir  Ir23  1  0.378860  0.183957  0.000000  1
  Ir  Ir24  1  0.807692  0.623799  0.000000  1
  Ir  Ir25  1  0.815108  0.195523  0.000000  1
  Ir  Ir26  1  0.511277  0.872806  0.500000  1
  Ir  Ir27  1  0.127728  0.638262  0.500000  1
  Ir  Ir28  1  0.363361  0.489643  0.500000  1
  Ir  Ir29  1  0.488723  0.361530  0.500000  1
  Ir  Ir30  1  0.872272  0.510535  0.500000  1
  Ir  Ir31  1  0.636639  0.126283  0.500000  1
  Ir  Ir32  1  0.000000  0.996984  0.000000  1
  Ir  Ir33  1  0.000000  0.448834  0.000000  1
  Ir  Ir34  1  0.554015  0.550944  0.000000  1
  Ir  Ir35  1  0.445985  0.996928  0.000000  1
