# generated using pymatgen
data_Ho3MgCd2Sn2Au
_symmetry_space_group_name_H-M   'P 1'
_cell_length_a   7.42689100
_cell_length_b   7.48302651
_cell_length_c   4.52250400
_cell_angle_alpha   90.00000000
_cell_angle_beta   90.00000000
_cell_angle_gamma   119.75214084
_symmetry_Int_Tables_number   1
_chemical_formula_structural   Ho3MgCd2Sn2Au
_chemical_formula_sum   'Ho3 Mg1 Cd2 Sn2 Au1'
_cell_volume   218.20927538
_cell_formula_units_Z   1
loop_
 _symmetry_equiv_pos_site_id
 _symmetry_equiv_pos_as_xyz
  1  'x, y, z'
loop_
 _atom_site_type_symbol
 _atom_site_label
 _atom_site_symmetry_multiplicity
 _atom_site_fract_x
 _atom_site_fract_y
 _atom_site_fract_z
 _atom_site_occupancy
  Ho  Ho0  1  0.594895  0.000000  0.000000  1
  Ho  Ho1  1  0.998530  0.590265  0.000000  1
  Ho  Ho2  1  0.408265  0.409735  0.000000  1
  Mg  Mg3  1  0.229382  0.000000  0.500000  1
  Cd  Cd4  1  0.001693  0.241713  0.500000  1
  Cd  Cd5  1  0.759980  0.758287  0.500000  1
  Sn  Sn6  1  0.333034  0.671671  0.500000  1
  Sn  Sn7  1  0.661364  0.328329  0.500000  1
  Au  Au8  1  0.012857  0.000000  0.000000  1
