# generated using pymatgen
data_Tb5Y11Cd2(Ni2Ag)2
_symmetry_space_group_name_H-M   'P 1'
_cell_length_a   9.52319331
_cell_length_b   9.53198663
_cell_length_c   9.52257759
_cell_angle_alpha   60.04420861
_cell_angle_beta   60.06744656
_cell_angle_gamma   60.05945507
_symmetry_Int_Tables_number   1
_chemical_formula_structural   Tb5Y11Cd2(Ni2Ag)2
_chemical_formula_sum   'Tb5 Y11 Cd2 Ni4 Ag2'
_cell_volume   612.02133213
_cell_formula_units_Z   1
loop_
 _symmetry_equiv_pos_site_id
 _symmetry_equiv_pos_as_xyz
  1  'x, y, z'
loop_
 _atom_site_type_symbol
 _atom_site_label
 _atom_site_symmetry_multiplicity
 _atom_site_fract_x
 _atom_site_fract_y
 _atom_site_fract_z
 _atom_site_occupancy
  Tb  Tb0  1  0.598658  0.599079  0.598381  1
  Tb  Tb1  1  0.598920  0.599015  0.203763  1
  Tb  Tb2  1  0.601043  0.199416  0.599689  1
  Tb  Tb3  1  0.199548  0.601033  0.599843  1
  Tb  Tb4  1  0.061646  0.439038  0.439342  1
  Y  Y5  1  0.439132  0.061224  0.059889  1
  Y  Y6  1  0.439196  0.061013  0.439833  1
  Y  Y7  1  0.061360  0.439143  0.059644  1
  Y  Y8  1  0.440108  0.439952  0.059755  1
  Y  Y9  1  0.061278  0.060985  0.438856  1
  Y  Y10  1  0.183441  0.813566  0.814515  1
  Y  Y11  1  0.813816  0.183268  0.188307  1
  Y  Y12  1  0.813606  0.183586  0.814318  1
  Y  Y13  1  0.183558  0.813343  0.188559  1
  Y  Y14  1  0.813177  0.813032  0.186949  1
  Y  Y15  1  0.186095  0.186029  0.813771  1
  Cd  Cd16  1  0.831310  0.509234  0.830006  1
  Cd  Cd17  1  0.509265  0.831480  0.829578  1
  Ni  Ni18  1  0.392321  0.393574  0.394034  1
  Ni  Ni19  1  0.393318  0.393169  0.819718  1
  Ni  Ni20  1  0.392305  0.820805  0.393354  1
  Ni  Ni21  1  0.820862  0.392654  0.394028  1
  Ag  Ag22  1  0.833054  0.833109  0.831500  1
  Ag  Ag23  1  0.832981  0.833253  0.502371  1
