# generated using pymatgen
data_Nb4V4GaGe2P
_symmetry_space_group_name_H-M   'P 1'
_cell_length_a   3.42840400
_cell_length_b   6.65608651
_cell_length_c   8.01793252
_cell_angle_alpha   89.50458274
_cell_angle_beta   90.00000000
_cell_angle_gamma   90.00000000
_symmetry_Int_Tables_number   1
_chemical_formula_structural   Nb4V4GaGe2P
_chemical_formula_sum   'Nb4 V4 Ga1 Ge2 P1'
_cell_volume   182.96040493
_cell_formula_units_Z   1
loop_
 _symmetry_equiv_pos_site_id
 _symmetry_equiv_pos_as_xyz
  1  'x, y, z'
loop_
 _atom_site_type_symbol
 _atom_site_label
 _atom_site_symmetry_multiplicity
 _atom_site_fract_x
 _atom_site_fract_y
 _atom_site_fract_z
 _atom_site_occupancy
  Nb  Nb0  1  0.250000  0.029396  0.833121  1
  Nb  Nb1  1  0.250000  0.556098  0.676177  1
  Nb  Nb2  1  0.750000  0.953479  0.159959  1
  Nb  Nb3  1  0.750000  0.446546  0.334264  1
  V  V4  1  0.250000  0.129422  0.439965  1
  V  V5  1  0.250000  0.634297  0.052325  1
  V  V6  1  0.750000  0.870168  0.567817  1
  V  V7  1  0.750000  0.381921  0.936881  1
  Ga  Ga8  1  0.250000  0.750352  0.359987  1
  Ge  Ge9  1  0.250000  0.254336  0.135508  1
  Ge  Ge10  1  0.750000  0.248498  0.640996  1
  P  P11  1  0.750000  0.745487  0.863000  1
