# generated using pymatgen
data_La4Tb8CoTc3
_symmetry_space_group_name_H-M   'P 1'
_cell_length_a   6.48719352
_cell_length_b   7.30760834
_cell_length_c   9.49397600
_cell_angle_alpha   90.00000000
_cell_angle_beta   90.00000000
_cell_angle_gamma   89.78001871
_symmetry_Int_Tables_number   1
_chemical_formula_structural   La4Tb8CoTc3
_chemical_formula_sum   'La4 Tb8 Co1 Tc3'
_cell_volume   450.06686990
_cell_formula_units_Z   1
loop_
 _symmetry_equiv_pos_site_id
 _symmetry_equiv_pos_as_xyz
  1  'x, y, z'
loop_
 _atom_site_type_symbol
 _atom_site_label
 _atom_site_symmetry_multiplicity
 _atom_site_fract_x
 _atom_site_fract_y
 _atom_site_fract_z
 _atom_site_occupancy
  La  La0  1  0.869086  0.554748  0.250000  1
  La  La1  1  0.629750  0.053980  0.250000  1
  La  La2  1  0.139982  0.443291  0.750000  1
  La  La3  1  0.373397  0.935257  0.750000  1
  Tb  Tb4  1  0.329149  0.675129  0.068400  1
  Tb  Tb5  1  0.164846  0.175300  0.435181  1
  Tb  Tb6  1  0.665420  0.330890  0.568199  1
  Tb  Tb7  1  0.831963  0.825704  0.932898  1
  Tb  Tb8  1  0.665420  0.330890  0.931801  1
  Tb  Tb9  1  0.831963  0.825704  0.567102  1
  Tb  Tb10  1  0.329149  0.675129  0.431600  1
  Tb  Tb11  1  0.164846  0.175300  0.064819  1
  Co  Co12  1  0.543158  0.623661  0.750000  1
  Tc  Tc13  1  0.023302  0.875746  0.250000  1
  Tc  Tc14  1  0.465857  0.376918  0.250000  1
  Tc  Tc15  1  0.972713  0.122350  0.750000  1
