# generated using pymatgen
data_Dy4ZnSi4Rh9
_symmetry_space_group_name_H-M   'P 1'
_cell_length_a   11.73747223
_cell_length_b   11.73747172
_cell_length_c   11.73747256
_cell_angle_alpha   27.45141279
_cell_angle_beta   27.45141658
_cell_angle_gamma   27.45141737
_symmetry_Int_Tables_number   1
_chemical_formula_structural   Dy4ZnSi4Rh9
_chemical_formula_sum   'Dy4 Zn1 Si4 Rh9'
_cell_volume   303.29855797
_cell_formula_units_Z   1
loop_
 _symmetry_equiv_pos_site_id
 _symmetry_equiv_pos_as_xyz
  1  'x, y, z'
loop_
 _atom_site_type_symbol
 _atom_site_label
 _atom_site_symmetry_multiplicity
 _atom_site_fract_x
 _atom_site_fract_y
 _atom_site_fract_z
 _atom_site_occupancy
  Dy  Dy0  1  0.948453  0.948453  0.948453  1
  Dy  Dy1  1  0.850777  0.850777  0.850777  1
  Dy  Dy2  1  0.149223  0.149223  0.149223  1
  Dy  Dy3  1  0.051547  0.051547  0.051547  1
  Zn  Zn4  1  0.500000  0.500000  0.500000  1
  Si  Si5  1  0.278946  0.278946  0.278946  1
  Si  Si6  1  0.387788  0.387788  0.387788  1
  Si  Si7  1  0.721054  0.721054  0.721054  1
  Si  Si8  1  0.612212  0.612212  0.612212  1
  Rh  Rh9  1  0.606887  0.606887  0.104753  1
  Rh  Rh10  1  0.895247  0.393113  0.393113  1
  Rh  Rh11  1  0.500000  0.000000  0.500000  1
  Rh  Rh12  1  0.393113  0.895247  0.393113  1
  Rh  Rh13  1  0.500000  0.500000  0.000000  1
  Rh  Rh14  1  0.104753  0.606887  0.606887  1
  Rh  Rh15  1  0.000000  0.500000  0.500000  1
  Rh  Rh16  1  0.393113  0.393113  0.895247  1
  Rh  Rh17  1  0.606887  0.104753  0.606887  1
