# generated using pymatgen
data_Yb6Th2GaPd24
_symmetry_space_group_name_H-M   'P 1'
_cell_length_a   8.33971300
_cell_length_b   8.37438918
_cell_length_c   8.37438918
_cell_angle_alpha   90.02372731
_cell_angle_beta   90.00000000
_cell_angle_gamma   90.00000000
_symmetry_Int_Tables_number   1
_chemical_formula_structural   Yb6Th2GaPd24
_chemical_formula_sum   'Yb6 Th2 Ga1 Pd24'
_cell_volume   584.86730947
_cell_formula_units_Z   1
loop_
 _symmetry_equiv_pos_site_id
 _symmetry_equiv_pos_as_xyz
  1  'x, y, z'
loop_
 _atom_site_type_symbol
 _atom_site_label
 _atom_site_symmetry_multiplicity
 _atom_site_fract_x
 _atom_site_fract_y
 _atom_site_fract_z
 _atom_site_occupancy
  Yb  Yb0  1  0.749315  0.250995  0.250995  1
  Yb  Yb1  1  0.749315  0.749005  0.749005  1
  Yb  Yb2  1  0.748754  0.748616  0.251384  1
  Yb  Yb3  1  0.748754  0.251384  0.748616  1
  Yb  Yb4  1  0.251232  0.748668  0.748668  1
  Yb  Yb5  1  0.251232  0.251332  0.251332  1
  Th  Th6  1  0.254598  0.253737  0.746263  1
  Th  Th7  1  0.254598  0.746263  0.253737  1
  Ga  Ga8  1  0.997092  0.000000  0.000000  1
  Pd  Pd9  1  0.500999  0.500763  0.746414  1
  Pd  Pd10  1  0.500999  0.253586  0.499237  1
  Pd  Pd11  1  0.253652  0.500000  0.500000  1
  Pd  Pd12  1  0.500999  0.499237  0.253586  1
  Pd  Pd13  1  0.500999  0.746414  0.500763  1
  Pd  Pd14  1  0.747012  0.500000  0.500000  1
  Pd  Pd15  1  0.998086  0.998296  0.707224  1
  Pd  Pd16  1  0.998086  0.292776  0.001704  1
  Pd  Pd17  1  0.292570  0.000000  0.000000  1
  Pd  Pd18  1  0.998086  0.001704  0.292776  1
  Pd  Pd19  1  0.998086  0.707224  0.998296  1
  Pd  Pd20  1  0.705689  0.000000  0.000000  1
  Pd  Pd21  1  0.999888  0.499497  0.739324  1
  Pd  Pd22  1  0.500598  0.260762  0.000962  1
  Pd  Pd23  1  0.260524  0.000000  0.500000  1
  Pd  Pd24  1  0.999888  0.260676  0.500503  1
  Pd  Pd25  1  0.500598  0.999038  0.739238  1
  Pd  Pd26  1  0.260524  0.500000  0.000000  1
  Pd  Pd27  1  0.999888  0.500503  0.260676  1
  Pd  Pd28  1  0.500598  0.739238  0.999038  1
  Pd  Pd29  1  0.999888  0.739324  0.499497  1
  Pd  Pd30  1  0.500598  0.000962  0.260762  1
  Pd  Pd31  1  0.738428  0.000000  0.500000  1
  Pd  Pd32  1  0.738428  0.500000  0.000000  1
