# generated using pymatgen
data_Gd2HoSe3
_symmetry_space_group_name_H-M   'P 1'
_cell_length_a   7.12043931
_cell_length_b   7.12043977
_cell_length_c   7.12044000
_cell_angle_alpha   146.20771242
_cell_angle_beta   131.59116295
_cell_angle_gamma   60.33880440
_symmetry_Int_Tables_number   1
_chemical_formula_structural   Gd2HoSe3
_chemical_formula_sum   'Gd2 Ho1 Se3'
_cell_volume   148.76340542
_cell_formula_units_Z   1
loop_
 _symmetry_equiv_pos_site_id
 _symmetry_equiv_pos_as_xyz
  1  'x, y, z'
loop_
 _atom_site_type_symbol
 _atom_site_label
 _atom_site_symmetry_multiplicity
 _atom_site_fract_x
 _atom_site_fract_y
 _atom_site_fract_z
 _atom_site_occupancy
  Gd  Gd0  1  0.667904  0.667904  0.000000  1
  Gd  Gd1  1  0.332096  0.332096  0.000000  1
  Ho  Ho2  1  0.000000  0.000000  0.000000  1
  Se  Se3  1  0.836738  0.336738  0.500000  1
  Se  Se4  1  0.500000  0.000000  0.500000  1
  Se  Se5  1  0.163262  0.663262  0.500000  1
