# generated using pymatgen
data_Dy5Ho3(LuGa5)4
_symmetry_space_group_name_H-M   'P 1'
_cell_length_a   6.04970904
_cell_length_b   9.58214001
_cell_length_c   11.52126706
_cell_angle_alpha   90.00110183
_cell_angle_beta   90.01144930
_cell_angle_gamma   90.00563508
_symmetry_Int_Tables_number   1
_chemical_formula_structural   Dy5Ho3(LuGa5)4
_chemical_formula_sum   'Dy5 Ho3 Lu4 Ga20'
_cell_volume   667.87814562
_cell_formula_units_Z   1
loop_
 _symmetry_equiv_pos_site_id
 _symmetry_equiv_pos_as_xyz
  1  'x, y, z'
loop_
 _atom_site_type_symbol
 _atom_site_label
 _atom_site_symmetry_multiplicity
 _atom_site_fract_x
 _atom_site_fract_y
 _atom_site_fract_z
 _atom_site_occupancy
  Dy  Dy0  1  0.390769  0.493555  0.148936  1
  Dy  Dy1  1  0.109218  0.493531  0.648778  1
  Dy  Dy2  1  0.390762  0.006463  0.148774  1
  Dy  Dy3  1  0.890763  0.993516  0.351249  1
  Dy  Dy4  1  0.609264  0.506480  0.851107  1
  Ho  Ho5  1  0.890808  0.506441  0.351126  1
  Ho  Ho6  1  0.609193  0.993580  0.851003  1
  Ho  Ho7  1  0.109160  0.006463  0.648966  1
  Lu  Lu8  1  0.849629  0.750034  0.074224  1
  Lu  Lu9  1  0.650490  0.749975  0.574288  1
  Lu  Lu10  1  0.150457  0.249977  0.925695  1
  Lu  Lu11  1  0.349485  0.249958  0.425781  1
  Ga  Ga12  1  0.876280  0.053030  0.089436  1
  Ga  Ga13  1  0.623719  0.446930  0.589432  1
  Ga  Ga14  1  0.123697  0.553084  0.910494  1
  Ga  Ga15  1  0.376251  0.946939  0.410561  1
  Ga  Ga16  1  0.123878  0.947061  0.910288  1
  Ga  Ga17  1  0.376105  0.553013  0.410449  1
  Ga  Ga18  1  0.876286  0.446985  0.089659  1
  Ga  Ga19  1  0.623877  0.052961  0.589716  1
  Ga  Ga20  1  0.166866  0.749876  0.254123  1
  Ga  Ga21  1  0.332992  0.750286  0.753986  1
  Ga  Ga22  1  0.832995  0.249711  0.745983  1
  Ga  Ga23  1  0.667131  0.250138  0.246049  1
  Ga  Ga24  1  0.379277  0.750079  0.001326  1
  Ga  Ga25  1  0.120712  0.750124  0.501532  1
  Ga  Ga26  1  0.620804  0.249830  0.998467  1
  Ga  Ga27  1  0.879316  0.250109  0.498489  1
  Ga  Ga28  1  0.604804  0.749807  0.298583  1
  Ga  Ga29  1  0.895239  0.750246  0.798534  1
  Ga  Ga30  1  0.395229  0.249764  0.701462  1
  Ga  Ga31  1  0.104542  0.250054  0.201505  1
