# generated using pymatgen
data_KLiCoF6
_symmetry_space_group_name_H-M   'P 1'
_cell_length_a   10.01545300
_cell_length_b   5.66735246
_cell_length_c   8.59022385
_cell_angle_alpha   89.83501112
_cell_angle_beta   90.00000000
_cell_angle_gamma   90.00000000
_symmetry_Int_Tables_number   1
_chemical_formula_structural   KLiCoF6
_chemical_formula_sum   'K4 Li4 Co4 F24'
_cell_volume   487.58855202
_cell_formula_units_Z   4
loop_
 _symmetry_equiv_pos_site_id
 _symmetry_equiv_pos_as_xyz
  1  'x, y, z'
loop_
 _atom_site_type_symbol
 _atom_site_label
 _atom_site_symmetry_multiplicity
 _atom_site_fract_x
 _atom_site_fract_y
 _atom_site_fract_z
 _atom_site_occupancy
  K  K0  1  0.797563  0.313691  0.003100  1
  K  K1  1  0.702437  0.313691  0.503100  1
  K  K2  1  0.202437  0.686309  0.996900  1
  K  K3  1  0.297563  0.686309  0.496900  1
  Li  Li4  1  0.431734  0.225415  0.816496  1
  Li  Li5  1  0.931734  0.774585  0.683504  1
  Li  Li6  1  0.568266  0.774585  0.183504  1
  Li  Li7  1  0.068266  0.225415  0.316496  1
  Co  Co8  1  0.583489  0.773659  0.765258  1
  Co  Co9  1  0.916511  0.773659  0.265258  1
  Co  Co10  1  0.416511  0.226341  0.234742  1
  Co  Co11  1  0.083489  0.226341  0.734742  1
  F  F12  1  0.017398  0.514283  0.792462  1
  F  F13  1  0.864217  0.069091  0.315673  1
  F  F14  1  0.364217  0.930909  0.184327  1
  F  F15  1  0.135783  0.930909  0.684327  1
  F  F16  1  0.635783  0.069091  0.815673  1
  F  F17  1  0.586431  0.112753  0.220187  1
  F  F18  1  0.086431  0.887247  0.279813  1
  F  F19  1  0.413569  0.887247  0.779813  1
  F  F20  1  0.517398  0.485717  0.707538  1
  F  F21  1  0.247398  0.345337  0.249289  1
  F  F22  1  0.482602  0.514283  0.292462  1
  F  F23  1  0.982602  0.485717  0.207538  1
  F  F24  1  0.752602  0.654663  0.750711  1
  F  F25  1  0.252602  0.345337  0.749289  1
  F  F26  1  0.592848  0.852665  0.564769  1
  F  F27  1  0.747398  0.654663  0.250711  1
  F  F28  1  0.917802  0.688661  0.467946  1
  F  F29  1  0.092848  0.147335  0.935231  1
  F  F30  1  0.407152  0.147335  0.435231  1
  F  F31  1  0.907152  0.852665  0.064769  1
  F  F32  1  0.582198  0.688661  0.967946  1
  F  F33  1  0.082198  0.311339  0.532054  1
  F  F34  1  0.417802  0.311339  0.032054  1
  F  F35  1  0.913569  0.112753  0.720187  1
