# generated using pymatgen
data_SmTh3(InPt2)2
_symmetry_space_group_name_H-M   'P 1'
_cell_length_a   7.98727975
_cell_length_b   7.98727991
_cell_length_c   3.77732400
_cell_angle_alpha   90.00000000
_cell_angle_beta   90.00000000
_cell_angle_gamma   89.24987999
_symmetry_Int_Tables_number   1
_chemical_formula_structural   SmTh3(InPt2)2
_chemical_formula_sum   'Sm1 Th3 In2 Pt4'
_cell_volume   240.95992393
_cell_formula_units_Z   1
loop_
 _symmetry_equiv_pos_site_id
 _symmetry_equiv_pos_as_xyz
  1  'x, y, z'
loop_
 _atom_site_type_symbol
 _atom_site_label
 _atom_site_symmetry_multiplicity
 _atom_site_fract_x
 _atom_site_fract_y
 _atom_site_fract_z
 _atom_site_occupancy
  Sm  Sm0  1  0.173665  0.673665  0.500000  1
  Th  Th1  1  0.670574  0.826047  0.500000  1
  Th  Th2  1  0.830312  0.330312  0.500000  1
  Th  Th3  1  0.326047  0.170574  0.500000  1
  In  In4  1  0.494778  0.501471  0.000000  1
  In  In5  1  0.001471  0.994778  0.000000  1
  Pt  Pt6  1  0.633372  0.133372  0.000000  1
  Pt  Pt7  1  0.865576  0.628611  0.000000  1
  Pt  Pt8  1  0.128611  0.365576  0.000000  1
  Pt  Pt9  1  0.375593  0.875593  0.000000  1
