# generated using pymatgen
data_Nd4Ga10AgPd5
_symmetry_space_group_name_H-M   'P 1'
_cell_length_a   8.74586535
_cell_length_b   8.74586624
_cell_length_c   5.82075200
_cell_angle_alpha   70.59747063
_cell_angle_beta   70.59746856
_cell_angle_gamma   95.03090047
_symmetry_Int_Tables_number   1
_chemical_formula_structural   Nd4Ga10AgPd5
_chemical_formula_sum   'Nd4 Ga10 Ag1 Pd5'
_cell_volume   386.15540050
_cell_formula_units_Z   1
loop_
 _symmetry_equiv_pos_site_id
 _symmetry_equiv_pos_as_xyz
  1  'x, y, z'
loop_
 _atom_site_type_symbol
 _atom_site_label
 _atom_site_symmetry_multiplicity
 _atom_site_fract_x
 _atom_site_fract_y
 _atom_site_fract_z
 _atom_site_occupancy
  Nd  Nd0  1  0.864202  0.588961  0.769862  1
  Nd  Nd1  1  0.411039  0.135798  0.730138  1
  Nd  Nd2  1  0.135650  0.411212  0.224308  1
  Nd  Nd3  1  0.588788  0.864350  0.275692  1
  Ga  Ga4  1  0.065943  0.270637  0.824737  1
  Ga  Ga5  1  0.729363  0.934057  0.675263  1
  Ga  Ga6  1  0.934044  0.729236  0.161474  1
  Ga  Ga7  1  0.270764  0.065956  0.338526  1
  Ga  Ga8  1  0.208705  0.791295  0.750000  1
  Ga  Ga9  1  0.787218  0.212782  0.250000  1
  Ga  Ga10  1  0.500450  0.499550  0.750000  1
  Ga  Ga11  1  0.499575  0.500425  0.250000  1
  Ga  Ga12  1  0.790859  0.209141  0.750000  1
  Ga  Ga13  1  0.213264  0.786736  0.250000  1
  Ag  Ag14  1  0.999935  0.000065  0.250000  1
  Pd  Pd15  1  0.264239  0.549123  0.598320  1
  Pd  Pd16  1  0.450877  0.735761  0.901680  1
  Pd  Pd17  1  0.735745  0.450928  0.408616  1
  Pd  Pd18  1  0.549072  0.264255  0.091384  1
  Pd  Pd19  1  0.000268  0.999732  0.750000  1
