# generated using pymatgen
data_Tm5Tl3Hg
_symmetry_space_group_name_H-M   'P 1'
_cell_length_a   9.11606500
_cell_length_b   9.11606623
_cell_length_c   6.73059900
_cell_angle_alpha   90.00000000
_cell_angle_beta   90.00000000
_cell_angle_gamma   119.99999918
_symmetry_Int_Tables_number   1
_chemical_formula_structural   Tm5Tl3Hg
_chemical_formula_sum   'Tm10 Tl6 Hg2'
_cell_volume   484.39453717
_cell_formula_units_Z   2
loop_
 _symmetry_equiv_pos_site_id
 _symmetry_equiv_pos_as_xyz
  1  'x, y, z'
loop_
 _atom_site_type_symbol
 _atom_site_label
 _atom_site_symmetry_multiplicity
 _atom_site_fract_x
 _atom_site_fract_y
 _atom_site_fract_z
 _atom_site_occupancy
  Tm  Tm0  1  0.333333  0.666667  0.500000  1
  Tm  Tm1  1  0.666667  0.333333  0.500000  1
  Tm  Tm2  1  0.666667  0.333333  0.000000  1
  Tm  Tm3  1  0.333333  0.666667  0.000000  1
  Tm  Tm4  1  0.283406  0.000000  0.750000  1
  Tm  Tm5  1  0.716594  0.000000  0.250000  1
  Tm  Tm6  1  0.000000  0.283406  0.750000  1
  Tm  Tm7  1  0.000000  0.716594  0.250000  1
  Tm  Tm8  1  0.716594  0.716594  0.750000  1
  Tm  Tm9  1  0.283406  0.283406  0.250000  1
  Tl  Tl10  1  0.623665  0.000000  0.750000  1
  Tl  Tl11  1  0.376335  0.000000  0.250000  1
  Tl  Tl12  1  0.000000  0.623665  0.750000  1
  Tl  Tl13  1  0.000000  0.376335  0.250000  1
  Tl  Tl14  1  0.376335  0.376335  0.750000  1
  Tl  Tl15  1  0.623665  0.623665  0.250000  1
  Hg  Hg16  1  0.000000  0.000000  0.500000  1
  Hg  Hg17  1  0.000000  0.000000  0.000000  1
