# generated using pymatgen
data_Y3Ho7Cd3Os
_symmetry_space_group_name_H-M   'P 1'
_cell_length_a   9.57113300
_cell_length_b   9.57113297
_cell_length_c   9.82900800
_cell_angle_alpha   90.00000000
_cell_angle_beta   90.00000000
_cell_angle_gamma   120.00000355
_symmetry_Int_Tables_number   1
_chemical_formula_structural   Y3Ho7Cd3Os
_chemical_formula_sum   'Y6 Ho14 Cd6 Os2'
_cell_volume   779.77086763
_cell_formula_units_Z   2
loop_
 _symmetry_equiv_pos_site_id
 _symmetry_equiv_pos_as_xyz
  1  'x, y, z'
loop_
 _atom_site_type_symbol
 _atom_site_label
 _atom_site_symmetry_multiplicity
 _atom_site_fract_x
 _atom_site_fract_y
 _atom_site_fract_z
 _atom_site_occupancy
  Y  Y0  1  0.540016  0.459984  0.250000  1
  Y  Y1  1  0.540016  0.080030  0.250000  1
  Y  Y2  1  0.919970  0.459984  0.250000  1
  Y  Y3  1  0.459984  0.540016  0.750000  1
  Y  Y4  1  0.459984  0.919970  0.750000  1
  Y  Y5  1  0.080030  0.540016  0.750000  1
  Ho  Ho6  1  0.000000  0.000000  0.500000  1
  Ho  Ho7  1  0.000000  0.000000  0.000000  1
  Ho  Ho8  1  0.209728  0.790272  0.440161  1
  Ho  Ho9  1  0.209728  0.419456  0.440161  1
  Ho  Ho10  1  0.580544  0.790272  0.440161  1
  Ho  Ho11  1  0.790272  0.209728  0.559839  1
  Ho  Ho12  1  0.790272  0.580544  0.559839  1
  Ho  Ho13  1  0.419456  0.209728  0.559839  1
  Ho  Ho14  1  0.790272  0.209728  0.940161  1
  Ho  Ho15  1  0.790272  0.580544  0.940161  1
  Ho  Ho16  1  0.419456  0.209728  0.940161  1
  Ho  Ho17  1  0.209728  0.790272  0.059839  1
  Ho  Ho18  1  0.209728  0.419456  0.059839  1
  Ho  Ho19  1  0.580544  0.790272  0.059839  1
  Cd  Cd20  1  0.885689  0.114311  0.250000  1
  Cd  Cd21  1  0.885689  0.771379  0.250000  1
  Cd  Cd22  1  0.228621  0.114311  0.250000  1
  Cd  Cd23  1  0.114311  0.885689  0.750000  1
  Cd  Cd24  1  0.114311  0.228621  0.750000  1
  Cd  Cd25  1  0.771379  0.885689  0.750000  1
  Os  Os26  1  0.333333  0.666667  0.250000  1
  Os  Os27  1  0.666667  0.333333  0.750000  1
