# generated using pymatgen
data_Th3(AgSn)4
_symmetry_space_group_name_H-M   'P 1'
_cell_length_a   4.76085471
_cell_length_b   7.35547087
_cell_length_c   8.92919367
_cell_angle_alpha   114.32283020
_cell_angle_beta   105.46141204
_cell_angle_gamma   90.00000107
_symmetry_Int_Tables_number   1
_chemical_formula_structural   Th3(AgSn)4
_chemical_formula_sum   'Th3 Ag4 Sn4'
_cell_volume   272.46495605
_cell_formula_units_Z   1
loop_
 _symmetry_equiv_pos_site_id
 _symmetry_equiv_pos_as_xyz
  1  'x, y, z'
loop_
 _atom_site_type_symbol
 _atom_site_label
 _atom_site_symmetry_multiplicity
 _atom_site_fract_x
 _atom_site_fract_y
 _atom_site_fract_z
 _atom_site_occupancy
  Th  Th0  1  0.873335  0.373335  0.746670  1
  Th  Th1  1  0.126665  0.626665  0.253330  1
  Th  Th2  1  0.000000  0.000000  0.000000  1
  Ag  Ag3  1  0.329495  0.024434  0.658988  1
  Ag  Ag4  1  0.670505  0.975566  0.341012  1
  Ag  Ag5  1  0.329495  0.634555  0.658988  1
  Ag  Ag6  1  0.670505  0.365445  0.341012  1
  Sn  Sn7  1  0.213685  0.213685  0.427368  1
  Sn  Sn8  1  0.786315  0.786315  0.572632  1
  Sn  Sn9  1  0.500000  0.302066  0.000000  1
  Sn  Sn10  1  0.500000  0.697934  0.000000  1
