# generated using pymatgen
data_Ta7V3Ga4(GeB)2
_symmetry_space_group_name_H-M   'P 1'
_cell_length_a   7.69616526
_cell_length_b   7.69547122
_cell_length_c   5.16624903
_cell_angle_alpha   90.00644099
_cell_angle_beta   90.00684944
_cell_angle_gamma   120.02099387
_symmetry_Int_Tables_number   1
_chemical_formula_structural   Ta7V3Ga4(GeB)2
_chemical_formula_sum   'Ta7 V3 Ga4 Ge2 B2'
_cell_volume   264.92542948
_cell_formula_units_Z   1
loop_
 _symmetry_equiv_pos_site_id
 _symmetry_equiv_pos_as_xyz
  1  'x, y, z'
loop_
 _atom_site_type_symbol
 _atom_site_label
 _atom_site_symmetry_multiplicity
 _atom_site_fract_x
 _atom_site_fract_y
 _atom_site_fract_z
 _atom_site_occupancy
  Ta  Ta0  1  0.666649  0.332715  0.000930  1
  Ta  Ta1  1  0.755934  0.753486  0.247709  1
  Ta  Ta2  1  0.246884  0.001718  0.248458  1
  Ta  Ta3  1  0.997544  0.244604  0.248508  1
  Ta  Ta4  1  0.244114  0.241874  0.751991  1
  Ta  Ta5  1  0.758709  0.003131  0.751350  1
  Ta  Ta6  1  0.999234  0.756506  0.751983  1
  V  V7  1  0.666573  0.331719  0.499183  1
  V  V8  1  0.331587  0.666804  0.499754  1
  V  V9  1  0.331856  0.666678  0.000979  1
  Ga  Ga10  1  0.402487  0.408882  0.257219  1
  Ga  Ga11  1  0.592553  0.992479  0.256041  1
  Ga  Ga12  1  0.004939  0.598721  0.256737  1
  Ga  Ga13  1  0.590589  0.596841  0.742826  1
  Ge  Ge14  1  0.404516  0.994052  0.743160  1
  Ge  Ge15  1  0.006100  0.410253  0.743274  1
  B  B16  1  0.999828  0.999656  0.497154  1
  B  B17  1  0.999904  0.999882  0.002746  1
