# generated using pymatgen
data_Y2Al9Pd2Rh
_symmetry_space_group_name_H-M   'P 1'
_cell_length_a   7.62471742
_cell_length_b   7.62471718
_cell_length_c   9.48087100
_cell_angle_alpha   90.00000000
_cell_angle_beta   90.00000000
_cell_angle_gamma   119.57339311
_symmetry_Int_Tables_number   1
_chemical_formula_structural   Y2Al9Pd2Rh
_chemical_formula_sum   'Y4 Al18 Pd4 Rh2'
_cell_volume   479.37710646
_cell_formula_units_Z   2
loop_
 _symmetry_equiv_pos_site_id
 _symmetry_equiv_pos_as_xyz
  1  'x, y, z'
loop_
 _atom_site_type_symbol
 _atom_site_label
 _atom_site_symmetry_multiplicity
 _atom_site_fract_x
 _atom_site_fract_y
 _atom_site_fract_z
 _atom_site_occupancy
  Y  Y0  1  0.993852  0.668243  0.250000  1
  Y  Y1  1  0.006148  0.331757  0.750000  1
  Y  Y2  1  0.668243  0.993852  0.250000  1
  Y  Y3  1  0.331757  0.006148  0.750000  1
  Al  Al4  1  0.126883  0.126883  0.250000  1
  Al  Al5  1  0.873117  0.873117  0.750000  1
  Al  Al6  1  0.999993  0.330827  0.075598  1
  Al  Al7  1  0.000007  0.669173  0.924402  1
  Al  Al8  1  0.000007  0.669173  0.575598  1
  Al  Al9  1  0.330827  0.999993  0.424402  1
  Al  Al10  1  0.999993  0.330827  0.424402  1
  Al  Al11  1  0.669173  0.000007  0.575598  1
  Al  Al12  1  0.669173  0.000007  0.924402  1
  Al  Al13  1  0.330827  0.999993  0.075598  1
  Al  Al14  1  0.329848  0.329848  0.554433  1
  Al  Al15  1  0.670152  0.670152  0.445567  1
  Al  Al16  1  0.670152  0.670152  0.054433  1
  Al  Al17  1  0.329848  0.329848  0.945567  1
  Al  Al18  1  0.340426  0.546852  0.250000  1
  Al  Al19  1  0.659574  0.453148  0.750000  1
  Al  Al20  1  0.546852  0.340426  0.250000  1
  Al  Al21  1  0.453148  0.659574  0.750000  1
  Pd  Pd22  1  0.672212  0.327788  0.000000  1
  Pd  Pd23  1  0.327788  0.672212  0.000000  1
  Pd  Pd24  1  0.327788  0.672212  0.500000  1
  Pd  Pd25  1  0.672212  0.327788  0.500000  1
  Rh  Rh26  1  0.000000  0.000000  0.000000  1
  Rh  Rh27  1  0.000000  0.000000  0.500000  1
