# generated using pymatgen
data_Tb12InTc2Ni2Rh
_symmetry_space_group_name_H-M   'P 1'
_cell_length_a   8.43842411
_cell_length_b   8.43840358
_cell_length_c   8.43842447
_cell_angle_alpha   104.95509485
_cell_angle_beta   110.13930641
_cell_angle_gamma   113.43046919
_symmetry_Int_Tables_number   1
_chemical_formula_structural   Tb12InTc2Ni2Rh
_chemical_formula_sum   'Tb12 In1 Tc2 Ni2 Rh1'
_cell_volume   460.00515175
_cell_formula_units_Z   1
loop_
 _symmetry_equiv_pos_site_id
 _symmetry_equiv_pos_as_xyz
  1  'x, y, z'
loop_
 _atom_site_type_symbol
 _atom_site_label
 _atom_site_symmetry_multiplicity
 _atom_site_fract_x
 _atom_site_fract_y
 _atom_site_fract_z
 _atom_site_occupancy
  Tb  Tb0  1  0.688753  0.267678  0.956430  1
  Tb  Tb1  1  0.311247  0.732322  0.043570  1
  Tb  Tb2  1  0.688752  0.732322  0.421076  1
  Tb  Tb3  1  0.311248  0.267678  0.578924  1
  Tb  Tb4  1  0.814985  0.145952  0.330967  1
  Tb  Tb5  1  0.814986  0.484018  0.669032  1
  Tb  Tb6  1  0.185015  0.854048  0.669033  1
  Tb  Tb7  1  0.185014  0.515982  0.330968  1
  Tb  Tb8  1  0.595164  0.773495  0.821669  1
  Tb  Tb9  1  0.951826  0.773495  0.178332  1
  Tb  Tb10  1  0.048174  0.226505  0.821668  1
  Tb  Tb11  1  0.404836  0.226505  0.178331  1
  In  In12  1  0.500000  0.000000  0.500000  1
  Tc  Tc13  1  0.828813  0.500000  0.328813  1
  Tc  Tc14  1  0.171187  0.500000  0.671187  1
  Ni  Ni15  1  0.999999  0.113799  0.113800  1
  Ni  Ni16  1  0.000001  0.886201  0.886200  1
  Rh  Rh17  1  0.500000  0.500000  0.000000  1
