# generated using pymatgen
data_AcPr(Co5P3)2
_symmetry_space_group_name_H-M   'P 1'
_cell_length_a   6.02604736
_cell_length_b   6.02604571
_cell_length_c   11.46655900
_cell_angle_alpha   90.00000000
_cell_angle_beta   90.00000000
_cell_angle_gamma   144.90719527
_symmetry_Int_Tables_number   1
_chemical_formula_structural   AcPr(Co5P3)2
_chemical_formula_sum   'Ac1 Pr1 Co10 P6'
_cell_volume   239.38243026
_cell_formula_units_Z   1
loop_
 _symmetry_equiv_pos_site_id
 _symmetry_equiv_pos_as_xyz
  1  'x, y, z'
loop_
 _atom_site_type_symbol
 _atom_site_label
 _atom_site_symmetry_multiplicity
 _atom_site_fract_x
 _atom_site_fract_y
 _atom_site_fract_z
 _atom_site_occupancy
  Ac  Ac0  1  0.663416  0.336584  0.750000  1
  Pr  Pr1  1  0.338962  0.661038  0.250000  1
  Co  Co2  1  0.053053  0.946947  0.143705  1
  Co  Co3  1  0.053053  0.946947  0.356295  1
  Co  Co4  1  0.698135  0.301865  0.429616  1
  Co  Co5  1  0.302204  0.697796  0.565032  1
  Co  Co6  1  0.302204  0.697796  0.934968  1
  Co  Co7  1  0.698135  0.301865  0.070384  1
  Co  Co8  1  0.499937  0.500063  0.497954  1
  Co  Co9  1  0.499937  0.500063  0.002046  1
  Co  Co10  1  0.945059  0.054941  0.640994  1
  Co  Co11  1  0.945059  0.054941  0.859006  1
  P  P12  1  0.609432  0.390568  0.250000  1
  P  P13  1  0.392031  0.607969  0.750000  1
  P  P14  1  0.117079  0.882921  0.534033  1
  P  P15  1  0.882613  0.117387  0.461195  1
  P  P16  1  0.882613  0.117387  0.038805  1
  P  P17  1  0.117079  0.882921  0.965967  1
