# generated using pymatgen
data_Pr4MgB4Rh9
_symmetry_space_group_name_H-M   'P 1'
_cell_length_a   5.59536600
_cell_length_b   5.59536806
_cell_length_c   21.11217100
_cell_angle_alpha   90.00000000
_cell_angle_beta   90.00000000
_cell_angle_gamma   120.00550633
_symmetry_Int_Tables_number   1
_chemical_formula_structural   Pr4MgB4Rh9
_chemical_formula_sum   'Pr8 Mg2 B8 Rh18'
_cell_volume   572.39599472
_cell_formula_units_Z   2
loop_
 _symmetry_equiv_pos_site_id
 _symmetry_equiv_pos_as_xyz
  1  'x, y, z'
loop_
 _atom_site_type_symbol
 _atom_site_label
 _atom_site_symmetry_multiplicity
 _atom_site_fract_x
 _atom_site_fract_y
 _atom_site_fract_z
 _atom_site_occupancy
  Pr  Pr0  1  0.666676  0.333324  0.525695  1
  Pr  Pr1  1  0.333324  0.666676  0.474305  1
  Pr  Pr2  1  0.333324  0.666676  0.025695  1
  Pr  Pr3  1  0.666676  0.333324  0.974305  1
  Pr  Pr4  1  0.666657  0.333343  0.675125  1
  Pr  Pr5  1  0.333343  0.666657  0.324875  1
  Pr  Pr6  1  0.333343  0.666657  0.175125  1
  Pr  Pr7  1  0.666657  0.333343  0.824875  1
  Mg  Mg8  1  0.000000  0.000000  0.500000  1
  Mg  Mg9  1  0.000000  0.000000  0.000000  1
  B  B10  1  0.000076  0.999924  0.674293  1
  B  B11  1  0.999924  0.000076  0.325707  1
  B  B12  1  0.999924  0.000076  0.174293  1
  B  B13  1  0.000076  0.999924  0.825707  1
  B  B14  1  0.666594  0.333406  0.324829  1
  B  B15  1  0.333406  0.666594  0.675171  1
  B  B16  1  0.333406  0.666594  0.824829  1
  B  B17  1  0.666594  0.333406  0.175171  1
  Rh  Rh18  1  0.166616  0.333105  0.750000  1
  Rh  Rh19  1  0.166646  0.833354  0.750000  1
  Rh  Rh20  1  0.666895  0.833384  0.750000  1
  Rh  Rh21  1  0.833384  0.666895  0.250000  1
  Rh  Rh22  1  0.833354  0.166646  0.250000  1
  Rh  Rh23  1  0.333105  0.166616  0.250000  1
  Rh  Rh24  1  0.167330  0.334464  0.607664  1
  Rh  Rh25  1  0.167346  0.832654  0.607664  1
  Rh  Rh26  1  0.665536  0.832670  0.607664  1
  Rh  Rh27  1  0.832670  0.665536  0.392336  1
  Rh  Rh28  1  0.832654  0.167346  0.392336  1
  Rh  Rh29  1  0.334464  0.167330  0.392336  1
  Rh  Rh30  1  0.832670  0.665536  0.107664  1
  Rh  Rh31  1  0.832654  0.167346  0.107664  1
  Rh  Rh32  1  0.334464  0.167330  0.107664  1
  Rh  Rh33  1  0.167330  0.334464  0.892336  1
  Rh  Rh34  1  0.167346  0.832654  0.892336  1
  Rh  Rh35  1  0.665536  0.832670  0.892336  1
