# generated using pymatgen
data_Ce4Ga5Ir4Pt5
_symmetry_space_group_name_H-M   'P 1'
_cell_length_a   5.58314569
_cell_length_b   5.58314482
_cell_length_c   24.17561500
_cell_angle_alpha   90.06588383
_cell_angle_beta   89.93411618
_cell_angle_gamma   120.31125342
_symmetry_Int_Tables_number   1
_chemical_formula_structural   Ce4Ga5Ir4Pt5
_chemical_formula_sum   'Ce8 Ga10 Ir8 Pt10'
_cell_volume   650.57137916
_cell_formula_units_Z   2
loop_
 _symmetry_equiv_pos_site_id
 _symmetry_equiv_pos_as_xyz
  1  'x, y, z'
loop_
 _atom_site_type_symbol
 _atom_site_label
 _atom_site_symmetry_multiplicity
 _atom_site_fract_x
 _atom_site_fract_y
 _atom_site_fract_z
 _atom_site_occupancy
  Ce  Ce0  1  0.331166  0.668834  0.529824  1
  Ce  Ce1  1  0.668834  0.331166  0.470176  1
  Ce  Ce2  1  0.666545  0.333455  0.030665  1
  Ce  Ce3  1  0.333455  0.666545  0.969335  1
  Ce  Ce4  1  0.333404  0.666596  0.681566  1
  Ce  Ce5  1  0.666596  0.333404  0.318434  1
  Ce  Ce6  1  0.666633  0.333367  0.186615  1
  Ce  Ce7  1  0.333367  0.666633  0.813385  1
  Ga  Ga8  1  0.000000  0.000000  0.000000  1
  Ga  Ga9  1  0.000000  0.000000  0.500000  1
  Ga  Ga10  1  0.334603  0.665397  0.168376  1
  Ga  Ga11  1  0.665397  0.334603  0.831624  1
  Ga  Ga12  1  0.671176  0.328824  0.666601  1
  Ga  Ga13  1  0.328824  0.671176  0.333399  1
  Ga  Ga14  1  0.998186  0.001814  0.168570  1
  Ga  Ga15  1  0.001814  0.998186  0.831430  1
  Ga  Ga16  1  0.996130  0.003870  0.666743  1
  Ga  Ga17  1  0.003870  0.996130  0.333257  1
  Ir  Ir18  1  0.831508  0.168492  0.582090  1
  Ir  Ir19  1  0.168492  0.831508  0.417910  1
  Ir  Ir20  1  0.167015  0.334230  0.251502  1
  Ir  Ir21  1  0.832985  0.665770  0.748498  1
  Ir  Ir22  1  0.665770  0.832985  0.251502  1
  Ir  Ir23  1  0.334230  0.167015  0.748498  1
  Ir  Ir24  1  0.166856  0.833144  0.249900  1
  Ir  Ir25  1  0.833144  0.166856  0.750100  1
  Pt  Pt26  1  0.167717  0.337476  0.084093  1
  Pt  Pt27  1  0.832283  0.662524  0.915907  1
  Pt  Pt28  1  0.662524  0.832283  0.084093  1
  Pt  Pt29  1  0.830740  0.662990  0.583869  1
  Pt  Pt30  1  0.337476  0.167717  0.915907  1
  Pt  Pt31  1  0.169260  0.337010  0.416131  1
  Pt  Pt32  1  0.167920  0.832080  0.084808  1
  Pt  Pt33  1  0.337010  0.169260  0.583869  1
  Pt  Pt34  1  0.832080  0.167920  0.915192  1
  Pt  Pt35  1  0.662990  0.830740  0.416131  1
