# generated using pymatgen
data_Ca8AcNdIr4
_symmetry_space_group_name_H-M   'P 1'
_cell_length_a   8.75646568
_cell_length_b   8.75646618
_cell_length_c   7.54820701
_cell_angle_alpha   82.89934919
_cell_angle_beta   82.89934907
_cell_angle_gamma   45.12432826
_symmetry_Int_Tables_number   1
_chemical_formula_structural   Ca8AcNdIr4
_chemical_formula_sum   'Ca8 Ac1 Nd1 Ir4'
_cell_volume   406.44405847
_cell_formula_units_Z   1
loop_
 _symmetry_equiv_pos_site_id
 _symmetry_equiv_pos_as_xyz
  1  'x, y, z'
loop_
 _atom_site_type_symbol
 _atom_site_label
 _atom_site_symmetry_multiplicity
 _atom_site_fract_x
 _atom_site_fract_y
 _atom_site_fract_z
 _atom_site_occupancy
  Ca  Ca0  1  0.013977  0.808833  0.917499  1
  Ca  Ca1  1  0.191167  0.986023  0.582501  1
  Ca  Ca2  1  0.986411  0.190288  0.086660  1
  Ca  Ca3  1  0.809712  0.013589  0.413340  1
  Ca  Ca4  1  0.357876  0.201327  0.821950  1
  Ca  Ca5  1  0.798673  0.642124  0.678050  1
  Ca  Ca6  1  0.640186  0.796236  0.179419  1
  Ca  Ca7  1  0.203764  0.359814  0.320581  1
  Ac  Ac8  1  0.569747  0.430253  0.750000  1
  Nd  Nd9  1  0.434479  0.565521  0.250000  1
  Ir  Ir10  1  0.180665  0.602791  0.575857  1
  Ir  Ir11  1  0.397209  0.819335  0.924143  1
  Ir  Ir12  1  0.816396  0.400259  0.418679  1
  Ir  Ir13  1  0.599741  0.183604  0.081321  1
