# generated using pymatgen
data_Tm4LuOs2
_symmetry_space_group_name_H-M   'P 1'
_cell_length_a   6.23735068
_cell_length_b   7.31666109
_cell_length_c   8.26226691
_cell_angle_alpha   97.00795456
_cell_angle_beta   112.17643681
_cell_angle_gamma   89.99999421
_symmetry_Int_Tables_number   1
_chemical_formula_structural   Tm4LuOs2
_chemical_formula_sum   'Tm8 Lu2 Os4'
_cell_volume   346.12494506
_cell_formula_units_Z   2
loop_
 _symmetry_equiv_pos_site_id
 _symmetry_equiv_pos_as_xyz
  1  'x, y, z'
loop_
 _atom_site_type_symbol
 _atom_site_label
 _atom_site_symmetry_multiplicity
 _atom_site_fract_x
 _atom_site_fract_y
 _atom_site_fract_z
 _atom_site_occupancy
  Tm  Tm0  1  0.527511  0.082535  0.818875  1
  Tm  Tm1  1  0.472489  0.917465  0.181125  1
  Tm  Tm2  1  0.708635  0.417465  0.181125  1
  Tm  Tm3  1  0.291365  0.582535  0.818875  1
  Tm  Tm4  1  0.296521  0.318715  0.436489  1
  Tm  Tm5  1  0.703479  0.681285  0.563511  1
  Tm  Tm6  1  0.860032  0.181285  0.563511  1
  Tm  Tm7  1  0.139968  0.818715  0.436489  1
  Lu  Lu8  1  0.081399  0.250000  0.000000  1
  Lu  Lu9  1  0.918601  0.750000  0.000000  1
  Os  Os10  1  0.320374  0.579009  0.218094  1
  Os  Os11  1  0.679626  0.420991  0.781906  1
  Os  Os12  1  0.102280  0.920991  0.781906  1
  Os  Os13  1  0.897720  0.079009  0.218094  1
