# generated using pymatgen
data_Li3Pr8Si12Pd
_symmetry_space_group_name_H-M   'P 1'
_cell_length_a   8.30874300
_cell_length_b   8.30874417
_cell_length_c   8.55228900
_cell_angle_alpha   90.00000000
_cell_angle_beta   90.00000000
_cell_angle_gamma   120.00000727
_symmetry_Int_Tables_number   1
_chemical_formula_structural   Li3Pr8Si12Pd
_chemical_formula_sum   'Li3 Pr8 Si12 Pd1'
_cell_volume   511.30928722
_cell_formula_units_Z   1
loop_
 _symmetry_equiv_pos_site_id
 _symmetry_equiv_pos_as_xyz
  1  'x, y, z'
loop_
 _atom_site_type_symbol
 _atom_site_label
 _atom_site_symmetry_multiplicity
 _atom_site_fract_x
 _atom_site_fract_y
 _atom_site_fract_z
 _atom_site_occupancy
  Li  Li0  1  0.666667  0.333333  0.994443  1
  Li  Li1  1  0.333333  0.666667  0.006026  1
  Li  Li2  1  0.333333  0.666667  0.494484  1
  Pr  Pr3  1  0.499172  0.500828  0.750164  1
  Pr  Pr4  1  0.501564  0.498436  0.249642  1
  Pr  Pr5  1  0.001657  0.500828  0.750164  1
  Pr  Pr6  1  0.996873  0.498436  0.249642  1
  Pr  Pr7  1  0.499172  0.998343  0.750164  1
  Pr  Pr8  1  0.501564  0.003127  0.249642  1
  Pr  Pr9  1  0.000000  0.000000  0.751194  1
  Pr  Pr10  1  0.000000  0.000000  0.248978  1
  Si  Si11  1  0.834278  0.165722  0.000536  1
  Si  Si12  1  0.165650  0.834350  0.999579  1
  Si  Si13  1  0.331444  0.165722  0.000536  1
  Si  Si14  1  0.164732  0.835268  0.500621  1
  Si  Si15  1  0.668699  0.834350  0.999579  1
  Si  Si16  1  0.833617  0.166383  0.499685  1
  Si  Si17  1  0.834278  0.668556  0.000536  1
  Si  Si18  1  0.670536  0.835268  0.500621  1
  Si  Si19  1  0.165650  0.331301  0.999579  1
  Si  Si20  1  0.332766  0.166383  0.499685  1
  Si  Si21  1  0.164732  0.329464  0.500621  1
  Si  Si22  1  0.833617  0.667234  0.499685  1
  Pd  Pd23  1  0.666667  0.333333  0.504192  1
