# generated using pymatgen
data_Li2CaTbSi4
_symmetry_space_group_name_H-M   'P 1'
_cell_length_a   3.79836800
_cell_length_b   7.80371297
_cell_length_c   10.45076708
_cell_angle_alpha   89.39706204
_cell_angle_beta   90.00000000
_cell_angle_gamma   90.00000000
_symmetry_Int_Tables_number   1
_chemical_formula_structural   Li2CaTbSi4
_chemical_formula_sum   'Li4 Ca2 Tb2 Si8'
_cell_volume   309.75793973
_cell_formula_units_Z   2
loop_
 _symmetry_equiv_pos_site_id
 _symmetry_equiv_pos_as_xyz
  1  'x, y, z'
loop_
 _atom_site_type_symbol
 _atom_site_label
 _atom_site_symmetry_multiplicity
 _atom_site_fract_x
 _atom_site_fract_y
 _atom_site_fract_z
 _atom_site_occupancy
  Li  Li0  1  0.250000  0.998955  0.389746  1
  Li  Li1  1  0.750000  0.001045  0.610254  1
  Li  Li2  1  0.250000  0.492259  0.110824  1
  Li  Li3  1  0.750000  0.507741  0.889176  1
  Ca  Ca4  1  0.250000  0.636273  0.634595  1
  Ca  Ca5  1  0.750000  0.363727  0.365405  1
  Tb  Tb6  1  0.250000  0.130315  0.864929  1
  Tb  Tb7  1  0.750000  0.869685  0.135071  1
  Si  Si8  1  0.750000  0.263294  0.062744  1
  Si  Si9  1  0.250000  0.736706  0.937256  1
  Si  Si10  1  0.750000  0.773479  0.427251  1
  Si  Si11  1  0.250000  0.226521  0.572749  1
  Si  Si12  1  0.750000  0.842255  0.826792  1
  Si  Si13  1  0.250000  0.157745  0.173208  1
  Si  Si14  1  0.750000  0.330867  0.682804  1
  Si  Si15  1  0.250000  0.669133  0.317196  1
