# generated using pymatgen
data_Er4ZnRh
_symmetry_space_group_name_H-M   'P 1'
_cell_length_a   9.41207830
_cell_length_b   9.41207844
_cell_length_c   9.41207800
_cell_angle_alpha   60.00000153
_cell_angle_beta   60.00000106
_cell_angle_gamma   60.00000118
_symmetry_Int_Tables_number   1
_chemical_formula_structural   Er4ZnRh
_chemical_formula_sum   'Er16 Zn4 Rh4'
_cell_volume   589.57845071
_cell_formula_units_Z   4
loop_
 _symmetry_equiv_pos_site_id
 _symmetry_equiv_pos_as_xyz
  1  'x, y, z'
loop_
 _atom_site_type_symbol
 _atom_site_label
 _atom_site_symmetry_multiplicity
 _atom_site_fract_x
 _atom_site_fract_y
 _atom_site_fract_z
 _atom_site_occupancy
  Er  Er0  1  0.564295  0.564295  0.935705  1
  Er  Er1  1  0.146140  0.561580  0.146140  1
  Er  Er2  1  0.691131  0.308869  0.308869  1
  Er  Er3  1  0.935705  0.564295  0.564295  1
  Er  Er4  1  0.935705  0.564295  0.935705  1
  Er  Er5  1  0.691131  0.691131  0.308869  1
  Er  Er6  1  0.564295  0.935705  0.935705  1
  Er  Er7  1  0.146140  0.146140  0.146140  1
  Er  Er8  1  0.308869  0.691131  0.308869  1
  Er  Er9  1  0.561580  0.146140  0.146140  1
  Er  Er10  1  0.308869  0.308869  0.691131  1
  Er  Er11  1  0.308869  0.691131  0.691131  1
  Er  Er12  1  0.146140  0.146140  0.561580  1
  Er  Er13  1  0.691131  0.308869  0.691131  1
  Er  Er14  1  0.935705  0.935705  0.564295  1
  Er  Er15  1  0.564295  0.935705  0.564295  1
  Zn  Zn16  1  0.920632  0.920632  0.920632  1
  Zn  Zn17  1  0.238104  0.920632  0.920632  1
  Zn  Zn18  1  0.920632  0.920632  0.238104  1
  Zn  Zn19  1  0.920632  0.238104  0.920632  1
  Rh  Rh20  1  0.356387  0.356387  0.930838  1
  Rh  Rh21  1  0.356387  0.356387  0.356387  1
  Rh  Rh22  1  0.930838  0.356387  0.356387  1
  Rh  Rh23  1  0.356387  0.930838  0.356387  1
