# generated using pymatgen
data_Dy2Lu2B12IrRh
_symmetry_space_group_name_H-M   'P 1'
_cell_length_a   3.62134400
_cell_length_b   9.11664398
_cell_length_c   11.47349348
_cell_angle_alpha   90.07538521
_cell_angle_beta   90.00000000
_cell_angle_gamma   90.00000000
_symmetry_Int_Tables_number   1
_chemical_formula_structural   Dy2Lu2B12IrRh
_chemical_formula_sum   'Dy4 Lu4 B24 Ir2 Rh2'
_cell_volume   378.79136805
_cell_formula_units_Z   2
loop_
 _symmetry_equiv_pos_site_id
 _symmetry_equiv_pos_as_xyz
  1  'x, y, z'
loop_
 _atom_site_type_symbol
 _atom_site_label
 _atom_site_symmetry_multiplicity
 _atom_site_fract_x
 _atom_site_fract_y
 _atom_site_fract_z
 _atom_site_occupancy
  Dy  Dy0  1  0.500000  0.322272  0.414230  1
  Dy  Dy1  1  0.500000  0.677728  0.585770  1
  Dy  Dy2  1  0.500000  0.179027  0.913269  1
  Dy  Dy3  1  0.500000  0.820973  0.086731  1
  Lu  Lu4  1  0.500000  0.445273  0.126509  1
  Lu  Lu5  1  0.500000  0.554727  0.873491  1
  Lu  Lu6  1  0.500000  0.056155  0.625980  1
  Lu  Lu7  1  0.500000  0.943845  0.374020  1
  B  B8  1  0.000000  0.105786  0.471382  1
  B  B9  1  0.000000  0.894214  0.528618  1
  B  B10  1  0.000000  0.394170  0.971494  1
  B  B11  1  0.000000  0.605830  0.028506  1
  B  B12  1  0.000000  0.131788  0.317014  1
  B  B13  1  0.000000  0.868212  0.682986  1
  B  B14  1  0.000000  0.367674  0.816973  1
  B  B15  1  0.000000  0.632326  0.183027  1
  B  B16  1  0.000000  0.054608  0.066156  1
  B  B17  1  0.000000  0.945392  0.933844  1
  B  B18  1  0.000000  0.445715  0.565658  1
  B  B19  1  0.000000  0.554285  0.434342  1
  B  B20  1  0.000000  0.483025  0.286211  1
  B  B21  1  0.000000  0.516975  0.713789  1
  B  B22  1  0.000000  0.017303  0.785938  1
  B  B23  1  0.000000  0.982697  0.214062  1
  B  B24  1  0.000000  0.251633  0.080010  1
  B  B25  1  0.000000  0.748367  0.919990  1
  B  B26  1  0.000000  0.248944  0.580036  1
  B  B27  1  0.000000  0.751056  0.419964  1
  B  B28  1  0.000000  0.294866  0.235420  1
  B  B29  1  0.000000  0.705134  0.764580  1
  B  B30  1  0.000000  0.205186  0.735652  1
  B  B31  1  0.000000  0.794814  0.264348  1
  Ir  Ir32  1  0.500000  0.139927  0.179402  1
  Ir  Ir33  1  0.500000  0.860073  0.820598  1
  Rh  Rh34  1  0.500000  0.359593  0.680557  1
  Rh  Rh35  1  0.500000  0.640407  0.319443  1
