# generated using pymatgen
data_Mg2Co10P7Ru2
_symmetry_space_group_name_H-M   'P 1'
_cell_length_a   8.91460319
_cell_length_b   8.99834747
_cell_length_c   3.57160100
_cell_angle_alpha   90.00000000
_cell_angle_beta   90.00000000
_cell_angle_gamma   119.71338340
_symmetry_Int_Tables_number   1
_chemical_formula_structural   Mg2Co10P7Ru2
_chemical_formula_sum   'Mg2 Co10 P7 Ru2'
_cell_volume   248.83153270
_cell_formula_units_Z   1
loop_
 _symmetry_equiv_pos_site_id
 _symmetry_equiv_pos_as_xyz
  1  'x, y, z'
loop_
 _atom_site_type_symbol
 _atom_site_label
 _atom_site_symmetry_multiplicity
 _atom_site_fract_x
 _atom_site_fract_y
 _atom_site_fract_z
 _atom_site_occupancy
  Mg  Mg0  1  0.336210  0.667915  0.000000  1
  Mg  Mg1  1  0.668515  0.333985  0.500000  1
  Co  Co2  1  0.440369  0.065748  0.000000  1
  Co  Co3  1  0.160116  0.287459  0.000000  1
  Co  Co4  1  0.934163  0.378023  0.000000  1
  Co  Co5  1  0.624300  0.558849  0.000000  1
  Co  Co6  1  0.120714  0.841168  0.000000  1
  Co  Co7  1  0.721406  0.874962  0.000000  1
  Co  Co8  1  0.386859  0.444351  0.500000  1
  Co  Co9  1  0.056502  0.616490  0.500000  1
  Co  Co10  1  0.862081  0.753203  0.500000  1
  Co  Co11  1  0.557490  0.940804  0.500000  1
  P  P12  1  0.000168  0.999690  0.000000  1
  P  P13  1  0.704974  0.114584  0.000000  1
  P  P14  1  0.412307  0.296556  0.000000  1
  P  P15  1  0.884024  0.592430  0.000000  1
  P  P16  1  0.120415  0.414459  0.500000  1
  P  P17  1  0.593661  0.708816  0.500000  1
  P  P18  1  0.290506  0.880564  0.500000  1
  Ru  Ru19  1  0.222386  0.100065  0.500000  1
  Ru  Ru20  1  0.902808  0.129910  0.500000  1
