# generated using pymatgen
data_Zr19Si16W
_symmetry_space_group_name_H-M   'P 1'
_cell_length_a   7.12426077
_cell_length_b   7.12426077
_cell_length_c   13.00657280
_cell_angle_alpha   89.94676554
_cell_angle_beta   90.05323446
_cell_angle_gamma   89.99658634
_symmetry_Int_Tables_number   1
_chemical_formula_structural   Zr19Si16W
_chemical_formula_sum   'Zr19 Si16 W1'
_cell_volume   660.14922245
_cell_formula_units_Z   1
loop_
 _symmetry_equiv_pos_site_id
 _symmetry_equiv_pos_as_xyz
  1  'x, y, z'
loop_
 _atom_site_type_symbol
 _atom_site_label
 _atom_site_symmetry_multiplicity
 _atom_site_fract_x
 _atom_site_fract_y
 _atom_site_fract_z
 _atom_site_occupancy
  Zr  Zr0  1  0.499846  0.849277  0.034477  1
  Zr  Zr1  1  0.003640  0.856352  0.121196  1
  Zr  Zr2  1  0.497882  0.352993  0.125778  1
  Zr  Zr3  1  0.999922  0.348590  0.213395  1
  Zr  Zr4  1  0.323880  0.676201  0.248543  1
  Zr  Zr5  1  0.650389  0.001791  0.283704  1
  Zr  Zr6  1  0.645930  0.501447  0.372496  1
  Zr  Zr7  1  0.144588  0.999102  0.375035  1
  Zr  Zr8  1  0.150665  0.499001  0.464657  1
  Zr  Zr9  1  0.823840  0.823840  0.500000  1
  Zr  Zr10  1  0.499001  0.150665  0.535343  1
  Zr  Zr11  1  0.999102  0.144588  0.624965  1
  Zr  Zr12  1  0.501447  0.645930  0.627504  1
  Zr  Zr13  1  0.001791  0.650389  0.716297  1
  Zr  Zr14  1  0.676201  0.323880  0.751457  1
  Zr  Zr15  1  0.348590  0.999922  0.786605  1
  Zr  Zr16  1  0.352993  0.497882  0.874222  1
  Zr  Zr17  1  0.856352  0.003640  0.878804  1
  Zr  Zr18  1  0.849277  0.499846  0.965523  1
  Si  Si19  1  0.198345  0.544881  0.062048  1
  Si  Si20  1  0.798259  0.147639  0.072284  1
  Si  Si21  1  0.705006  0.647405  0.176936  1
  Si  Si22  1  0.297464  0.054503  0.183911  1
  Si  Si23  1  0.948484  0.699044  0.311665  1
  Si  Si24  1  0.353675  0.294590  0.322406  1
  Si  Si25  1  0.853795  0.205484  0.427703  1
  Si  Si26  1  0.448179  0.800600  0.437491  1
  Si  Si27  1  0.800600  0.448179  0.562509  1
  Si  Si28  1  0.205484  0.853795  0.572297  1
  Si  Si29  1  0.294590  0.353675  0.677594  1
  Si  Si30  1  0.699044  0.948484  0.688335  1
  Si  Si31  1  0.054503  0.297464  0.816089  1
  Si  Si32  1  0.647405  0.705006  0.823064  1
  Si  Si33  1  0.147639  0.798259  0.927716  1
  Si  Si34  1  0.544881  0.198345  0.937952  1
  W  W35  1  0.177316  0.177316  0.000000  1
