# generated using pymatgen
data_Pr3Sn6Ir
_symmetry_space_group_name_H-M   'P 1'
_cell_length_a   8.76992270
_cell_length_b   8.76992279
_cell_length_c   13.47523600
_cell_angle_alpha   90.00000000
_cell_angle_beta   90.00000000
_cell_angle_gamma   148.49959866
_symmetry_Int_Tables_number   1
_chemical_formula_structural   Pr3Sn6Ir
_chemical_formula_sum   'Pr6 Sn12 Ir2'
_cell_volume   541.52433904
_cell_formula_units_Z   2
loop_
 _symmetry_equiv_pos_site_id
 _symmetry_equiv_pos_as_xyz
  1  'x, y, z'
loop_
 _atom_site_type_symbol
 _atom_site_label
 _atom_site_symmetry_multiplicity
 _atom_site_fract_x
 _atom_site_fract_y
 _atom_site_fract_z
 _atom_site_occupancy
  Pr  Pr0  1  0.602114  0.397886  0.250000  1
  Pr  Pr1  1  0.397886  0.602114  0.750000  1
  Pr  Pr2  1  0.400176  0.599824  0.404896  1
  Pr  Pr3  1  0.599824  0.400176  0.595104  1
  Pr  Pr4  1  0.400176  0.599824  0.095104  1
  Pr  Pr5  1  0.599824  0.400176  0.904896  1
  Sn  Sn6  1  0.927726  0.072274  0.923570  1
  Sn  Sn7  1  0.072274  0.927726  0.076430  1
  Sn  Sn8  1  0.927726  0.072274  0.576430  1
  Sn  Sn9  1  0.072274  0.927726  0.423570  1
  Sn  Sn10  1  0.959232  0.040768  0.250000  1
  Sn  Sn11  1  0.040768  0.959232  0.750000  1
  Sn  Sn12  1  0.746762  0.253239  0.434764  1
  Sn  Sn13  1  0.253239  0.746761  0.565236  1
  Sn  Sn14  1  0.746762  0.253239  0.065236  1
  Sn  Sn15  1  0.253239  0.746761  0.934764  1
  Sn  Sn16  1  0.232234  0.767766  0.250000  1
  Sn  Sn17  1  0.767766  0.232234  0.750000  1
  Ir  Ir18  1  0.801561  0.198439  0.250000  1
  Ir  Ir19  1  0.198439  0.801561  0.750000  1
