# generated using pymatgen
data_NaYb(TmSe2)2
_symmetry_space_group_name_H-M   'P 1'
_cell_length_a   13.84193119
_cell_length_b   13.84193113
_cell_length_c   13.84193058
_cell_angle_alpha   16.93289636
_cell_angle_beta   16.93289812
_cell_angle_gamma   16.93289432
_symmetry_Int_Tables_number   1
_chemical_formula_structural   NaYb(TmSe2)2
_chemical_formula_sum   'Na1 Yb1 Tm2 Se4'
_cell_volume   196.24838193
_cell_formula_units_Z   1
loop_
 _symmetry_equiv_pos_site_id
 _symmetry_equiv_pos_as_xyz
  1  'x, y, z'
loop_
 _atom_site_type_symbol
 _atom_site_label
 _atom_site_symmetry_multiplicity
 _atom_site_fract_x
 _atom_site_fract_y
 _atom_site_fract_z
 _atom_site_occupancy
  Na  Na0  1  0.500000  0.500000  0.500000  1
  Yb  Yb1  1  0.000000  0.000000  0.000000  1
  Tm  Tm2  1  0.250459  0.250459  0.250459  1
  Tm  Tm3  1  0.749541  0.749541  0.749541  1
  Se  Se4  1  0.375526  0.375526  0.375526  1
  Se  Se5  1  0.120984  0.120984  0.120984  1
  Se  Se6  1  0.624474  0.624474  0.624474  1
  Se  Se7  1  0.879016  0.879016  0.879016  1
