# generated using pymatgen
data_Eu2CuNi3As4
_symmetry_space_group_name_H-M   'P 1'
_cell_length_a   4.21620900
_cell_length_b   4.21620900
_cell_length_c   9.65164400
_cell_angle_alpha   90.00000000
_cell_angle_beta   90.00000000
_cell_angle_gamma   90.00000000
_symmetry_Int_Tables_number   1
_chemical_formula_structural   Eu2CuNi3As4
_chemical_formula_sum   'Eu2 Cu1 Ni3 As4'
_cell_volume   171.57166133
_cell_formula_units_Z   1
loop_
 _symmetry_equiv_pos_site_id
 _symmetry_equiv_pos_as_xyz
  1  'x, y, z'
loop_
 _atom_site_type_symbol
 _atom_site_label
 _atom_site_symmetry_multiplicity
 _atom_site_fract_x
 _atom_site_fract_y
 _atom_site_fract_z
 _atom_site_occupancy
  Eu  Eu0  1  0.000000  0.499999  0.252149  1
  Eu  Eu1  1  0.499999  0.000000  0.747851  1
  Cu  Cu2  1  0.499999  0.499999  0.000000  1
  Ni  Ni3  1  0.000000  0.000000  0.000000  1
  Ni  Ni4  1  0.499999  0.000000  0.383076  1
  Ni  Ni5  1  0.000000  0.499999  0.616924  1
  As  As6  1  0.499999  0.000000  0.135866  1
  As  As7  1  0.000000  0.000000  0.500000  1
  As  As8  1  0.499999  0.499999  0.500000  1
  As  As9  1  0.000000  0.499999  0.864134  1
