# generated using pymatgen
data_Yb12CuNiRu2
_symmetry_space_group_name_H-M   'P 1'
_cell_length_a   6.28014751
_cell_length_b   7.46900182
_cell_length_c   9.45252100
_cell_angle_alpha   90.00000000
_cell_angle_beta   90.00000000
_cell_angle_gamma   90.39429412
_symmetry_Int_Tables_number   1
_chemical_formula_structural   Yb12CuNiRu2
_chemical_formula_sum   'Yb12 Cu1 Ni1 Ru2'
_cell_volume   443.37354598
_cell_formula_units_Z   1
loop_
 _symmetry_equiv_pos_site_id
 _symmetry_equiv_pos_as_xyz
  1  'x, y, z'
loop_
 _atom_site_type_symbol
 _atom_site_label
 _atom_site_symmetry_multiplicity
 _atom_site_fract_x
 _atom_site_fract_y
 _atom_site_fract_z
 _atom_site_occupancy
  Yb  Yb0  1  0.344241  0.661183  0.065380  1
  Yb  Yb1  1  0.158808  0.178201  0.437789  1
  Yb  Yb2  1  0.660835  0.327799  0.569996  1
  Yb  Yb3  1  0.837588  0.834015  0.927427  1
  Yb  Yb4  1  0.660835  0.327799  0.930004  1
  Yb  Yb5  1  0.837588  0.834015  0.572573  1
  Yb  Yb6  1  0.344241  0.661183  0.434620  1
  Yb  Yb7  1  0.158808  0.178201  0.062211  1
  Yb  Yb8  1  0.857965  0.533234  0.250000  1
  Yb  Yb9  1  0.625923  0.045204  0.250000  1
  Yb  Yb10  1  0.137244  0.460162  0.750000  1
  Yb  Yb11  1  0.360280  0.957345  0.750000  1
  Cu  Cu12  1  0.052924  0.878912  0.250000  1
  Ni  Ni13  1  0.549511  0.622183  0.750000  1
  Ru  Ru14  1  0.452177  0.380814  0.250000  1
  Ru  Ru15  1  0.961033  0.119750  0.750000  1
