# generated using pymatgen
data_Ce2Y2As3O4
_symmetry_space_group_name_H-M   'P 1'
_cell_length_a   6.71896907
_cell_length_b   6.71896862
_cell_length_c   7.94101900
_cell_angle_alpha   89.99962002
_cell_angle_beta   90.00037977
_cell_angle_gamma   145.55549613
_symmetry_Int_Tables_number   1
_chemical_formula_structural   Ce2Y2As3O4
_chemical_formula_sum   'Ce2 Y2 As3 O4'
_cell_volume   202.76679039
_cell_formula_units_Z   1
loop_
 _symmetry_equiv_pos_site_id
 _symmetry_equiv_pos_as_xyz
  1  'x, y, z'
loop_
 _atom_site_type_symbol
 _atom_site_label
 _atom_site_symmetry_multiplicity
 _atom_site_fract_x
 _atom_site_fract_y
 _atom_site_fract_z
 _atom_site_occupancy
  Ce  Ce0  1  0.988440  0.011560  0.500033  1
  Ce  Ce1  1  0.002549  0.997451  0.999993  1
  Y  Y2  1  0.315276  0.684724  0.239793  1
  Y  Y3  1  0.315236  0.684764  0.760209  1
  As  As4  1  0.637392  0.362608  0.678736  1
  As  As5  1  0.637394  0.362606  0.321245  1
  As  As6  1  0.685622  0.314378  0.999986  1
  O  O7  1  0.414168  0.585832  0.999983  1
  O  O8  1  0.907350  0.092650  0.753734  1
  O  O9  1  0.907393  0.092607  0.246273  1
  O  O10  1  0.387070  0.612930  0.500013  1
