# generated using pymatgen
data_Y4Ga24Ir2Pt7
_symmetry_space_group_name_H-M   'P 1'
_cell_length_a   7.51703759
_cell_length_b   7.57174308
_cell_length_c   13.32889622
_cell_angle_alpha   84.86391420
_cell_angle_beta   100.54215138
_cell_angle_gamma   119.69314815
_symmetry_Int_Tables_number   1
_chemical_formula_structural   Y4Ga24Ir2Pt7
_chemical_formula_sum   'Y4 Ga24 Ir2 Pt7'
_cell_volume   647.90062485
_cell_formula_units_Z   1
loop_
 _symmetry_equiv_pos_site_id
 _symmetry_equiv_pos_as_xyz
  1  'x, y, z'
loop_
 _atom_site_type_symbol
 _atom_site_label
 _atom_site_symmetry_multiplicity
 _atom_site_fract_x
 _atom_site_fract_y
 _atom_site_fract_z
 _atom_site_occupancy
  Y  Y0  1  0.731451  0.998800  0.189377  1
  Y  Y1  1  0.268333  0.001597  0.810674  1
  Y  Y2  1  0.064265  0.668484  0.190299  1
  Y  Y3  1  0.934448  0.331567  0.809571  1
  Ga  Ga4  1  0.809241  0.870014  0.818087  1
  Ga  Ga5  1  0.191507  0.128816  0.181878  1
  Ga  Ga6  1  0.983808  0.669231  0.941344  1
  Ga  Ga7  1  0.022591  0.333766  0.059031  1
  Ga  Ga8  1  0.397051  0.662667  0.819405  1
  Ga  Ga9  1  0.600301  0.335858  0.182205  1
  Ga  Ga10  1  0.884753  0.665280  0.676102  1
  Ga  Ga11  1  0.114986  0.334860  0.322606  1
  Ga  Ga12  1  0.602754  0.461022  0.816593  1
  Ga  Ga13  1  0.398716  0.542850  0.181870  1
  Ga  Ga14  1  0.231381  0.338737  0.673339  1
  Ga  Ga15  1  0.769133  0.661600  0.326490  1
  Ga  Ga16  1  0.854777  0.332789  0.557179  1
  Ga  Ga17  1  0.186696  0.998682  0.557546  1
  Ga  Ga18  1  0.814115  0.000946  0.442502  1
  Ga  Ga19  1  0.352352  0.994629  0.058335  1
  Ga  Ga20  1  0.644724  0.999222  0.941820  1
  Ga  Ga21  1  0.558608  0.994472  0.676194  1
  Ga  Ga22  1  0.441833  0.005150  0.324524  1
  Ga  Ga23  1  0.522789  0.668446  0.560722  1
  Ga  Ga24  1  0.476429  0.331987  0.439059  1
  Ga  Ga25  1  0.687810  0.672649  0.050563  1
  Ga  Ga26  1  0.308674  0.330853  0.949164  1
  Ga  Ga27  1  0.145565  0.666071  0.443170  1
  Ir  Ir28  1  0.329092  0.669197  0.000680  1
  Ir  Ir29  1  0.000184  0.000002  0.999959  1
  Pt  Pt30  1  0.548390  0.325156  0.637122  1
  Pt  Pt31  1  0.451696  0.674289  0.362424  1
  Pt  Pt32  1  0.889794  0.006686  0.639763  1
  Pt  Pt33  1  0.110766  0.993569  0.360348  1
  Pt  Pt34  1  0.670652  0.330143  0.999379  1
  Pt  Pt35  1  0.207515  0.666504  0.640106  1
  Pt  Pt36  1  0.792819  0.333409  0.360572  1
