# generated using pymatgen
data_La4Y3Au10
_symmetry_space_group_name_H-M   'P 1'
_cell_length_a   8.94533177
_cell_length_b   8.94533369
_cell_length_c   10.68386300
_cell_angle_alpha   90.00000000
_cell_angle_beta   90.00000000
_cell_angle_gamma   106.63490331
_symmetry_Int_Tables_number   1
_chemical_formula_structural   La4Y3Au10
_chemical_formula_sum   'La8 Y6 Au20'
_cell_volume   819.13233547
_cell_formula_units_Z   2
loop_
 _symmetry_equiv_pos_site_id
 _symmetry_equiv_pos_as_xyz
  1  'x, y, z'
loop_
 _atom_site_type_symbol
 _atom_site_label
 _atom_site_symmetry_multiplicity
 _atom_site_fract_x
 _atom_site_fract_y
 _atom_site_fract_z
 _atom_site_occupancy
  La  La0  1  0.699075  0.300925  0.000000  1
  La  La1  1  0.199075  0.800925  0.500000  1
  La  La2  1  0.806137  0.806137  0.302292  1
  La  La3  1  0.306137  0.306137  0.197708  1
  La  La4  1  0.800925  0.199075  0.500000  1
  La  La5  1  0.300925  0.699075  0.000000  1
  La  La6  1  0.693863  0.693863  0.802292  1
  La  La7  1  0.193863  0.193863  0.697708  1
  Y  Y8  1  0.507135  0.007135  0.250000  1
  Y  Y9  1  0.992865  0.492865  0.750000  1
  Y  Y10  1  0.000000  0.000000  0.000000  1
  Y  Y11  1  0.007135  0.507135  0.250000  1
  Y  Y12  1  0.492865  0.992865  0.750000  1
  Y  Y13  1  0.500000  0.500000  0.500000  1
  Au  Au14  1  0.146771  0.436178  0.492443  1
  Au  Au15  1  0.899636  0.899636  0.595683  1
  Au  Au16  1  0.563822  0.853229  0.507557  1
  Au  Au17  1  0.871690  0.157676  0.209440  1
  Au  Au18  1  0.371690  0.657676  0.290560  1
  Au  Au19  1  0.657676  0.371690  0.290560  1
  Au  Au20  1  0.399636  0.399636  0.904317  1
  Au  Au21  1  0.936178  0.646771  0.007557  1
  Au  Au22  1  0.342324  0.628310  0.709440  1
  Au  Au23  1  0.353229  0.063822  0.992443  1
  Au  Au24  1  0.600364  0.600364  0.095683  1
  Au  Au25  1  0.646771  0.936178  0.007557  1
  Au  Au26  1  0.100364  0.100364  0.404317  1
  Au  Au27  1  0.628310  0.342324  0.709440  1
  Au  Au28  1  0.128310  0.842324  0.790560  1
  Au  Au29  1  0.063822  0.353229  0.992443  1
  Au  Au30  1  0.853229  0.563822  0.507557  1
  Au  Au31  1  0.157676  0.871690  0.209440  1
  Au  Au32  1  0.436178  0.146771  0.492443  1
  Au  Au33  1  0.842324  0.128310  0.790560  1
