# generated using pymatgen
data_Pr2HgC2
_symmetry_space_group_name_H-M   'P 1'
_cell_length_a   8.02698943
_cell_length_b   8.02698879
_cell_length_c   7.07280684
_cell_angle_alpha   103.64454677
_cell_angle_beta   103.64454707
_cell_angle_gamma   29.87945351
_symmetry_Int_Tables_number   1
_chemical_formula_structural   Pr2HgC2
_chemical_formula_sum   'Pr4 Hg2 C4'
_cell_volume   220.15815914
_cell_formula_units_Z   2
loop_
 _symmetry_equiv_pos_site_id
 _symmetry_equiv_pos_as_xyz
  1  'x, y, z'
loop_
 _atom_site_type_symbol
 _atom_site_label
 _atom_site_symmetry_multiplicity
 _atom_site_fract_x
 _atom_site_fract_y
 _atom_site_fract_z
 _atom_site_occupancy
  Pr  Pr0  1  0.823788  0.477935  0.138620  1
  Pr  Pr1  1  0.522065  0.176212  0.361380  1
  Pr  Pr2  1  0.477936  0.823789  0.638621  1
  Pr  Pr3  1  0.176212  0.522064  0.861379  1
  Hg  Hg4  1  0.133703  0.866297  0.250000  1
  Hg  Hg5  1  0.866296  0.133703  0.749999  1
  C  C6  1  0.361352  0.088007  0.027349  1
  C  C7  1  0.911993  0.638648  0.472650  1
  C  C8  1  0.088007  0.361353  0.527349  1
  C  C9  1  0.638648  0.911993  0.972651  1
