# generated using pymatgen
data_U4FeCoC6
_symmetry_space_group_name_H-M   'P 1'
_cell_length_a   3.52801700
_cell_length_b   6.38259000
_cell_length_c   13.02032214
_cell_angle_alpha   90.09103676
_cell_angle_beta   90.00000000
_cell_angle_gamma   90.00000000
_symmetry_Int_Tables_number   1
_chemical_formula_structural   U4FeCoC6
_chemical_formula_sum   'U8 Fe2 Co2 C12'
_cell_volume   293.18975981
_cell_formula_units_Z   2
loop_
 _symmetry_equiv_pos_site_id
 _symmetry_equiv_pos_as_xyz
  1  'x, y, z'
loop_
 _atom_site_type_symbol
 _atom_site_label
 _atom_site_symmetry_multiplicity
 _atom_site_fract_x
 _atom_site_fract_y
 _atom_site_fract_z
 _atom_site_occupancy
  U  U0  1  0.250000  0.748106  0.022163  1
  U  U1  1  0.750000  0.251894  0.977837  1
  U  U2  1  0.750000  0.754002  0.522145  1
  U  U3  1  0.250000  0.245998  0.477855  1
  U  U4  1  0.250000  0.622131  0.288657  1
  U  U5  1  0.750000  0.377869  0.711343  1
  U  U6  1  0.750000  0.874584  0.787701  1
  U  U7  1  0.250000  0.125416  0.212299  1
  Fe  Fe8  1  0.750000  0.981782  0.340342  1
  Fe  Fe9  1  0.250000  0.018218  0.659658  1
  Co  Co10  1  0.250000  0.510631  0.843789  1
  Co  Co11  1  0.750000  0.489369  0.156211  1
  C  C12  1  0.250000  0.687817  0.674301  1
  C  C13  1  0.750000  0.312183  0.325699  1
  C  C14  1  0.750000  0.820765  0.179658  1
  C  C15  1  0.250000  0.179235  0.820342  1
  C  C16  1  0.250000  0.526408  0.596175  1
  C  C17  1  0.750000  0.473592  0.403825  1
  C  C18  1  0.750000  0.975182  0.097183  1
  C  C19  1  0.250000  0.024818  0.902817  1
  C  C20  1  0.250000  0.901726  0.402340  1
  C  C21  1  0.750000  0.098274  0.597660  1
  C  C22  1  0.750000  0.600221  0.904742  1
  C  C23  1  0.250000  0.399779  0.095258  1
