# generated using pymatgen
data_Ac2GePt3
_symmetry_space_group_name_H-M   'P 1'
_cell_length_a   4.30894122
_cell_length_b   4.35676118
_cell_length_c   8.55486523
_cell_angle_alpha   75.24795650
_cell_angle_beta   75.41349873
_cell_angle_gamma   90.00000916
_symmetry_Int_Tables_number   1
_chemical_formula_structural   Ac2GePt3
_chemical_formula_sum   'Ac2 Ge1 Pt3'
_cell_volume   149.94777797
_cell_formula_units_Z   1
loop_
 _symmetry_equiv_pos_site_id
 _symmetry_equiv_pos_as_xyz
  1  'x, y, z'
loop_
 _atom_site_type_symbol
 _atom_site_label
 _atom_site_symmetry_multiplicity
 _atom_site_fract_x
 _atom_site_fract_y
 _atom_site_fract_z
 _atom_site_occupancy
  Ac  Ac0  1  0.883034  0.633034  0.733933  1
  Ac  Ac1  1  0.122343  0.372343  0.255314  1
  Ge  Ge2  1  0.287596  0.037596  0.924808  1
  Pt  Pt3  1  0.444817  0.194817  0.610366  1
  Pt  Pt4  1  0.545803  0.795803  0.408394  1
  Pt  Pt5  1  0.716407  0.966407  0.067184  1
