# generated using pymatgen
data_Tb8MgSiPt23
_symmetry_space_group_name_H-M   'P 1'
_cell_length_a   8.37947100
_cell_length_b   8.37947100
_cell_length_c   8.39537600
_cell_angle_alpha   90.00000000
_cell_angle_beta   90.00000000
_cell_angle_gamma   90.00000000
_symmetry_Int_Tables_number   1
_chemical_formula_structural   Tb8MgSiPt23
_chemical_formula_sum   'Tb8 Mg1 Si1 Pt23'
_cell_volume   589.48581098
_cell_formula_units_Z   1
loop_
 _symmetry_equiv_pos_site_id
 _symmetry_equiv_pos_as_xyz
  1  'x, y, z'
loop_
 _atom_site_type_symbol
 _atom_site_label
 _atom_site_symmetry_multiplicity
 _atom_site_fract_x
 _atom_site_fract_y
 _atom_site_fract_z
 _atom_site_occupancy
  Tb  Tb0  1  0.251581  0.251581  0.252181  1
  Tb  Tb1  1  0.738731  0.738731  0.746909  1
  Tb  Tb2  1  0.748419  0.748419  0.252181  1
  Tb  Tb3  1  0.738731  0.261269  0.746909  1
  Tb  Tb4  1  0.261269  0.261269  0.746909  1
  Tb  Tb5  1  0.251581  0.748419  0.252181  1
  Tb  Tb6  1  0.261269  0.738731  0.746909  1
  Tb  Tb7  1  0.748419  0.251581  0.252181  1
  Mg  Mg8  1  0.000000  0.000000  0.684902  1
  Si  Si9  1  0.000000  0.000000  0.040557  1
  Pt  Pt10  1  0.254365  0.500000  0.003078  1
  Pt  Pt11  1  0.745635  0.500000  0.003078  1
  Pt  Pt12  1  0.000000  0.266522  0.505487  1
  Pt  Pt13  1  0.500000  0.254365  0.003078  1
  Pt  Pt14  1  0.000000  0.733478  0.505487  1
  Pt  Pt15  1  0.500000  0.745635  0.003078  1
  Pt  Pt16  1  0.500000  0.000000  0.249851  1
  Pt  Pt17  1  0.266522  0.000000  0.505487  1
  Pt  Pt18  1  0.500000  0.000000  0.742730  1
  Pt  Pt19  1  0.733478  0.000000  0.505487  1
  Pt  Pt20  1  0.000000  0.500000  0.249851  1
  Pt  Pt21  1  0.000000  0.500000  0.742730  1
  Pt  Pt22  1  0.252648  0.500000  0.495812  1
  Pt  Pt23  1  0.747352  0.500000  0.495812  1
  Pt  Pt24  1  0.500000  0.252648  0.495812  1
  Pt  Pt25  1  0.500000  0.747352  0.495812  1
  Pt  Pt26  1  0.500000  0.500000  0.250310  1
  Pt  Pt27  1  0.500000  0.500000  0.750032  1
  Pt  Pt28  1  0.274821  0.000000  0.990395  1
  Pt  Pt29  1  0.725179  0.000000  0.990395  1
  Pt  Pt30  1  0.000000  0.274821  0.990395  1
  Pt  Pt31  1  0.000000  0.725179  0.990395  1
  Pt  Pt32  1  0.000000  0.000000  0.313588  1
