# generated using pymatgen
data_Tm3Lu(Co5As3)4
_symmetry_space_group_name_H-M   'P 1'
_cell_length_a   3.77183200
_cell_length_b   12.16729823
_cell_length_c   10.66399521
_cell_angle_alpha   90.01603546
_cell_angle_beta   90.00000000
_cell_angle_gamma   90.00000000
_symmetry_Int_Tables_number   1
_chemical_formula_structural   Tm3Lu(Co5As3)4
_chemical_formula_sum   'Tm3 Lu1 Co20 As12'
_cell_volume   489.40276439
_cell_formula_units_Z   1
loop_
 _symmetry_equiv_pos_site_id
 _symmetry_equiv_pos_as_xyz
  1  'x, y, z'
loop_
 _atom_site_type_symbol
 _atom_site_label
 _atom_site_symmetry_multiplicity
 _atom_site_fract_x
 _atom_site_fract_y
 _atom_site_fract_z
 _atom_site_occupancy
  Tm  Tm0  1  0.750000  0.701756  0.081420  1
  Tm  Tm1  1  0.250000  0.298250  0.918540  1
  Tm  Tm2  1  0.250000  0.798300  0.581142  1
  Lu  Lu3  1  0.750000  0.201423  0.419151  1
  Co  Co4  1  0.750000  0.697380  0.384668  1
  Co  Co5  1  0.250000  0.302238  0.614906  1
  Co  Co6  1  0.250000  0.802674  0.884621  1
  Co  Co7  1  0.750000  0.197425  0.115773  1
  Co  Co8  1  0.750000  0.991428  0.212997  1
  Co  Co9  1  0.250000  0.008889  0.787125  1
  Co  Co10  1  0.250000  0.508504  0.712672  1
  Co  Co11  1  0.750000  0.491470  0.287112  1
  Co  Co12  1  0.750000  0.677821  0.783847  1
  Co  Co13  1  0.250000  0.322155  0.216076  1
  Co  Co14  1  0.250000  0.822234  0.284022  1
  Co  Co15  1  0.750000  0.177864  0.716066  1
  Co  Co16  1  0.750000  0.931984  0.969271  1
  Co  Co17  1  0.250000  0.068254  0.031276  1
  Co  Co18  1  0.250000  0.567656  0.469045  1
  Co  Co19  1  0.750000  0.431438  0.530461  1
  Co  Co20  1  0.750000  0.987411  0.592561  1
  Co  Co21  1  0.250000  0.013407  0.407252  1
  Co  Co22  1  0.250000  0.512774  0.092635  1
  Co  Co23  1  0.750000  0.487252  0.907300  1
  As  As24  1  0.750000  0.614339  0.584789  1
  As  As25  1  0.250000  0.384771  0.414959  1
  As  As26  1  0.250000  0.885550  0.085007  1
  As  As27  1  0.750000  0.114605  0.915256  1
  As  As28  1  0.750000  0.890266  0.400106  1
  As  As29  1  0.250000  0.109936  0.599541  1
  As  As30  1  0.250000  0.609787  0.900089  1
  As  As31  1  0.750000  0.390285  0.099761  1
  As  As32  1  0.750000  0.870208  0.768226  1
  As  As33  1  0.250000  0.130258  0.232369  1
  As  As34  1  0.250000  0.629865  0.268322  1
  As  As35  1  0.750000  0.370143  0.731635  1
