# generated using pymatgen
data_Ho6Ta4Al12Os7
_symmetry_space_group_name_H-M   'P 1'
_cell_length_a   9.02842440
_cell_length_b   9.02842469
_cell_length_c   9.02842500
_cell_angle_alpha   60.00000253
_cell_angle_beta   60.00000146
_cell_angle_gamma   59.99999993
_symmetry_Int_Tables_number   1
_chemical_formula_structural   Ho6Ta4Al12Os7
_chemical_formula_sum   'Ho6 Ta4 Al12 Os7'
_cell_volume   520.38042942
_cell_formula_units_Z   1
loop_
 _symmetry_equiv_pos_site_id
 _symmetry_equiv_pos_as_xyz
  1  'x, y, z'
loop_
 _atom_site_type_symbol
 _atom_site_label
 _atom_site_symmetry_multiplicity
 _atom_site_fract_x
 _atom_site_fract_y
 _atom_site_fract_z
 _atom_site_occupancy
  Ho  Ho0  1  0.706465  0.706465  0.293535  1
  Ho  Ho1  1  0.293535  0.706465  0.293535  1
  Ho  Ho2  1  0.706465  0.293535  0.293535  1
  Ho  Ho3  1  0.293535  0.293535  0.706465  1
  Ho  Ho4  1  0.706465  0.293535  0.706465  1
  Ho  Ho5  1  0.293535  0.706465  0.706465  1
  Ta  Ta6  1  0.879415  0.879415  0.361753  1
  Ta  Ta7  1  0.879415  0.361753  0.879415  1
  Ta  Ta8  1  0.361753  0.879415  0.879415  1
  Ta  Ta9  1  0.879415  0.879415  0.879415  1
  Al  Al10  1  0.120457  0.120457  0.638628  1
  Al  Al11  1  0.120457  0.638628  0.120457  1
  Al  Al12  1  0.638628  0.120457  0.120457  1
  Al  Al13  1  0.120457  0.120457  0.120457  1
  Al  Al14  1  0.666252  0.666252  0.001247  1
  Al  Al15  1  0.666252  0.001247  0.666252  1
  Al  Al16  1  0.001247  0.666252  0.666252  1
  Al  Al17  1  0.666252  0.666252  0.666252  1
  Al  Al18  1  0.330965  0.330965  0.007105  1
  Al  Al19  1  0.330965  0.007105  0.330965  1
  Al  Al20  1  0.007105  0.330965  0.330965  1
  Al  Al21  1  0.330965  0.330965  0.330965  1
  Os  Os22  1  0.000000  0.000000  0.000000  1
  Os  Os23  1  0.995615  0.995615  0.504385  1
  Os  Os24  1  0.504385  0.995615  0.504385  1
  Os  Os25  1  0.995615  0.504385  0.504385  1
  Os  Os26  1  0.504385  0.504385  0.995615  1
  Os  Os27  1  0.995615  0.504385  0.995615  1
  Os  Os28  1  0.504385  0.995615  0.995615  1
