# generated using pymatgen
data_Dy2Ho4Ga7Co16
_symmetry_space_group_name_H-M   'P 1'
_cell_length_a   8.47207986
_cell_length_b   8.47208044
_cell_length_c   8.47141000
_cell_angle_alpha   60.00260993
_cell_angle_beta   60.00260767
_cell_angle_gamma   59.98174666
_symmetry_Int_Tables_number   1
_chemical_formula_structural   Dy2Ho4Ga7Co16
_chemical_formula_sum   'Dy2 Ho4 Ga7 Co16'
_cell_volume   429.91043613
_cell_formula_units_Z   1
loop_
 _symmetry_equiv_pos_site_id
 _symmetry_equiv_pos_as_xyz
  1  'x, y, z'
loop_
 _atom_site_type_symbol
 _atom_site_label
 _atom_site_symmetry_multiplicity
 _atom_site_fract_x
 _atom_site_fract_y
 _atom_site_fract_z
 _atom_site_occupancy
  Dy  Dy0  1  0.719354  0.280646  0.280553  1
  Dy  Dy1  1  0.719354  0.280646  0.719447  1
  Ho  Ho2  1  0.719729  0.719749  0.280261  1
  Ho  Ho3  1  0.280349  0.719651  0.719764  1
  Ho  Ho4  1  0.280349  0.719651  0.280236  1
  Ho  Ho5  1  0.280251  0.280271  0.719739  1
  Ga  Ga6  1  0.000092  0.999908  0.000000  1
  Ga  Ga7  1  0.499906  0.999877  0.000095  1
  Ga  Ga8  1  0.499906  0.999877  0.500122  1
  Ga  Ga9  1  0.499782  0.500218  0.000000  1
  Ga  Ga10  1  0.000123  0.500094  0.499878  1
  Ga  Ga11  1  0.000123  0.500094  0.999905  1
  Ga  Ga12  1  0.000220  0.999780  0.500000  1
  Co  Co13  1  0.622042  0.125834  0.126063  1
  Co  Co14  1  0.125960  0.622158  0.125942  1
  Co  Co15  1  0.126153  0.125897  0.622058  1
  Co  Co16  1  0.126153  0.125897  0.125893  1
  Co  Co17  1  0.377842  0.874040  0.874058  1
  Co  Co18  1  0.874166  0.377958  0.873937  1
  Co  Co19  1  0.874103  0.873847  0.377942  1
  Co  Co20  1  0.874103  0.873847  0.874107  1
  Co  Co21  1  0.036560  0.321219  0.321111  1
  Co  Co22  1  0.321203  0.036437  0.321180  1
  Co  Co23  1  0.321118  0.321203  0.036514  1
  Co  Co24  1  0.321118  0.321203  0.321167  1
  Co  Co25  1  0.963563  0.678797  0.678820  1
  Co  Co26  1  0.678781  0.963440  0.678889  1
  Co  Co27  1  0.678797  0.678882  0.963486  1
  Co  Co28  1  0.678797  0.678882  0.678833  1
