# generated using pymatgen
data_Cs2Ge3BiO9
_symmetry_space_group_name_H-M   'P 1'
_cell_length_a   7.60361400
_cell_length_b   7.60361460
_cell_length_c   11.04983800
_cell_angle_alpha   90.00000000
_cell_angle_beta   90.00000000
_cell_angle_gamma   120.00000609
_symmetry_Int_Tables_number   1
_chemical_formula_structural   Cs2Ge3BiO9
_chemical_formula_sum   'Cs4 Ge6 Bi2 O18'
_cell_volume   553.25668925
_cell_formula_units_Z   2
loop_
 _symmetry_equiv_pos_site_id
 _symmetry_equiv_pos_as_xyz
  1  'x, y, z'
loop_
 _atom_site_type_symbol
 _atom_site_label
 _atom_site_symmetry_multiplicity
 _atom_site_fract_x
 _atom_site_fract_y
 _atom_site_fract_z
 _atom_site_occupancy
  Cs  Cs0  1  0.333333  0.666667  0.060834  1
  Cs  Cs1  1  0.666667  0.333333  0.560834  1
  Cs  Cs2  1  0.666667  0.333333  0.939166  1
  Cs  Cs3  1  0.333333  0.666667  0.439166  1
  Ge  Ge4  1  0.384097  0.242974  0.250000  1
  Ge  Ge5  1  0.141124  0.384097  0.750000  1
  Ge  Ge6  1  0.242974  0.858876  0.750000  1
  Ge  Ge7  1  0.757026  0.141124  0.250000  1
  Ge  Ge8  1  0.858876  0.615903  0.250000  1
  Ge  Ge9  1  0.615903  0.757026  0.750000  1
  Bi  Bi10  1  0.000000  0.000000  0.000000  1
  Bi  Bi11  1  0.000000  0.000000  0.500000  1
  O  O12  1  0.492692  0.080739  0.250000  1
  O  O13  1  0.411953  0.492692  0.750000  1
  O  O14  1  0.080739  0.588047  0.750000  1
  O  O15  1  0.919261  0.411953  0.250000  1
  O  O16  1  0.588047  0.507308  0.250000  1
  O  O17  1  0.507308  0.919261  0.750000  1
  O  O18  1  0.261191  0.230138  0.113264  1
  O  O19  1  0.031053  0.261191  0.613264  1
  O  O20  1  0.230138  0.968947  0.613264  1
  O  O21  1  0.769862  0.031053  0.113264  1
  O  O22  1  0.968947  0.738809  0.113264  1
  O  O23  1  0.738809  0.769862  0.613264  1
  O  O24  1  0.738809  0.769862  0.886736  1
  O  O25  1  0.968947  0.738809  0.386736  1
  O  O26  1  0.769862  0.031053  0.386736  1
  O  O27  1  0.230138  0.968947  0.886736  1
  O  O28  1  0.031053  0.261191  0.886736  1
  O  O29  1  0.261191  0.230138  0.386736  1
