# generated using pymatgen
data_Tb4Ga20Pd11
_symmetry_space_group_name_H-M   'P 1'
_cell_length_a   4.19300543
_cell_length_b   11.01283699
_cell_length_c   13.69253302
_cell_angle_alpha   81.91296549
_cell_angle_beta   81.19263198
_cell_angle_gamma   79.02568009
_symmetry_Int_Tables_number   1
_chemical_formula_structural   Tb4Ga20Pd11
_chemical_formula_sum   'Tb4 Ga20 Pd11'
_cell_volume   609.32983961
_cell_formula_units_Z   1
loop_
 _symmetry_equiv_pos_site_id
 _symmetry_equiv_pos_as_xyz
  1  'x, y, z'
loop_
 _atom_site_type_symbol
 _atom_site_label
 _atom_site_symmetry_multiplicity
 _atom_site_fract_x
 _atom_site_fract_y
 _atom_site_fract_z
 _atom_site_occupancy
  Tb  Tb0  1  0.877717  0.909126  0.335438  1
  Tb  Tb1  1  0.122283  0.090874  0.664562  1
  Tb  Tb2  1  0.227017  0.365618  0.180346  1
  Tb  Tb3  1  0.772983  0.634382  0.819654  1
  Ga  Ga4  1  0.994871  0.923459  0.086798  1
  Ga  Ga5  1  0.005129  0.076541  0.913202  1
  Ga  Ga6  1  0.932463  0.330058  0.805016  1
  Ga  Ga7  1  0.067537  0.669942  0.194984  1
  Ga  Ga8  1  0.897131  0.661348  0.544389  1
  Ga  Ga9  1  0.102869  0.338652  0.455611  1
  Ga  Ga10  1  0.797276  0.397493  0.007955  1
  Ga  Ga11  1  0.202724  0.602507  0.992045  1
  Ga  Ga12  1  0.744200  0.213268  0.298333  1
  Ga  Ga13  1  0.255800  0.786732  0.701667  1
  Ga  Ga14  1  0.697865  0.101239  0.503029  1
  Ga  Ga15  1  0.302135  0.898761  0.496971  1
  Ga  Ga16  1  0.613295  0.471926  0.301486  1
  Ga  Ga17  1  0.386705  0.528074  0.698514  1
  Ga  Ga18  1  0.603617  0.794170  0.998595  1
  Ga  Ga19  1  0.396383  0.205830  0.001405  1
  Ga  Ga20  1  0.457824  0.711976  0.372375  1
  Ga  Ga21  1  0.542176  0.288024  0.627625  1
  Ga  Ga22  1  0.365815  0.062741  0.205629  1
  Ga  Ga23  1  0.634185  0.937259  0.794371  1
  Pd  Pd24  1  0.500000  0.500000  0.500000  1
  Pd  Pd25  1  0.971123  0.429899  0.627855  1
  Pd  Pd26  1  0.028877  0.570101  0.372145  1
  Pd  Pd27  1  0.864923  0.160839  0.109315  1
  Pd  Pd28  1  0.135077  0.839161  0.890685  1
  Pd  Pd29  1  0.759051  0.873724  0.608176  1
  Pd  Pd30  1  0.240949  0.126276  0.391824  1
  Pd  Pd31  1  0.653968  0.582741  0.109323  1
  Pd  Pd32  1  0.346032  0.417259  0.890677  1
  Pd  Pd33  1  0.495874  0.825901  0.182351  1
  Pd  Pd34  1  0.504126  0.174099  0.817649  1
