# generated using pymatgen
data_Ta10Ga3Ge3C
_symmetry_space_group_name_H-M   'P 1'
_cell_length_a   7.69898500
_cell_length_b   7.69898424
_cell_length_c   5.33505000
_cell_angle_alpha   90.00000000
_cell_angle_beta   90.00000000
_cell_angle_gamma   119.99999899
_symmetry_Int_Tables_number   1
_chemical_formula_structural   Ta10Ga3Ge3C
_chemical_formula_sum   'Ta10 Ga3 Ge3 C1'
_cell_volume   273.86468541
_cell_formula_units_Z   1
loop_
 _symmetry_equiv_pos_site_id
 _symmetry_equiv_pos_as_xyz
  1  'x, y, z'
loop_
 _atom_site_type_symbol
 _atom_site_label
 _atom_site_symmetry_multiplicity
 _atom_site_fract_x
 _atom_site_fract_y
 _atom_site_fract_z
 _atom_site_occupancy
  Ta  Ta0  1  0.000000  0.763230  0.257935  1
  Ta  Ta1  1  0.236770  0.236770  0.257935  1
  Ta  Ta2  1  0.763230  0.000000  0.257935  1
  Ta  Ta3  1  0.000000  0.234652  0.742662  1
  Ta  Ta4  1  0.765348  0.765348  0.742662  1
  Ta  Ta5  1  0.234652  0.000000  0.742662  1
  Ta  Ta6  1  0.333333  0.666667  0.000277  1
  Ta  Ta7  1  0.666667  0.333333  0.000277  1
  Ta  Ta8  1  0.666667  0.333333  0.497891  1
  Ta  Ta9  1  0.333333  0.666667  0.497891  1
  Ga  Ga10  1  0.000000  0.399951  0.244434  1
  Ga  Ga11  1  0.600049  0.600049  0.244434  1
  Ga  Ga12  1  0.399951  0.000000  0.244434  1
  Ge  Ge13  1  0.000000  0.598191  0.756872  1
  Ge  Ge14  1  0.401809  0.401809  0.756872  1
  Ge  Ge15  1  0.598191  0.000000  0.756872  1
  C  C16  1  0.000000  0.000000  0.497953  1
