# generated using pymatgen
data_MgTi(NbSe2)8
_symmetry_space_group_name_H-M   'P 1'
_cell_length_a   7.00034700
_cell_length_b   7.00034782
_cell_length_c   13.34452300
_cell_angle_alpha   90.00000000
_cell_angle_beta   90.00000000
_cell_angle_gamma   120.00000083
_symmetry_Int_Tables_number   1
_chemical_formula_structural   MgTi(NbSe2)8
_chemical_formula_sum   'Mg1 Ti1 Nb8 Se16'
_cell_volume   566.33430578
_cell_formula_units_Z   1
loop_
 _symmetry_equiv_pos_site_id
 _symmetry_equiv_pos_as_xyz
  1  'x, y, z'
loop_
 _atom_site_type_symbol
 _atom_site_label
 _atom_site_symmetry_multiplicity
 _atom_site_fract_x
 _atom_site_fract_y
 _atom_site_fract_z
 _atom_site_occupancy
  Mg  Mg0  1  0.000000  0.000000  0.000000  1
  Ti  Ti1  1  0.000000  0.000000  0.500000  1
  Nb  Nb2  1  0.000000  0.000000  0.259169  1
  Nb  Nb3  1  0.000000  0.000000  0.740831  1
  Nb  Nb4  1  0.506270  0.012539  0.257941  1
  Nb  Nb5  1  0.493730  0.987461  0.742059  1
  Nb  Nb6  1  0.987461  0.493730  0.257941  1
  Nb  Nb7  1  0.012539  0.506270  0.742059  1
  Nb  Nb8  1  0.506270  0.493730  0.257941  1
  Nb  Nb9  1  0.493730  0.506270  0.742059  1
  Se  Se10  1  0.333333  0.666667  0.613806  1
  Se  Se11  1  0.666667  0.333333  0.386194  1
  Se  Se12  1  0.666667  0.333333  0.128943  1
  Se  Se13  1  0.333333  0.666667  0.871057  1
  Se  Se14  1  0.168200  0.336400  0.133335  1
  Se  Se15  1  0.831800  0.663600  0.866665  1
  Se  Se16  1  0.663600  0.831800  0.133335  1
  Se  Se17  1  0.831583  0.663167  0.616514  1
  Se  Se18  1  0.336400  0.168200  0.866665  1
  Se  Se19  1  0.168417  0.336833  0.383486  1
  Se  Se20  1  0.168200  0.831800  0.133335  1
  Se  Se21  1  0.336833  0.168417  0.616514  1
  Se  Se22  1  0.831800  0.168200  0.866665  1
  Se  Se23  1  0.663167  0.831583  0.383486  1
  Se  Se24  1  0.831583  0.168417  0.616514  1
  Se  Se25  1  0.168417  0.831583  0.383486  1
