# generated using pymatgen
data_Hf2Zr(Co3P2)3
_symmetry_space_group_name_H-M   'P 1'
_cell_length_a   3.61758900
_cell_length_b   10.28237000
_cell_length_c   11.90838800
_cell_angle_alpha   90.00000000
_cell_angle_beta   90.00000000
_cell_angle_gamma   90.00000000
_symmetry_Int_Tables_number   1
_chemical_formula_structural   Hf2Zr(Co3P2)3
_chemical_formula_sum   'Hf4 Zr2 Co18 P12'
_cell_volume   442.96093611
_cell_formula_units_Z   2
loop_
 _symmetry_equiv_pos_site_id
 _symmetry_equiv_pos_as_xyz
  1  'x, y, z'
loop_
 _atom_site_type_symbol
 _atom_site_label
 _atom_site_symmetry_multiplicity
 _atom_site_fract_x
 _atom_site_fract_y
 _atom_site_fract_z
 _atom_site_occupancy
  Hf  Hf0  1  0.250000  0.928590  0.792270  1
  Hf  Hf1  1  0.250000  0.571410  0.792270  1
  Hf  Hf2  1  0.750000  0.071410  0.207730  1
  Hf  Hf3  1  0.750000  0.428590  0.207730  1
  Zr  Zr4  1  0.750000  0.250000  0.472926  1
  Zr  Zr5  1  0.250000  0.750000  0.527074  1
  Co  Co6  1  0.250000  0.250000  0.835506  1
  Co  Co7  1  0.750000  0.750000  0.164494  1
  Co  Co8  1  0.250000  0.250000  0.294794  1
  Co  Co9  1  0.750000  0.750000  0.705206  1
  Co  Co10  1  0.750000  0.250000  0.012363  1
  Co  Co11  1  0.250000  0.750000  0.987637  1
  Co  Co12  1  0.250000  0.417414  0.005530  1
  Co  Co13  1  0.250000  0.082586  0.005530  1
  Co  Co14  1  0.750000  0.582586  0.994470  1
  Co  Co15  1  0.750000  0.917414  0.994470  1
  Co  Co16  1  0.250000  0.450722  0.567774  1
  Co  Co17  1  0.250000  0.049278  0.567774  1
  Co  Co18  1  0.750000  0.549278  0.432226  1
  Co  Co19  1  0.750000  0.950722  0.432226  1
  Co  Co20  1  0.250000  0.874644  0.292398  1
  Co  Co21  1  0.250000  0.625356  0.292398  1
  Co  Co22  1  0.750000  0.125356  0.707602  1
  Co  Co23  1  0.750000  0.374644  0.707602  1
  P  P24  1  0.250000  0.250000  0.119701  1
  P  P25  1  0.750000  0.750000  0.880299  1
  P  P26  1  0.250000  0.250000  0.648229  1
  P  P27  1  0.750000  0.750000  0.351771  1
  P  P28  1  0.250000  0.433016  0.382000  1
  P  P29  1  0.250000  0.066984  0.382000  1
  P  P30  1  0.750000  0.566984  0.618000  1
  P  P31  1  0.750000  0.933016  0.618000  1
  P  P32  1  0.250000  0.905941  0.111330  1
  P  P33  1  0.250000  0.594059  0.111330  1
  P  P34  1  0.750000  0.094059  0.888670  1
  P  P35  1  0.750000  0.405941  0.888670  1
