# generated using pymatgen
data_TmLu11Co6Sn
_symmetry_space_group_name_H-M   'P 1'
_cell_length_a   8.17199586
_cell_length_b   8.17199635
_cell_length_c   8.16984232
_cell_angle_alpha   109.47386612
_cell_angle_beta   109.43486084
_cell_angle_gamma   109.51560741
_symmetry_Int_Tables_number   1
_chemical_formula_structural   TmLu11Co6Sn
_chemical_formula_sum   'Tm1 Lu11 Co6 Sn1'
_cell_volume   419.94335079
_cell_formula_units_Z   1
loop_
 _symmetry_equiv_pos_site_id
 _symmetry_equiv_pos_as_xyz
  1  'x, y, z'
loop_
 _atom_site_type_symbol
 _atom_site_label
 _atom_site_symmetry_multiplicity
 _atom_site_fract_x
 _atom_site_fract_y
 _atom_site_fract_z
 _atom_site_occupancy
  Tm  Tm0  1  0.805626  0.698602  0.504230  1
  Lu  Lu1  1  0.194354  0.301951  0.496302  1
  Lu  Lu2  1  0.194534  0.697991  0.892525  1
  Lu  Lu3  1  0.805742  0.301845  0.107587  1
  Lu  Lu4  1  0.697990  0.503574  0.805851  1
  Lu  Lu5  1  0.301539  0.496136  0.194050  1
  Lu  Lu6  1  0.697911  0.892511  0.194050  1
  Lu  Lu7  1  0.302279  0.107861  0.805851  1
  Lu  Lu8  1  0.503495  0.805744  0.698070  1
  Lu  Lu9  1  0.496091  0.193930  0.301846  1
  Lu  Lu10  1  0.107916  0.805752  0.301846  1
  Lu  Lu11  1  0.892325  0.194577  0.698070  1
  Co  Co12  1  0.885030  0.384541  0.500025  1
  Co  Co13  1  0.115484  0.614995  0.500025  1
  Co  Co14  1  0.384777  0.500010  0.884787  1
  Co  Co15  1  0.614926  0.499829  0.114755  1
  Co  Co16  1  0.499877  0.884847  0.384725  1
  Co  Co17  1  0.500010  0.115181  0.615191  1
  Sn  Sn18  1  0.000095  0.000122  0.000218  1
