# generated using pymatgen
data_Yb2Zn19Au3
_symmetry_space_group_name_H-M   'P 1'
_cell_length_a   8.39403968
_cell_length_b   8.38338522
_cell_length_c   8.40028785
_cell_angle_alpha   99.42591012
_cell_angle_beta   99.84004268
_cell_angle_gamma   131.47683392
_symmetry_Int_Tables_number   1
_chemical_formula_structural   Yb2Zn19Au3
_chemical_formula_sum   'Yb2 Zn19 Au3'
_cell_volume   404.49779614
_cell_formula_units_Z   1
loop_
 _symmetry_equiv_pos_site_id
 _symmetry_equiv_pos_as_xyz
  1  'x, y, z'
loop_
 _atom_site_type_symbol
 _atom_site_label
 _atom_site_symmetry_multiplicity
 _atom_site_fract_x
 _atom_site_fract_y
 _atom_site_fract_z
 _atom_site_occupancy
  Yb  Yb0  1  0.499221  0.496421  0.000535  1
  Yb  Yb1  1  0.747963  0.249799  0.498815  1
  Zn  Zn2  1  0.996495  0.324298  0.913458  1
  Zn  Zn3  1  0.252614  0.671307  0.825963  1
  Zn  Zn4  1  0.849115  0.436384  0.173948  1
  Zn  Zn5  1  0.925274  0.599201  0.917376  1
  Zn  Zn6  1  0.676502  0.001962  0.085121  1
  Zn  Zn7  1  0.328622  0.744812  0.174412  1
  Zn  Zn8  1  0.569435  0.156570  0.824556  1
  Zn  Zn9  1  0.847740  0.674703  0.417028  1
  Zn  Zn10  1  0.253153  0.425758  0.586608  1
  Zn  Zn11  1  0.997456  0.079678  0.673581  1
  Zn  Zn12  1  0.408142  0.321723  0.331670  1
  Zn  Zn13  1  0.325254  0.151546  0.583076  1
  Zn  Zn14  1  0.575128  0.747649  0.413807  1
  Zn  Zn15  1  0.920448  0.002191  0.326291  1
  Zn  Zn16  1  0.681250  0.592018  0.672464  1
  Zn  Zn17  1  0.249694  0.749904  0.500163  1
  Zn  Zn18  1  0.000511  0.999887  0.999790  1
  Zn  Zn19  1  0.121460  0.871900  0.745842  1
  Zn  Zn20  1  0.120403  0.872757  0.251638  1
  Au  Au21  1  0.403651  0.081585  0.084021  1
  Au  Au22  1  0.124849  0.373833  0.250269  1
  Au  Au23  1  0.625621  0.874114  0.749565  1
