# generated using pymatgen
data_DyMnF7
_symmetry_space_group_name_H-M   'P 1'
_cell_length_a   5.43949600
_cell_length_b   8.69767522
_cell_length_c   11.70711683
_cell_angle_alpha   62.61426982
_cell_angle_beta   90.00000000
_cell_angle_gamma   90.00000000
_symmetry_Int_Tables_number   1
_chemical_formula_structural   DyMnF7
_chemical_formula_sum   'Dy4 Mn4 F28'
_cell_volume   491.80225641
_cell_formula_units_Z   4
loop_
 _symmetry_equiv_pos_site_id
 _symmetry_equiv_pos_as_xyz
  1  'x, y, z'
loop_
 _atom_site_type_symbol
 _atom_site_label
 _atom_site_symmetry_multiplicity
 _atom_site_fract_x
 _atom_site_fract_y
 _atom_site_fract_z
 _atom_site_occupancy
  Dy  Dy0  1  0.760729  0.809434  0.765043  1
  Dy  Dy1  1  0.260729  0.190566  0.734957  1
  Dy  Dy2  1  0.239271  0.190566  0.234957  1
  Dy  Dy3  1  0.739271  0.809434  0.265043  1
  Mn  Mn4  1  0.758354  0.272810  0.956860  1
  Mn  Mn5  1  0.258354  0.727190  0.543140  1
  Mn  Mn6  1  0.241646  0.727190  0.043140  1
  Mn  Mn7  1  0.741646  0.272810  0.456860  1
  F  F8  1  0.428567  0.705490  0.921063  1
  F  F9  1  0.928567  0.294510  0.578937  1
  F  F10  1  0.571433  0.294510  0.078937  1
  F  F11  1  0.071433  0.705490  0.421063  1
  F  F12  1  0.452904  0.278329  0.539095  1
  F  F13  1  0.952904  0.721671  0.960905  1
  F  F14  1  0.547096  0.721671  0.460905  1
  F  F15  1  0.047096  0.278329  0.039095  1
  F  F16  1  0.774541  0.511287  0.862814  1
  F  F17  1  0.274541  0.488713  0.637186  1
  F  F18  1  0.225459  0.488713  0.137186  1
  F  F19  1  0.725459  0.511287  0.362814  1
  F  F20  1  0.754961  0.036327  0.046336  1
  F  F21  1  0.254961  0.963673  0.453664  1
  F  F22  1  0.245039  0.963673  0.953664  1
  F  F23  1  0.745039  0.036327  0.546336  1
  F  F24  1  0.977606  0.726272  0.631843  1
  F  F25  1  0.477606  0.273728  0.868157  1
  F  F26  1  0.022394  0.273728  0.368157  1
  F  F27  1  0.522394  0.726272  0.131843  1
  F  F28  1  0.057733  0.744228  0.170489  1
  F  F29  1  0.557733  0.255772  0.329511  1
  F  F30  1  0.942267  0.255772  0.829511  1
  F  F31  1  0.442267  0.744228  0.670489  1
  F  F32  1  0.410294  0.969050  0.229985  1
  F  F33  1  0.910294  0.030950  0.270015  1
  F  F34  1  0.589706  0.030950  0.770015  1
  F  F35  1  0.089706  0.969050  0.729985  1
