# generated using pymatgen
data_YbCe4Si2Ir
_symmetry_space_group_name_H-M   'P 1'
_cell_length_a   8.37328766
_cell_length_b   8.37328647
_cell_length_c   8.37328654
_cell_angle_alpha   124.48126909
_cell_angle_beta   124.48994653
_cell_angle_gamma   82.39179307
_symmetry_Int_Tables_number   1
_chemical_formula_structural   YbCe4Si2Ir
_chemical_formula_sum   'Yb2 Ce8 Si4 Ir2'
_cell_volume   383.25944752
_cell_formula_units_Z   2
loop_
 _symmetry_equiv_pos_site_id
 _symmetry_equiv_pos_as_xyz
  1  'x, y, z'
loop_
 _atom_site_type_symbol
 _atom_site_label
 _atom_site_symmetry_multiplicity
 _atom_site_fract_x
 _atom_site_fract_y
 _atom_site_fract_z
 _atom_site_occupancy
  Yb  Yb0  1  0.498942  0.502741  0.001683  1
  Yb  Yb1  1  0.998942  0.997259  0.996201  1
  Ce  Ce2  1  0.525970  0.668716  0.493792  1
  Ce  Ce3  1  0.825076  0.967822  0.493792  1
  Ce  Ce4  1  0.325076  0.831284  0.857254  1
  Ce  Ce5  1  0.477629  0.322411  0.494431  1
  Ce  Ce6  1  0.172021  0.016802  0.494431  1
  Ce  Ce7  1  0.977629  0.483198  0.155218  1
  Ce  Ce8  1  0.672021  0.177589  0.155218  1
  Ce  Ce9  1  0.025970  0.532178  0.857254  1
  Si  Si10  1  0.620056  0.120996  0.741052  1
  Si  Si11  1  0.120056  0.379004  0.499060  1
  Si  Si12  1  0.243987  0.250000  0.993987  1
  Si  Si13  1  0.743987  0.750000  0.993987  1
  Ir  Ir14  1  0.886318  0.614423  0.500741  1
  Ir  Ir15  1  0.386318  0.885577  0.271895  1
