# generated using pymatgen
data_La15Pr5Si15Au
_symmetry_space_group_name_H-M   'P 1'
_cell_length_a   8.00466074
_cell_length_b   8.03234623
_cell_length_c   15.46167000
_cell_angle_alpha   90.12116346
_cell_angle_beta   89.74911823
_cell_angle_gamma   90.07210371
_symmetry_Int_Tables_number   1
_chemical_formula_structural   La15Pr5Si15Au
_chemical_formula_sum   'La15 Pr5 Si15 Au1'
_cell_volume   994.11419801
_cell_formula_units_Z   1
loop_
 _symmetry_equiv_pos_site_id
 _symmetry_equiv_pos_as_xyz
  1  'x, y, z'
loop_
 _atom_site_type_symbol
 _atom_site_label
 _atom_site_symmetry_multiplicity
 _atom_site_fract_x
 _atom_site_fract_y
 _atom_site_fract_z
 _atom_site_occupancy
  La  La0  1  0.305663  0.305655  0.999484  1
  La  La1  1  0.194429  0.808378  0.248807  1
  La  La2  1  0.807824  0.185674  0.751048  1
  La  La3  1  0.692783  0.686197  0.499157  1
  La  La4  1  0.373130  0.011085  0.447422  1
  La  La5  1  0.490882  0.870104  0.699645  1
  La  La6  1  0.511439  0.123562  0.198653  1
  La  La7  1  0.877112  0.488468  0.300881  1
  La  La8  1  0.121780  0.517631  0.802320  1
  La  La9  1  0.627875  0.987855  0.949862  1
  La  La10  1  0.001427  0.381809  0.548042  1
  La  La11  1  0.989704  0.626148  0.052223  1
  La  La12  1  0.133957  0.986620  0.877351  1
  La  La13  1  0.516850  0.629608  0.127436  1
  La  La14  1  0.481830  0.372104  0.626908  1
  Pr  Pr15  1  0.629790  0.518583  0.875714  1
  Pr  Pr16  1  0.371637  0.484266  0.372482  1
  Pr  Pr17  1  0.872756  0.018184  0.376066  1
  Pr  Pr18  1  0.982804  0.127266  0.124946  1
  Pr  Pr19  1  0.012991  0.865971  0.621642  1
  Si  Si20  1  0.333947  0.696728  0.951716  1
  Si  Si21  1  0.661200  0.300160  0.450079  1
  Si  Si22  1  0.700194  0.335226  0.049758  1
  Si  Si23  1  0.301596  0.669387  0.546649  1
  Si  Si24  1  0.806063  0.833242  0.203670  1
  Si  Si25  1  0.166796  0.198361  0.299227  1
  Si  Si26  1  0.835131  0.801810  0.798376  1
  Si  Si27  1  0.289208  0.921462  0.059300  1
  Si  Si28  1  0.581275  0.789643  0.310036  1
  Si  Si29  1  0.434323  0.211686  0.813308  1
  Si  Si30  1  0.786535  0.579732  0.692085  1
  Si  Si31  1  0.210939  0.419266  0.191309  1
  Si  Si32  1  0.705557  0.076645  0.557339  1
  Si  Si33  1  0.920335  0.290046  0.942046  1
  Si  Si34  1  0.079324  0.713479  0.439766  1
  Au  Au35  1  0.190907  0.167959  0.695248  1
