# generated using pymatgen
data_Th2Cr3Co9As7
_symmetry_space_group_name_H-M   'P 1'
_cell_length_a   9.47637425
_cell_length_b   9.47566894
_cell_length_c   3.83879400
_cell_angle_alpha   90.00000000
_cell_angle_beta   90.00000000
_cell_angle_gamma   120.03349965
_symmetry_Int_Tables_number   1
_chemical_formula_structural   Th2Cr3Co9As7
_chemical_formula_sum   'Th2 Cr3 Co9 As7'
_cell_volume   298.42198881
_cell_formula_units_Z   1
loop_
 _symmetry_equiv_pos_site_id
 _symmetry_equiv_pos_as_xyz
  1  'x, y, z'
loop_
 _atom_site_type_symbol
 _atom_site_label
 _atom_site_symmetry_multiplicity
 _atom_site_fract_x
 _atom_site_fract_y
 _atom_site_fract_z
 _atom_site_occupancy
  Th  Th0  1  0.333928  0.666801  0.000000  1
  Th  Th1  1  0.999588  0.999896  0.500000  1
  Cr  Cr2  1  0.774038  0.222258  0.500000  1
  Cr  Cr3  1  0.777863  0.551751  0.500000  1
  Cr  Cr4  1  0.447678  0.225596  0.500000  1
  Co  Co5  1  0.036283  0.269247  0.000000  1
  Co  Co6  1  0.731071  0.767288  0.000000  1
  Co  Co7  1  0.232832  0.963976  0.000000  1
  Co  Co8  1  0.542132  0.051729  0.000000  1
  Co  Co9  1  0.948025  0.490280  0.000000  1
  Co  Co10  1  0.510037  0.457738  0.000000  1
  Co  Co11  1  0.611878  0.897668  0.500000  1
  Co  Co12  1  0.102169  0.714221  0.500000  1
  Co  Co13  1  0.285804  0.388260  0.500000  1
  As  As14  1  0.773150  0.033359  0.000000  1
  As  As15  1  0.966502  0.739881  0.000000  1
  As  As16  1  0.260044  0.226852  0.000000  1
  As  As17  1  0.373725  0.934004  0.500000  1
  As  As18  1  0.065858  0.439720  0.500000  1
  As  As19  1  0.560786  0.626303  0.500000  1
  As  As20  1  0.666607  0.333172  0.000000  1
