# generated using pymatgen
data_YEr7(IrPd)4
_symmetry_space_group_name_H-M   'P 1'
_cell_length_a   6.94616500
_cell_length_b   4.84734000
_cell_length_c   9.66643800
_cell_angle_alpha   90.00000000
_cell_angle_beta   89.99993144
_cell_angle_gamma   90.00000000
_symmetry_Int_Tables_number   1
_chemical_formula_structural   YEr7(IrPd)4
_chemical_formula_sum   'Y1 Er7 Ir4 Pd4'
_cell_volume   325.47306072
_cell_formula_units_Z   1
loop_
 _symmetry_equiv_pos_site_id
 _symmetry_equiv_pos_as_xyz
  1  'x, y, z'
loop_
 _atom_site_type_symbol
 _atom_site_label
 _atom_site_symmetry_multiplicity
 _atom_site_fract_x
 _atom_site_fract_y
 _atom_site_fract_z
 _atom_site_occupancy
  Y  Y0  1  0.999891  0.249999  0.874880  1
  Er  Er1  1  0.999960  0.750000  0.125852  1
  Er  Er2  1  0.500069  0.750000  0.125219  1
  Er  Er3  1  0.000081  0.249999  0.374889  1
  Er  Er4  1  0.500038  0.249999  0.374895  1
  Er  Er5  1  0.500041  0.750000  0.625002  1
  Er  Er6  1  0.999903  0.750000  0.624358  1
  Er  Er7  1  0.499989  0.249999  0.874881  1
  Ir  Ir8  1  0.748962  0.249999  0.125958  1
  Ir  Ir9  1  0.249932  0.750000  0.375134  1
  Ir  Ir10  1  0.748942  0.249999  0.623724  1
  Ir  Ir11  1  0.252047  0.750000  0.875138  1
  Pd  Pd12  1  0.251187  0.249999  0.125678  1
  Pd  Pd13  1  0.749950  0.750000  0.375393  1
  Pd  Pd14  1  0.251086  0.249999  0.623607  1
  Pd  Pd15  1  0.747920  0.750000  0.875395  1
