# generated using pymatgen
data_CaNi2As2Pd
_symmetry_space_group_name_H-M   'P 1'
_cell_length_a   8.23483042
_cell_length_b   8.23483120
_cell_length_c   9.96519220
_cell_angle_alpha   74.54968602
_cell_angle_beta   74.54968325
_cell_angle_gamma   26.90119393
_symmetry_Int_Tables_number   1
_chemical_formula_structural   CaNi2As2Pd
_chemical_formula_sum   'Ca3 Ni6 As6 Pd3'
_cell_volume   294.05775096
_cell_formula_units_Z   3
loop_
 _symmetry_equiv_pos_site_id
 _symmetry_equiv_pos_as_xyz
  1  'x, y, z'
loop_
 _atom_site_type_symbol
 _atom_site_label
 _atom_site_symmetry_multiplicity
 _atom_site_fract_x
 _atom_site_fract_y
 _atom_site_fract_z
 _atom_site_occupancy
  Ca  Ca0  1  0.849364  0.849364  0.693912  1
  Ca  Ca1  1  0.150636  0.150636  0.306088  1
  Ca  Ca2  1  0.000000  0.000000  0.000000  1
  Ni  Ni3  1  0.946951  0.946951  0.328987  1
  Ni  Ni4  1  0.053049  0.053049  0.671013  1
  Ni  Ni5  1  0.781428  0.781428  0.392936  1
  Ni  Ni6  1  0.218572  0.218572  0.607064  1
  Ni  Ni7  1  0.373439  0.373439  0.209831  1
  Ni  Ni8  1  0.626561  0.626561  0.790169  1
  As  As9  1  0.799580  0.799580  0.150553  1
  As  As10  1  0.200420  0.200420  0.849447  1
  As  As11  1  0.527716  0.527716  0.222863  1
  As  As12  1  0.472284  0.472284  0.777137  1
  As  As13  1  0.645176  0.645176  0.546586  1
  As  As14  1  0.354824  0.354824  0.453414  1
  Pd  Pd15  1  0.500000  0.500000  0.500000  1
  Pd  Pd16  1  0.673432  0.673432  0.035404  1
  Pd  Pd17  1  0.326568  0.326568  0.964596  1
