# generated using pymatgen
data_TbTmU6(ReB6)4
_symmetry_space_group_name_H-M   'P 1'
_cell_length_a   3.63543100
_cell_length_b   9.29353542
_cell_length_c   11.39517286
_cell_angle_alpha   89.96057474
_cell_angle_beta   90.00000000
_cell_angle_gamma   90.00000000
_symmetry_Int_Tables_number   1
_chemical_formula_structural   TbTmU6(ReB6)4
_chemical_formula_sum   'Tb1 Tm1 U6 Re4 B24'
_cell_volume   384.99729607
_cell_formula_units_Z   1
loop_
 _symmetry_equiv_pos_site_id
 _symmetry_equiv_pos_as_xyz
  1  'x, y, z'
loop_
 _atom_site_type_symbol
 _atom_site_label
 _atom_site_symmetry_multiplicity
 _atom_site_fract_x
 _atom_site_fract_y
 _atom_site_fract_z
 _atom_site_occupancy
  Tb  Tb0  1  0.000000  0.663340  0.592033  1
  Tm  Tm1  1  0.000000  0.336469  0.407928  1
  U  U2  1  0.000000  0.836329  0.092800  1
  U  U3  1  0.000000  0.163605  0.907329  1
  U  U4  1  0.000000  0.956959  0.396127  1
  U  U5  1  0.000000  0.043905  0.603568  1
  U  U6  1  0.000000  0.457150  0.103621  1
  U  U7  1  0.000000  0.542816  0.896628  1
  Re  Re8  1  0.000000  0.646581  0.316762  1
  Re  Re9  1  0.000000  0.352422  0.682864  1
  Re  Re10  1  0.000000  0.143970  0.178321  1
  Re  Re11  1  0.000000  0.856529  0.822187  1
  B  B12  1  0.500000  0.551097  0.430730  1
  B  B13  1  0.500000  0.447501  0.568750  1
  B  B14  1  0.500000  0.049833  0.067540  1
  B  B15  1  0.500000  0.950100  0.932667  1
  B  B16  1  0.500000  0.742764  0.423039  1
  B  B17  1  0.500000  0.257312  0.576265  1
  B  B18  1  0.500000  0.243148  0.076452  1
  B  B19  1  0.500000  0.756917  0.923804  1
  B  B20  1  0.500000  0.803902  0.273409  1
  B  B21  1  0.500000  0.196054  0.726402  1
  B  B22  1  0.500000  0.302628  0.225587  1
  B  B23  1  0.500000  0.697646  0.774929  1
  B  B24  1  0.500000  0.645170  0.187927  1
  B  B25  1  0.500000  0.354626  0.812085  1
  B  B26  1  0.500000  0.145106  0.311641  1
  B  B27  1  0.500000  0.855669  0.688601  1
  B  B28  1  0.500000  0.987171  0.219035  1
  B  B29  1  0.500000  0.012885  0.780941  1
  B  B30  1  0.500000  0.487658  0.281078  1
  B  B31  1  0.500000  0.511218  0.719273  1
  B  B32  1  0.500000  0.643328  0.039465  1
  B  B33  1  0.500000  0.356706  0.960680  1
  B  B34  1  0.500000  0.141372  0.460601  1
  B  B35  1  0.500000  0.860116  0.538930  1
