# generated using pymatgen
data_NdMnAgPt3
_symmetry_space_group_name_H-M   'P 1'
_cell_length_a   5.27174249
_cell_length_b   5.27174058
_cell_length_c   5.27174124
_cell_angle_alpha   63.14306831
_cell_angle_beta   63.14307923
_cell_angle_gamma   63.14306913
_symmetry_Int_Tables_number   1
_chemical_formula_structural   NdMnAgPt3
_chemical_formula_sum   'Nd1 Mn1 Ag1 Pt3'
_cell_volume   110.81776635
_cell_formula_units_Z   1
loop_
 _symmetry_equiv_pos_site_id
 _symmetry_equiv_pos_as_xyz
  1  'x, y, z'
loop_
 _atom_site_type_symbol
 _atom_site_label
 _atom_site_symmetry_multiplicity
 _atom_site_fract_x
 _atom_site_fract_y
 _atom_site_fract_z
 _atom_site_occupancy
  Nd  Nd0  1  0.004367  0.004367  0.004367  1
  Mn  Mn1  1  0.622276  0.622276  0.622276  1
  Ag  Ag2  1  0.253290  0.253290  0.253290  1
  Pt  Pt3  1  0.622443  0.622443  0.125180  1
  Pt  Pt4  1  0.622443  0.125180  0.622443  1
  Pt  Pt5  1  0.125180  0.622443  0.622443  1
