# generated using pymatgen
data_Ti3Si3MoRh2
_symmetry_space_group_name_H-M   'P 1'
_cell_length_a   7.44757076
_cell_length_b   7.44757166
_cell_length_c   7.44757095
_cell_angle_alpha   126.31787977
_cell_angle_beta   124.65522646
_cell_angle_gamma   80.74077267
_symmetry_Int_Tables_number   1
_chemical_formula_structural   Ti3Si3MoRh2
_chemical_formula_sum   'Ti6 Si6 Mo2 Rh4'
_cell_volume   263.97776667
_cell_formula_units_Z   2
loop_
 _symmetry_equiv_pos_site_id
 _symmetry_equiv_pos_as_xyz
  1  'x, y, z'
loop_
 _atom_site_type_symbol
 _atom_site_label
 _atom_site_symmetry_multiplicity
 _atom_site_fract_x
 _atom_site_fract_y
 _atom_site_fract_z
 _atom_site_occupancy
  Ti  Ti0  1  0.961342  0.730672  0.269330  1
  Ti  Ti1  1  0.038658  0.307989  0.769330  1
  Ti  Ti2  1  0.245418  0.165001  0.419583  1
  Ti  Ti3  1  0.754582  0.174168  0.919583  1
  Ti  Ti4  1  0.562050  0.348350  0.286299  1
  Ti  Ti5  1  0.437950  0.724248  0.786299  1
  Si  Si6  1  0.780674  0.801399  0.520724  1
  Si  Si7  1  0.219326  0.740050  0.020724  1
  Si  Si8  1  0.337904  0.068309  0.746227  1
  Si  Si9  1  0.662096  0.408323  0.730405  1
  Si  Si10  1  0.177918  0.408323  0.246227  1
  Si  Si11  1  0.822082  0.068309  0.230405  1
  Mo  Mo12  1  0.500000  0.497135  0.997135  1
  Mo  Mo13  1  0.000000  0.497135  0.497135  1
  Rh  Rh14  1  0.164402  0.003460  0.911439  1
  Rh  Rh15  1  0.835598  0.747037  0.839058  1
  Rh  Rh16  1  0.407979  0.747037  0.411439  1
  Rh  Rh17  1  0.592021  0.003460  0.339058  1
