# generated using pymatgen
data_YTm4Co19SiP11
_symmetry_space_group_name_H-M   'P 1'
_cell_length_a   11.96338503
_cell_length_b   11.96075431
_cell_length_c   3.66132300
_cell_angle_alpha   90.00000000
_cell_angle_beta   90.00000000
_cell_angle_gamma   119.96075808
_symmetry_Int_Tables_number   1
_chemical_formula_structural   YTm4Co19SiP11
_chemical_formula_sum   'Y1 Tm4 Co19 Si1 P11'
_cell_volume   453.89241114
_cell_formula_units_Z   1
loop_
 _symmetry_equiv_pos_site_id
 _symmetry_equiv_pos_as_xyz
  1  'x, y, z'
loop_
 _atom_site_type_symbol
 _atom_site_label
 _atom_site_symmetry_multiplicity
 _atom_site_fract_x
 _atom_site_fract_y
 _atom_site_fract_z
 _atom_site_occupancy
  Y  Y0  1  0.666035  0.334133  0.000000  1
  Tm  Tm1  1  0.334203  0.666011  0.000000  1
  Tm  Tm2  1  0.184154  0.184078  0.500000  1
  Tm  Tm3  1  0.813097  0.000543  0.500000  1
  Tm  Tm4  1  0.000497  0.813095  0.500000  1
  Co  Co5  1  0.821268  0.198508  0.000000  1
  Co  Co6  1  0.802604  0.624911  0.000000  1
  Co  Co7  1  0.376806  0.173734  0.000000  1
  Co  Co8  1  0.198816  0.820596  0.000000  1
  Co  Co9  1  0.623982  0.802310  0.000000  1
  Co  Co10  1  0.174363  0.377820  0.000000  1
  Co  Co11  1  0.557551  0.557652  0.000000  1
  Co  Co12  1  0.446440  0.996814  0.000000  1
  Co  Co13  1  0.997002  0.446530  0.000000  1
  Co  Co14  1  0.641407  0.124129  0.500000  1
  Co  Co15  1  0.874737  0.517573  0.500000  1
  Co  Co16  1  0.484823  0.358135  0.500000  1
  Co  Co17  1  0.125359  0.641399  0.500000  1
  Co  Co18  1  0.516279  0.873475  0.500000  1
  Co  Co19  1  0.358149  0.486026  0.500000  1
  Co  Co20  1  0.717333  0.717913  0.500000  1
  Co  Co21  1  0.284088  0.997763  0.500000  1
  Co  Co22  1  0.998899  0.284630  0.500000  1
  Co  Co23  1  0.000748  0.000732  0.000000  1
  Si  Si24  1  0.367944  0.368049  0.000000  1
  P  P25  1  0.632797  0.999893  0.000000  1
  P  P26  1  0.999967  0.632830  0.000000  1
  P  P27  1  0.833769  0.314445  0.500000  1
  P  P28  1  0.685505  0.521841  0.500000  1
  P  P29  1  0.479287  0.165155  0.500000  1
  P  P30  1  0.314364  0.832303  0.500000  1
  P  P31  1  0.520544  0.685663  0.500000  1
  P  P32  1  0.166552  0.480692  0.500000  1
  P  P33  1  0.821025  0.821294  0.000000  1
  P  P34  1  0.180127  0.998939  0.000000  1
  P  P35  1  0.999478  0.180384  0.000000  1
