# generated using pymatgen
data_ZrScSi7Ni12
_symmetry_space_group_name_H-M   'P 1'
_cell_length_a   9.13791900
_cell_length_b   9.13791962
_cell_length_c   3.58827200
_cell_angle_alpha   90.00000000
_cell_angle_beta   90.00000000
_cell_angle_gamma   119.99999412
_symmetry_Int_Tables_number   1
_chemical_formula_structural   ZrScSi7Ni12
_chemical_formula_sum   'Zr1 Sc1 Si7 Ni12'
_cell_volume   259.48404025
_cell_formula_units_Z   1
loop_
 _symmetry_equiv_pos_site_id
 _symmetry_equiv_pos_as_xyz
  1  'x, y, z'
loop_
 _atom_site_type_symbol
 _atom_site_label
 _atom_site_symmetry_multiplicity
 _atom_site_fract_x
 _atom_site_fract_y
 _atom_site_fract_z
 _atom_site_occupancy
  Zr  Zr0  1  0.666667  0.333333  0.000000  1
  Sc  Sc1  1  0.000000  0.000000  0.500000  1
  Si  Si2  1  0.333333  0.666667  0.000000  1
  Si  Si3  1  0.447614  0.076698  0.500000  1
  Si  Si4  1  0.923302  0.370916  0.500000  1
  Si  Si5  1  0.629084  0.552386  0.500000  1
  Si  Si6  1  0.737055  0.947180  0.000000  1
  Si  Si7  1  0.052820  0.789875  0.000000  1
  Si  Si8  1  0.210125  0.262945  0.000000  1
  Ni  Ni9  1  0.488690  0.946997  0.000000  1
  Ni  Ni10  1  0.053003  0.541693  0.000000  1
  Ni  Ni11  1  0.458307  0.511310  0.000000  1
  Ni  Ni12  1  0.712011  0.095056  0.500000  1
  Ni  Ni13  1  0.904944  0.616956  0.500000  1
  Ni  Ni14  1  0.383044  0.287989  0.500000  1
  Ni  Ni15  1  0.775658  0.723039  0.000000  1
  Ni  Ni16  1  0.276961  0.052618  0.000000  1
  Ni  Ni17  1  0.947382  0.224342  0.000000  1
  Ni  Ni18  1  0.545614  0.757885  0.500000  1
  Ni  Ni19  1  0.242115  0.787729  0.500000  1
  Ni  Ni20  1  0.212271  0.454386  0.500000  1
