# generated using pymatgen
data_Sm6TiCo16MoP12
_symmetry_space_group_name_H-M   'P 1'
_cell_length_a   3.74767400
_cell_length_b   10.67865400
_cell_length_c   12.39831500
_cell_angle_alpha   90.00000000
_cell_angle_beta   90.00000000
_cell_angle_gamma   90.00000000
_symmetry_Int_Tables_number   1
_chemical_formula_structural   Sm6TiCo16MoP12
_chemical_formula_sum   'Sm6 Ti1 Co16 Mo1 P12'
_cell_volume   496.18197910
_cell_formula_units_Z   1
loop_
 _symmetry_equiv_pos_site_id
 _symmetry_equiv_pos_as_xyz
  1  'x, y, z'
loop_
 _atom_site_type_symbol
 _atom_site_label
 _atom_site_symmetry_multiplicity
 _atom_site_fract_x
 _atom_site_fract_y
 _atom_site_fract_z
 _atom_site_occupancy
  Sm  Sm0  1  0.000000  0.500000  0.523949  1
  Sm  Sm1  1  0.500000  0.000000  0.476169  1
  Sm  Sm2  1  0.500000  0.819069  0.205607  1
  Sm  Sm3  1  0.500000  0.180931  0.205607  1
  Sm  Sm4  1  0.000000  0.681068  0.795089  1
  Sm  Sm5  1  0.000000  0.318932  0.795089  1
  Ti  Ti6  1  0.500000  0.500000  0.151446  1
  Co  Co7  1  0.500000  0.500000  0.703230  1
  Co  Co8  1  0.000000  0.000000  0.297274  1
  Co  Co9  1  0.000000  0.500000  0.986848  1
  Co  Co10  1  0.500000  0.000000  0.012362  1
  Co  Co11  1  0.500000  0.331065  0.993058  1
  Co  Co12  1  0.500000  0.668935  0.993058  1
  Co  Co13  1  0.000000  0.166556  0.007206  1
  Co  Co14  1  0.000000  0.833444  0.007206  1
  Co  Co15  1  0.500000  0.295504  0.431646  1
  Co  Co16  1  0.500000  0.704496  0.431646  1
  Co  Co17  1  0.000000  0.204196  0.568960  1
  Co  Co18  1  0.000000  0.795804  0.568960  1
  Co  Co19  1  0.500000  0.879875  0.707219  1
  Co  Co20  1  0.500000  0.120125  0.707219  1
  Co  Co21  1  0.000000  0.620458  0.292866  1
  Co  Co22  1  0.000000  0.379542  0.292866  1
  Mo  Mo23  1  0.000000  0.000000  0.843944  1
  P  P24  1  0.500000  0.500000  0.884792  1
  P  P25  1  0.000000  0.000000  0.116150  1
  P  P26  1  0.500000  0.500000  0.349850  1
  P  P27  1  0.000000  0.000000  0.653142  1
  P  P28  1  0.500000  0.308380  0.615112  1
  P  P29  1  0.500000  0.691620  0.615112  1
  P  P30  1  0.000000  0.191548  0.385634  1
  P  P31  1  0.000000  0.808452  0.385634  1
  P  P32  1  0.500000  0.845884  0.893303  1
  P  P33  1  0.500000  0.154116  0.893303  1
  P  P34  1  0.000000  0.656282  0.104724  1
  P  P35  1  0.000000  0.343718  0.104724  1
