# generated using pymatgen
data_Yb2Pa(AsPd)3
_symmetry_space_group_name_H-M   'P 1'
_cell_length_a   7.17477928
_cell_length_b   7.06765048
_cell_length_c   4.03818400
_cell_angle_alpha   90.00000000
_cell_angle_beta   90.00000000
_cell_angle_gamma   119.50729670
_symmetry_Int_Tables_number   1
_chemical_formula_structural   Yb2Pa(AsPd)3
_chemical_formula_sum   'Yb2 Pa1 As3 Pd3'
_cell_volume   178.21128108
_cell_formula_units_Z   1
loop_
 _symmetry_equiv_pos_site_id
 _symmetry_equiv_pos_as_xyz
  1  'x, y, z'
loop_
 _atom_site_type_symbol
 _atom_site_label
 _atom_site_symmetry_multiplicity
 _atom_site_fract_x
 _atom_site_fract_y
 _atom_site_fract_z
 _atom_site_occupancy
  Yb  Yb0  1  0.403253  0.404614  0.500000  1
  Yb  Yb1  1  0.596747  0.001361  0.500000  1
  Pa  Pa2  1  0.000000  0.588439  0.500000  1
  As  As3  1  0.669578  0.342190  0.000000  1
  As  As4  1  0.330422  0.672614  0.000000  1
  As  As5  1  0.000000  0.988886  0.500000  1
  Pd  Pd6  1  0.264297  0.002513  0.000000  1
  Pd  Pd7  1  0.735703  0.738216  0.000000  1
  Pd  Pd8  1  0.000000  0.261166  0.000000  1
