# generated using pymatgen
data_Sm3Co8MoP6
_symmetry_space_group_name_H-M   'P 1'
_cell_length_a   3.76460100
_cell_length_b   10.67053000
_cell_length_c   12.38913900
_cell_angle_alpha   90.00000000
_cell_angle_beta   90.00000000
_cell_angle_gamma   90.00000000
_symmetry_Int_Tables_number   1
_chemical_formula_structural   Sm3Co8MoP6
_chemical_formula_sum   'Sm6 Co16 Mo2 P12'
_cell_volume   497.67528057
_cell_formula_units_Z   2
loop_
 _symmetry_equiv_pos_site_id
 _symmetry_equiv_pos_as_xyz
  1  'x, y, z'
loop_
 _atom_site_type_symbol
 _atom_site_label
 _atom_site_symmetry_multiplicity
 _atom_site_fract_x
 _atom_site_fract_y
 _atom_site_fract_z
 _atom_site_occupancy
  Sm  Sm0  1  0.000000  0.500000  0.523887  1
  Sm  Sm1  1  0.500000  0.000000  0.476113  1
  Sm  Sm2  1  0.500000  0.818413  0.204972  1
  Sm  Sm3  1  0.500000  0.181587  0.204972  1
  Sm  Sm4  1  0.000000  0.681587  0.795028  1
  Sm  Sm5  1  0.000000  0.318413  0.795028  1
  Co  Co6  1  0.500000  0.500000  0.702661  1
  Co  Co7  1  0.000000  0.000000  0.297339  1
  Co  Co8  1  0.000000  0.500000  0.986934  1
  Co  Co9  1  0.500000  0.000000  0.013066  1
  Co  Co10  1  0.500000  0.332460  0.991345  1
  Co  Co11  1  0.500000  0.667540  0.991345  1
  Co  Co12  1  0.000000  0.167540  0.008655  1
  Co  Co13  1  0.000000  0.832460  0.008655  1
  Co  Co14  1  0.500000  0.295781  0.431081  1
  Co  Co15  1  0.500000  0.704219  0.431081  1
  Co  Co16  1  0.000000  0.204219  0.568919  1
  Co  Co17  1  0.000000  0.795781  0.568919  1
  Co  Co18  1  0.500000  0.879699  0.707787  1
  Co  Co19  1  0.500000  0.120301  0.707787  1
  Co  Co20  1  0.000000  0.620301  0.292213  1
  Co  Co21  1  0.000000  0.379699  0.292213  1
  Mo  Mo22  1  0.500000  0.500000  0.155198  1
  Mo  Mo23  1  0.000000  0.000000  0.844802  1
  P  P24  1  0.500000  0.500000  0.883822  1
  P  P25  1  0.000000  0.000000  0.116178  1
  P  P26  1  0.500000  0.500000  0.346359  1
  P  P27  1  0.000000  0.000000  0.653641  1
  P  P28  1  0.500000  0.308587  0.614910  1
  P  P29  1  0.500000  0.691413  0.614910  1
  P  P30  1  0.000000  0.191413  0.385090  1
  P  P31  1  0.000000  0.808587  0.385090  1
  P  P32  1  0.500000  0.846016  0.894936  1
  P  P33  1  0.500000  0.153984  0.894936  1
  P  P34  1  0.000000  0.653984  0.105064  1
  P  P35  1  0.000000  0.346016  0.105064  1
