# generated using pymatgen
data_Dy5Zr5(Co2Si5)4
_symmetry_space_group_name_H-M   'P 1'
_cell_length_a   12.22449800
_cell_length_b   12.22449800
_cell_length_c   3.99831300
_cell_angle_alpha   90.00000000
_cell_angle_beta   90.00000000
_cell_angle_gamma   90.00000000
_symmetry_Int_Tables_number   1
_chemical_formula_structural   Dy5Zr5(Co2Si5)4
_chemical_formula_sum   'Dy5 Zr5 Co8 Si20'
_cell_volume   597.50130291
_cell_formula_units_Z   1
loop_
 _symmetry_equiv_pos_site_id
 _symmetry_equiv_pos_as_xyz
  1  'x, y, z'
loop_
 _atom_site_type_symbol
 _atom_site_label
 _atom_site_symmetry_multiplicity
 _atom_site_fract_x
 _atom_site_fract_y
 _atom_site_fract_z
 _atom_site_occupancy
  Dy  Dy0  1  0.000000  0.000000  0.000000  1
  Dy  Dy1  1  0.885562  0.386809  0.500000  1
  Dy  Dy2  1  0.114438  0.613191  0.500000  1
  Dy  Dy3  1  0.386809  0.114438  0.500000  1
  Dy  Dy4  1  0.613191  0.885562  0.500000  1
  Zr  Zr5  1  0.500000  0.500000  0.000000  1
  Zr  Zr6  1  0.676469  0.177759  0.500000  1
  Zr  Zr7  1  0.323531  0.822241  0.500000  1
  Zr  Zr8  1  0.177759  0.323531  0.500000  1
  Zr  Zr9  1  0.822241  0.676469  0.500000  1
  Co  Co10  1  0.741813  0.524896  0.000000  1
  Co  Co11  1  0.258187  0.475104  0.000000  1
  Co  Co12  1  0.245288  0.975017  0.000000  1
  Co  Co13  1  0.754712  0.024983  0.000000  1
  Co  Co14  1  0.475104  0.741813  0.000000  1
  Co  Co15  1  0.524896  0.258187  0.000000  1
  Co  Co16  1  0.024983  0.245288  0.000000  1
  Co  Co17  1  0.975017  0.754712  0.000000  1
  Si  Si18  1  0.568902  0.069959  0.000000  1
  Si  Si19  1  0.431098  0.930041  0.000000  1
  Si  Si20  1  0.069959  0.431098  0.000000  1
  Si  Si21  1  0.930041  0.568902  0.000000  1
  Si  Si22  1  0.655834  0.695637  0.000000  1
  Si  Si23  1  0.344166  0.304363  0.000000  1
  Si  Si24  1  0.156608  0.803003  0.000000  1
  Si  Si25  1  0.843392  0.196997  0.000000  1
  Si  Si26  1  0.304363  0.655834  0.000000  1
  Si  Si27  1  0.695637  0.344166  0.000000  1
  Si  Si28  1  0.196997  0.156608  0.000000  1
  Si  Si29  1  0.803003  0.843392  0.000000  1
  Si  Si30  1  0.662447  0.505731  0.500000  1
  Si  Si31  1  0.337553  0.494269  0.500000  1
  Si  Si32  1  0.167253  0.994669  0.500000  1
  Si  Si33  1  0.832747  0.005331  0.500000  1
  Si  Si34  1  0.494269  0.662447  0.500000  1
  Si  Si35  1  0.505731  0.337553  0.500000  1
  Si  Si36  1  0.005331  0.167253  0.500000  1
  Si  Si37  1  0.994669  0.832747  0.500000  1
