# generated using pymatgen
data_Y16Lu4Ir11Pt
_symmetry_space_group_name_H-M   'P 1'
_cell_length_a   10.93676185
_cell_length_b   10.93676185
_cell_length_c   6.35767517
_cell_angle_alpha   89.98152639
_cell_angle_beta   89.98152639
_cell_angle_gamma   89.76650394
_symmetry_Int_Tables_number   1
_chemical_formula_structural   Y16Lu4Ir11Pt
_chemical_formula_sum   'Y16 Lu4 Ir11 Pt1'
_cell_volume   760.45267808
_cell_formula_units_Z   1
loop_
 _symmetry_equiv_pos_site_id
 _symmetry_equiv_pos_as_xyz
  1  'x, y, z'
loop_
 _atom_site_type_symbol
 _atom_site_label
 _atom_site_symmetry_multiplicity
 _atom_site_fract_x
 _atom_site_fract_y
 _atom_site_fract_z
 _atom_site_occupancy
  Y  Y0  1  0.289884  0.087853  0.378814  1
  Y  Y1  1  0.290712  0.911939  0.877748  1
  Y  Y2  1  0.707456  0.086199  0.874151  1
  Y  Y3  1  0.708163  0.908810  0.379947  1
  Y  Y4  1  0.587792  0.790116  0.879571  1
  Y  Y5  1  0.583855  0.210238  0.379209  1
  Y  Y6  1  0.411809  0.790039  0.378645  1
  Y  Y7  1  0.411803  0.209775  0.878985  1
  Y  Y8  1  0.209884  0.412208  0.620429  1
  Y  Y9  1  0.209961  0.588191  0.121355  1
  Y  Y10  1  0.789762  0.416145  0.120791  1
  Y  Y11  1  0.790225  0.588197  0.621015  1
  Y  Y12  1  0.912147  0.710116  0.121186  1
  Y  Y13  1  0.913801  0.292544  0.625849  1
  Y  Y14  1  0.088061  0.709288  0.622252  1
  Y  Y15  1  0.091190  0.291837  0.120053  1
  Lu  Lu16  1  0.001392  0.998453  0.501082  1
  Lu  Lu17  1  0.001547  0.998608  0.998918  1
  Lu  Lu18  1  0.499933  0.499944  0.999604  1
  Lu  Lu19  1  0.500056  0.500067  0.500396  1
  Ir  Ir20  1  0.849827  0.851225  0.750165  1
  Ir  Ir21  1  0.148775  0.150173  0.749835  1
  Ir  Ir22  1  0.150488  0.849512  0.250000  1
  Ir  Ir23  1  0.651458  0.348542  0.750000  1
  Ir  Ir24  1  0.650495  0.649855  0.249768  1
  Ir  Ir25  1  0.350145  0.349505  0.250232  1
  Ir  Ir26  1  0.349489  0.650511  0.750000  1
  Ir  Ir27  1  0.500394  0.000067  0.126654  1
  Ir  Ir28  1  0.500111  0.000104  0.624862  1
  Ir  Ir29  1  0.999896  0.499889  0.875138  1
  Ir  Ir30  1  0.999933  0.499606  0.373346  1
  Pt  Pt31  1  0.849557  0.150443  0.250000  1
