# generated using pymatgen
data_Ho2Tm4TcRu
_symmetry_space_group_name_H-M   'P 1'
_cell_length_a   6.24482000
_cell_length_b   7.32171800
_cell_length_c   9.00999200
_cell_angle_alpha   90.00000000
_cell_angle_beta   90.00000000
_cell_angle_gamma   90.00000000
_symmetry_Int_Tables_number   1
_chemical_formula_structural   Ho2Tm4TcRu
_chemical_formula_sum   'Ho4 Tm8 Tc2 Ru2'
_cell_volume   411.96216133
_cell_formula_units_Z   2
loop_
 _symmetry_equiv_pos_site_id
 _symmetry_equiv_pos_as_xyz
  1  'x, y, z'
loop_
 _atom_site_type_symbol
 _atom_site_label
 _atom_site_symmetry_multiplicity
 _atom_site_fract_x
 _atom_site_fract_y
 _atom_site_fract_z
 _atom_site_occupancy
  Ho  Ho0  1  0.874938  0.539472  0.250000  1
  Ho  Ho1  1  0.625062  0.039472  0.250000  1
  Ho  Ho2  1  0.131458  0.457034  0.750000  1
  Ho  Ho3  1  0.368542  0.957033  0.750000  1
  Tm  Tm4  1  0.334408  0.675937  0.063718  1
  Tm  Tm5  1  0.165592  0.175937  0.436282  1
  Tm  Tm6  1  0.663916  0.324608  0.562718  1
  Tm  Tm7  1  0.836084  0.824608  0.937282  1
  Tm  Tm8  1  0.663916  0.324608  0.937282  1
  Tm  Tm9  1  0.836084  0.824608  0.562718  1
  Tm  Tm10  1  0.334408  0.675937  0.436282  1
  Tm  Tm11  1  0.165592  0.175937  0.063718  1
  Tc  Tc12  1  0.038694  0.885954  0.250000  1
  Tc  Tc13  1  0.461306  0.385954  0.250000  1
  Ru  Ru14  1  0.959924  0.116452  0.750000  1
  Ru  Ru15  1  0.540076  0.616452  0.750000  1
