# generated using pymatgen
data_Nd5Dy3Si12IrRh3
_symmetry_space_group_name_H-M   'P 1'
_cell_length_a   8.24248700
_cell_length_b   8.24248750
_cell_length_c   8.19193200
_cell_angle_alpha   90.00000000
_cell_angle_beta   90.00000000
_cell_angle_gamma   119.99999397
_symmetry_Int_Tables_number   1
_chemical_formula_structural   Nd5Dy3Si12IrRh3
_chemical_formula_sum   'Nd5 Dy3 Si12 Ir1 Rh3'
_cell_volume   481.98504681
_cell_formula_units_Z   1
loop_
 _symmetry_equiv_pos_site_id
 _symmetry_equiv_pos_as_xyz
  1  'x, y, z'
loop_
 _atom_site_type_symbol
 _atom_site_label
 _atom_site_symmetry_multiplicity
 _atom_site_fract_x
 _atom_site_fract_y
 _atom_site_fract_z
 _atom_site_occupancy
  Nd  Nd0  1  0.000000  0.000000  0.249478  1
  Nd  Nd1  1  0.000000  0.000000  0.750197  1
  Nd  Nd2  1  0.504342  0.495658  0.250070  1
  Nd  Nd3  1  0.504342  0.008684  0.250070  1
  Nd  Nd4  1  0.991316  0.495658  0.250070  1
  Dy  Dy5  1  0.492527  0.507473  0.749983  1
  Dy  Dy6  1  0.492527  0.985053  0.749983  1
  Dy  Dy7  1  0.014947  0.507473  0.749983  1
  Si  Si8  1  0.166523  0.833477  0.505993  1
  Si  Si9  1  0.166523  0.333046  0.505993  1
  Si  Si10  1  0.666954  0.833477  0.505993  1
  Si  Si11  1  0.831542  0.168458  0.503215  1
  Si  Si12  1  0.831542  0.663083  0.503215  1
  Si  Si13  1  0.336917  0.168458  0.503215  1
  Si  Si14  1  0.831766  0.168234  0.996832  1
  Si  Si15  1  0.831766  0.663531  0.996832  1
  Si  Si16  1  0.336469  0.168234  0.996832  1
  Si  Si17  1  0.166545  0.833455  0.993758  1
  Si  Si18  1  0.166545  0.333091  0.993758  1
  Si  Si19  1  0.666909  0.833455  0.993758  1
  Ir  Ir20  1  0.333333  0.666667  0.492000  1
  Rh  Rh21  1  0.666667  0.333333  0.542638  1
  Rh  Rh22  1  0.666667  0.333333  0.956885  1
  Rh  Rh23  1  0.333333  0.666667  0.009248  1
