# generated using pymatgen
data_Sc5Ti(SiOs)6
_symmetry_space_group_name_H-M   'P 1'
_cell_length_a   7.64019708
_cell_length_b   7.64267336
_cell_length_c   7.64019777
_cell_angle_alpha   126.74971723
_cell_angle_beta   127.35129593
_cell_angle_gamma   78.16181082
_symmetry_Int_Tables_number   1
_chemical_formula_structural   Sc5Ti(SiOs)6
_chemical_formula_sum   'Sc5 Ti1 Si6 Os6'
_cell_volume   275.29052713
_cell_formula_units_Z   1
loop_
 _symmetry_equiv_pos_site_id
 _symmetry_equiv_pos_as_xyz
  1  'x, y, z'
loop_
 _atom_site_type_symbol
 _atom_site_label
 _atom_site_symmetry_multiplicity
 _atom_site_fract_x
 _atom_site_fract_y
 _atom_site_fract_z
 _atom_site_occupancy
  Sc  Sc0  1  0.449810  0.409325  0.459515  1
  Sc  Sc1  1  0.546641  0.997872  0.951232  1
  Sc  Sc2  1  0.048701  0.009556  0.460855  1
  Sc  Sc3  1  0.954199  0.406703  0.952505  1
  Sc  Sc4  1  0.249359  0.596788  0.847429  1
  Ti  Ti5  1  0.750568  0.595799  0.345231  1
  Si  Si6  1  0.249072  0.004082  0.255010  1
  Si  Si7  1  0.751087  0.999476  0.748389  1
  Si  Si8  1  0.158932  0.670233  0.499219  1
  Si  Si9  1  0.827088  0.340306  0.497106  1
  Si  Si10  1  0.671014  0.670233  0.011301  1
  Si  Si11  1  0.343201  0.340306  0.013218  1
  Os  Os12  1  0.994420  0.259198  0.253500  1
  Os  Os13  1  0.505698  0.259198  0.764778  1
  Os  Os14  1  0.375751  0.748468  0.376656  1
  Os  Os15  1  0.625860  0.000993  0.374206  1
  Os  Os16  1  0.871812  0.748468  0.872717  1
  Os  Os17  1  0.126787  0.000993  0.875133  1
