# generated using pymatgen
data_Dy2Ho6Tc3B24Os
_symmetry_space_group_name_H-M   'P 1'
_cell_length_a   3.67023300
_cell_length_b   9.14371689
_cell_length_c   11.52594901
_cell_angle_alpha   89.94521767
_cell_angle_beta   90.00000000
_cell_angle_gamma   90.00000000
_symmetry_Int_Tables_number   1
_chemical_formula_structural   Dy2Ho6Tc3B24Os
_chemical_formula_sum   'Dy2 Ho6 Tc3 B24 Os1'
_cell_volume   386.80573265
_cell_formula_units_Z   1
loop_
 _symmetry_equiv_pos_site_id
 _symmetry_equiv_pos_as_xyz
  1  'x, y, z'
loop_
 _atom_site_type_symbol
 _atom_site_label
 _atom_site_symmetry_multiplicity
 _atom_site_fract_x
 _atom_site_fract_y
 _atom_site_fract_z
 _atom_site_occupancy
  Dy  Dy0  1  0.000000  0.323585  0.413800  1
  Dy  Dy1  1  0.000000  0.675572  0.584489  1
  Ho  Ho2  1  0.000000  0.823024  0.087198  1
  Ho  Ho3  1  0.000000  0.178006  0.914498  1
  Ho  Ho4  1  0.000000  0.942513  0.369933  1
  Ho  Ho5  1  0.000000  0.058240  0.630182  1
  Ho  Ho6  1  0.000000  0.442840  0.130049  1
  Ho  Ho7  1  0.000000  0.557020  0.869575  1
  Tc  Tc8  1  0.000000  0.638809  0.320056  1
  Tc  Tc9  1  0.000000  0.361358  0.680401  1
  Tc  Tc10  1  0.000000  0.137887  0.178029  1
  B  B11  1  0.500000  0.553151  0.432706  1
  B  B12  1  0.500000  0.446777  0.567054  1
  B  B13  1  0.500000  0.052864  0.066802  1
  B  B14  1  0.500000  0.946443  0.933021  1
  B  B15  1  0.500000  0.748589  0.418512  1
  B  B16  1  0.500000  0.251018  0.581516  1
  B  B17  1  0.500000  0.249033  0.081165  1
  B  B18  1  0.500000  0.751349  0.918569  1
  B  B19  1  0.500000  0.791814  0.265360  1
  B  B20  1  0.500000  0.208384  0.735134  1
  B  B21  1  0.500000  0.291548  0.234535  1
  B  B22  1  0.500000  0.709181  0.765514  1
  B  B23  1  0.500000  0.630957  0.185411  1
  B  B24  1  0.500000  0.368891  0.815155  1
  B  B25  1  0.500000  0.130315  0.313934  1
  B  B26  1  0.500000  0.869228  0.685864  1
  B  B27  1  0.500000  0.981711  0.211657  1
  B  B28  1  0.500000  0.017073  0.788376  1
  B  B29  1  0.500000  0.482221  0.287888  1
  B  B30  1  0.500000  0.517529  0.711941  1
  B  B31  1  0.500000  0.601916  0.028154  1
  B  B32  1  0.500000  0.399109  0.971722  1
  B  B33  1  0.500000  0.101320  0.471866  1
  B  B34  1  0.500000  0.898809  0.528579  1
  Os  Os35  1  0.000000  0.861920  0.821357  1
