# generated using pymatgen
data_Hf18Re4MoP2W3
_symmetry_space_group_name_H-M   'P 1'
_cell_length_a   8.65060465
_cell_length_b   8.65060504
_cell_length_c   8.56474000
_cell_angle_alpha   90.00000000
_cell_angle_beta   90.00000000
_cell_angle_gamma   120.19447295
_symmetry_Int_Tables_number   1
_chemical_formula_structural   Hf18Re4MoP2W3
_chemical_formula_sum   'Hf18 Re4 Mo1 P2 W3'
_cell_volume   553.96632289
_cell_formula_units_Z   1
loop_
 _symmetry_equiv_pos_site_id
 _symmetry_equiv_pos_as_xyz
  1  'x, y, z'
loop_
 _atom_site_type_symbol
 _atom_site_label
 _atom_site_symmetry_multiplicity
 _atom_site_fract_x
 _atom_site_fract_y
 _atom_site_fract_z
 _atom_site_occupancy
  Hf  Hf0  1  0.196845  0.803155  0.450135  1
  Hf  Hf1  1  0.196602  0.392837  0.451364  1
  Hf  Hf2  1  0.607163  0.803398  0.451364  1
  Hf  Hf3  1  0.803259  0.196741  0.550228  1
  Hf  Hf4  1  0.802684  0.606506  0.548531  1
  Hf  Hf5  1  0.393494  0.197316  0.548531  1
  Hf  Hf6  1  0.803259  0.196741  0.949772  1
  Hf  Hf7  1  0.802684  0.606506  0.951469  1
  Hf  Hf8  1  0.393494  0.197316  0.951469  1
  Hf  Hf9  1  0.196845  0.803155  0.049865  1
  Hf  Hf10  1  0.196602  0.392837  0.048636  1
  Hf  Hf11  1  0.607163  0.803398  0.048636  1
  Hf  Hf12  1  0.539088  0.460912  0.250000  1
  Hf  Hf13  1  0.538608  0.078107  0.250000  1
  Hf  Hf14  1  0.921893  0.461392  0.250000  1
  Hf  Hf15  1  0.460623  0.539377  0.750000  1
  Hf  Hf16  1  0.461194  0.921413  0.750000  1
  Hf  Hf17  1  0.078587  0.538806  0.750000  1
  Re  Re18  1  0.888344  0.778160  0.250000  1
  Re  Re19  1  0.221840  0.111656  0.250000  1
  Re  Re20  1  0.111455  0.222027  0.750000  1
  Re  Re21  1  0.777973  0.888545  0.750000  1
  Mo  Mo22  1  0.109897  0.890103  0.750000  1
  P  P23  1  0.332915  0.667085  0.250000  1
  P  P24  1  0.666801  0.333199  0.750000  1
  W  W25  1  0.890310  0.109690  0.250000  1
  W  W26  1  0.000191  0.999809  0.500359  1
  W  W27  1  0.000191  0.999809  0.999641  1
