# generated using pymatgen
data_Pr5Nd(CI3)2
_symmetry_space_group_name_H-M   'P 1'
_cell_length_a   4.05733200
_cell_length_b   9.06713027
_cell_length_c   12.25156600
_cell_angle_alpha   92.68566991
_cell_angle_beta   90.00000000
_cell_angle_gamma   90.00000000
_symmetry_Int_Tables_number   1
_chemical_formula_structural   Pr5Nd(CI3)2
_chemical_formula_sum   'Pr5 Nd1 C2 I6'
_cell_volume   450.21993970
_cell_formula_units_Z   1
loop_
 _symmetry_equiv_pos_site_id
 _symmetry_equiv_pos_as_xyz
  1  'x, y, z'
loop_
 _atom_site_type_symbol
 _atom_site_label
 _atom_site_symmetry_multiplicity
 _atom_site_fract_x
 _atom_site_fract_y
 _atom_site_fract_z
 _atom_site_occupancy
  Pr  Pr0  1  0.250000  0.914225  0.602435  1
  Pr  Pr1  1  0.750000  0.085400  0.397471  1
  Pr  Pr2  1  0.250000  0.885915  0.179066  1
  Pr  Pr3  1  0.750000  0.113908  0.821121  1
  Pr  Pr4  1  0.250000  0.300175  0.616335  1
  Nd  Nd5  1  0.750000  0.701131  0.383541  1
  C  C6  1  0.250000  0.879104  0.384035  1
  C  C7  1  0.750000  0.119255  0.615991  1
  I  I8  1  0.250000  0.854890  0.875800  1
  I  I9  1  0.750000  0.145019  0.124207  1
  I  I10  1  0.250000  0.379652  0.874353  1
  I  I11  1  0.750000  0.620431  0.126462  1
  I  I12  1  0.250000  0.383350  0.364422  1
  I  I13  1  0.750000  0.617544  0.634760  1
