# generated using pymatgen
data_Dy3Y7(IrRh)2
_symmetry_space_group_name_H-M   'P 1'
_cell_length_a   6.48574994
_cell_length_b   7.21054133
_cell_length_c   8.62289105
_cell_angle_alpha   96.71761692
_cell_angle_beta   111.97960141
_cell_angle_gamma   89.94397245
_symmetry_Int_Tables_number   1
_chemical_formula_structural   Dy3Y7(IrRh)2
_chemical_formula_sum   'Dy3 Y7 Ir2 Rh2'
_cell_volume   370.97774482
_cell_formula_units_Z   1
loop_
 _symmetry_equiv_pos_site_id
 _symmetry_equiv_pos_as_xyz
  1  'x, y, z'
loop_
 _atom_site_type_symbol
 _atom_site_label
 _atom_site_symmetry_multiplicity
 _atom_site_fract_x
 _atom_site_fract_y
 _atom_site_fract_z
 _atom_site_occupancy
  Dy  Dy0  1  0.350424  0.685339  0.561168  1
  Dy  Dy1  1  0.426682  0.250061  0.999995  1
  Dy  Dy2  1  0.570855  0.750193  0.999942  1
  Y  Y3  1  0.792600  0.083278  0.813666  1
  Y  Y4  1  0.978777  0.417291  0.187288  1
  Y  Y5  1  0.208992  0.916309  0.185410  1
  Y  Y6  1  0.023889  0.583377  0.814772  1
  Y  Y7  1  0.211153  0.183607  0.561312  1
  Y  Y8  1  0.649319  0.315362  0.437715  1
  Y  Y9  1  0.790358  0.814711  0.440441  1
  Ir  Ir10  1  0.399593  0.573780  0.221028  1
  Ir  Ir11  1  0.178308  0.925727  0.778021  1
  Rh  Rh12  1  0.598797  0.428186  0.780033  1
  Rh  Rh13  1  0.820254  0.072780  0.219209  1
