# generated using pymatgen
data_La6Sm2Dy2SnPb5Cl2
_symmetry_space_group_name_H-M   'P 1'
_cell_length_a   9.54249300
_cell_length_b   9.54249244
_cell_length_c   6.78597600
_cell_angle_alpha   90.00000000
_cell_angle_beta   90.00000000
_cell_angle_gamma   119.99999846
_symmetry_Int_Tables_number   1
_chemical_formula_structural   La6Sm2Dy2SnPb5Cl2
_chemical_formula_sum   'La6 Sm2 Dy2 Sn1 Pb5 Cl2'
_cell_volume   535.13903670
_cell_formula_units_Z   1
loop_
 _symmetry_equiv_pos_site_id
 _symmetry_equiv_pos_as_xyz
  1  'x, y, z'
loop_
 _atom_site_type_symbol
 _atom_site_label
 _atom_site_symmetry_multiplicity
 _atom_site_fract_x
 _atom_site_fract_y
 _atom_site_fract_z
 _atom_site_occupancy
  La  La0  1  0.738597  0.000176  0.749970  1
  La  La1  1  0.737739  0.737739  0.250000  1
  La  La2  1  0.001557  0.261793  0.250039  1
  La  La3  1  0.000176  0.738597  0.750030  1
  La  La4  1  0.261896  0.261896  0.750000  1
  La  La5  1  0.261793  0.001557  0.249961  1
  Sm  Sm6  1  0.665480  0.333617  0.499187  1
  Sm  Sm7  1  0.333617  0.665480  0.000813  1
  Dy  Dy8  1  0.665395  0.333594  0.000924  1
  Dy  Dy9  1  0.333594  0.665395  0.499076  1
  Sn  Sn10  1  0.391475  0.391475  0.250000  1
  Pb  Pb11  1  0.608841  0.608841  0.750000  1
  Pb  Pb12  1  0.000191  0.608930  0.250041  1
  Pb  Pb13  1  0.608930  0.000191  0.249959  1
  Pb  Pb14  1  0.391181  0.999796  0.749983  1
  Pb  Pb15  1  0.999796  0.391181  0.750017  1
  Cl  Cl16  1  0.999882  0.999858  0.499998  1
  Cl  Cl17  1  0.999858  0.999882  0.000002  1
