# generated using pymatgen
data_Ac8Ho3Tm9Si16
_symmetry_space_group_name_H-M   'P 1'
_cell_length_a   7.91101584
_cell_length_b   7.91223255
_cell_length_c   14.56806300
_cell_angle_alpha   90.03585950
_cell_angle_beta   90.03909519
_cell_angle_gamma   90.00175692
_symmetry_Int_Tables_number   1
_chemical_formula_structural   Ac8Ho3Tm9Si16
_chemical_formula_sum   'Ac8 Ho3 Tm9 Si16'
_cell_volume   911.86998786
_cell_formula_units_Z   1
loop_
 _symmetry_equiv_pos_site_id
 _symmetry_equiv_pos_as_xyz
  1  'x, y, z'
loop_
 _atom_site_type_symbol
 _atom_site_label
 _atom_site_symmetry_multiplicity
 _atom_site_fract_x
 _atom_site_fract_y
 _atom_site_fract_z
 _atom_site_occupancy
  Ac  Ac0  1  0.646463  0.990984  0.460608  1
  Ac  Ac1  1  0.354430  0.009084  0.960355  1
  Ac  Ac2  1  0.991029  0.646519  0.538997  1
  Ac  Ac3  1  0.490763  0.853147  0.210997  1
  Ac  Ac4  1  0.509158  0.146446  0.710660  1
  Ac  Ac5  1  0.853924  0.491375  0.789557  1
  Ac  Ac6  1  0.146583  0.508999  0.289446  1
  Ac  Ac7  1  0.008584  0.353406  0.039384  1
  Ho  Ho8  1  0.495241  0.358503  0.125684  1
  Ho  Ho9  1  0.995460  0.141662  0.624384  1
  Ho  Ho10  1  0.858646  0.004621  0.875393  1
  Tm  Tm11  1  0.141278  0.995903  0.375646  1
  Tm  Tm12  1  0.504207  0.641474  0.625189  1
  Tm  Tm13  1  0.358525  0.495738  0.874704  1
  Tm  Tm14  1  0.641419  0.504084  0.374473  1
  Tm  Tm15  1  0.004143  0.858358  0.124729  1
  Tm  Tm16  1  0.319273  0.318900  0.500167  1
  Tm  Tm17  1  0.182396  0.818017  0.749983  1
  Tm  Tm18  1  0.819069  0.180834  0.250035  1
  Tm  Tm19  1  0.681424  0.681384  0.999797  1
  Si  Si20  1  0.285959  0.936713  0.563249  1
  Si  Si21  1  0.714609  0.061884  0.063983  1
  Si  Si22  1  0.937005  0.285732  0.435769  1
  Si  Si23  1  0.436938  0.214092  0.314197  1
  Si  Si24  1  0.561817  0.784762  0.813078  1
  Si  Si25  1  0.215319  0.438120  0.686808  1
  Si  Si26  1  0.785756  0.563474  0.186717  1
  Si  Si27  1  0.063397  0.714273  0.936862  1
  Si  Si28  1  0.795278  0.851839  0.691167  1
  Si  Si29  1  0.202709  0.146239  0.191998  1
  Si  Si30  1  0.853234  0.795734  0.308571  1
  Si  Si31  1  0.353346  0.704013  0.441450  1
  Si  Si32  1  0.646654  0.297340  0.941266  1
  Si  Si33  1  0.702597  0.353718  0.558045  1
  Si  Si34  1  0.295181  0.647795  0.058024  1
  Si  Si35  1  0.148186  0.204834  0.808627  1
