# generated using pymatgen
data_NpMnCl6
_symmetry_space_group_name_H-M   'P 1'
_cell_length_a   6.61457567
_cell_length_b   6.62349550
_cell_length_c   6.56766499
_cell_angle_alpha   89.93208913
_cell_angle_beta   89.90339184
_cell_angle_gamma   119.72646382
_symmetry_Int_Tables_number   1
_chemical_formula_structural   NpMnCl6
_chemical_formula_sum   'Np1 Mn1 Cl6'
_cell_volume   249.87311858
_cell_formula_units_Z   1
loop_
 _symmetry_equiv_pos_site_id
 _symmetry_equiv_pos_as_xyz
  1  'x, y, z'
loop_
 _atom_site_type_symbol
 _atom_site_label
 _atom_site_symmetry_multiplicity
 _atom_site_fract_x
 _atom_site_fract_y
 _atom_site_fract_z
 _atom_site_occupancy
  Np  Np0  1  0.666833  0.333147  0.000060  1
  Mn  Mn1  1  0.330717  0.666177  0.000077  1
  Cl  Cl2  1  0.634762  0.643865  0.222310  1
  Cl  Cl3  1  0.009318  0.365150  0.224581  1
  Cl  Cl4  1  0.356559  0.990945  0.223039  1
  Cl  Cl5  1  0.635997  0.991814  0.776493  1
  Cl  Cl6  1  0.009536  0.643493  0.776493  1
  Cl  Cl7  1  0.356280  0.365410  0.776945  1
