# generated using pymatgen
data_Sm7Tm(GeO5)4
_symmetry_space_group_name_H-M   'P 1'
_cell_length_a   8.34513556
_cell_length_b   8.37594153
_cell_length_c   10.77455824
_cell_angle_alpha   61.42813257
_cell_angle_beta   61.21032132
_cell_angle_gamma   49.60915078
_symmetry_Int_Tables_number   1
_chemical_formula_structural   Sm7Tm(GeO5)4
_chemical_formula_sum   'Sm7 Tm1 Ge4 O20'
_cell_volume   486.87891074
_cell_formula_units_Z   1
loop_
 _symmetry_equiv_pos_site_id
 _symmetry_equiv_pos_as_xyz
  1  'x, y, z'
loop_
 _atom_site_type_symbol
 _atom_site_label
 _atom_site_symmetry_multiplicity
 _atom_site_fract_x
 _atom_site_fract_y
 _atom_site_fract_z
 _atom_site_occupancy
  Sm  Sm0  1  0.718735  0.209355  0.966434  1
  Sm  Sm1  1  0.791470  0.274411  0.536490  1
  Sm  Sm2  1  0.276170  0.793854  0.035635  1
  Sm  Sm3  1  0.207010  0.721446  0.463771  1
  Sm  Sm4  1  0.988878  0.734201  0.837077  1
  Sm  Sm5  1  0.268040  0.015839  0.658821  1
  Sm  Sm6  1  0.006586  0.266715  0.165954  1
  Tm  Tm7  1  0.743858  0.978924  0.337044  1
  Ge  Ge8  1  0.778602  0.592619  0.688634  1
  Ge  Ge9  1  0.407474  0.223183  0.809025  1
  Ge  Ge10  1  0.225545  0.406975  0.306456  1
  Ge  Ge11  1  0.590474  0.779831  0.195028  1
  O  O12  1  0.774574  0.634992  0.057685  1
  O  O13  1  0.386537  0.218012  0.433603  1
  O  O14  1  0.221805  0.368165  0.945800  1
  O  O15  1  0.637397  0.782720  0.550358  1
  O  O16  1  0.584616  0.586099  0.364457  1
  O  O17  1  0.402954  0.425581  0.130073  1
  O  O18  1  0.415264  0.412111  0.637337  1
  O  O19  1  0.588548  0.584131  0.860970  1
  O  O20  1  0.957993  0.646261  0.675730  1
  O  O21  1  0.349130  0.045792  0.825557  1
  O  O22  1  0.047734  0.344388  0.327998  1
  O  O23  1  0.650310  0.954019  0.182843  1
  O  O24  1  0.881503  0.074362  0.398588  1
  O  O25  1  0.913289  0.108419  0.111360  1
  O  O26  1  0.112823  0.920960  0.602222  1
  O  O27  1  0.078147  0.892661  0.894973  1
  O  O28  1  0.083607  0.677250  0.322170  1
  O  O29  1  0.320948  0.912557  0.181776  1
  O  O30  1  0.912693  0.324721  0.674776  1
  O  O31  1  0.677280  0.089443  0.821353  1
