# generated using pymatgen
data_Sn4B3Ir6Rh
_symmetry_space_group_name_H-M   'P 1'
_cell_length_a   9.35841597
_cell_length_b   9.36885907
_cell_length_c   5.69777501
_cell_angle_alpha   90.04160917
_cell_angle_beta   90.05455186
_cell_angle_gamma   120.01346189
_symmetry_Int_Tables_number   1
_chemical_formula_structural   Sn4B3Ir6Rh
_chemical_formula_sum   'Sn8 B6 Ir12 Rh2'
_cell_volume   432.57900300
_cell_formula_units_Z   2
loop_
 _symmetry_equiv_pos_site_id
 _symmetry_equiv_pos_as_xyz
  1  'x, y, z'
loop_
 _atom_site_type_symbol
 _atom_site_label
 _atom_site_symmetry_multiplicity
 _atom_site_fract_x
 _atom_site_fract_y
 _atom_site_fract_z
 _atom_site_occupancy
  Sn  Sn0  1  0.503333  0.091726  0.751158  1
  Sn  Sn1  1  0.091173  0.587880  0.250884  1
  Sn  Sn2  1  0.909334  0.410046  0.749926  1
  Sn  Sn3  1  0.588272  0.497761  0.749571  1
  Sn  Sn4  1  0.499084  0.910237  0.250563  1
  Sn  Sn5  1  0.332663  0.666867  0.747602  1
  Sn  Sn6  1  0.410091  0.501936  0.248838  1
  Sn  Sn7  1  0.666606  0.332677  0.247748  1
  B  B8  1  0.827646  0.790915  0.251274  1
  B  B9  1  0.963657  0.171893  0.250667  1
  B  B10  1  0.208757  0.036568  0.248770  1
  B  B11  1  0.791549  0.963296  0.751168  1
  B  B12  1  0.036605  0.827292  0.750349  1
  B  B13  1  0.171916  0.208183  0.749147  1
  Ir  Ir14  1  0.771628  0.124789  0.002368  1
  Ir  Ir15  1  0.645217  0.770751  0.502704  1
  Ir  Ir16  1  0.124062  0.353291  0.500485  1
  Ir  Ir17  1  0.875011  0.644392  0.001999  1
  Ir  Ir18  1  0.353681  0.230166  0.999436  1
  Ir  Ir19  1  0.230544  0.876165  0.500905  1
  Ir  Ir20  1  0.875587  0.645351  0.499850  1
  Ir  Ir21  1  0.354317  0.229705  0.497660  1
  Ir  Ir22  1  0.230088  0.875130  0.998916  1
  Ir  Ir23  1  0.999180  0.000072  0.499263  1
  Ir  Ir24  1  0.000144  0.000718  0.999216  1
  Ir  Ir25  1  0.646036  0.770026  0.000758  1
  Rh  Rh26  1  0.125412  0.356975  0.998354  1
  Rh  Rh27  1  0.768405  0.125191  0.500422  1
