# generated using pymatgen
data_AcReF7
_symmetry_space_group_name_H-M   'P 1'
_cell_length_a   5.90305300
_cell_length_b   9.59894703
_cell_length_c   12.79995287
_cell_angle_alpha   61.68956602
_cell_angle_beta   90.00000000
_cell_angle_gamma   90.00000000
_symmetry_Int_Tables_number   1
_chemical_formula_structural   AcReF7
_chemical_formula_sum   'Ac4 Re4 F28'
_cell_volume   638.53431902
_cell_formula_units_Z   4
loop_
 _symmetry_equiv_pos_site_id
 _symmetry_equiv_pos_as_xyz
  1  'x, y, z'
loop_
 _atom_site_type_symbol
 _atom_site_label
 _atom_site_symmetry_multiplicity
 _atom_site_fract_x
 _atom_site_fract_y
 _atom_site_fract_z
 _atom_site_occupancy
  Ac  Ac0  1  0.759307  0.808870  0.764207  1
  Ac  Ac1  1  0.259307  0.191130  0.735793  1
  Ac  Ac2  1  0.240693  0.191130  0.235793  1
  Ac  Ac3  1  0.740693  0.808870  0.264207  1
  Re  Re4  1  0.755871  0.273797  0.957284  1
  Re  Re5  1  0.255871  0.726203  0.542716  1
  Re  Re6  1  0.244129  0.726203  0.042716  1
  Re  Re7  1  0.744129  0.273797  0.457284  1
  F  F8  1  0.425762  0.709345  0.919010  1
  F  F9  1  0.925762  0.290655  0.580990  1
  F  F10  1  0.574238  0.290655  0.080990  1
  F  F11  1  0.074238  0.709345  0.419010  1
  F  F12  1  0.457825  0.281077  0.536852  1
  F  F13  1  0.957825  0.718923  0.963148  1
  F  F14  1  0.542175  0.718923  0.463148  1
  F  F15  1  0.042175  0.281077  0.036852  1
  F  F16  1  0.765239  0.507939  0.864406  1
  F  F17  1  0.265239  0.492061  0.635594  1
  F  F18  1  0.234761  0.492061  0.135594  1
  F  F19  1  0.734761  0.507939  0.364406  1
  F  F20  1  0.757379  0.039641  0.047185  1
  F  F21  1  0.257379  0.960359  0.452815  1
  F  F22  1  0.242621  0.960359  0.952815  1
  F  F23  1  0.742621  0.039641  0.547185  1
  F  F24  1  0.974522  0.728413  0.626875  1
  F  F25  1  0.474522  0.271587  0.873125  1
  F  F26  1  0.025478  0.271587  0.373125  1
  F  F27  1  0.525478  0.728413  0.126875  1
  F  F28  1  0.065436  0.740538  0.168826  1
  F  F29  1  0.565436  0.259462  0.331174  1
  F  F30  1  0.934564  0.259462  0.831174  1
  F  F31  1  0.434564  0.740538  0.668826  1
  F  F32  1  0.400745  0.965207  0.230457  1
  F  F33  1  0.900745  0.034793  0.269543  1
  F  F34  1  0.599255  0.034793  0.769543  1
  F  F35  1  0.099255  0.965207  0.730457  1
