# generated using pymatgen
data_Er16In6FeCu
_symmetry_space_group_name_H-M   'P 1'
_cell_length_a   10.35294300
_cell_length_b   10.35294219
_cell_length_c   6.88087200
_cell_angle_alpha   90.00000000
_cell_angle_beta   90.00000000
_cell_angle_gamma   119.99999938
_symmetry_Int_Tables_number   1
_chemical_formula_structural   Er16In6FeCu
_chemical_formula_sum   'Er16 In6 Fe1 Cu1'
_cell_volume   638.70707297
_cell_formula_units_Z   1
loop_
 _symmetry_equiv_pos_site_id
 _symmetry_equiv_pos_as_xyz
  1  'x, y, z'
loop_
 _atom_site_type_symbol
 _atom_site_label
 _atom_site_symmetry_multiplicity
 _atom_site_fract_x
 _atom_site_fract_y
 _atom_site_fract_z
 _atom_site_occupancy
  Er  Er0  1  0.527411  0.054820  0.795646  1
  Er  Er1  1  0.945180  0.472589  0.795646  1
  Er  Er2  1  0.527411  0.472589  0.795646  1
  Er  Er3  1  0.464667  0.929334  0.292596  1
  Er  Er4  1  0.070666  0.535333  0.292596  1
  Er  Er5  1  0.464667  0.535333  0.292596  1
  Er  Er6  1  0.823906  0.647813  0.499475  1
  Er  Er7  1  0.352187  0.176094  0.499475  1
  Er  Er8  1  0.823906  0.176094  0.499475  1
  Er  Er9  1  0.178182  0.356363  0.004030  1
  Er  Er10  1  0.643637  0.821818  0.004030  1
  Er  Er11  1  0.178182  0.821818  0.004030  1
  Er  Er12  1  0.666667  0.333333  0.166549  1
  Er  Er13  1  0.333333  0.666667  0.681886  1
  Er  Er14  1  0.000000  0.000000  0.777829  1
  Er  Er15  1  0.000000  0.000000  0.281052  1
  In  In16  1  0.836204  0.672408  0.033082  1
  In  In17  1  0.327592  0.163796  0.033082  1
  In  In18  1  0.836204  0.163796  0.033082  1
  In  In19  1  0.162445  0.324889  0.537904  1
  In  In20  1  0.675111  0.837555  0.537904  1
  In  In21  1  0.162445  0.837555  0.537904  1
  Fe  Fe22  1  0.333333  0.666667  0.069522  1
  Cu  Cu23  1  0.666667  0.333333  0.570871  1
