# generated using pymatgen
data_CoNi3(BrO3)8
_symmetry_space_group_name_H-M   'P 1'
_cell_length_a   5.58986544
_cell_length_b   10.46370661
_cell_length_c   10.49546400
_cell_angle_alpha   119.24451308
_cell_angle_beta   90.02268312
_cell_angle_gamma   89.85487943
_symmetry_Int_Tables_number   1
_chemical_formula_structural   CoNi3(BrO3)8
_chemical_formula_sum   'Co1 Ni3 Br8 O24'
_cell_volume   535.64085268
_cell_formula_units_Z   1
loop_
 _symmetry_equiv_pos_site_id
 _symmetry_equiv_pos_as_xyz
  1  'x, y, z'
loop_
 _atom_site_type_symbol
 _atom_site_label
 _atom_site_symmetry_multiplicity
 _atom_site_fract_x
 _atom_site_fract_y
 _atom_site_fract_z
 _atom_site_occupancy
  Co  Co0  1  0.139818  0.760703  0.506962  1
  Ni  Ni1  1  0.639027  0.238200  0.493290  1
  Ni  Ni2  1  0.139380  0.261434  0.006043  1
  Ni  Ni3  1  0.638322  0.738865  0.994245  1
  Br  Br4  1  0.254850  0.416931  0.349645  1
  Br  Br5  1  0.756592  0.583094  0.652357  1
  Br  Br6  1  0.254497  0.915220  0.847568  1
  Br  Br7  1  0.757554  0.084775  0.151588  1
  Br  Br8  1  0.786762  0.084538  0.686093  1
  Br  Br9  1  0.286018  0.915069  0.312006  1
  Br  Br10  1  0.283934  0.412972  0.812088  1
  Br  Br11  1  0.786877  0.588403  0.190065  1
  O  O12  1  0.427330  0.885715  0.962531  1
  O  O13  1  0.929730  0.113532  0.035655  1
  O  O14  1  0.365699  0.798802  0.677995  1
  O  O15  1  0.870558  0.199228  0.319815  1
  O  O16  1  0.369155  0.303683  0.181229  1
  O  O17  1  0.868126  0.698783  0.820907  1
  O  O18  1  0.930537  0.226938  0.825610  1
  O  O19  1  0.431373  0.771888  0.172864  1
  O  O20  1  0.933295  0.929710  0.657552  1
  O  O21  1  0.429014  0.069046  0.337857  1
  O  O22  1  0.355681  0.081345  0.878904  1
  O  O23  1  0.856429  0.917916  0.119839  1
  O  O24  1  0.429458  0.270767  0.672633  1
  O  O25  1  0.935406  0.730054  0.329278  1
  O  O26  1  0.356473  0.394248  0.959231  1
  O  O27  1  0.857051  0.605893  0.042132  1
  O  O28  1  0.427173  0.567047  0.840362  1
  O  O29  1  0.928475  0.432937  0.160620  1
  O  O30  1  0.351955  0.585502  0.382004  1
  O  O31  1  0.855506  0.416157  0.621420  1
  O  O32  1  0.430639  0.388169  0.464033  1
  O  O33  1  0.932003  0.611099  0.537402  1
  O  O34  1  0.856117  0.103859  0.539297  1
  O  O35  1  0.358787  0.897479  0.458878  1
