# generated using pymatgen
data_Th3In3Cu2Ru
_symmetry_space_group_name_H-M   'P 1'
_cell_length_a   7.52873000
_cell_length_b   7.52873012
_cell_length_c   4.15400500
_cell_angle_alpha   90.00000000
_cell_angle_beta   90.00000000
_cell_angle_gamma   120.00000065
_symmetry_Int_Tables_number   1
_chemical_formula_structural   Th3In3Cu2Ru
_chemical_formula_sum   'Th3 In3 Cu2 Ru1'
_cell_volume   203.91120717
_cell_formula_units_Z   1
loop_
 _symmetry_equiv_pos_site_id
 _symmetry_equiv_pos_as_xyz
  1  'x, y, z'
loop_
 _atom_site_type_symbol
 _atom_site_label
 _atom_site_symmetry_multiplicity
 _atom_site_fract_x
 _atom_site_fract_y
 _atom_site_fract_z
 _atom_site_occupancy
  Th  Th0  1  0.012105  0.585839  0.500000  1
  Th  Th1  1  0.414161  0.426266  0.500000  1
  Th  Th2  1  0.573734  0.987895  0.500000  1
  In  In3  1  0.759484  0.754987  0.000000  1
  In  In4  1  0.995503  0.240516  0.000000  1
  In  In5  1  0.245013  0.004497  0.000000  1
  Cu  Cu6  1  0.000000  0.000000  0.500000  1
  Cu  Cu7  1  0.666667  0.333333  0.000000  1
  Ru  Ru8  1  0.333333  0.666667  0.000000  1
