# generated using pymatgen
data_SmGd7(Er3Pb4)4
_symmetry_space_group_name_H-M   'P 1'
_cell_length_a   8.19342424
_cell_length_b   8.27288318
_cell_length_c   15.60610800
_cell_angle_alpha   89.96109816
_cell_angle_beta   89.91395935
_cell_angle_gamma   90.03168911
_symmetry_Int_Tables_number   1
_chemical_formula_structural   SmGd7(Er3Pb4)4
_chemical_formula_sum   'Sm1 Gd7 Er12 Pb16'
_cell_volume   1057.83098914
_cell_formula_units_Z   1
loop_
 _symmetry_equiv_pos_site_id
 _symmetry_equiv_pos_as_xyz
  1  'x, y, z'
loop_
 _atom_site_type_symbol
 _atom_site_label
 _atom_site_symmetry_multiplicity
 _atom_site_fract_x
 _atom_site_fract_y
 _atom_site_fract_z
 _atom_site_occupancy
  Sm  Sm0  1  0.530660  0.322029  0.902073  1
  Gd  Gd1  1  0.032206  0.177539  0.597937  1
  Gd  Gd2  1  0.467894  0.677927  0.401956  1
  Gd  Gd3  1  0.968388  0.822508  0.098186  1
  Gd  Gd4  1  0.468294  0.678081  0.098298  1
  Gd  Gd5  1  0.967901  0.821807  0.401951  1
  Gd  Gd6  1  0.532532  0.322511  0.598252  1
  Gd  Gd7  1  0.031913  0.177683  0.901964  1
  Er  Er8  1  0.373510  0.842352  0.878401  1
  Er  Er9  1  0.873676  0.657333  0.621154  1
  Er  Er10  1  0.626515  0.157368  0.378686  1
  Er  Er11  1  0.127127  0.342399  0.121503  1
  Er  Er12  1  0.627167  0.157566  0.121769  1
  Er  Er13  1  0.126606  0.342581  0.378642  1
  Er  Er14  1  0.373557  0.842167  0.621219  1
  Er  Er15  1  0.873199  0.657862  0.878371  1
  Er  Er16  1  0.206304  0.504823  0.749697  1
  Er  Er17  1  0.706542  0.995588  0.749888  1
  Er  Er18  1  0.793216  0.495579  0.250202  1
  Er  Er19  1  0.293178  0.004498  0.250164  1
  Pb  Pb20  1  0.287110  0.037590  0.043114  1
  Pb  Pb21  1  0.785965  0.462979  0.456693  1
  Pb  Pb22  1  0.714075  0.963580  0.543435  1
  Pb  Pb23  1  0.212030  0.537845  0.956790  1
  Pb  Pb24  1  0.713776  0.962569  0.956865  1
  Pb  Pb25  1  0.214336  0.536006  0.543317  1
  Pb  Pb26  1  0.285840  0.036414  0.456609  1
  Pb  Pb27  1  0.786812  0.463507  0.043644  1
  Pb  Pb28  1  0.568592  0.627659  0.749990  1
  Pb  Pb29  1  0.068314  0.872410  0.749622  1
  Pb  Pb30  1  0.431485  0.372656  0.250117  1
  Pb  Pb31  1  0.931425  0.127044  0.250068  1
  Pb  Pb32  1  0.343270  0.152096  0.749514  1
  Pb  Pb33  1  0.844066  0.347446  0.749888  1
  Pb  Pb34  1  0.656350  0.847794  0.250048  1
  Pb  Pb35  1  0.156169  0.652199  0.249974  1
