# generated using pymatgen
data_GaCu(SbO3)4
_symmetry_space_group_name_H-M   'P 1'
_cell_length_a   4.72558253
_cell_length_b   4.75074313
_cell_length_c   10.59350414
_cell_angle_alpha   90.07680593
_cell_angle_beta   116.40915886
_cell_angle_gamma   90.06089008
_symmetry_Int_Tables_number   1
_chemical_formula_structural   GaCu(SbO3)4
_chemical_formula_sum   'Ga1 Cu1 Sb4 O12'
_cell_volume   213.00471379
_cell_formula_units_Z   1
loop_
 _symmetry_equiv_pos_site_id
 _symmetry_equiv_pos_as_xyz
  1  'x, y, z'
loop_
 _atom_site_type_symbol
 _atom_site_label
 _atom_site_symmetry_multiplicity
 _atom_site_fract_x
 _atom_site_fract_y
 _atom_site_fract_z
 _atom_site_occupancy
  Ga  Ga0  1  0.000000  0.000000  0.000000  1
  Cu  Cu1  1  0.000000  0.500000  0.500000  1
  Sb  Sb2  1  0.332663  0.001681  0.333164  1
  Sb  Sb3  1  0.332783  0.498685  0.832480  1
  Sb  Sb4  1  0.667217  0.501315  0.167520  1
  Sb  Sb5  1  0.667337  0.998319  0.666836  1
  O  O6  1  0.302706  0.688871  0.999896  1
  O  O7  1  0.617892  0.696532  0.322519  1
  O  O8  1  0.697442  0.189401  0.500261  1
  O  O9  1  0.036224  0.187135  0.837729  1
  O  O10  1  0.973435  0.692210  0.676778  1
  O  O11  1  0.640083  0.809965  0.837662  1
  O  O12  1  0.697294  0.311129  0.000104  1
  O  O13  1  0.382108  0.303468  0.677481  1
  O  O14  1  0.302558  0.810599  0.499739  1
  O  O15  1  0.359917  0.190035  0.162338  1
  O  O16  1  0.026565  0.307790  0.323222  1
  O  O17  1  0.963776  0.812865  0.162271  1
