# generated using pymatgen
data_MgIn10HgIr4
_symmetry_space_group_name_H-M   'P 1'
_cell_length_a   7.12089900
_cell_length_b   7.13283485
_cell_length_c   7.23625300
_cell_angle_alpha   90.00000000
_cell_angle_beta   90.00000000
_cell_angle_gamma   89.76139658
_symmetry_Int_Tables_number   1
_chemical_formula_structural   MgIn10HgIr4
_chemical_formula_sum   'Mg1 In10 Hg1 Ir4'
_cell_volume   367.54199762
_cell_formula_units_Z   1
loop_
 _symmetry_equiv_pos_site_id
 _symmetry_equiv_pos_as_xyz
  1  'x, y, z'
loop_
 _atom_site_type_symbol
 _atom_site_label
 _atom_site_symmetry_multiplicity
 _atom_site_fract_x
 _atom_site_fract_y
 _atom_site_fract_z
 _atom_site_occupancy
  Mg  Mg0  1  0.000000  0.500000  0.000000  1
  In  In1  1  0.344657  0.348481  0.254238  1
  In  In2  1  0.159304  0.839838  0.770777  1
  In  In3  1  0.159304  0.839838  0.229223  1
  In  In4  1  0.840696  0.160162  0.229223  1
  In  In5  1  0.840696  0.160162  0.770777  1
  In  In6  1  0.655343  0.651519  0.254238  1
  In  In7  1  0.655343  0.651519  0.745762  1
  In  In8  1  0.000000  0.500000  0.500000  1
  In  In9  1  0.344657  0.348481  0.745762  1
  In  In10  1  0.500000  0.000000  0.500000  1
  Hg  Hg11  1  0.500000  0.000000  0.000000  1
  Ir  Ir12  1  0.146201  0.157655  0.000000  1
  Ir  Ir13  1  0.655512  0.340785  0.500000  1
  Ir  Ir14  1  0.344488  0.659215  0.500000  1
  Ir  Ir15  1  0.853799  0.842345  0.000000  1
