# generated using pymatgen
data_Nb9Re8Ru
_symmetry_space_group_name_H-M   'P 1'
_cell_length_a   7.84320801
_cell_length_b   7.84353652
_cell_length_c   5.59218800
_cell_angle_alpha   90.00458991
_cell_angle_beta   89.99770637
_cell_angle_gamma   120.00137868
_symmetry_Int_Tables_number   1
_chemical_formula_structural   Nb9Re8Ru
_chemical_formula_sum   'Nb9 Re8 Ru1'
_cell_volume   297.92847662
_cell_formula_units_Z   1
loop_
 _symmetry_equiv_pos_site_id
 _symmetry_equiv_pos_as_xyz
  1  'x, y, z'
loop_
 _atom_site_type_symbol
 _atom_site_label
 _atom_site_symmetry_multiplicity
 _atom_site_fract_x
 _atom_site_fract_y
 _atom_site_fract_z
 _atom_site_occupancy
  Nb  Nb0  1  0.666676  0.000014  0.225401  1
  Nb  Nb1  1  0.333324  0.333337  0.225401  1
  Nb  Nb2  1  0.000000  0.666660  0.225450  1
  Nb  Nb3  1  0.665370  0.332049  0.558139  1
  Nb  Nb4  1  0.334630  0.666679  0.558139  1
  Nb  Nb5  1  0.000000  0.001244  0.558200  1
  Nb  Nb6  1  0.334615  0.001305  0.892717  1
  Nb  Nb7  1  0.000000  0.332035  0.892772  1
  Nb  Nb8  1  0.665386  0.666691  0.892717  1
  Re  Re9  1  0.667488  0.334210  0.058405  1
  Re  Re10  1  0.332512  0.666722  0.058405  1
  Re  Re11  1  0.000000  0.999148  0.058303  1
  Re  Re12  1  0.332518  0.999139  0.392548  1
  Re  Re13  1  0.000000  0.334190  0.392531  1
  Re  Re14  1  0.667483  0.666622  0.392548  1
  Re  Re15  1  0.666726  0.999993  0.725409  1
  Re  Re16  1  0.333274  0.333266  0.725409  1
  Ru  Ru17  1  0.000000  0.666694  0.725348  1
