# generated using pymatgen
data_Er12CdInSi4
_symmetry_space_group_name_H-M   'P 1'
_cell_length_a   8.43434856
_cell_length_b   8.43434858
_cell_length_c   8.43434841
_cell_angle_alpha   112.18159931
_cell_angle_beta   111.38919335
_cell_angle_gamma   104.93690797
_symmetry_Int_Tables_number   1
_chemical_formula_structural   Er12CdInSi4
_chemical_formula_sum   'Er12 Cd1 In1 Si4'
_cell_volume   459.71296481
_cell_formula_units_Z   1
loop_
 _symmetry_equiv_pos_site_id
 _symmetry_equiv_pos_as_xyz
  1  'x, y, z'
loop_
 _atom_site_type_symbol
 _atom_site_label
 _atom_site_symmetry_multiplicity
 _atom_site_fract_x
 _atom_site_fract_y
 _atom_site_fract_z
 _atom_site_occupancy
  Er  Er0  1  0.185688  0.277507  0.463195  1
  Er  Er1  1  0.814312  0.722493  0.536805  1
  Er  Er2  1  0.185688  0.722493  0.908179  1
  Er  Er3  1  0.814312  0.277507  0.091821  1
  Er  Er4  1  0.319661  0.615549  0.295889  1
  Er  Er5  1  0.680339  0.384451  0.704111  1
  Er  Er6  1  0.319661  0.023772  0.704111  1
  Er  Er7  1  0.680339  0.976228  0.295889  1
  Er  Er8  1  0.441993  0.238723  0.203271  1
  Er  Er9  1  0.558007  0.761277  0.796729  1
  Er  Er10  1  0.035452  0.238723  0.796729  1
  Er  Er11  1  0.964548  0.761277  0.203271  1
  Cd  Cd12  1  0.000000  0.000000  0.000000  1
  In  In13  1  0.500000  0.500000  0.000000  1
  Si  Si14  1  0.116849  0.616849  0.500000  1
  Si  Si15  1  0.883151  0.383151  0.500000  1
  Si  Si16  1  0.364276  0.000000  0.364276  1
  Si  Si17  1  0.635724  0.000000  0.635724  1
