# generated using pymatgen
data_SrYHo(Si3Pd10)2
_symmetry_space_group_name_H-M   'P 1'
_cell_length_a   8.75350141
_cell_length_b   8.75350213
_cell_length_c   8.75350100
_cell_angle_alpha   60.00000804
_cell_angle_beta   60.00000533
_cell_angle_gamma   60.00000190
_symmetry_Int_Tables_number   1
_chemical_formula_structural   SrYHo(Si3Pd10)2
_chemical_formula_sum   'Sr1 Y1 Ho1 Si6 Pd20'
_cell_volume   474.27527626
_cell_formula_units_Z   1
loop_
 _symmetry_equiv_pos_site_id
 _symmetry_equiv_pos_as_xyz
  1  'x, y, z'
loop_
 _atom_site_type_symbol
 _atom_site_label
 _atom_site_symmetry_multiplicity
 _atom_site_fract_x
 _atom_site_fract_y
 _atom_site_fract_z
 _atom_site_occupancy
  Sr  Sr0  1  0.250000  0.250000  0.250000  1
  Y  Y1  1  0.750000  0.750000  0.750000  1
  Ho  Ho2  1  0.000000  0.000000  0.000000  1
  Si  Si3  1  0.732417  0.267583  0.267583  1
  Si  Si4  1  0.267583  0.732417  0.732417  1
  Si  Si5  1  0.267583  0.732417  0.267583  1
  Si  Si6  1  0.732417  0.267583  0.732417  1
  Si  Si7  1  0.267583  0.267583  0.732417  1
  Si  Si8  1  0.732417  0.732417  0.267583  1
  Pd  Pd9  1  0.387649  0.387649  0.387649  1
  Pd  Pd10  1  0.616840  0.616840  0.616840  1
  Pd  Pd11  1  0.387649  0.387649  0.837055  1
  Pd  Pd12  1  0.387649  0.837055  0.387649  1
  Pd  Pd13  1  0.616840  0.616840  0.149480  1
  Pd  Pd14  1  0.616840  0.149480  0.616840  1
  Pd  Pd15  1  0.837055  0.387649  0.387649  1
  Pd  Pd16  1  0.149480  0.616840  0.616840  1
  Pd  Pd17  1  0.346630  0.997372  0.997372  1
  Pd  Pd18  1  0.658626  0.997372  0.997372  1
  Pd  Pd19  1  0.997372  0.346630  0.658626  1
  Pd  Pd20  1  0.997372  0.658626  0.346630  1
  Pd  Pd21  1  0.997372  0.346630  0.997372  1
  Pd  Pd22  1  0.658626  0.997372  0.346630  1
  Pd  Pd23  1  0.997372  0.658626  0.997372  1
  Pd  Pd24  1  0.346630  0.997372  0.658626  1
  Pd  Pd25  1  0.997372  0.997372  0.346630  1
  Pd  Pd26  1  0.997372  0.997372  0.658626  1
  Pd  Pd27  1  0.658626  0.346630  0.997372  1
  Pd  Pd28  1  0.346630  0.658626  0.997372  1
