# generated using pymatgen
data_Sm2Er4ZnSi5Rh12
_symmetry_space_group_name_H-M   'P 1'
_cell_length_a   5.58099700
_cell_length_b   5.58099609
_cell_length_c   15.14753200
_cell_angle_alpha   90.00000000
_cell_angle_beta   90.00000000
_cell_angle_gamma   119.99998759
_symmetry_Int_Tables_number   1
_chemical_formula_structural   Sm2Er4ZnSi5Rh12
_chemical_formula_sum   'Sm2 Er4 Zn1 Si5 Rh12'
_cell_volume   408.59784545
_cell_formula_units_Z   1
loop_
 _symmetry_equiv_pos_site_id
 _symmetry_equiv_pos_as_xyz
  1  'x, y, z'
loop_
 _atom_site_type_symbol
 _atom_site_label
 _atom_site_symmetry_multiplicity
 _atom_site_fract_x
 _atom_site_fract_y
 _atom_site_fract_z
 _atom_site_occupancy
  Sm  Sm0  1  0.333333  0.666667  0.750579  1
  Sm  Sm1  1  0.666667  0.333333  0.249421  1
  Er  Er2  1  0.333333  0.666667  0.536727  1
  Er  Er3  1  0.666667  0.333333  0.463273  1
  Er  Er4  1  0.666667  0.333333  0.035386  1
  Er  Er5  1  0.333333  0.666667  0.964614  1
  Zn  Zn6  1  0.000000  0.000000  0.000000  1
  Si  Si7  1  0.000000  0.000000  0.251694  1
  Si  Si8  1  0.000000  0.000000  0.748306  1
  Si  Si9  1  0.333333  0.666667  0.252117  1
  Si  Si10  1  0.666667  0.333333  0.747883  1
  Si  Si11  1  0.000000  0.000000  0.500000  1
  Rh  Rh12  1  0.167970  0.335939  0.134483  1
  Rh  Rh13  1  0.832030  0.664061  0.865517  1
  Rh  Rh14  1  0.664061  0.832030  0.134483  1
  Rh  Rh15  1  0.833305  0.666610  0.628605  1
  Rh  Rh16  1  0.335939  0.167970  0.865517  1
  Rh  Rh17  1  0.166695  0.333390  0.371395  1
  Rh  Rh18  1  0.167970  0.832030  0.134483  1
  Rh  Rh19  1  0.333390  0.166695  0.628605  1
  Rh  Rh20  1  0.832030  0.167970  0.865517  1
  Rh  Rh21  1  0.666610  0.833305  0.371395  1
  Rh  Rh22  1  0.833305  0.166695  0.628605  1
  Rh  Rh23  1  0.166695  0.833305  0.371395  1
