# generated using pymatgen
data_LaNd2(BiRh)3
_symmetry_space_group_name_H-M   'P 1'
_cell_length_a   7.80244750
_cell_length_b   7.81340888
_cell_length_c   4.14481800
_cell_angle_alpha   90.00000000
_cell_angle_beta   90.00000000
_cell_angle_gamma   120.04646569
_symmetry_Int_Tables_number   1
_chemical_formula_structural   LaNd2(BiRh)3
_chemical_formula_sum   'La1 Nd2 Bi3 Rh3'
_cell_volume   218.72779167
_cell_formula_units_Z   1
loop_
 _symmetry_equiv_pos_site_id
 _symmetry_equiv_pos_as_xyz
  1  'x, y, z'
loop_
 _atom_site_type_symbol
 _atom_site_label
 _atom_site_symmetry_multiplicity
 _atom_site_fract_x
 _atom_site_fract_y
 _atom_site_fract_z
 _atom_site_occupancy
  La  La0  1  0.000000  0.593974  0.000000  1
  Nd  Nd1  1  0.596243  0.999288  0.000000  1
  Nd  Nd2  1  0.403757  0.403044  0.000000  1
  Bi  Bi3  1  0.262595  0.002069  0.500000  1
  Bi  Bi4  1  0.737405  0.739474  0.500000  1
  Bi  Bi5  1  0.000000  0.257368  0.500000  1
  Rh  Rh6  1  0.668335  0.335708  0.500000  1
  Rh  Rh7  1  0.000000  0.001700  0.000000  1
  Rh  Rh8  1  0.331665  0.667374  0.500000  1
