# generated using pymatgen
data_LaTb2GdB10
_symmetry_space_group_name_H-M   'P 1'
_cell_length_a   7.20697100
_cell_length_b   7.19640681
_cell_length_c   7.22873305
_cell_angle_alpha   77.14820237
_cell_angle_beta   90.00000000
_cell_angle_gamma   90.00000000
_symmetry_Int_Tables_number   1
_chemical_formula_structural   LaTb2GdB10
_chemical_formula_sum   'La2 Tb4 Gd2 B20'
_cell_volume   365.52107098
_cell_formula_units_Z   2
loop_
 _symmetry_equiv_pos_site_id
 _symmetry_equiv_pos_as_xyz
  1  'x, y, z'
loop_
 _atom_site_type_symbol
 _atom_site_label
 _atom_site_symmetry_multiplicity
 _atom_site_fract_x
 _atom_site_fract_y
 _atom_site_fract_z
 _atom_site_occupancy
  La  La0  1  0.687310  0.783720  0.622741  1
  La  La1  1  0.187310  0.216280  0.877259  1
  Tb  Tb2  1  0.315663  0.753384  0.256453  1
  Tb  Tb3  1  0.815663  0.246616  0.243547  1
  Tb  Tb4  1  0.683660  0.248587  0.745701  1
  Tb  Tb5  1  0.183660  0.751413  0.754299  1
  Gd  Gd6  1  0.307398  0.234630  0.370671  1
  Gd  Gd7  1  0.807398  0.765370  0.129329  1
  B  B8  1  0.503408  0.314307  0.041654  1
  B  B9  1  0.003408  0.685693  0.458346  1
  B  B10  1  0.496907  0.683936  0.964046  1
  B  B11  1  0.996907  0.316064  0.535954  1
  B  B12  1  0.492626  0.921427  0.936826  1
  B  B13  1  0.992626  0.078573  0.563174  1
  B  B14  1  0.517860  0.073874  0.078696  1
  B  B15  1  0.017860  0.926126  0.421304  1
  B  B16  1  0.326492  0.495053  0.041242  1
  B  B17  1  0.826492  0.504947  0.458758  1
  B  B18  1  0.672231  0.504029  0.960565  1
  B  B19  1  0.172231  0.495971  0.539435  1
  B  B20  1  0.908764  0.500330  0.909678  1
  B  B21  1  0.408764  0.499670  0.590322  1
  B  B22  1  0.088907  0.502666  0.089592  1
  B  B23  1  0.588907  0.497334  0.410408  1
  B  B24  1  0.960471  0.497390  0.671740  1
  B  B25  1  0.460471  0.502610  0.828260  1
  B  B26  1  0.038302  0.504349  0.325378  1
  B  B27  1  0.538302  0.495651  0.174622  1
