# generated using pymatgen
data_Dy5HoPa2(ReB6)4
_symmetry_space_group_name_H-M   'P 1'
_cell_length_a   3.70379900
_cell_length_b   9.17839537
_cell_length_c   11.54257333
_cell_angle_alpha   90.37184172
_cell_angle_beta   90.00000000
_cell_angle_gamma   90.00000000
_symmetry_Int_Tables_number   1
_chemical_formula_structural   Dy5HoPa2(ReB6)4
_chemical_formula_sum   'Dy5 Ho1 Pa2 Re4 B24'
_cell_volume   392.38072720
_cell_formula_units_Z   1
loop_
 _symmetry_equiv_pos_site_id
 _symmetry_equiv_pos_as_xyz
  1  'x, y, z'
loop_
 _atom_site_type_symbol
 _atom_site_label
 _atom_site_symmetry_multiplicity
 _atom_site_fract_x
 _atom_site_fract_y
 _atom_site_fract_z
 _atom_site_occupancy
  Dy  Dy0  1  0.000000  0.824059  0.085692  1
  Dy  Dy1  1  0.000000  0.175928  0.914158  1
  Dy  Dy2  1  0.000000  0.944777  0.372725  1
  Dy  Dy3  1  0.000000  0.055235  0.627391  1
  Dy  Dy4  1  0.000000  0.443840  0.126410  1
  Ho  Ho5  1  0.000000  0.556272  0.873287  1
  Pa  Pa6  1  0.000000  0.321875  0.413092  1
  Pa  Pa7  1  0.000000  0.678142  0.586991  1
  Re  Re8  1  0.000000  0.635026  0.325022  1
  Re  Re9  1  0.000000  0.365127  0.675119  1
  Re  Re10  1  0.000000  0.140462  0.181641  1
  Re  Re11  1  0.000000  0.859233  0.818334  1
  B  B12  1  0.500000  0.553276  0.433115  1
  B  B13  1  0.500000  0.446818  0.567065  1
  B  B14  1  0.500000  0.053222  0.067407  1
  B  B15  1  0.500000  0.946477  0.932532  1
  B  B16  1  0.500000  0.747638  0.419817  1
  B  B17  1  0.500000  0.252436  0.580286  1
  B  B18  1  0.500000  0.247578  0.080352  1
  B  B19  1  0.500000  0.752041  0.919539  1
  B  B20  1  0.500000  0.791225  0.265973  1
  B  B21  1  0.500000  0.208945  0.734115  1
  B  B22  1  0.500000  0.292122  0.233831  1
  B  B23  1  0.500000  0.707587  0.766242  1
  B  B24  1  0.500000  0.631565  0.185719  1
  B  B25  1  0.500000  0.368785  0.814322  1
  B  B26  1  0.500000  0.132647  0.313963  1
  B  B27  1  0.500000  0.867220  0.686126  1
  B  B28  1  0.500000  0.982543  0.212319  1
  B  B29  1  0.500000  0.017356  0.787736  1
  B  B30  1  0.500000  0.483057  0.286846  1
  B  B31  1  0.500000  0.517125  0.713376  1
  B  B32  1  0.500000  0.605281  0.029160  1
  B  B33  1  0.500000  0.395102  0.970177  1
  B  B34  1  0.500000  0.112575  0.468933  1
  B  B35  1  0.500000  0.887403  0.531187  1
