# generated using pymatgen
data_Sm5DyNiI10
_symmetry_space_group_name_H-M   'P 1'
_cell_length_a   7.82346626
_cell_length_b   9.85342968
_cell_length_c   9.87336330
_cell_angle_alpha   107.28477659
_cell_angle_beta   96.80185974
_cell_angle_gamma   104.67352965
_symmetry_Int_Tables_number   1
_chemical_formula_structural   Sm5DyNiI10
_chemical_formula_sum   'Sm5 Dy1 Ni1 I10'
_cell_volume   687.41070706
_cell_formula_units_Z   1
loop_
 _symmetry_equiv_pos_site_id
 _symmetry_equiv_pos_as_xyz
  1  'x, y, z'
loop_
 _atom_site_type_symbol
 _atom_site_label
 _atom_site_symmetry_multiplicity
 _atom_site_fract_x
 _atom_site_fract_y
 _atom_site_fract_z
 _atom_site_occupancy
  Sm  Sm0  1  0.887200  0.960201  0.238987  1
  Sm  Sm1  1  0.116173  0.041336  0.762127  1
  Sm  Sm2  1  0.032725  0.717804  0.915661  1
  Sm  Sm3  1  0.969898  0.282877  0.085834  1
  Sm  Sm4  1  0.656035  0.877904  0.836493  1
  Dy  Dy5  1  0.337675  0.120142  0.160473  1
  Ni  Ni6  1  0.000921  0.000347  0.000208  1
  I  I7  1  0.647698  0.548139  0.728879  1
  I  I8  1  0.356029  0.447183  0.271679  1
  I  I9  1  0.741922  0.913179  0.538767  1
  I  I10  1  0.263056  0.088891  0.458798  1
  I  I11  1  0.085017  0.370875  0.818915  1
  I  I12  1  0.915009  0.629187  0.181589  1
  I  I13  1  0.453662  0.819186  0.094267  1
  I  I14  1  0.545259  0.185851  0.911754  1
  I  I15  1  0.223148  0.742445  0.652724  1
  I  I16  1  0.768570  0.254452  0.342843  1
