# generated using pymatgen
data_Er4Mg4Ir3Pd
_symmetry_space_group_name_H-M   'P 1'
_cell_length_a   4.09370000
_cell_length_b   7.06962149
_cell_length_c   8.55549759
_cell_angle_alpha   91.14481866
_cell_angle_beta   90.00000000
_cell_angle_gamma   90.00000000
_symmetry_Int_Tables_number   1
_chemical_formula_structural   Er4Mg4Ir3Pd
_chemical_formula_sum   'Er4 Mg4 Ir3 Pd1'
_cell_volume   247.55445712
_cell_formula_units_Z   1
loop_
 _symmetry_equiv_pos_site_id
 _symmetry_equiv_pos_as_xyz
  1  'x, y, z'
loop_
 _atom_site_type_symbol
 _atom_site_label
 _atom_site_symmetry_multiplicity
 _atom_site_fract_x
 _atom_site_fract_y
 _atom_site_fract_z
 _atom_site_occupancy
  Er  Er0  1  0.750000  0.469543  0.163986  1
  Er  Er1  1  0.750000  0.944051  0.325429  1
  Er  Er2  1  0.250000  0.542769  0.822973  1
  Er  Er3  1  0.250000  0.034934  0.683573  1
  Mg  Mg4  1  0.750000  0.867605  0.941352  1
  Mg  Mg5  1  0.750000  0.363236  0.561353  1
  Mg  Mg6  1  0.250000  0.137253  0.059592  1
  Mg  Mg7  1  0.250000  0.633242  0.439517  1
  Ir  Ir8  1  0.750000  0.254295  0.870210  1
  Ir  Ir9  1  0.750000  0.750693  0.627728  1
  Ir  Ir10  1  0.250000  0.753537  0.132779  1
  Pd  Pd11  1  0.250000  0.248842  0.371508  1
