# generated using pymatgen
data_Y4Al16Si2(IrRh)3
_symmetry_space_group_name_H-M   'P 1'
_cell_length_a   7.52468787
_cell_length_b   7.52468890
_cell_length_c   9.37605301
_cell_angle_alpha   89.99795990
_cell_angle_beta   89.99796217
_cell_angle_gamma   119.45867400
_symmetry_Int_Tables_number   1
_chemical_formula_structural   Y4Al16Si2(IrRh)3
_chemical_formula_sum   'Y4 Al16 Si2 Ir3 Rh3'
_cell_volume   462.24363989
_cell_formula_units_Z   1
loop_
 _symmetry_equiv_pos_site_id
 _symmetry_equiv_pos_as_xyz
  1  'x, y, z'
loop_
 _atom_site_type_symbol
 _atom_site_label
 _atom_site_symmetry_multiplicity
 _atom_site_fract_x
 _atom_site_fract_y
 _atom_site_fract_z
 _atom_site_occupancy
  Y  Y0  1  0.994779  0.674917  0.250105  1
  Y  Y1  1  0.005092  0.325159  0.749829  1
  Y  Y2  1  0.674841  0.994908  0.250171  1
  Y  Y3  1  0.325083  0.005221  0.749895  1
  Al  Al4  1  0.000857  0.335882  0.076402  1
  Al  Al5  1  0.997821  0.663545  0.923573  1
  Al  Al6  1  0.998267  0.663843  0.576380  1
  Al  Al7  1  0.336157  0.001733  0.423620  1
  Al  Al8  1  0.001353  0.335990  0.423569  1
  Al  Al9  1  0.664010  0.998647  0.576431  1
  Al  Al10  1  0.664118  0.999143  0.923598  1
  Al  Al11  1  0.336455  0.002179  0.076427  1
  Al  Al12  1  0.335213  0.335097  0.556112  1
  Al  Al13  1  0.664903  0.664787  0.443888  1
  Al  Al14  1  0.664846  0.664238  0.056211  1
  Al  Al15  1  0.335762  0.335154  0.943789  1
  Al  Al16  1  0.335415  0.547883  0.249943  1
  Al  Al17  1  0.664832  0.451450  0.750859  1
  Al  Al18  1  0.548550  0.335168  0.249141  1
  Al  Al19  1  0.452117  0.664585  0.750057  1
  Si  Si20  1  0.128270  0.128299  0.250132  1
  Si  Si21  1  0.871701  0.871730  0.749868  1
  Ir  Ir22  1  0.328216  0.671784  0.000000  1
  Ir  Ir23  1  0.328167  0.671833  0.500000  1
  Ir  Ir24  1  0.671749  0.328251  0.500000  1
  Rh  Rh25  1  0.671539  0.328461  0.000000  1
  Rh  Rh26  1  0.999942  0.000058  0.000000  1
  Rh  Rh27  1  0.999945  0.000055  0.500000  1
