# generated using pymatgen
data_ErTm3Ga4Ir3Pt
_symmetry_space_group_name_H-M   'P 1'
_cell_length_a   4.33956400
_cell_length_b   6.74588566
_cell_length_c   7.74286832
_cell_angle_alpha   89.75426350
_cell_angle_beta   90.00000000
_cell_angle_gamma   90.00000000
_symmetry_Int_Tables_number   1
_chemical_formula_structural   ErTm3Ga4Ir3Pt
_chemical_formula_sum   'Er1 Tm3 Ga4 Ir3 Pt1'
_cell_volume   226.66421106
_cell_formula_units_Z   1
loop_
 _symmetry_equiv_pos_site_id
 _symmetry_equiv_pos_as_xyz
  1  'x, y, z'
loop_
 _atom_site_type_symbol
 _atom_site_label
 _atom_site_symmetry_multiplicity
 _atom_site_fract_x
 _atom_site_fract_y
 _atom_site_fract_z
 _atom_site_occupancy
  Er  Er0  1  0.250000  0.972936  0.310328  1
  Tm  Tm1  1  0.250000  0.478283  0.186072  1
  Tm  Tm2  1  0.750000  0.021196  0.692523  1
  Tm  Tm3  1  0.750000  0.522278  0.811887  1
  Ga  Ga4  1  0.250000  0.345801  0.570169  1
  Ga  Ga5  1  0.250000  0.843169  0.930556  1
  Ga  Ga6  1  0.750000  0.660332  0.431506  1
  Ga  Ga7  1  0.750000  0.154912  0.066593  1
  Ir  Ir8  1  0.250000  0.234402  0.889448  1
  Ir  Ir9  1  0.250000  0.734712  0.610740  1
  Ir  Ir10  1  0.750000  0.765004  0.110625  1
  Pt  Pt11  1  0.750000  0.266975  0.389554  1
