# generated using pymatgen
data_Y6Ho3LuSb6
_symmetry_space_group_name_H-M   'P 1'
_cell_length_a   6.27729600
_cell_length_b   8.98444900
_cell_length_c   8.98415703
_cell_angle_alpha   120.00108434
_cell_angle_beta   90.00011217
_cell_angle_gamma   90.00010267
_symmetry_Int_Tables_number   1
_chemical_formula_structural   Y6Ho3LuSb6
_chemical_formula_sum   'Y6 Ho3 Lu1 Sb6'
_cell_volume   438.80066388
_cell_formula_units_Z   1
loop_
 _symmetry_equiv_pos_site_id
 _symmetry_equiv_pos_as_xyz
  1  'x, y, z'
loop_
 _atom_site_type_symbol
 _atom_site_label
 _atom_site_symmetry_multiplicity
 _atom_site_fract_x
 _atom_site_fract_y
 _atom_site_fract_z
 _atom_site_occupancy
  Y  Y0  1  0.749898  0.247695  0.000120  1
  Y  Y1  1  0.749906  0.752472  0.752340  1
  Y  Y2  1  0.749900  0.999891  0.247541  1
  Y  Y3  1  0.250102  0.752427  0.000125  1
  Y  Y4  1  0.250109  0.247651  0.247543  1
  Y  Y5  1  0.250097  0.999870  0.752344  1
  Ho  Ho6  1  0.500001  0.666665  0.333337  1
  Ho  Ho7  1  0.999998  0.666671  0.333336  1
  Ho  Ho8  1  0.999995  0.333336  0.666662  1
  Lu  Lu9  1  0.499990  0.333312  0.666648  1
  Sb  Sb10  1  0.748979  0.609621  0.999065  1
  Sb  Sb11  1  0.748978  0.389464  0.390397  1
  Sb  Sb12  1  0.748984  0.000939  0.610541  1
  Sb  Sb13  1  0.251018  0.389445  0.999064  1
  Sb  Sb14  1  0.251024  0.609603  0.610539  1
  Sb  Sb15  1  0.251023  0.000937  0.390399  1
