# generated using pymatgen
data_LiTm3In3AgIr
_symmetry_space_group_name_H-M   'P 1'
_cell_length_a   7.96334600
_cell_length_b   7.96334519
_cell_length_c   3.58854700
_cell_angle_alpha   90.00000000
_cell_angle_beta   90.00000000
_cell_angle_gamma   120.00000336
_symmetry_Int_Tables_number   1
_chemical_formula_structural   LiTm3In3AgIr
_chemical_formula_sum   'Li1 Tm3 In3 Ag1 Ir1'
_cell_volume   197.07901505
_cell_formula_units_Z   1
loop_
 _symmetry_equiv_pos_site_id
 _symmetry_equiv_pos_as_xyz
  1  'x, y, z'
loop_
 _atom_site_type_symbol
 _atom_site_label
 _atom_site_symmetry_multiplicity
 _atom_site_fract_x
 _atom_site_fract_y
 _atom_site_fract_z
 _atom_site_occupancy
  Li  Li0  1  0.000000  0.000000  0.500000  1
  Tm  Tm1  1  0.388409  0.420641  0.500000  1
  Tm  Tm2  1  0.579359  0.967767  0.500000  1
  Tm  Tm3  1  0.032233  0.611591  0.500000  1
  In  In4  1  0.991158  0.258538  0.000000  1
  In  In5  1  0.741462  0.732619  0.000000  1
  In  In6  1  0.267381  0.008842  0.000000  1
  Ag  Ag7  1  0.666667  0.333333  0.000000  1
  Ir  Ir8  1  0.333333  0.666667  0.000000  1
