# generated using pymatgen
data_RbPmSe2
_symmetry_space_group_name_H-M   'P 1'
_cell_length_a   8.70200543
_cell_length_b   8.56874502
_cell_length_c   7.61673543
_cell_angle_alpha   90.00034743
_cell_angle_beta   106.63213817
_cell_angle_gamma   90.00622773
_symmetry_Int_Tables_number   1
_chemical_formula_structural   RbPmSe2
_chemical_formula_sum   'Rb4 Pm4 Se8'
_cell_volume   544.18236034
_cell_formula_units_Z   4
loop_
 _symmetry_equiv_pos_site_id
 _symmetry_equiv_pos_as_xyz
  1  'x, y, z'
loop_
 _atom_site_type_symbol
 _atom_site_label
 _atom_site_symmetry_multiplicity
 _atom_site_fract_x
 _atom_site_fract_y
 _atom_site_fract_z
 _atom_site_occupancy
  Rb  Rb0  1  0.003691  0.754310  0.001042  1
  Rb  Rb1  1  0.996314  0.254312  0.498956  1
  Rb  Rb2  1  0.003686  0.745684  0.501043  1
  Rb  Rb3  1  0.996308  0.245670  0.998967  1
  Pm  Pm4  1  0.502823  0.627804  0.252076  1
  Pm  Pm5  1  0.497183  0.127801  0.247925  1
  Pm  Pm6  1  0.502814  0.872203  0.752072  1
  Pm  Pm7  1  0.497179  0.372204  0.747929  1
  Se  Se8  1  0.695292  0.884269  0.146720  1
  Se  Se9  1  0.304723  0.384238  0.353249  1
  Se  Se10  1  0.695277  0.615770  0.646744  1
  Se  Se11  1  0.304706  0.115731  0.853273  1
  Se  Se12  1  0.691486  0.381232  0.142726  1
  Se  Se13  1  0.308523  0.881194  0.357268  1
  Se  Se14  1  0.691475  0.118813  0.642728  1
  Se  Se15  1  0.308516  0.618768  0.857277  1
