# generated using pymatgen
data_V9Si6Mo
_symmetry_space_group_name_H-M   'P 1'
_cell_length_a   7.08435720
_cell_length_b   7.08435646
_cell_length_c   7.08004941
_cell_angle_alpha   96.53107599
_cell_angle_beta   96.42527034
_cell_angle_gamma   140.75864652
_symmetry_Int_Tables_number   1
_chemical_formula_structural   V9Si6Mo
_chemical_formula_sum   'V9 Si6 Mo1'
_cell_volume   211.71229348
_cell_formula_units_Z   1
loop_
 _symmetry_equiv_pos_site_id
 _symmetry_equiv_pos_as_xyz
  1  'x, y, z'
loop_
 _atom_site_type_symbol
 _atom_site_label
 _atom_site_symmetry_multiplicity
 _atom_site_fract_x
 _atom_site_fract_y
 _atom_site_fract_z
 _atom_site_occupancy
  V  V0  1  0.249397  0.748684  0.498945  1
  V  V1  1  0.074689  0.225656  0.300345  1
  V  V2  1  0.924144  0.774571  0.698714  1
  V  V3  1  0.750261  0.249548  0.498945  1
  V  V4  1  0.725300  0.574921  0.300222  1
  V  V5  1  0.425980  0.724584  0.150564  1
  V  V6  1  0.775938  0.072772  0.848711  1
  V  V7  1  0.273802  0.425926  0.699728  1
  V  V8  1  0.225726  0.925794  0.151519  1
  Si  Si9  1  0.167017  0.665639  0.832656  1
  Si  Si10  1  0.248585  0.251080  0.001701  1
  Si  Si11  1  0.665831  0.833922  0.499753  1
  Si  Si12  1  0.836318  0.333913  0.170230  1
  Si  Si13  1  0.750621  0.753116  0.001701  1
  Si  Si14  1  0.331349  0.164438  0.495787  1
  Mo  Mo15  1  0.575043  0.275437  0.850481  1
