# generated using pymatgen
data_Dy4Y(In2Au)2
_symmetry_space_group_name_H-M   'P 1'
_cell_length_a   3.67376400
_cell_length_b   8.22402802
_cell_length_c   18.45880700
_cell_angle_alpha   90.00409652
_cell_angle_beta   90.00000000
_cell_angle_gamma   90.00000000
_symmetry_Int_Tables_number   1
_chemical_formula_structural   Dy4Y(In2Au)2
_chemical_formula_sum   'Dy8 Y2 In8 Au4'
_cell_volume   557.69848323
_cell_formula_units_Z   2
loop_
 _symmetry_equiv_pos_site_id
 _symmetry_equiv_pos_as_xyz
  1  'x, y, z'
loop_
 _atom_site_type_symbol
 _atom_site_label
 _atom_site_symmetry_multiplicity
 _atom_site_fract_x
 _atom_site_fract_y
 _atom_site_fract_z
 _atom_site_occupancy
  Dy  Dy0  1  0.000000  0.500000  0.500000  1
  Dy  Dy1  1  0.000000  0.000000  0.000000  1
  Dy  Dy2  1  0.000000  0.736567  0.281859  1
  Dy  Dy3  1  0.000000  0.263433  0.718141  1
  Dy  Dy4  1  0.000000  0.763643  0.781838  1
  Dy  Dy5  1  0.000000  0.236357  0.218162  1
  Dy  Dy6  1  0.000000  0.619008  0.079624  1
  Dy  Dy7  1  0.000000  0.380992  0.920376  1
  Y  Y8  1  0.000000  0.880595  0.579472  1
  Y  Y9  1  0.000000  0.119405  0.420528  1
  In  In10  1  0.500000  0.711996  0.932521  1
  In  In11  1  0.500000  0.288004  0.067479  1
  In  In12  1  0.500000  0.788167  0.432579  1
  In  In13  1  0.500000  0.211833  0.567421  1
  In  In14  1  0.500000  0.580448  0.646741  1
  In  In15  1  0.500000  0.419552  0.353259  1
  In  In16  1  0.500000  0.919769  0.146748  1
  In  In17  1  0.500000  0.080231  0.853252  1
  Au  Au18  1  0.500000  0.526229  0.196429  1
  Au  Au19  1  0.500000  0.473771  0.803571  1
  Au  Au20  1  0.500000  0.973975  0.696717  1
  Au  Au21  1  0.500000  0.026025  0.303283  1
