# generated using pymatgen
data_Tb9Al(Ni2Te)2
_symmetry_space_group_name_H-M   'P 1'
_cell_length_a   8.81757563
_cell_length_b   8.81787210
_cell_length_c   8.83927165
_cell_angle_alpha   130.62991931
_cell_angle_beta   130.50758520
_cell_angle_gamma   72.30652826
_symmetry_Int_Tables_number   1
_chemical_formula_structural   Tb9Al(Ni2Te)2
_chemical_formula_sum   'Tb9 Al1 Ni4 Te2'
_cell_volume   388.04675711
_cell_formula_units_Z   1
loop_
 _symmetry_equiv_pos_site_id
 _symmetry_equiv_pos_as_xyz
  1  'x, y, z'
loop_
 _atom_site_type_symbol
 _atom_site_label
 _atom_site_symmetry_multiplicity
 _atom_site_fract_x
 _atom_site_fract_y
 _atom_site_fract_z
 _atom_site_occupancy
  Tb  Tb0  1  0.000000  0.000000  0.000000  1
  Tb  Tb1  1  0.779541  0.309222  0.832212  1
  Tb  Tb2  1  0.220459  0.690778  0.167788  1
  Tb  Tb3  1  0.476918  0.947331  0.167752  1
  Tb  Tb4  1  0.309823  0.476861  0.529730  1
  Tb  Tb5  1  0.052896  0.219860  0.529724  1
  Tb  Tb6  1  0.523082  0.052669  0.832248  1
  Tb  Tb7  1  0.690177  0.523139  0.470270  1
  Tb  Tb8  1  0.947104  0.780140  0.470276  1
  Al  Al9  1  0.500000  0.500000  0.000000  1
  Ni  Ni10  1  0.128032  0.627645  0.755702  1
  Ni  Ni11  1  0.871968  0.372355  0.244298  1
  Ni  Ni12  1  0.627313  0.871667  0.498983  1
  Ni  Ni13  1  0.372687  0.128333  0.501017  1
  Te  Te14  1  0.229810  0.229801  0.999973  1
  Te  Te15  1  0.770190  0.770199  0.000027  1
