# generated using pymatgen
data_Be4Mo6Ru2C
_symmetry_space_group_name_H-M   'P 1'
_cell_length_a   7.69057188
_cell_length_b   7.69057245
_cell_length_c   7.69057100
_cell_angle_alpha   59.99999332
_cell_angle_beta   59.99999086
_cell_angle_gamma   60.00000134
_symmetry_Int_Tables_number   1
_chemical_formula_structural   Be4Mo6Ru2C
_chemical_formula_sum   'Be8 Mo12 Ru4 C2'
_cell_volume   321.63317929
_cell_formula_units_Z   2
loop_
 _symmetry_equiv_pos_site_id
 _symmetry_equiv_pos_as_xyz
  1  'x, y, z'
loop_
 _atom_site_type_symbol
 _atom_site_label
 _atom_site_symmetry_multiplicity
 _atom_site_fract_x
 _atom_site_fract_y
 _atom_site_fract_z
 _atom_site_occupancy
  Be  Be0  1  0.332267  0.332267  0.003199  1
  Be  Be1  1  0.332267  0.332267  0.332267  1
  Be  Be2  1  0.246801  0.917733  0.917733  1
  Be  Be3  1  0.917733  0.917733  0.917733  1
  Be  Be4  1  0.003199  0.332267  0.332267  1
  Be  Be5  1  0.332267  0.003199  0.332267  1
  Be  Be6  1  0.917733  0.917733  0.246801  1
  Be  Be7  1  0.917733  0.246801  0.917733  1
  Mo  Mo8  1  0.302701  0.697299  0.697299  1
  Mo  Mo9  1  0.697299  0.697299  0.302701  1
  Mo  Mo10  1  0.697299  0.302701  0.697299  1
  Mo  Mo11  1  0.302701  0.697299  0.302701  1
  Mo  Mo12  1  0.552701  0.947299  0.552701  1
  Mo  Mo13  1  0.552701  0.947299  0.947299  1
  Mo  Mo14  1  0.947299  0.552701  0.552701  1
  Mo  Mo15  1  0.947299  0.552701  0.947299  1
  Mo  Mo16  1  0.302701  0.302701  0.697299  1
  Mo  Mo17  1  0.552701  0.552701  0.947299  1
  Mo  Mo18  1  0.947299  0.947299  0.552701  1
  Mo  Mo19  1  0.697299  0.302701  0.302701  1
  Ru  Ru20  1  0.125000  0.625000  0.125000  1
  Ru  Ru21  1  0.125000  0.125000  0.625000  1
  Ru  Ru22  1  0.625000  0.125000  0.125000  1
  Ru  Ru23  1  0.125000  0.125000  0.125000  1
  C  C24  1  0.500000  0.500000  0.500000  1
  C  C25  1  0.750000  0.750000  0.750000  1
