# generated using pymatgen
data_Li6TaIn5Pt12
_symmetry_space_group_name_H-M   'P 1'
_cell_length_a   4.16848306
_cell_length_b   7.34760209
_cell_length_c   12.49375001
_cell_angle_alpha   89.99999960
_cell_angle_beta   90.00512470
_cell_angle_gamma   90.01814513
_symmetry_Int_Tables_number   1
_chemical_formula_structural   Li6TaIn5Pt12
_chemical_formula_sum   'Li6 Ta1 In5 Pt12'
_cell_volume   382.66298778
_cell_formula_units_Z   1
loop_
 _symmetry_equiv_pos_site_id
 _symmetry_equiv_pos_as_xyz
  1  'x, y, z'
loop_
 _atom_site_type_symbol
 _atom_site_label
 _atom_site_symmetry_multiplicity
 _atom_site_fract_x
 _atom_site_fract_y
 _atom_site_fract_z
 _atom_site_occupancy
  Li  Li0  1  0.999782  0.000010  0.004480  1
  Li  Li1  1  0.501177  0.500011  0.168062  1
  Li  Li2  1  0.001197  0.999994  0.333305  1
  Li  Li3  1  0.500051  0.500009  0.498635  1
  Li  Li4  1  0.998863  0.000001  0.662204  1
  Li  Li5  1  0.498761  0.500008  0.833311  1
  Ta  Ta6  1  0.499080  0.999983  0.833334  1
  In  In7  1  0.999596  0.499972  0.996276  1
  In  In8  1  0.501373  0.999988  0.169398  1
  In  In9  1  0.001266  0.500034  0.333388  1
  In  In10  1  0.499902  0.999997  0.497275  1
  In  In11  1  0.998976  0.499999  0.670380  1
  Pt  Pt12  1  0.499619  0.238218  0.995691  1
  Pt  Pt13  1  0.499617  0.761762  0.995688  1
  Pt  Pt14  1  0.001159  0.251784  0.164055  1
  Pt  Pt15  1  0.001074  0.748192  0.164029  1
  Pt  Pt16  1  0.501025  0.251655  0.333307  1
  Pt  Pt17  1  0.501113  0.748346  0.333308  1
  Pt  Pt18  1  0.000028  0.251730  0.502635  1
  Pt  Pt19  1  0.999958  0.748280  0.502637  1
  Pt  Pt20  1  0.499089  0.238174  0.670967  1
  Pt  Pt21  1  0.499083  0.761841  0.670967  1
  Pt  Pt22  1  0.999164  0.228690  0.833326  1
  Pt  Pt23  1  0.999055  0.771314  0.833339  1
