# generated using pymatgen
data_Cs8Rb5Ti2(In3As5)2
_symmetry_space_group_name_H-M   'P 1'
_cell_length_a   9.83534692
_cell_length_b   9.78863016
_cell_length_c   13.96445210
_cell_angle_alpha   80.96141704
_cell_angle_beta   78.48179188
_cell_angle_gamma   64.08546823
_symmetry_Int_Tables_number   1
_chemical_formula_structural   Cs8Rb5Ti2(In3As5)2
_chemical_formula_sum   'Cs8 Rb5 Ti2 In6 As10'
_cell_volume   1181.15809751
_cell_formula_units_Z   1
loop_
 _symmetry_equiv_pos_site_id
 _symmetry_equiv_pos_as_xyz
  1  'x, y, z'
loop_
 _atom_site_type_symbol
 _atom_site_label
 _atom_site_symmetry_multiplicity
 _atom_site_fract_x
 _atom_site_fract_y
 _atom_site_fract_z
 _atom_site_occupancy
  Cs  Cs0  1  0.091738  0.783262  0.428029  1
  Cs  Cs1  1  0.908262  0.216738  0.571971  1
  Cs  Cs2  1  0.745309  0.689638  0.593184  1
  Cs  Cs3  1  0.254691  0.310362  0.406816  1
  Cs  Cs4  1  0.317512  0.929313  0.088203  1
  Cs  Cs5  1  0.682488  0.070687  0.911797  1
  Cs  Cs6  1  0.896161  0.857025  0.165258  1
  Cs  Cs7  1  0.103839  0.142975  0.834742  1
  Rb  Rb8  1  0.498981  0.865409  0.353133  1
  Rb  Rb9  1  0.501019  0.134591  0.646867  1
  Rb  Rb10  1  0.853352  0.589849  0.884005  1
  Rb  Rb11  1  0.146648  0.410151  0.115995  1
  Rb  Rb12  1  0.500000  0.500000  0.000000  1
  Ti  Ti13  1  0.380528  0.734737  0.774193  1
  Ti  Ti14  1  0.619472  0.265263  0.225807  1
  In  In15  1  0.039585  0.805271  0.708412  1
  In  In16  1  0.960415  0.194729  0.291588  1
  In  In17  1  0.596047  0.444962  0.407727  1
  In  In18  1  0.403953  0.555038  0.592273  1
  In  In19  1  0.723063  0.559310  0.168970  1
  In  In20  1  0.276937  0.440690  0.831030  1
  As  As21  1  0.438414  0.547671  0.250315  1
  As  As22  1  0.561586  0.452329  0.749685  1
  As  As23  1  0.142362  0.739928  0.892898  1
  As  As24  1  0.857638  0.260072  0.107102  1
  As  As25  1  0.703477  0.134209  0.390676  1
  As  As26  1  0.296523  0.865791  0.609324  1
  As  As27  1  0.852661  0.508280  0.348262  1
  As  As28  1  0.147339  0.491720  0.651738  1
  As  As29  1  0.502296  0.856999  0.838256  1
  As  As30  1  0.497704  0.143001  0.161744  1
