# generated using pymatgen
data_Hf6Zr4Ga3Sb5
_symmetry_space_group_name_H-M   'P 1'
_cell_length_a   8.62013403
_cell_length_b   8.62013357
_cell_length_c   5.81964000
_cell_angle_alpha   90.00000000
_cell_angle_beta   90.00000000
_cell_angle_gamma   120.28144160
_symmetry_Int_Tables_number   1
_chemical_formula_structural   Hf6Zr4Ga3Sb5
_chemical_formula_sum   'Hf6 Zr4 Ga3 Sb5'
_cell_volume   373.43593860
_cell_formula_units_Z   1
loop_
 _symmetry_equiv_pos_site_id
 _symmetry_equiv_pos_as_xyz
  1  'x, y, z'
loop_
 _atom_site_type_symbol
 _atom_site_label
 _atom_site_symmetry_multiplicity
 _atom_site_fract_x
 _atom_site_fract_y
 _atom_site_fract_z
 _atom_site_occupancy
  Hf  Hf0  1  0.276408  0.276408  0.750000  1
  Hf  Hf1  1  0.734171  0.734171  0.250000  1
  Hf  Hf2  1  0.337003  0.664958  0.502873  1
  Hf  Hf3  1  0.664958  0.337003  0.502873  1
  Hf  Hf4  1  0.337003  0.664958  0.997127  1
  Hf  Hf5  1  0.664958  0.337003  0.997127  1
  Zr  Zr6  1  0.724977  0.988971  0.750000  1
  Zr  Zr7  1  0.001766  0.267957  0.250000  1
  Zr  Zr8  1  0.988971  0.724977  0.750000  1
  Zr  Zr9  1  0.267957  0.001766  0.250000  1
  Ga  Ga10  1  0.001055  0.001055  0.505675  1
  Ga  Ga11  1  0.609710  0.609710  0.750000  1
  Ga  Ga12  1  0.001055  0.001055  0.994325  1
  Sb  Sb13  1  0.385773  0.999332  0.750000  1
  Sb  Sb14  1  0.610503  0.999508  0.250000  1
  Sb  Sb15  1  0.394893  0.394893  0.250000  1
  Sb  Sb16  1  0.999332  0.385773  0.750000  1
  Sb  Sb17  1  0.999508  0.610503  0.250000  1
