# generated using pymatgen
data_Sm2Er14CdHg3Rh4
_symmetry_space_group_name_H-M   'P 1'
_cell_length_a   9.58066671
_cell_length_b   9.58264696
_cell_length_c   9.52513832
_cell_angle_alpha   59.80204296
_cell_angle_beta   59.80697043
_cell_angle_gamma   60.00683414
_symmetry_Int_Tables_number   1
_chemical_formula_structural   Sm2Er14CdHg3Rh4
_chemical_formula_sum   'Sm2 Er14 Cd1 Hg3 Rh4'
_cell_volume   616.55266030
_cell_formula_units_Z   1
loop_
 _symmetry_equiv_pos_site_id
 _symmetry_equiv_pos_as_xyz
  1  'x, y, z'
loop_
 _atom_site_type_symbol
 _atom_site_label
 _atom_site_symmetry_multiplicity
 _atom_site_fract_x
 _atom_site_fract_y
 _atom_site_fract_z
 _atom_site_occupancy
  Sm  Sm0  1  0.936388  0.936165  0.564289  1
  Sm  Sm1  1  0.563157  0.936165  0.564289  1
  Er  Er2  1  0.563404  0.561029  0.938569  1
  Er  Er3  1  0.148872  0.556833  0.145426  1
  Er  Er4  1  0.687108  0.314691  0.311094  1
  Er  Er5  1  0.938999  0.560172  0.561830  1
  Er  Er6  1  0.936998  0.561029  0.938569  1
  Er  Er7  1  0.688776  0.688832  0.311611  1
  Er  Er8  1  0.561241  0.935868  0.941649  1
  Er  Er9  1  0.150814  0.149219  0.149172  1
  Er  Er10  1  0.310781  0.688832  0.311611  1
  Er  Er11  1  0.550795  0.149219  0.149172  1
  Er  Er12  1  0.309847  0.314365  0.688914  1
  Er  Er13  1  0.311892  0.687697  0.688519  1
  Er  Er14  1  0.151561  0.149173  0.547706  1
  Er  Er15  1  0.686874  0.314365  0.688914  1
  Cd  Cd16  1  0.918949  0.243581  0.918521  1
  Hg  Hg17  1  0.912387  0.915938  0.919170  1
  Hg  Hg18  1  0.252504  0.915938  0.919170  1
  Hg  Hg19  1  0.916563  0.915362  0.251510  1
  Rh  Rh20  1  0.356562  0.357510  0.929365  1
  Rh  Rh21  1  0.356314  0.360504  0.354119  1
  Rh  Rh22  1  0.929062  0.360504  0.354119  1
  Rh  Rh23  1  0.360150  0.927006  0.352692  1
