# generated using pymatgen
data_Lu4Sb3As3Rh7
_symmetry_space_group_name_H-M   'P 1'
_cell_length_a   7.43050153
_cell_length_b   7.37056946
_cell_length_c   7.37057063
_cell_angle_alpha   109.30592267
_cell_angle_beta   109.63601480
_cell_angle_gamma   109.63601952
_symmetry_Int_Tables_number   1
_chemical_formula_structural   Lu4Sb3As3Rh7
_chemical_formula_sum   'Lu4 Sb3 As3 Rh7'
_cell_volume   310.10664691
_cell_formula_units_Z   1
loop_
 _symmetry_equiv_pos_site_id
 _symmetry_equiv_pos_as_xyz
  1  'x, y, z'
loop_
 _atom_site_type_symbol
 _atom_site_label
 _atom_site_symmetry_multiplicity
 _atom_site_fract_x
 _atom_site_fract_y
 _atom_site_fract_z
 _atom_site_occupancy
  Lu  Lu0  1  0.546020  0.000000  0.000000  1
  Lu  Lu1  1  0.987414  0.478635  0.000000  1
  Lu  Lu2  1  0.987414  0.000000  0.478635  1
  Lu  Lu3  1  0.508778  0.521365  0.521365  1
  Sb  Sb4  1  0.010331  0.700792  0.700792  1
  Sb  Sb5  1  0.309538  0.000000  0.299208  1
  Sb  Sb6  1  0.309538  0.299208  0.000000  1
  As  As7  1  0.008289  0.331797  0.331797  1
  As  As8  1  0.676492  0.000000  0.668203  1
  As  As9  1  0.676492  0.668203  0.000000  1
  Rh  Rh10  1  0.965189  0.000000  0.000000  1
  Rh  Rh11  1  0.501050  0.748520  0.247378  1
  Rh  Rh12  1  0.752530  0.498859  0.251480  1
  Rh  Rh13  1  0.253672  0.752622  0.501141  1
  Rh  Rh14  1  0.253672  0.501141  0.752622  1
  Rh  Rh15  1  0.501050  0.247378  0.748520  1
  Rh  Rh16  1  0.752530  0.251480  0.498859  1
