# generated using pymatgen
data_Tm16MgIn3CoNi3
_symmetry_space_group_name_H-M   'P 1'
_cell_length_a   9.47436041
_cell_length_b   9.40795694
_cell_length_c   9.40795700
_cell_angle_alpha   59.99999629
_cell_angle_beta   60.23157450
_cell_angle_gamma   60.23156912
_symmetry_Int_Tables_number   1
_chemical_formula_structural   Tm16MgIn3CoNi3
_chemical_formula_sum   'Tm16 Mg1 In3 Co1 Ni3'
_cell_volume   595.02720445
_cell_formula_units_Z   1
loop_
 _symmetry_equiv_pos_site_id
 _symmetry_equiv_pos_as_xyz
  1  'x, y, z'
loop_
 _atom_site_type_symbol
 _atom_site_label
 _atom_site_symmetry_multiplicity
 _atom_site_fract_x
 _atom_site_fract_y
 _atom_site_fract_z
 _atom_site_occupancy
  Tm  Tm0  1  0.349990  0.344402  0.344402  1
  Tm  Tm1  1  0.349990  0.344402  0.961206  1
  Tm  Tm2  1  0.349990  0.961206  0.344402  1
  Tm  Tm3  1  0.954884  0.348372  0.348372  1
  Tm  Tm4  1  0.807200  0.188621  0.188621  1
  Tm  Tm5  1  0.185142  0.813666  0.813666  1
  Tm  Tm6  1  0.185142  0.813666  0.187527  1
  Tm  Tm7  1  0.807200  0.188621  0.815558  1
  Tm  Tm8  1  0.185142  0.187527  0.813666  1
  Tm  Tm9  1  0.807200  0.815558  0.188621  1
  Tm  Tm10  1  0.937361  0.563596  0.563596  1
  Tm  Tm11  1  0.565319  0.937186  0.937186  1
  Tm  Tm12  1  0.565319  0.937186  0.560310  1
  Tm  Tm13  1  0.937361  0.563596  0.935448  1
  Tm  Tm14  1  0.565319  0.560310  0.937186  1
  Tm  Tm15  1  0.937361  0.935448  0.563596  1
  Mg  Mg16  1  0.267821  0.577393  0.577393  1
  In  In17  1  0.582624  0.583145  0.583145  1
  In  In18  1  0.582624  0.583145  0.251086  1
  In  In19  1  0.582624  0.251086  0.583145  1
  Co  Co20  1  0.574150  0.141950  0.141950  1
  Ni  Ni21  1  0.140077  0.142325  0.142325  1
  Ni  Ni22  1  0.140077  0.142325  0.575273  1
  Ni  Ni23  1  0.140077  0.575273  0.142325  1
