# generated using pymatgen
data_Dy4Hf3ScPt4
_symmetry_space_group_name_H-M   'P 1'
_cell_length_a   4.67577900
_cell_length_b   7.05632917
_cell_length_c   8.26002323
_cell_angle_alpha   88.99477872
_cell_angle_beta   90.00000000
_cell_angle_gamma   90.00000000
_symmetry_Int_Tables_number   1
_chemical_formula_structural   Dy4Hf3ScPt4
_chemical_formula_sum   'Dy4 Hf3 Sc1 Pt4'
_cell_volume   272.48790761
_cell_formula_units_Z   1
loop_
 _symmetry_equiv_pos_site_id
 _symmetry_equiv_pos_as_xyz
  1  'x, y, z'
loop_
 _atom_site_type_symbol
 _atom_site_label
 _atom_site_symmetry_multiplicity
 _atom_site_fract_x
 _atom_site_fract_y
 _atom_site_fract_z
 _atom_site_occupancy
  Dy  Dy0  1  0.250000  0.478618  0.180966  1
  Dy  Dy1  1  0.750000  0.516889  0.822869  1
  Dy  Dy2  1  0.750000  0.022923  0.674550  1
  Dy  Dy3  1  0.250000  0.981847  0.323382  1
  Hf  Hf4  1  0.250000  0.853112  0.922985  1
  Hf  Hf5  1  0.750000  0.139844  0.075746  1
  Hf  Hf6  1  0.750000  0.645777  0.426482  1
  Sc  Sc7  1  0.250000  0.358506  0.576755  1
  Pt  Pt8  1  0.250000  0.737668  0.597697  1
  Pt  Pt9  1  0.750000  0.270425  0.393630  1
  Pt  Pt10  1  0.750000  0.767114  0.095958  1
  Pt  Pt11  1  0.250000  0.227280  0.908980  1
