# generated using pymatgen
data_SmAlCo3C
_symmetry_space_group_name_H-M   'P 1'
_cell_length_a   5.18525802
_cell_length_b   5.18502824
_cell_length_c   6.59937000
_cell_angle_alpha   90.00000000
_cell_angle_beta   90.00000000
_cell_angle_gamma   119.99662132
_symmetry_Int_Tables_number   1
_chemical_formula_structural   SmAlCo3C
_chemical_formula_sum   'Sm2 Al2 Co6 C2'
_cell_volume   153.66303011
_cell_formula_units_Z   2
loop_
 _symmetry_equiv_pos_site_id
 _symmetry_equiv_pos_as_xyz
  1  'x, y, z'
loop_
 _atom_site_type_symbol
 _atom_site_label
 _atom_site_symmetry_multiplicity
 _atom_site_fract_x
 _atom_site_fract_y
 _atom_site_fract_z
 _atom_site_occupancy
  Sm  Sm0  1  0.999975  0.000001  0.000000  1
  Sm  Sm1  1  0.999992  0.000001  0.500000  1
  Al  Al2  1  0.333352  0.666679  0.000000  1
  Al  Al3  1  0.666608  0.333324  0.000000  1
  Co  Co4  1  0.499988  0.000000  0.305982  1
  Co  Co5  1  0.499986  0.500002  0.305977  1
  Co  Co6  1  0.999983  0.499997  0.305969  1
  Co  Co7  1  0.499988  0.000000  0.694018  1
  Co  Co8  1  0.499986  0.500002  0.694022  1
  Co  Co9  1  0.999983  0.499997  0.694030  1
  C  C10  1  0.333293  0.666654  0.500000  1
  C  C11  1  0.666667  0.333344  0.500000  1
