# generated using pymatgen
data_Ho4FeTc2Ru5
_symmetry_space_group_name_H-M   'P 1'
_cell_length_a   5.33688574
_cell_length_b   5.10912593
_cell_length_c   8.99420800
_cell_angle_alpha   90.00000000
_cell_angle_beta   90.00000000
_cell_angle_gamma   119.70255448
_symmetry_Int_Tables_number   1
_chemical_formula_structural   Ho4FeTc2Ru5
_chemical_formula_sum   'Ho4 Fe1 Tc2 Ru5'
_cell_volume   213.02078250
_cell_formula_units_Z   1
loop_
 _symmetry_equiv_pos_site_id
 _symmetry_equiv_pos_as_xyz
  1  'x, y, z'
loop_
 _atom_site_type_symbol
 _atom_site_label
 _atom_site_symmetry_multiplicity
 _atom_site_fract_x
 _atom_site_fract_y
 _atom_site_fract_z
 _atom_site_occupancy
  Ho  Ho0  1  0.670016  0.337343  0.568431  1
  Ho  Ho1  1  0.328514  0.662351  0.437769  1
  Ho  Ho2  1  0.328514  0.662351  0.062231  1
  Ho  Ho3  1  0.670016  0.337343  0.931569  1
  Fe  Fe4  1  0.164499  0.328399  0.750000  1
  Tc  Tc5  1  0.837955  0.666916  0.250000  1
  Tc  Tc6  1  0.833816  0.175614  0.250000  1
  Ru  Ru7  1  0.994330  0.000438  0.504455  1
  Ru  Ru8  1  0.994330  0.000438  0.995545  1
  Ru  Ru9  1  0.175795  0.826101  0.750000  1
  Ru  Ru10  1  0.654347  0.828415  0.750000  1
  Ru  Ru11  1  0.347868  0.174292  0.250000  1
