# generated using pymatgen
data_La4Mg(FeB3)2
_symmetry_space_group_name_H-M   'P 1'
_cell_length_a   5.45030938
_cell_length_b   5.45044423
_cell_length_c   8.83591088
_cell_angle_alpha   72.06828834
_cell_angle_beta   72.03607867
_cell_angle_gamma   60.00083672
_symmetry_Int_Tables_number   1
_chemical_formula_structural   La4Mg(FeB3)2
_chemical_formula_sum   'La4 Mg1 Fe2 B6'
_cell_volume   212.44311928
_cell_formula_units_Z   1
loop_
 _symmetry_equiv_pos_site_id
 _symmetry_equiv_pos_as_xyz
  1  'x, y, z'
loop_
 _atom_site_type_symbol
 _atom_site_label
 _atom_site_symmetry_multiplicity
 _atom_site_fract_x
 _atom_site_fract_y
 _atom_site_fract_z
 _atom_site_occupancy
  La  La0  1  0.251159  0.250609  0.247073  1
  La  La1  1  0.748841  0.749391  0.752927  1
  La  La2  1  0.416439  0.416940  0.750181  1
  La  La3  1  0.583561  0.583060  0.249819  1
  Mg  Mg4  1  0.000000  0.000000  0.000000  1
  Fe  Fe5  1  0.121924  0.122084  0.634066  1
  Fe  Fe6  1  0.878076  0.877916  0.365934  1
  B  B7  1  0.833634  0.500000  0.500000  1
  B  B8  1  0.500011  0.166386  0.500001  1
  B  B9  1  0.166398  0.833614  0.499999  1
  B  B10  1  0.499989  0.833614  0.499999  1
  B  B11  1  0.833602  0.166386  0.500001  1
  B  B12  1  0.166366  0.500000  0.500000  1
