# generated using pymatgen
data_Zr5CN4
_symmetry_space_group_name_H-M   'P 1'
_cell_length_a   13.48476354
_cell_length_b   13.48476367
_cell_length_c   13.48476427
_cell_angle_alpha   14.00795807
_cell_angle_beta   14.00795650
_cell_angle_gamma   14.00795701
_symmetry_Int_Tables_number   1
_chemical_formula_structural   Zr5CN4
_chemical_formula_sum   'Zr5 C1 N4'
_cell_volume   125.04099899
_cell_formula_units_Z   1
loop_
 _symmetry_equiv_pos_site_id
 _symmetry_equiv_pos_as_xyz
  1  'x, y, z'
loop_
 _atom_site_type_symbol
 _atom_site_label
 _atom_site_symmetry_multiplicity
 _atom_site_fract_x
 _atom_site_fract_y
 _atom_site_fract_z
 _atom_site_occupancy
  Zr  Zr0  1  0.700010  0.700010  0.700010  1
  Zr  Zr1  1  0.299939  0.299939  0.299939  1
  Zr  Zr2  1  0.898903  0.898903  0.898903  1
  Zr  Zr3  1  0.500040  0.500040  0.500040  1
  Zr  Zr4  1  0.101118  0.101118  0.101118  1
  C  C5  1  0.999974  0.999974  0.999974  1
  N  N6  1  0.598656  0.598656  0.598656  1
  N  N7  1  0.200095  0.200095  0.200095  1
  N  N8  1  0.800022  0.800022  0.800022  1
  N  N9  1  0.401242  0.401242  0.401242  1
