# generated using pymatgen
data_Y4Er4Si8PdPt7
_symmetry_space_group_name_H-M   'P 1'
_cell_length_a   4.26810300
_cell_length_b   7.48749128
_cell_length_c   14.01962302
_cell_angle_alpha   89.94320148
_cell_angle_beta   90.00000000
_cell_angle_gamma   90.00000000
_symmetry_Int_Tables_number   1
_chemical_formula_structural   Y4Er4Si8PdPt7
_chemical_formula_sum   'Y4 Er4 Si8 Pd1 Pt7'
_cell_volume   448.03025614
_cell_formula_units_Z   1
loop_
 _symmetry_equiv_pos_site_id
 _symmetry_equiv_pos_as_xyz
  1  'x, y, z'
loop_
 _atom_site_type_symbol
 _atom_site_label
 _atom_site_symmetry_multiplicity
 _atom_site_fract_x
 _atom_site_fract_y
 _atom_site_fract_z
 _atom_site_occupancy
  Y  Y0  1  0.000000  0.300754  0.999787  1
  Y  Y1  1  0.500000  0.699617  0.499886  1
  Y  Y2  1  0.000000  0.293888  0.500140  1
  Y  Y3  1  0.500000  0.705337  0.000285  1
  Er  Er4  1  0.000000  0.203851  0.249462  1
  Er  Er5  1  0.500000  0.795911  0.250241  1
  Er  Er6  1  0.000000  0.203236  0.750154  1
  Er  Er7  1  0.500000  0.795751  0.750168  1
  Si  Si8  1  0.000000  0.907719  0.592248  1
  Si  Si9  1  0.500000  0.094318  0.906640  1
  Si  Si10  1  0.000000  0.906589  0.407010  1
  Si  Si11  1  0.500000  0.093760  0.092879  1
  Si  Si12  1  0.000000  0.594051  0.147618  1
  Si  Si13  1  0.500000  0.405752  0.351127  1
  Si  Si14  1  0.000000  0.594438  0.855361  1
  Si  Si15  1  0.500000  0.402894  0.646471  1
  Pd  Pd16  1  0.000000  0.580964  0.657787  1
  Pt  Pt17  1  0.500000  0.073987  0.609050  1
  Pt  Pt18  1  0.000000  0.924861  0.890501  1
  Pt  Pt19  1  0.500000  0.075384  0.390749  1
  Pt  Pt20  1  0.000000  0.924648  0.109150  1
  Pt  Pt21  1  0.500000  0.419987  0.156285  1
  Pt  Pt22  1  0.000000  0.580240  0.345666  1
  Pt  Pt23  1  0.500000  0.422065  0.841333  1
