# generated using pymatgen
data_La5OsPb2
_symmetry_space_group_name_H-M   'P 1'
_cell_length_a   8.54778800
_cell_length_b   9.29574400
_cell_length_c   13.06416800
_cell_angle_alpha   90.00000000
_cell_angle_beta   90.00000000
_cell_angle_gamma   90.00000000
_symmetry_Int_Tables_number   1
_chemical_formula_structural   La5OsPb2
_chemical_formula_sum   'La20 Os4 Pb8'
_cell_volume   1038.05330127
_cell_formula_units_Z   4
loop_
 _symmetry_equiv_pos_site_id
 _symmetry_equiv_pos_as_xyz
  1  'x, y, z'
loop_
 _atom_site_type_symbol
 _atom_site_label
 _atom_site_symmetry_multiplicity
 _atom_site_fract_x
 _atom_site_fract_y
 _atom_site_fract_z
 _atom_site_occupancy
  La  La0  1  0.154292  0.750000  0.205979  1
  La  La1  1  0.654292  0.250000  0.294021  1
  La  La2  1  0.845708  0.250000  0.794021  1
  La  La3  1  0.345708  0.750000  0.705979  1
  La  La4  1  0.443144  0.750000  0.998317  1
  La  La5  1  0.943144  0.250000  0.501683  1
  La  La6  1  0.556856  0.250000  0.001683  1
  La  La7  1  0.056856  0.750000  0.498317  1
  La  La8  1  0.622670  0.750000  0.304128  1
  La  La9  1  0.122670  0.250000  0.195872  1
  La  La10  1  0.377330  0.250000  0.695872  1
  La  La11  1  0.877330  0.750000  0.804128  1
  La  La12  1  0.823222  0.965938  0.064070  1
  La  La13  1  0.323222  0.034062  0.435930  1
  La  La14  1  0.176778  0.465938  0.935930  1
  La  La15  1  0.676778  0.534062  0.564070  1
  La  La16  1  0.176778  0.034062  0.935930  1
  La  La17  1  0.676778  0.965938  0.564070  1
  La  La18  1  0.823222  0.534062  0.064070  1
  La  La19  1  0.323222  0.465938  0.435930  1
  Os  Os20  1  0.420470  0.750000  0.485243  1
  Os  Os21  1  0.920470  0.250000  0.014757  1
  Os  Os22  1  0.579530  0.250000  0.514757  1
  Os  Os23  1  0.079530  0.750000  0.985243  1
  Pb  Pb24  1  0.928513  0.993223  0.327705  1
  Pb  Pb25  1  0.428513  0.006777  0.172295  1
  Pb  Pb26  1  0.071487  0.493223  0.672295  1
  Pb  Pb27  1  0.571487  0.506777  0.827705  1
  Pb  Pb28  1  0.071487  0.006777  0.672295  1
  Pb  Pb29  1  0.571487  0.993223  0.827705  1
  Pb  Pb30  1  0.928513  0.506777  0.327705  1
  Pb  Pb31  1  0.428513  0.493223  0.172295  1
