# generated using pymatgen
data_BeNb4Ge(B2Ru5)2
_symmetry_space_group_name_H-M   'P 1'
_cell_length_a   9.26897900
_cell_length_b   9.26897900
_cell_length_c   2.97350500
_cell_angle_alpha   90.00000000
_cell_angle_beta   90.00000000
_cell_angle_gamma   90.00000000
_symmetry_Int_Tables_number   1
_chemical_formula_structural   BeNb4Ge(B2Ru5)2
_chemical_formula_sum   'Be1 Nb4 Ge1 B4 Ru10'
_cell_volume   255.46562443
_cell_formula_units_Z   1
loop_
 _symmetry_equiv_pos_site_id
 _symmetry_equiv_pos_as_xyz
  1  'x, y, z'
loop_
 _atom_site_type_symbol
 _atom_site_label
 _atom_site_symmetry_multiplicity
 _atom_site_fract_x
 _atom_site_fract_y
 _atom_site_fract_z
 _atom_site_occupancy
  Be  Be0  1  0.500000  0.500000  0.000000  1
  Nb  Nb1  1  0.819843  0.673349  0.000000  1
  Nb  Nb2  1  0.180157  0.326651  0.000000  1
  Nb  Nb3  1  0.326651  0.819843  0.000000  1
  Nb  Nb4  1  0.673349  0.180157  0.000000  1
  Ge  Ge5  1  0.000000  0.000000  0.000000  1
  B  B6  1  0.620146  0.868507  0.000000  1
  B  B7  1  0.379854  0.131493  0.000000  1
  B  B8  1  0.131493  0.620146  0.000000  1
  B  B9  1  0.868507  0.379854  0.000000  1
  Ru  Ru10  1  0.563942  0.708016  0.500000  1
  Ru  Ru11  1  0.436058  0.291984  0.500000  1
  Ru  Ru12  1  0.069449  0.785523  0.500000  1
  Ru  Ru13  1  0.930551  0.214477  0.500000  1
  Ru  Ru14  1  0.291984  0.563942  0.500000  1
  Ru  Ru15  1  0.708016  0.436058  0.500000  1
  Ru  Ru16  1  0.214477  0.069449  0.500000  1
  Ru  Ru17  1  0.785523  0.930551  0.500000  1
  Ru  Ru18  1  0.500000  0.000000  0.500000  1
  Ru  Ru19  1  0.000000  0.500000  0.500000  1
