# generated using pymatgen
data_Ac2LaSn7Ir2
_symmetry_space_group_name_H-M   'P 1'
_cell_length_a   4.77230456
_cell_length_b   4.71566200
_cell_length_c   14.54176532
_cell_angle_alpha   90.00000000
_cell_angle_beta   99.97490774
_cell_angle_gamma   90.00000000
_symmetry_Int_Tables_number   1
_chemical_formula_structural   Ac2LaSn7Ir2
_chemical_formula_sum   'Ac2 La1 Sn7 Ir2'
_cell_volume   322.30935071
_cell_formula_units_Z   1
loop_
 _symmetry_equiv_pos_site_id
 _symmetry_equiv_pos_as_xyz
  1  'x, y, z'
loop_
 _atom_site_type_symbol
 _atom_site_label
 _atom_site_symmetry_multiplicity
 _atom_site_fract_x
 _atom_site_fract_y
 _atom_site_fract_z
 _atom_site_occupancy
  Ac  Ac0  1  0.173843  0.000000  0.362640  1
  Ac  Ac1  1  0.826157  0.000000  0.637360  1
  La  La2  1  0.500001  0.500001  0.000000  1
  Sn  Sn3  1  0.000000  0.000000  0.000000  1
  Sn  Sn4  1  0.578363  0.000000  0.169717  1
  Sn  Sn5  1  0.090120  0.500001  0.170977  1
  Sn  Sn6  1  0.714332  0.500001  0.439737  1
  Sn  Sn7  1  0.285669  0.500001  0.560263  1
  Sn  Sn8  1  0.909881  0.500001  0.829023  1
  Sn  Sn9  1  0.421638  0.000000  0.830283  1
  Ir  Ir10  1  0.639512  0.500001  0.256397  1
  Ir  Ir11  1  0.360488  0.500001  0.743603  1
