# generated using pymatgen
data_Nd3Y7Pt8
_symmetry_space_group_name_H-M   'P 1'
_cell_length_a   7.58054377
_cell_length_b   14.94487156
_cell_length_c   7.63982000
_cell_angle_alpha   89.99987500
_cell_angle_beta   90.00049687
_cell_angle_gamma   89.92133244
_symmetry_Int_Tables_number   1
_chemical_formula_structural   Nd3Y7Pt8
_chemical_formula_sum   'Nd6 Y14 Pt16'
_cell_volume   865.51632448
_cell_formula_units_Z   2
loop_
 _symmetry_equiv_pos_site_id
 _symmetry_equiv_pos_as_xyz
  1  'x, y, z'
loop_
 _atom_site_type_symbol
 _atom_site_label
 _atom_site_symmetry_multiplicity
 _atom_site_fract_x
 _atom_site_fract_y
 _atom_site_fract_z
 _atom_site_occupancy
  Nd  Nd0  1  0.999970  0.406771  0.178944  1
  Nd  Nd1  1  0.500029  0.593237  0.678945  1
  Nd  Nd2  1  0.500634  0.091654  0.321802  1
  Nd  Nd3  1  0.999358  0.908339  0.821794  1
  Nd  Nd4  1  0.999700  0.593322  0.821289  1
  Nd  Nd5  1  0.500295  0.406687  0.321298  1
  Y  Y6  1  0.318486  0.248389  0.011262  1
  Y  Y7  1  0.181517  0.751609  0.511236  1
  Y  Y8  1  0.819047  0.248846  0.488563  1
  Y  Y9  1  0.680952  0.751154  0.988587  1
  Y  Y10  1  0.497667  0.906363  0.680128  1
  Y  Y11  1  0.002338  0.093634  0.180128  1
  Y  Y12  1  0.344757  0.623498  0.168034  1
  Y  Y13  1  0.155244  0.376508  0.668025  1
  Y  Y14  1  0.844011  0.878593  0.332732  1
  Y  Y15  1  0.655990  0.121401  0.832738  1
  Y  Y16  1  0.655508  0.376222  0.832825  1
  Y  Y17  1  0.844491  0.623784  0.332820  1
  Y  Y18  1  0.155795  0.122332  0.666639  1
  Y  Y19  1  0.344208  0.877663  0.166655  1
  Pt  Pt20  1  0.180516  0.541761  0.464066  1
  Pt  Pt21  1  0.319486  0.458253  0.964062  1
  Pt  Pt22  1  0.679513  0.958215  0.033415  1
  Pt  Pt23  1  0.820488  0.041772  0.533419  1
  Pt  Pt24  1  0.820221  0.458248  0.535810  1
  Pt  Pt25  1  0.679780  0.541767  0.035808  1
  Pt  Pt26  1  0.315366  0.041641  0.965238  1
  Pt  Pt27  1  0.184635  0.958346  0.465242  1
  Pt  Pt28  1  0.451705  0.249556  0.615841  1
  Pt  Pt29  1  0.048310  0.750442  0.115811  1
  Pt  Pt30  1  0.952790  0.248563  0.885087  1
  Pt  Pt31  1  0.547225  0.751434  0.385120  1
  Pt  Pt32  1  0.181973  0.247730  0.358870  1
  Pt  Pt33  1  0.318008  0.752266  0.858887  1
  Pt  Pt34  1  0.685111  0.248797  0.139451  1
  Pt  Pt35  1  0.814871  0.751200  0.639432  1
