# generated using pymatgen
data_Y2Ho6Si12PtRh3
_symmetry_space_group_name_H-M   'P 1'
_cell_length_a   8.15115000
_cell_length_b   8.15115053
_cell_length_c   7.88667100
_cell_angle_alpha   90.00000000
_cell_angle_beta   90.00000000
_cell_angle_gamma   120.00000598
_symmetry_Int_Tables_number   1
_chemical_formula_structural   Y2Ho6Si12PtRh3
_chemical_formula_sum   'Y2 Ho6 Si12 Pt1 Rh3'
_cell_volume   453.79753051
_cell_formula_units_Z   1
loop_
 _symmetry_equiv_pos_site_id
 _symmetry_equiv_pos_as_xyz
  1  'x, y, z'
loop_
 _atom_site_type_symbol
 _atom_site_label
 _atom_site_symmetry_multiplicity
 _atom_site_fract_x
 _atom_site_fract_y
 _atom_site_fract_z
 _atom_site_occupancy
  Y  Y0  1  0.000000  0.000000  0.249440  1
  Y  Y1  1  0.000000  0.000000  0.751223  1
  Ho  Ho2  1  0.510379  0.489621  0.247483  1
  Ho  Ho3  1  0.510379  0.020758  0.247483  1
  Ho  Ho4  1  0.979242  0.489621  0.247483  1
  Ho  Ho5  1  0.491416  0.508584  0.752091  1
  Ho  Ho6  1  0.491416  0.982830  0.752091  1
  Ho  Ho7  1  0.017170  0.508584  0.752091  1
  Si  Si8  1  0.164674  0.835326  0.500199  1
  Si  Si9  1  0.164674  0.329347  0.500199  1
  Si  Si10  1  0.670653  0.835326  0.500199  1
  Si  Si11  1  0.831845  0.168155  0.499578  1
  Si  Si12  1  0.831845  0.663692  0.499578  1
  Si  Si13  1  0.336308  0.168155  0.499578  1
  Si  Si14  1  0.832955  0.167045  0.999349  1
  Si  Si15  1  0.832955  0.665910  0.999349  1
  Si  Si16  1  0.334090  0.167045  0.999349  1
  Si  Si17  1  0.167174  0.832826  0.000644  1
  Si  Si18  1  0.167174  0.334347  0.000644  1
  Si  Si19  1  0.665653  0.832826  0.000644  1
  Pt  Pt20  1  0.333333  0.666667  0.466011  1
  Rh  Rh21  1  0.666667  0.333333  0.537298  1
  Rh  Rh22  1  0.666667  0.333333  0.963049  1
  Rh  Rh23  1  0.333333  0.666667  0.034947  1
