# generated using pymatgen
data_Sr5CaMn6(AsO4)8
_symmetry_space_group_name_H-M   'P 1'
_cell_length_a   5.30247517
_cell_length_b   9.51608782
_cell_length_c   18.16916820
_cell_angle_alpha   61.68576434
_cell_angle_beta   90.17782855
_cell_angle_gamma   90.00646770
_symmetry_Int_Tables_number   1
_chemical_formula_structural   Sr5CaMn6(AsO4)8
_chemical_formula_sum   'Sr5 Ca1 Mn6 As8 O32'
_cell_volume   807.10417322
_cell_formula_units_Z   1
loop_
 _symmetry_equiv_pos_site_id
 _symmetry_equiv_pos_as_xyz
  1  'x, y, z'
loop_
 _atom_site_type_symbol
 _atom_site_label
 _atom_site_symmetry_multiplicity
 _atom_site_fract_x
 _atom_site_fract_y
 _atom_site_fract_z
 _atom_site_occupancy
  Sr  Sr0  1  0.539381  0.311229  0.233386  1
  Sr  Sr1  1  0.033274  0.692504  0.264243  1
  Sr  Sr2  1  0.460619  0.688771  0.766614  1
  Sr  Sr3  1  0.966726  0.307496  0.735757  1
  Sr  Sr4  1  0.500000  0.000000  0.500000  1
  Ca  Ca5  1  0.000000  0.000000  0.000000  1
  Mn  Mn6  1  0.481126  0.194866  0.623925  1
  Mn  Mn7  1  0.518874  0.805134  0.376075  1
  Mn  Mn8  1  0.984686  0.805458  0.880554  1
  Mn  Mn9  1  0.015314  0.194542  0.119446  1
  Mn  Mn10  1  0.000000  0.500000  0.500000  1
  Mn  Mn11  1  0.500000  0.500000  0.000000  1
  As  As12  1  0.013574  0.033414  0.340573  1
  As  As13  1  0.486015  0.442086  0.404236  1
  As  As14  1  0.991223  0.561755  0.095646  1
  As  As15  1  0.008777  0.438245  0.904354  1
  As  As16  1  0.986426  0.966586  0.659427  1
  As  As17  1  0.513985  0.557914  0.595764  1
  As  As18  1  0.493319  0.030360  0.846567  1
  As  As19  1  0.506681  0.969640  0.153433  1
  O  O20  1  0.464459  0.823094  0.256029  1
  O  O21  1  0.946036  0.745062  0.009988  1
  O  O22  1  0.386364  0.440417  0.315868  1
  O  O23  1  0.415789  0.154455  0.141940  1
  O  O24  1  0.613636  0.559583  0.684132  1
  O  O25  1  0.039500  0.822730  0.761733  1
  O  O26  1  0.886482  0.555232  0.185363  1
  O  O27  1  0.701520  0.502981  0.898299  1
  O  O28  1  0.669204  0.089165  0.905127  1
  O  O29  1  0.535541  0.176906  0.743971  1
  O  O30  1  0.082998  0.151626  0.645676  1
  O  O31  1  0.298480  0.497019  0.101701  1
  O  O32  1  0.300854  0.585371  0.413869  1
  O  O33  1  0.330796  0.910835  0.094873  1
  O  O34  1  0.661262  0.975298  0.642276  1
  O  O35  1  0.170436  0.023213  0.866351  1
  O  O36  1  0.809616  0.421705  0.081684  1
  O  O37  1  0.113518  0.444768  0.814637  1
  O  O38  1  0.145377  0.904532  0.599327  1
  O  O39  1  0.207205  0.491993  0.601896  1
  O  O40  1  0.829564  0.976787  0.133649  1
  O  O41  1  0.338738  0.024702  0.357724  1
  O  O42  1  0.053964  0.254938  0.990012  1
  O  O43  1  0.437092  0.264350  0.492823  1
  O  O44  1  0.699146  0.414629  0.586131  1
  O  O45  1  0.960500  0.177270  0.238267  1
  O  O46  1  0.584211  0.845545  0.858060  1
  O  O47  1  0.854623  0.095468  0.400673  1
  O  O48  1  0.562908  0.735650  0.507177  1
  O  O49  1  0.792795  0.508007  0.398104  1
  O  O50  1  0.190384  0.578295  0.918316  1
  O  O51  1  0.917002  0.848374  0.354324  1
