# generated using pymatgen
data_Ho2Er8Cd7InPd4
_symmetry_space_group_name_H-M   'P 1'
_cell_length_a   3.61330200
_cell_length_b   7.96098417
_cell_length_c   18.31015629
_cell_angle_alpha   89.76894458
_cell_angle_beta   90.00000000
_cell_angle_gamma   90.00000000
_symmetry_Int_Tables_number   1
_chemical_formula_structural   Ho2Er8Cd7InPd4
_chemical_formula_sum   'Ho2 Er8 Cd7 In1 Pd4'
_cell_volume   526.69541987
_cell_formula_units_Z   1
loop_
 _symmetry_equiv_pos_site_id
 _symmetry_equiv_pos_as_xyz
  1  'x, y, z'
loop_
 _atom_site_type_symbol
 _atom_site_label
 _atom_site_symmetry_multiplicity
 _atom_site_fract_x
 _atom_site_fract_y
 _atom_site_fract_z
 _atom_site_occupancy
  Ho  Ho0  1  0.000000  0.498151  0.500317  1
  Ho  Ho1  1  0.000000  0.001386  0.999763  1
  Er  Er2  1  0.000000  0.738895  0.280964  1
  Er  Er3  1  0.000000  0.261051  0.718775  1
  Er  Er4  1  0.000000  0.758591  0.780704  1
  Er  Er5  1  0.000000  0.240905  0.219437  1
  Er  Er6  1  0.000000  0.613032  0.083724  1
  Er  Er7  1  0.000000  0.387955  0.916372  1
  Er  Er8  1  0.000000  0.886832  0.583360  1
  Er  Er9  1  0.000000  0.113220  0.416193  1
  Cd  Cd10  1  0.500000  0.714713  0.932035  1
  Cd  Cd11  1  0.500000  0.286129  0.068361  1
  Cd  Cd12  1  0.500000  0.784293  0.431906  1
  Cd  Cd13  1  0.500000  0.213959  0.568673  1
  Cd  Cd14  1  0.500000  0.578016  0.648009  1
  Cd  Cd15  1  0.500000  0.423074  0.351825  1
  Cd  Cd16  1  0.500000  0.923119  0.148105  1
  In  In17  1  0.500000  0.076511  0.851063  1
  Pd  Pd18  1  0.500000  0.525636  0.195516  1
  Pd  Pd19  1  0.500000  0.474556  0.804460  1
  Pd  Pd20  1  0.500000  0.974571  0.695888  1
  Pd  Pd21  1  0.500000  0.025408  0.304553  1
