# generated using pymatgen
data_Li5Hf(Ge3Ir2)2
_symmetry_space_group_name_H-M   'P 1'
_cell_length_a   6.13886800
_cell_length_b   6.13886800
_cell_length_c   6.13886800
_cell_angle_alpha   90.00000000
_cell_angle_beta   90.00000000
_cell_angle_gamma   90.00000000
_symmetry_Int_Tables_number   1
_chemical_formula_structural   Li5Hf(Ge3Ir2)2
_chemical_formula_sum   'Li5 Hf1 Ge6 Ir4'
_cell_volume   231.34753976
_cell_formula_units_Z   1
loop_
 _symmetry_equiv_pos_site_id
 _symmetry_equiv_pos_as_xyz
  1  'x, y, z'
loop_
 _atom_site_type_symbol
 _atom_site_label
 _atom_site_symmetry_multiplicity
 _atom_site_fract_x
 _atom_site_fract_y
 _atom_site_fract_z
 _atom_site_occupancy
  Li  Li0  1  0.500000  0.500000  0.500000  1
  Li  Li1  1  0.731336  0.268664  0.268664  1
  Li  Li2  1  0.268664  0.268664  0.731336  1
  Li  Li3  1  0.268664  0.731336  0.268664  1
  Li  Li4  1  0.731336  0.731336  0.731336  1
  Hf  Hf5  1  0.000000  0.000000  0.000000  1
  Ge  Ge6  1  0.000000  0.500000  0.500000  1
  Ge  Ge7  1  0.000000  0.500000  0.000000  1
  Ge  Ge8  1  0.000000  0.000000  0.500000  1
  Ge  Ge9  1  0.500000  0.500000  0.000000  1
  Ge  Ge10  1  0.500000  0.000000  0.000000  1
  Ge  Ge11  1  0.500000  0.000000  0.500000  1
  Ir  Ir12  1  0.753368  0.246632  0.753368  1
  Ir  Ir13  1  0.246632  0.246632  0.246632  1
  Ir  Ir14  1  0.753368  0.753368  0.246632  1
  Ir  Ir15  1  0.246632  0.753368  0.753368  1
