# generated using pymatgen
data_Li6MgSc5Pt12
_symmetry_space_group_name_H-M   'P 1'
_cell_length_a   4.26018300
_cell_length_b   6.89004500
_cell_length_c   12.77975400
_cell_angle_alpha   90.00000000
_cell_angle_beta   89.99933650
_cell_angle_gamma   90.00000000
_symmetry_Int_Tables_number   1
_chemical_formula_structural   Li6MgSc5Pt12
_chemical_formula_sum   'Li6 Mg1 Sc5 Pt12'
_cell_volume   375.12223514
_cell_formula_units_Z   1
loop_
 _symmetry_equiv_pos_site_id
 _symmetry_equiv_pos_as_xyz
  1  'x, y, z'
loop_
 _atom_site_type_symbol
 _atom_site_label
 _atom_site_symmetry_multiplicity
 _atom_site_fract_x
 _atom_site_fract_y
 _atom_site_fract_z
 _atom_site_occupancy
  Li  Li0  1  0.000000  0.500000  0.000000  1
  Li  Li1  1  0.499974  0.000000  0.163196  1
  Li  Li2  1  0.999990  0.500000  0.331107  1
  Li  Li3  1  0.500001  0.000000  0.500000  1
  Li  Li4  1  0.000010  0.500000  0.668893  1
  Li  Li5  1  0.500026  0.000000  0.836804  1
  Mg  Mg6  1  0.000000  0.000000  0.000000  1
  Sc  Sc7  1  0.499983  0.500000  0.163049  1
  Sc  Sc8  1  0.999985  0.000000  0.332989  1
  Sc  Sc9  1  0.500001  0.500000  0.500000  1
  Sc  Sc10  1  0.000015  0.000000  0.667010  1
  Sc  Sc11  1  0.500016  0.500000  0.836950  1
  Pt  Pt12  1  0.499999  0.247570  0.000000  1
  Pt  Pt13  1  0.499999  0.752430  0.000000  1
  Pt  Pt14  1  0.999989  0.247367  0.165027  1
  Pt  Pt15  1  0.999989  0.752632  0.165027  1
  Pt  Pt16  1  0.499994  0.250672  0.333205  1
  Pt  Pt17  1  0.499994  0.749329  0.333205  1
  Pt  Pt18  1  0.000000  0.249875  0.500000  1
  Pt  Pt19  1  0.000000  0.750126  0.500000  1
  Pt  Pt20  1  0.500005  0.250672  0.666795  1
  Pt  Pt21  1  0.500005  0.749329  0.666795  1
  Pt  Pt22  1  0.000011  0.247367  0.834973  1
  Pt  Pt23  1  0.000011  0.752632  0.834973  1
