# generated using pymatgen
data_Ho4Si8Tc5Os
_symmetry_space_group_name_H-M   'P 1'
_cell_length_a   6.77164951
_cell_length_b   6.80742490
_cell_length_c   6.73991752
_cell_angle_alpha   69.83268284
_cell_angle_beta   90.18683659
_cell_angle_gamma   90.54810899
_symmetry_Int_Tables_number   1
_chemical_formula_structural   Ho4Si8Tc5Os
_chemical_formula_sum   'Ho4 Si8 Tc5 Os1'
_cell_volume   291.63131437
_cell_formula_units_Z   1
loop_
 _symmetry_equiv_pos_site_id
 _symmetry_equiv_pos_as_xyz
  1  'x, y, z'
loop_
 _atom_site_type_symbol
 _atom_site_label
 _atom_site_symmetry_multiplicity
 _atom_site_fract_x
 _atom_site_fract_y
 _atom_site_fract_z
 _atom_site_occupancy
  Ho  Ho0  1  0.667338  0.438972  0.191722  1
  Ho  Ho1  1  0.164465  0.060597  0.808921  1
  Ho  Ho2  1  0.328068  0.556508  0.809439  1
  Ho  Ho3  1  0.826568  0.944627  0.191407  1
  Si  Si4  1  0.435024  0.110649  0.109867  1
  Si  Si5  1  0.941098  0.386107  0.894438  1
  Si  Si6  1  0.548933  0.871223  0.898361  1
  Si  Si7  1  0.049795  0.633071  0.100735  1
  Si  Si8  1  0.863040  0.134709  0.507506  1
  Si  Si9  1  0.362999  0.364658  0.494892  1
  Si  Si10  1  0.150456  0.875363  0.470196  1
  Si  Si11  1  0.649427  0.624390  0.524427  1
  Tc  Tc12  1  0.499552  0.990273  0.498487  1
  Tc  Tc13  1  0.000473  0.512324  0.500490  1
  Tc  Tc14  1  0.149343  0.259069  0.244500  1
  Tc  Tc15  1  0.648918  0.243386  0.758230  1
  Tc  Tc16  1  0.852946  0.771669  0.765020  1
  Os  Os17  1  0.361560  0.722404  0.231362  1
