# generated using pymatgen
data_Y3Sc3Al17Si7Os8
_symmetry_space_group_name_H-M   'P 1'
_cell_length_a   8.63108817
_cell_length_b   8.63894045
_cell_length_c   9.43793800
_cell_angle_alpha   90.00000000
_cell_angle_beta   90.00000000
_cell_angle_gamma   119.98640993
_symmetry_Int_Tables_number   1
_chemical_formula_structural   Y3Sc3Al17Si7Os8
_chemical_formula_sum   'Y3 Sc3 Al17 Si7 Os8'
_cell_volume   609.52741273
_cell_formula_units_Z   1
loop_
 _symmetry_equiv_pos_site_id
 _symmetry_equiv_pos_as_xyz
  1  'x, y, z'
loop_
 _atom_site_type_symbol
 _atom_site_label
 _atom_site_symmetry_multiplicity
 _atom_site_fract_x
 _atom_site_fract_y
 _atom_site_fract_z
 _atom_site_occupancy
  Y  Y0  1  0.384793  0.189428  0.750000  1
  Y  Y1  1  0.193926  0.808345  0.250000  1
  Y  Y2  1  0.804813  0.189058  0.750000  1
  Sc  Sc3  1  0.195723  0.395677  0.250000  1
  Sc  Sc4  1  0.802918  0.606558  0.750000  1
  Sc  Sc5  1  0.605860  0.806174  0.250000  1
  Al  Al6  1  0.165511  0.331191  0.574940  1
  Al  Al7  1  0.833545  0.672004  0.421968  1
  Al  Al8  1  0.671692  0.833583  0.575394  1
  Al  Al9  1  0.833545  0.672004  0.078032  1
  Al  Al10  1  0.330761  0.168464  0.420078  1
  Al  Al11  1  0.165511  0.331191  0.925060  1
  Al  Al12  1  0.162586  0.831971  0.577288  1
  Al  Al13  1  0.330761  0.168464  0.079922  1
  Al  Al14  1  0.836534  0.163952  0.418841  1
  Al  Al15  1  0.671692  0.833583  0.924606  1
  Al  Al16  1  0.836534  0.163952  0.081159  1
  Al  Al17  1  0.162586  0.831971  0.922712  1
  Al  Al18  1  0.123006  0.564056  0.750000  1
  Al  Al19  1  0.563173  0.440051  0.250000  1
  Al  Al20  1  0.441130  0.566534  0.750000  1
  Al  Al21  1  0.994570  0.006419  0.250000  1
  Al  Al22  1  0.992980  0.985970  0.750000  1
  Si  Si23  1  0.335457  0.664431  0.045303  1
  Si  Si24  1  0.668532  0.338032  0.957901  1
  Si  Si25  1  0.668532  0.338032  0.542099  1
  Si  Si26  1  0.335457  0.664431  0.454697  1
  Si  Si27  1  0.566526  0.124255  0.250000  1
  Si  Si28  1  0.436145  0.870997  0.750000  1
  Si  Si29  1  0.875203  0.434258  0.250000  1
  Os  Os30  1  0.501992  0.000631  0.002353  1
  Os  Os31  1  0.999271  0.499412  0.007702  1
  Os  Os32  1  0.501992  0.000631  0.497647  1
  Os  Os33  1  0.501528  0.501509  0.001367  1
  Os  Os34  1  0.999271  0.499412  0.492298  1
  Os  Os35  1  0.501528  0.501509  0.498633  1
  Os  Os36  1  0.002207  0.000930  0.000206  1
  Os  Os37  1  0.002207  0.000930  0.499794  1
