# generated using pymatgen
data_Zr5Ti3Fe2(Co7P6)2
_symmetry_space_group_name_H-M   'P 1'
_cell_length_a   11.97175922
_cell_length_b   11.94945345
_cell_length_c   3.62552100
_cell_angle_alpha   90.00000000
_cell_angle_beta   90.00000000
_cell_angle_gamma   120.08394076
_symmetry_Int_Tables_number   1
_chemical_formula_structural   Zr5Ti3Fe2(Co7P6)2
_chemical_formula_sum   'Zr5 Ti3 Fe2 Co14 P12'
_cell_volume   448.78579865
_cell_formula_units_Z   1
loop_
 _symmetry_equiv_pos_site_id
 _symmetry_equiv_pos_as_xyz
  1  'x, y, z'
loop_
 _atom_site_type_symbol
 _atom_site_label
 _atom_site_symmetry_multiplicity
 _atom_site_fract_x
 _atom_site_fract_y
 _atom_site_fract_z
 _atom_site_occupancy
  Zr  Zr0  1  0.666522  0.333393  0.000000  1
  Zr  Zr1  1  0.332153  0.666229  0.000000  1
  Zr  Zr2  1  0.820655  0.820233  0.500000  1
  Zr  Zr3  1  0.179888  0.999672  0.500000  1
  Zr  Zr4  1  0.000644  0.181002  0.500000  1
  Ti  Ti5  1  0.441787  0.442696  0.000000  1
  Ti  Ti6  1  0.557208  0.999993  0.000000  1
  Ti  Ti7  1  0.000487  0.558018  0.000000  1
  Fe  Fe8  1  0.198332  0.375041  0.000000  1
  Fe  Fe9  1  0.176933  0.801879  0.000000  1
  Co  Co10  1  0.821532  0.625225  0.000000  1
  Co  Co11  1  0.803681  0.177702  0.000000  1
  Co  Co12  1  0.374869  0.196205  0.000000  1
  Co  Co13  1  0.124802  0.481387  0.500000  1
  Co  Co14  1  0.356509  0.875022  0.500000  1
  Co  Co15  1  0.519037  0.645292  0.500000  1
  Co  Co16  1  0.645435  0.519009  0.500000  1
  Co  Co17  1  0.872194  0.354424  0.500000  1
  Co  Co18  1  0.482202  0.127254  0.500000  1
  Co  Co19  1  0.999630  0.999440  0.000000  1
  Co  Co20  1  0.718151  0.000000  0.500000  1
  Co  Co21  1  0.997716  0.717131  0.500000  1
  Co  Co22  1  0.625906  0.822722  0.000000  1
  Co  Co23  1  0.282949  0.280544  0.500000  1
  P  P24  1  0.646827  0.646762  0.000000  1
  P  P25  1  0.351567  0.997716  0.000000  1
  P  P26  1  0.002670  0.354569  0.000000  1
  P  P27  1  0.482745  0.313783  0.500000  1
  P  P28  1  0.686173  0.168884  0.500000  1
  P  P29  1  0.831146  0.517271  0.500000  1
  P  P30  1  0.516736  0.830785  0.500000  1
  P  P31  1  0.169089  0.688004  0.500000  1
  P  P32  1  0.824492  0.000361  0.000000  1
  P  P33  1  0.002135  0.824262  0.000000  1
  P  P34  1  0.311457  0.481014  0.500000  1
  P  P35  1  0.175740  0.177075  0.000000  1
