# generated using pymatgen
data_NdHoSbI2
_symmetry_space_group_name_H-M   'P 1'
_cell_length_a   4.39814500
_cell_length_b   4.39814362
_cell_length_c   11.10097500
_cell_angle_alpha   90.00000000
_cell_angle_beta   90.00000000
_cell_angle_gamma   120.00000282
_symmetry_Int_Tables_number   1
_chemical_formula_structural   NdHoSbI2
_chemical_formula_sum   'Nd1 Ho1 Sb1 I2'
_cell_volume   185.96477743
_cell_formula_units_Z   1
loop_
 _symmetry_equiv_pos_site_id
 _symmetry_equiv_pos_as_xyz
  1  'x, y, z'
loop_
 _atom_site_type_symbol
 _atom_site_label
 _atom_site_symmetry_multiplicity
 _atom_site_fract_x
 _atom_site_fract_y
 _atom_site_fract_z
 _atom_site_occupancy
  Nd  Nd0  1  0.666667  0.333333  0.845656  1
  Ho  Ho1  1  0.333333  0.666667  0.155910  1
  Sb  Sb2  1  0.000000  0.000000  0.009133  1
  I  I3  1  0.333333  0.666667  0.662953  1
  I  I4  1  0.666667  0.333333  0.326350  1
