# generated using pymatgen
data_La2YTm3(IrO7)2
_symmetry_space_group_name_H-M   'P 1'
_cell_length_a   6.44632885
_cell_length_b   6.45061752
_cell_length_c   7.48682100
_cell_angle_alpha   90.00000000
_cell_angle_beta   90.00000000
_cell_angle_gamma   109.36111404
_symmetry_Int_Tables_number   1
_chemical_formula_structural   La2YTm3(IrO7)2
_chemical_formula_sum   'La2 Y1 Tm3 Ir2 O14'
_cell_volume   293.71701683
_cell_formula_units_Z   1
loop_
 _symmetry_equiv_pos_site_id
 _symmetry_equiv_pos_as_xyz
  1  'x, y, z'
loop_
 _atom_site_type_symbol
 _atom_site_label
 _atom_site_symmetry_multiplicity
 _atom_site_fract_x
 _atom_site_fract_y
 _atom_site_fract_z
 _atom_site_occupancy
  La  La0  1  0.998232  0.999044  0.501268  1
  La  La1  1  0.998232  0.999044  0.998732  1
  Y  Y2  1  0.060589  0.515221  0.250000  1
  Tm  Tm3  1  0.513207  0.057817  0.250000  1
  Tm  Tm4  1  0.939745  0.487421  0.750000  1
  Tm  Tm5  1  0.486758  0.940992  0.750000  1
  Ir  Ir6  1  0.498863  0.498627  0.501414  1
  Ir  Ir7  1  0.498863  0.498627  0.998586  1
  O  O8  1  0.443518  0.178850  0.534192  1
  O  O9  1  0.820297  0.559008  0.469728  1
  O  O10  1  0.443518  0.178850  0.965808  1
  O  O11  1  0.820297  0.559008  0.030272  1
  O  O12  1  0.554127  0.819549  0.466884  1
  O  O13  1  0.179605  0.440033  0.537288  1
  O  O14  1  0.554127  0.819549  0.033116  1
  O  O15  1  0.179605  0.440033  0.962712  1
  O  O16  1  0.162413  0.880206  0.250000  1
  O  O17  1  0.126550  0.837199  0.750000  1
  O  O18  1  0.836057  0.126327  0.750000  1
  O  O19  1  0.872327  0.159080  0.250000  1
  O  O20  1  0.414697  0.407806  0.250000  1
  O  O21  1  0.598371  0.597711  0.750000  1
