# generated using pymatgen
data_TbNd2Y3NiBr10
_symmetry_space_group_name_H-M   'P 1'
_cell_length_a   7.43740528
_cell_length_b   9.32464436
_cell_length_c   9.38895300
_cell_angle_alpha   106.97176825
_cell_angle_beta   96.37616592
_cell_angle_gamma   105.09421664
_symmetry_Int_Tables_number   1
_chemical_formula_structural   TbNd2Y3NiBr10
_chemical_formula_sum   'Tb1 Nd2 Y3 Ni1 Br10'
_cell_volume   588.82375067
_cell_formula_units_Z   1
loop_
 _symmetry_equiv_pos_site_id
 _symmetry_equiv_pos_as_xyz
  1  'x, y, z'
loop_
 _atom_site_type_symbol
 _atom_site_label
 _atom_site_symmetry_multiplicity
 _atom_site_fract_x
 _atom_site_fract_y
 _atom_site_fract_z
 _atom_site_occupancy
  Tb  Tb0  1  0.966385  0.288923  0.087871  1
  Nd  Nd1  1  0.126571  0.049365  0.753936  1
  Nd  Nd2  1  0.873561  0.950303  0.245935  1
  Y  Y3  1  0.648941  0.870910  0.831215  1
  Y  Y4  1  0.351237  0.128460  0.168574  1
  Y  Y5  1  0.033571  0.710703  0.912109  1
  Ni  Ni6  1  0.000082  0.000240  0.000006  1
  Br  Br7  1  0.339501  0.440800  0.264277  1
  Br  Br8  1  0.661055  0.559111  0.735775  1
  Br  Br9  1  0.742724  0.917153  0.552790  1
  Br  Br10  1  0.081148  0.376827  0.830653  1
  Br  Br11  1  0.918959  0.624776  0.169312  1
  Br  Br12  1  0.448993  0.823618  0.084266  1
  Br  Br13  1  0.550827  0.176127  0.915441  1
  Br  Br14  1  0.767290  0.252679  0.333290  1
  Br  Br15  1  0.231859  0.746914  0.667207  1
  Br  Br16  1  0.257295  0.083093  0.447343  1
