# generated using pymatgen
data_NaLiZrNi11As7
_symmetry_space_group_name_H-M   'P 1'
_cell_length_a   3.77563500
_cell_length_b   9.36017928
_cell_length_c   9.36974391
_cell_angle_alpha   120.24775493
_cell_angle_beta   90.00000000
_cell_angle_gamma   90.00000000
_symmetry_Int_Tables_number   1
_chemical_formula_structural   NaLiZrNi11As7
_chemical_formula_sum   'Na1 Li1 Zr1 Ni11 As7'
_cell_volume   286.05060189
_cell_formula_units_Z   1
loop_
 _symmetry_equiv_pos_site_id
 _symmetry_equiv_pos_as_xyz
  1  'x, y, z'
loop_
 _atom_site_type_symbol
 _atom_site_label
 _atom_site_symmetry_multiplicity
 _atom_site_fract_x
 _atom_site_fract_y
 _atom_site_fract_z
 _atom_site_occupancy
  Na  Na0  1  0.500000  0.332082  0.665610  1
  Li  Li1  1  0.500000  0.114548  0.898992  1
  Zr  Zr2  1  0.000000  0.670214  0.337111  1
  Ni  Ni3  1  0.000000  0.878981  0.719491  1
  Ni  Ni4  1  0.000000  0.285170  0.161399  1
  Ni  Ni5  1  0.000000  0.835350  0.122670  1
  Ni  Ni6  1  0.500000  0.951190  0.568990  1
  Ni  Ni7  1  0.500000  0.430875  0.383509  1
  Ni  Ni8  1  0.500000  0.617231  0.045509  1
  Ni  Ni9  1  0.000000  0.384133  0.953424  1
  Ni  Ni10  1  0.000000  0.048407  0.428632  1
  Ni  Ni11  1  0.000000  0.566967  0.615844  1
  Ni  Ni12  1  0.500000  0.092839  0.210482  1
  Ni  Ni13  1  0.500000  0.789826  0.885196  1
  As  As14  1  0.500000  0.709291  0.591402  1
  As  As15  1  0.500000  0.420048  0.125173  1
  As  As16  1  0.500000  0.880070  0.291994  1
  As  As17  1  0.000000  0.997329  0.004029  1
  As  As18  1  0.000000  0.121883  0.706007  1
  As  As19  1  0.000000  0.287442  0.410432  1
  As  As20  1  0.000000  0.586126  0.874106  1
