# generated using pymatgen
data_NdLu2Ni2Ir7
_symmetry_space_group_name_H-M   'P 1'
_cell_length_a   8.95689489
_cell_length_b   8.95689493
_cell_length_c   8.95689501
_cell_angle_alpha   34.33740228
_cell_angle_beta   34.33739916
_cell_angle_gamma   34.33740823
_symmetry_Int_Tables_number   1
_chemical_formula_structural   NdLu2Ni2Ir7
_chemical_formula_sum   'Nd1 Lu2 Ni2 Ir7'
_cell_volume   203.90930556
_cell_formula_units_Z   1
loop_
 _symmetry_equiv_pos_site_id
 _symmetry_equiv_pos_as_xyz
  1  'x, y, z'
loop_
 _atom_site_type_symbol
 _atom_site_label
 _atom_site_symmetry_multiplicity
 _atom_site_fract_x
 _atom_site_fract_y
 _atom_site_fract_z
 _atom_site_occupancy
  Nd  Nd0  1  0.000000  0.000000  0.000000  1
  Lu  Lu1  1  0.859393  0.859393  0.859393  1
  Lu  Lu2  1  0.140607  0.140607  0.140607  1
  Ni  Ni3  1  0.665981  0.665981  0.665981  1
  Ni  Ni4  1  0.334019  0.334019  0.334019  1
  Ir  Ir5  1  0.417300  0.922113  0.417300  1
  Ir  Ir6  1  0.417300  0.417300  0.922113  1
  Ir  Ir7  1  0.922113  0.417300  0.417300  1
  Ir  Ir8  1  0.582700  0.077887  0.582700  1
  Ir  Ir9  1  0.582700  0.582700  0.077887  1
  Ir  Ir10  1  0.077887  0.582700  0.582700  1
  Ir  Ir11  1  0.500000  0.500000  0.500000  1
