# generated using pymatgen
data_TbCe2Mg3Ir2Au
_symmetry_space_group_name_H-M   'P 1'
_cell_length_a   7.62048351
_cell_length_b   7.40239242
_cell_length_c   3.99005200
_cell_angle_alpha   90.00000000
_cell_angle_beta   90.00000000
_cell_angle_gamma   119.05772546
_symmetry_Int_Tables_number   1
_chemical_formula_structural   TbCe2Mg3Ir2Au
_chemical_formula_sum   'Tb1 Ce2 Mg3 Ir2 Au1'
_cell_volume   196.74767957
_cell_formula_units_Z   1
loop_
 _symmetry_equiv_pos_site_id
 _symmetry_equiv_pos_as_xyz
  1  'x, y, z'
loop_
 _atom_site_type_symbol
 _atom_site_label
 _atom_site_symmetry_multiplicity
 _atom_site_fract_x
 _atom_site_fract_y
 _atom_site_fract_z
 _atom_site_occupancy
  Tb  Tb0  1  0.000000  0.582505  0.000000  1
  Ce  Ce1  1  0.426100  0.428848  0.000000  1
  Ce  Ce2  1  0.573900  0.002747  0.000000  1
  Mg  Mg3  1  0.000000  0.255998  0.500000  1
  Mg  Mg4  1  0.245286  0.997025  0.500000  1
  Mg  Mg5  1  0.754714  0.751739  0.500000  1
  Ir  Ir6  1  0.350931  0.667232  0.500000  1
  Ir  Ir7  1  0.649069  0.316300  0.500000  1
  Au  Au8  1  0.000000  0.997606  0.000000  1
