# generated using pymatgen
data_YPa5(Al3Os)8
_symmetry_space_group_name_H-M   'P 1'
_cell_length_a   8.88097960
_cell_length_b   8.88098037
_cell_length_c   9.43410200
_cell_angle_alpha   90.00000000
_cell_angle_beta   90.00000000
_cell_angle_gamma   119.95802119
_symmetry_Int_Tables_number   1
_chemical_formula_structural   YPa5(Al3Os)8
_chemical_formula_sum   'Y1 Pa5 Al24 Os8'
_cell_volume   644.66862661
_cell_formula_units_Z   1
loop_
 _symmetry_equiv_pos_site_id
 _symmetry_equiv_pos_as_xyz
  1  'x, y, z'
loop_
 _atom_site_type_symbol
 _atom_site_label
 _atom_site_symmetry_multiplicity
 _atom_site_fract_x
 _atom_site_fract_y
 _atom_site_fract_z
 _atom_site_occupancy
  Y  Y0  1  0.804042  0.195958  0.750000  1
  Pa  Pa1  1  0.196585  0.394955  0.250000  1
  Pa  Pa2  1  0.801417  0.606925  0.750000  1
  Pa  Pa3  1  0.605045  0.803415  0.250000  1
  Pa  Pa4  1  0.393075  0.198583  0.750000  1
  Pa  Pa5  1  0.197922  0.802078  0.250000  1
  Al  Al6  1  0.334234  0.665766  0.016105  1
  Al  Al7  1  0.669017  0.330983  0.978659  1
  Al  Al8  1  0.669017  0.330983  0.521341  1
  Al  Al9  1  0.334234  0.665766  0.483895  1
  Al  Al10  1  0.160964  0.324343  0.577889  1
  Al  Al11  1  0.837721  0.675637  0.421545  1
  Al  Al12  1  0.675657  0.839036  0.577889  1
  Al  Al13  1  0.837721  0.675637  0.078455  1
  Al  Al14  1  0.324363  0.162279  0.421545  1
  Al  Al15  1  0.160964  0.324343  0.922111  1
  Al  Al16  1  0.161824  0.838176  0.580080  1
  Al  Al17  1  0.324363  0.162279  0.078455  1
  Al  Al18  1  0.837692  0.162308  0.422829  1
  Al  Al19  1  0.675657  0.839036  0.922111  1
  Al  Al20  1  0.837692  0.162308  0.077171  1
  Al  Al21  1  0.161824  0.838176  0.919920  1
  Al  Al22  1  0.564083  0.127477  0.250000  1
  Al  Al23  1  0.440826  0.878618  0.750000  1
  Al  Al24  1  0.872523  0.435917  0.250000  1
  Al  Al25  1  0.121382  0.559174  0.750000  1
  Al  Al26  1  0.562856  0.437144  0.250000  1
  Al  Al27  1  0.436179  0.563821  0.750000  1
  Al  Al28  1  0.999908  0.000092  0.250000  1
  Al  Al29  1  0.000176  0.999824  0.750000  1
  Os  Os30  1  0.496249  0.996270  0.004290  1
  Os  Os31  1  0.003730  0.503751  0.004290  1
  Os  Os32  1  0.496249  0.996270  0.495710  1
  Os  Os33  1  0.500792  0.499208  0.999389  1
  Os  Os34  1  0.003730  0.503751  0.495710  1
  Os  Os35  1  0.500792  0.499208  0.500611  1
  Os  Os36  1  0.999746  0.000254  0.000116  1
  Os  Os37  1  0.999746  0.000254  0.499884  1
