# generated using pymatgen
data_Pd4Au3
_symmetry_space_group_name_H-M   'P 1'
_cell_length_a   4.05018440
_cell_length_b   7.51114693
_cell_length_c   4.99322853
_cell_angle_alpha   108.37065471
_cell_angle_beta   114.15798459
_cell_angle_gamma   57.44367814
_symmetry_Int_Tables_number   1
_chemical_formula_structural   Pd4Au3
_chemical_formula_sum   'Pd4 Au3'
_cell_volume   115.92581269
_cell_formula_units_Z   1
loop_
 _symmetry_equiv_pos_site_id
 _symmetry_equiv_pos_as_xyz
  1  'x, y, z'
loop_
 _atom_site_type_symbol
 _atom_site_label
 _atom_site_symmetry_multiplicity
 _atom_site_fract_x
 _atom_site_fract_y
 _atom_site_fract_z
 _atom_site_occupancy
  Pd  Pd0  1  0.361702  0.201572  0.244701  1
  Pd  Pd1  1  0.081000  0.625184  0.530830  1
  Pd  Pd2  1  0.791408  0.057670  0.815555  1
  Pd  Pd3  1  0.511535  0.480947  0.103517  1
  Au  Au4  1  0.650389  0.770000  0.959964  1
  Au  Au5  1  0.221797  0.912763  0.386032  1
  Au  Au6  1  0.936619  0.341588  0.674365  1
