# generated using pymatgen
data_TbPaCdPt2
_symmetry_space_group_name_H-M   'P 1'
_cell_length_a   7.81107000
_cell_length_b   7.90966900
_cell_length_c   3.64901100
_cell_angle_alpha   90.00000000
_cell_angle_beta   90.00000000
_cell_angle_gamma   90.00000000
_symmetry_Int_Tables_number   1
_chemical_formula_structural   TbPaCdPt2
_chemical_formula_sum   'Tb2 Pa2 Cd2 Pt4'
_cell_volume   225.44676720
_cell_formula_units_Z   2
loop_
 _symmetry_equiv_pos_site_id
 _symmetry_equiv_pos_as_xyz
  1  'x, y, z'
loop_
 _atom_site_type_symbol
 _atom_site_label
 _atom_site_symmetry_multiplicity
 _atom_site_fract_x
 _atom_site_fract_y
 _atom_site_fract_z
 _atom_site_occupancy
  Tb  Tb0  1  0.828907  0.671826  0.500000  1
  Tb  Tb1  1  0.671093  0.171826  0.500000  1
  Pa  Pa2  1  0.165716  0.331095  0.500000  1
  Pa  Pa3  1  0.334284  0.831095  0.500000  1
  Cd  Cd4  1  0.506514  0.495037  0.000000  1
  Cd  Cd5  1  0.993486  0.995037  0.000000  1
  Pt  Pt6  1  0.613377  0.870171  0.000000  1
  Pt  Pt7  1  0.149400  0.631870  0.000000  1
  Pt  Pt8  1  0.886623  0.370171  0.000000  1
  Pt  Pt9  1  0.350600  0.131870  0.000000  1
