# generated using pymatgen
data_Zr6MnI12
_symmetry_space_group_name_H-M   'P 1'
_cell_length_a   9.44133823
_cell_length_b   9.44133898
_cell_length_c   9.44133971
_cell_angle_alpha   106.98466366
_cell_angle_beta   106.98465719
_cell_angle_gamma   106.98465636
_symmetry_Int_Tables_number   1
_chemical_formula_structural   Zr6MnI12
_chemical_formula_sum   'Zr6 Mn1 I12'
_cell_volume   701.17763972
_cell_formula_units_Z   1
loop_
 _symmetry_equiv_pos_site_id
 _symmetry_equiv_pos_as_xyz
  1  'x, y, z'
loop_
 _atom_site_type_symbol
 _atom_site_label
 _atom_site_symmetry_multiplicity
 _atom_site_fract_x
 _atom_site_fract_y
 _atom_site_fract_z
 _atom_site_occupancy
  Zr  Zr0  1  0.970664  0.718099  0.906857  1
  Zr  Zr1  1  0.281901  0.093143  0.029336  1
  Zr  Zr2  1  0.093143  0.029336  0.281901  1
  Zr  Zr3  1  0.906857  0.970664  0.718099  1
  Zr  Zr4  1  0.718099  0.906857  0.970664  1
  Zr  Zr5  1  0.029336  0.281901  0.093143  1
  Mn  Mn6  1  0.000000  0.000000  0.000000  1
  I  I7  1  0.922238  0.307360  0.776100  1
  I  I8  1  0.692640  0.223900  0.077762  1
  I  I9  1  0.442323  0.144276  0.368240  1
  I  I10  1  0.855724  0.631760  0.557677  1
  I  I11  1  0.223900  0.077762  0.692640  1
  I  I12  1  0.631760  0.557677  0.855724  1
  I  I13  1  0.368240  0.442323  0.144276  1
  I  I14  1  0.776100  0.922238  0.307360  1
  I  I15  1  0.144276  0.368240  0.442323  1
  I  I16  1  0.557677  0.855724  0.631760  1
  I  I17  1  0.307360  0.776100  0.922238  1
  I  I18  1  0.077762  0.692640  0.223900  1
