# generated using pymatgen
data_Ti3ReSi2Tc2As
_symmetry_space_group_name_H-M   'P 1'
_cell_length_a   6.80631661
_cell_length_b   6.80678218
_cell_length_c   3.29233300
_cell_angle_alpha   90.00000000
_cell_angle_beta   90.00000000
_cell_angle_gamma   120.04598303
_symmetry_Int_Tables_number   1
_chemical_formula_structural   Ti3ReSi2Tc2As
_chemical_formula_sum   'Ti3 Re1 Si2 Tc2 As1'
_cell_volume   132.03436108
_cell_formula_units_Z   1
loop_
 _symmetry_equiv_pos_site_id
 _symmetry_equiv_pos_as_xyz
  1  'x, y, z'
loop_
 _atom_site_type_symbol
 _atom_site_label
 _atom_site_symmetry_multiplicity
 _atom_site_fract_x
 _atom_site_fract_y
 _atom_site_fract_z
 _atom_site_occupancy
  Ti  Ti0  1  0.394592  0.404039  0.500000  1
  Ti  Ti1  1  0.597823  0.995028  0.500000  1
  Ti  Ti2  1  0.006811  0.600639  0.500000  1
  Re  Re3  1  0.004840  0.260376  0.000000  1
  Si  Si4  1  0.334322  0.668409  0.000000  1
  Si  Si5  1  0.000119  0.996522  0.500000  1
  Tc  Tc6  1  0.739859  0.744661  0.000000  1
  Tc  Tc7  1  0.256224  0.996274  0.000000  1
  As  As8  1  0.665409  0.334052  0.000000  1
