# generated using pymatgen
data_Ho10Os3Rh
_symmetry_space_group_name_H-M   'P 1'
_cell_length_a   6.34356205
_cell_length_b   7.35256973
_cell_length_c   8.39477654
_cell_angle_alpha   96.87991914
_cell_angle_beta   112.09652111
_cell_angle_gamma   89.94840382
_symmetry_Int_Tables_number   1
_chemical_formula_structural   Ho10Os3Rh
_chemical_formula_sum   'Ho10 Os3 Rh1'
_cell_volume   359.75887297
_cell_formula_units_Z   1
loop_
 _symmetry_equiv_pos_site_id
 _symmetry_equiv_pos_as_xyz
  1  'x, y, z'
loop_
 _atom_site_type_symbol
 _atom_site_label
 _atom_site_symmetry_multiplicity
 _atom_site_fract_x
 _atom_site_fract_y
 _atom_site_fract_z
 _atom_site_occupancy
  Ho  Ho0  1  0.793159  0.581861  0.817525  1
  Ho  Ho1  1  0.978752  0.916009  0.187841  1
  Ho  Ho2  1  0.208589  0.416568  0.183977  1
  Ho  Ho3  1  0.026022  0.085688  0.817557  1
  Ho  Ho4  1  0.201534  0.681260  0.562094  1
  Ho  Ho5  1  0.642920  0.815604  0.433353  1
  Ho  Ho6  1  0.793971  0.316417  0.436065  1
  Ho  Ho7  1  0.357260  0.185385  0.562672  1
  Ho  Ho8  1  0.419903  0.748897  0.001117  1
  Ho  Ho9  1  0.579361  0.252169  0.001433  1
  Os  Os10  1  0.822488  0.578145  0.217644  1
  Os  Os11  1  0.395551  0.076468  0.219199  1
  Os  Os12  1  0.178027  0.422736  0.781027  1
  Rh  Rh13  1  0.602464  0.922793  0.778496  1
