# generated using pymatgen
data_GdDy4Y(BO3)6
_symmetry_space_group_name_H-M   'P 1'
_cell_length_a   6.60695288
_cell_length_b   6.59725792
_cell_length_c   9.65761714
_cell_angle_alpha   70.36951022
_cell_angle_beta   70.37578607
_cell_angle_gamma   60.13438671
_symmetry_Int_Tables_number   1
_chemical_formula_structural   GdDy4Y(BO3)6
_chemical_formula_sum   'Gd1 Dy4 Y1 B6 O18'
_cell_volume   336.43158913
_cell_formula_units_Z   1
loop_
 _symmetry_equiv_pos_site_id
 _symmetry_equiv_pos_as_xyz
  1  'x, y, z'
loop_
 _atom_site_type_symbol
 _atom_site_label
 _atom_site_symmetry_multiplicity
 _atom_site_fract_x
 _atom_site_fract_y
 _atom_site_fract_z
 _atom_site_occupancy
  Gd  Gd0  1  0.342739  0.829125  0.500796  1
  Dy  Dy1  1  0.500110  0.000036  0.000018  1
  Dy  Dy2  1  0.828867  0.342697  0.000835  1
  Dy  Dy3  1  0.658210  0.170430  0.499276  1
  Dy  Dy4  1  0.171117  0.657218  0.999154  1
  Y  Y5  1  0.000591  0.499695  0.499986  1
  B  B6  1  0.081993  0.157614  0.251769  1
  B  B7  1  0.845069  0.917812  0.245895  1
  B  B8  1  0.915895  0.843450  0.748216  1
  B  B9  1  0.155837  0.083337  0.754466  1
  B  B10  1  0.323454  0.676196  0.248807  1
  B  B11  1  0.677628  0.321649  0.750873  1
  O  O12  1  0.032484  0.219796  0.394855  1
  O  O13  1  0.782600  0.965391  0.103676  1
  O  O14  1  0.962871  0.782455  0.605134  1
  O  O15  1  0.217336  0.034826  0.897085  1
  O  O16  1  0.130287  0.314461  0.110496  1
  O  O17  1  0.689668  0.870047  0.388597  1
  O  O18  1  0.868870  0.686094  0.889535  1
  O  O19  1  0.312884  0.132502  0.612917  1
  O  O20  1  0.481423  0.614755  0.107602  1
  O  O21  1  0.385268  0.516664  0.390181  1
  O  O22  1  0.518800  0.384779  0.891596  1
  O  O23  1  0.618557  0.477636  0.608230  1
  O  O24  1  0.084236  0.700565  0.246723  1
  O  O25  1  0.298694  0.917031  0.250214  1
  O  O26  1  0.916131  0.299244  0.753350  1
  O  O27  1  0.700224  0.082895  0.748669  1
  O  O28  1  0.866546  0.134571  0.249032  1
  O  O29  1  0.131613  0.867029  0.752020  1
