# generated using pymatgen
data_Al2H8Ru
_symmetry_space_group_name_H-M   'P 1'
_cell_length_a   5.36913127
_cell_length_b   4.18241650
_cell_length_c   5.49027633
_cell_angle_alpha   89.88741747
_cell_angle_beta   101.44914764
_cell_angle_gamma   112.38969722
_symmetry_Int_Tables_number   1
_chemical_formula_structural   Al2H8Ru
_chemical_formula_sum   'Al2 H8 Ru1'
_cell_volume   111.35721747
_cell_formula_units_Z   1
loop_
 _symmetry_equiv_pos_site_id
 _symmetry_equiv_pos_as_xyz
  1  'x, y, z'
loop_
 _atom_site_type_symbol
 _atom_site_label
 _atom_site_symmetry_multiplicity
 _atom_site_fract_x
 _atom_site_fract_y
 _atom_site_fract_z
 _atom_site_occupancy
  Al  Al0  1  0.992038  0.492126  0.265349  1
  Al  Al1  1  0.993459  0.493390  0.743875  1
  H  H2  1  0.248069  0.390728  0.053782  1
  H  H3  1  0.776535  0.037517  0.177158  1
  H  H4  1  0.212721  0.945217  0.257125  1
  H  H5  1  0.218947  0.524205  0.548161  1
  H  H6  1  0.766594  0.461295  0.461038  1
  H  H7  1  0.772700  0.040218  0.751968  1
  H  H8  1  0.209064  0.948062  0.831777  1
  H  H9  1  0.737382  0.594676  0.955302  1
  Ru  Ru10  1  0.992494  0.992572  0.004461  1
