# generated using pymatgen
data_Pr8Re3OsC8
_symmetry_space_group_name_H-M   'P 1'
_cell_length_a   5.42470000
_cell_length_b   6.72219189
_cell_length_c   10.26950591
_cell_angle_alpha   89.91389283
_cell_angle_beta   90.00000000
_cell_angle_gamma   90.00000000
_symmetry_Int_Tables_number   1
_chemical_formula_structural   Pr8Re3OsC8
_chemical_formula_sum   'Pr8 Re3 Os1 C8'
_cell_volume   374.48608925
_cell_formula_units_Z   1
loop_
 _symmetry_equiv_pos_site_id
 _symmetry_equiv_pos_as_xyz
  1  'x, y, z'
loop_
 _atom_site_type_symbol
 _atom_site_label
 _atom_site_symmetry_multiplicity
 _atom_site_fract_x
 _atom_site_fract_y
 _atom_site_fract_z
 _atom_site_occupancy
  Pr  Pr0  1  0.750000  0.524219  0.787438  1
  Pr  Pr1  1  0.250000  0.975217  0.286158  1
  Pr  Pr2  1  0.750000  0.689987  0.450397  1
  Pr  Pr3  1  0.250000  0.811508  0.951040  1
  Pr  Pr4  1  0.750000  0.190339  0.049831  1
  Pr  Pr5  1  0.250000  0.310179  0.549618  1
  Pr  Pr6  1  0.250000  0.475060  0.213993  1
  Pr  Pr7  1  0.750000  0.025864  0.713169  1
  Re  Re8  1  0.250000  0.768331  0.644675  1
  Re  Re9  1  0.750000  0.231257  0.356908  1
  Re  Re10  1  0.750000  0.731497  0.143079  1
  Os  Os11  1  0.250000  0.268006  0.855565  1
  C  C12  1  0.250000  0.688351  0.465144  1
  C  C13  1  0.250000  0.530500  0.757230  1
  C  C14  1  0.750000  0.467991  0.242132  1
  C  C15  1  0.750000  0.811879  0.963142  1
  C  C16  1  0.250000  0.031942  0.742447  1
  C  C17  1  0.250000  0.188201  0.033866  1
  C  C18  1  0.750000  0.311782  0.536416  1
  C  C19  1  0.750000  0.967889  0.257753  1
