# generated using pymatgen
data_Nd8In2CoHg
_symmetry_space_group_name_H-M   'P 1'
_cell_length_a   10.71948400
_cell_length_b   10.69951219
_cell_length_c   7.17706408
_cell_angle_alpha   90.05289837
_cell_angle_beta   90.00000000
_cell_angle_gamma   120.06177236
_symmetry_Int_Tables_number   1
_chemical_formula_structural   Nd8In2CoHg
_chemical_formula_sum   'Nd16 In4 Co2 Hg2'
_cell_volume   712.43360954
_cell_formula_units_Z   2
loop_
 _symmetry_equiv_pos_site_id
 _symmetry_equiv_pos_as_xyz
  1  'x, y, z'
loop_
 _atom_site_type_symbol
 _atom_site_label
 _atom_site_symmetry_multiplicity
 _atom_site_fract_x
 _atom_site_fract_y
 _atom_site_fract_z
 _atom_site_occupancy
  Nd  Nd0  1  0.829422  0.658844  0.499877  1
  Nd  Nd1  1  0.345414  0.168320  0.494271  1
  Nd  Nd2  1  0.822907  0.168320  0.494271  1
  Nd  Nd3  1  0.176216  0.352434  0.997985  1
  Nd  Nd4  1  0.649048  0.823447  0.981797  1
  Nd  Nd5  1  0.174398  0.823447  0.981797  1
  Nd  Nd6  1  0.667250  0.334499  0.184859  1
  Nd  Nd7  1  0.334690  0.669381  0.678356  1
  Nd  Nd8  1  0.539530  0.079061  0.788018  1
  Nd  Nd9  1  0.922176  0.459296  0.783068  1
  Nd  Nd10  1  0.537120  0.459296  0.783068  1
  Nd  Nd11  1  0.460571  0.921141  0.285403  1
  Nd  Nd12  1  0.075330  0.541974  0.287332  1
  Nd  Nd13  1  0.466644  0.541974  0.287332  1
  Nd  Nd14  1  0.003659  0.007319  0.781980  1
  Nd  Nd15  1  0.998618  0.997237  0.277629  1
  In  In16  1  0.835860  0.671720  0.037335  1
  In  In17  1  0.327955  0.163740  0.037865  1
  In  In18  1  0.835786  0.163740  0.037865  1
  In  In19  1  0.164431  0.328861  0.533611  1
  Co  Co20  1  0.666902  0.333803  0.557821  1
  Co  Co21  1  0.333513  0.667027  0.055632  1
  Hg  Hg22  1  0.666490  0.832559  0.539537  1
  Hg  Hg23  1  0.166069  0.832559  0.539537  1
