# generated using pymatgen
data_Dy2YGa9Cu2
_symmetry_space_group_name_H-M   'P 1'
_cell_length_a   8.14326118
_cell_length_b   8.14326168
_cell_length_c   8.14326155
_cell_angle_alpha   150.16136280
_cell_angle_beta   103.78262804
_cell_angle_gamma   83.93428189
_symmetry_Int_Tables_number   1
_chemical_formula_structural   Dy2YGa9Cu2
_chemical_formula_sum   'Dy2 Y1 Ga9 Cu2'
_cell_volume   255.18463244
_cell_formula_units_Z   1
loop_
 _symmetry_equiv_pos_site_id
 _symmetry_equiv_pos_as_xyz
  1  'x, y, z'
loop_
 _atom_site_type_symbol
 _atom_site_label
 _atom_site_symmetry_multiplicity
 _atom_site_fract_x
 _atom_site_fract_y
 _atom_site_fract_z
 _atom_site_occupancy
  Dy  Dy0  1  0.319114  0.319114  0.000000  1
  Dy  Dy1  1  0.680886  0.680886  0.000000  1
  Y  Y2  1  0.000000  0.000000  0.000000  1
  Ga  Ga3  1  0.711417  0.338069  0.373348  1
  Ga  Ga4  1  0.288583  0.661931  0.626652  1
  Ga  Ga5  1  0.964722  0.338069  0.626652  1
  Ga  Ga6  1  0.035278  0.661931  0.373348  1
  Ga  Ga7  1  0.406779  0.129785  0.276995  1
  Ga  Ga8  1  0.593221  0.870215  0.723005  1
  Ga  Ga9  1  0.852790  0.129785  0.723005  1
  Ga  Ga10  1  0.147210  0.870215  0.276995  1
  Ga  Ga11  1  0.500000  0.000000  0.500000  1
  Cu  Cu12  1  0.715775  0.500000  0.215775  1
  Cu  Cu13  1  0.284225  0.500000  0.784225  1
