# generated using pymatgen
data_Rb4Dy4Bi3(SbSe4)5
_symmetry_space_group_name_H-M   'P 1'
_cell_length_a   4.13397700
_cell_length_b   12.41282942
_cell_length_c   22.25468039
_cell_angle_alpha   90.19223005
_cell_angle_beta   90.00000000
_cell_angle_gamma   90.00000000
_symmetry_Int_Tables_number   1
_chemical_formula_structural   Rb4Dy4Bi3(SbSe4)5
_chemical_formula_sum   'Rb4 Dy4 Bi3 Sb5 Se20'
_cell_volume   1141.97806117
_cell_formula_units_Z   1
loop_
 _symmetry_equiv_pos_site_id
 _symmetry_equiv_pos_as_xyz
  1  'x, y, z'
loop_
 _atom_site_type_symbol
 _atom_site_label
 _atom_site_symmetry_multiplicity
 _atom_site_fract_x
 _atom_site_fract_y
 _atom_site_fract_z
 _atom_site_occupancy
  Rb  Rb0  1  0.250000  0.489283  0.210592  1
  Rb  Rb1  1  0.750000  0.511501  0.790073  1
  Rb  Rb2  1  0.750000  0.989611  0.290133  1
  Rb  Rb3  1  0.250000  0.010926  0.709388  1
  Dy  Dy4  1  0.250000  0.365116  0.023858  1
  Dy  Dy5  1  0.750000  0.635008  0.976254  1
  Dy  Dy6  1  0.750000  0.864092  0.476652  1
  Dy  Dy7  1  0.250000  0.135161  0.523338  1
  Bi  Bi8  1  0.750000  0.404463  0.574120  1
  Bi  Bi9  1  0.750000  0.095943  0.074985  1
  Bi  Bi10  1  0.250000  0.904251  0.925059  1
  Sb  Sb11  1  0.250000  0.806144  0.125596  1
  Sb  Sb12  1  0.750000  0.193905  0.874440  1
  Sb  Sb13  1  0.750000  0.308736  0.375220  1
  Sb  Sb14  1  0.250000  0.693029  0.624641  1
  Sb  Sb15  1  0.250000  0.597127  0.425791  1
  Se  Se16  1  0.250000  0.803174  0.389923  1
  Se  Se17  1  0.750000  0.189623  0.610117  1
  Se  Se18  1  0.750000  0.311319  0.110484  1
  Se  Se19  1  0.250000  0.688837  0.889611  1
  Se  Se20  1  0.250000  0.253805  0.300060  1
  Se  Se21  1  0.750000  0.748130  0.699696  1
  Se  Se22  1  0.750000  0.751951  0.200624  1
  Se  Se23  1  0.250000  0.248136  0.799530  1
  Se  Se24  1  0.250000  0.355161  0.480436  1
  Se  Se25  1  0.750000  0.643031  0.517413  1
  Se  Se26  1  0.750000  0.855808  0.019504  1
  Se  Se27  1  0.250000  0.144241  0.980638  1
  Se  Se28  1  0.250000  0.020084  0.159539  1
  Se  Se29  1  0.750000  0.979943  0.840576  1
  Se  Se30  1  0.750000  0.523480  0.343268  1
  Se  Se31  1  0.250000  0.480631  0.659140  1
  Se  Se32  1  0.250000  0.583573  0.060793  1
  Se  Se33  1  0.750000  0.416529  0.939341  1
  Se  Se34  1  0.750000  0.081543  0.438680  1
  Se  Se35  1  0.250000  0.916706  0.560489  1
