# generated using pymatgen
data_TbDy7(WO6)4
_symmetry_space_group_name_H-M   'P 1'
_cell_length_a   5.39771200
_cell_length_b   7.70648168
_cell_length_c   11.48806825
_cell_angle_alpha   75.51810243
_cell_angle_beta   90.00000000
_cell_angle_gamma   90.00000000
_symmetry_Int_Tables_number   1
_chemical_formula_structural   TbDy7(WO6)4
_chemical_formula_sum   'Tb1 Dy7 W4 O24'
_cell_volume   462.68979447
_cell_formula_units_Z   1
loop_
 _symmetry_equiv_pos_site_id
 _symmetry_equiv_pos_as_xyz
  1  'x, y, z'
loop_
 _atom_site_type_symbol
 _atom_site_label
 _atom_site_symmetry_multiplicity
 _atom_site_fract_x
 _atom_site_fract_y
 _atom_site_fract_z
 _atom_site_occupancy
  Tb  Tb0  1  0.683942  0.500000  0.750000  1
  Dy  Dy1  1  0.738688  0.000000  0.750000  1
  Dy  Dy2  1  0.261739  0.000000  0.250000  1
  Dy  Dy3  1  0.187052  0.796162  0.577486  1
  Dy  Dy4  1  0.813192  0.795732  0.077865  1
  Dy  Dy5  1  0.316197  0.500000  0.250000  1
  Dy  Dy6  1  0.187052  0.203838  0.922514  1
  Dy  Dy7  1  0.813192  0.204268  0.422135  1
  W  W8  1  0.254143  0.723058  0.885866  1
  W  W9  1  0.745866  0.722786  0.385373  1
  W  W10  1  0.254143  0.276942  0.614134  1
  W  W11  1  0.745866  0.277214  0.114627  1
  O  O12  1  0.041332  0.939152  0.895537  1
  O  O13  1  0.529442  0.849446  0.930865  1
  O  O14  1  0.958444  0.939453  0.394875  1
  O  O15  1  0.459198  0.789203  0.728348  1
  O  O16  1  0.471043  0.849571  0.430660  1
  O  O17  1  0.982938  0.710317  0.771371  1
  O  O18  1  0.540391  0.788727  0.228170  1
  O  O19  1  0.851599  0.635145  0.547619  1
  O  O20  1  0.361446  0.489882  0.887201  1
  O  O21  1  0.017727  0.709122  0.271609  1
  O  O22  1  0.361446  0.510118  0.612799  1
  O  O23  1  0.851599  0.364855  0.952381  1
  O  O24  1  0.149002  0.635483  0.048311  1
  O  O25  1  0.636903  0.489938  0.386665  1
  O  O26  1  0.982938  0.289683  0.728629  1
  O  O27  1  0.636903  0.510062  0.113335  1
  O  O28  1  0.149002  0.364517  0.451689  1
  O  O29  1  0.459198  0.210797  0.771652  1
  O  O30  1  0.017727  0.290878  0.228391  1
  O  O31  1  0.529442  0.150554  0.569135  1
  O  O32  1  0.540391  0.211273  0.271830  1
  O  O33  1  0.041332  0.060848  0.604463  1
  O  O34  1  0.471043  0.150429  0.069340  1
  O  O35  1  0.958444  0.060547  0.105125  1
