# generated using pymatgen
data_Ho5AsRuO12
_symmetry_space_group_name_H-M   'P 1'
_cell_length_a   6.79691047
_cell_length_b   6.79691041
_cell_length_c   7.17736837
_cell_angle_alpha   74.57942667
_cell_angle_beta   74.57942487
_cell_angle_gamma   51.24011144
_symmetry_Int_Tables_number   1
_chemical_formula_structural   Ho5AsRuO12
_chemical_formula_sum   'Ho5 As1 Ru1 O12'
_cell_volume   247.06001304
_cell_formula_units_Z   1
loop_
 _symmetry_equiv_pos_site_id
 _symmetry_equiv_pos_as_xyz
  1  'x, y, z'
loop_
 _atom_site_type_symbol
 _atom_site_label
 _atom_site_symmetry_multiplicity
 _atom_site_fract_x
 _atom_site_fract_y
 _atom_site_fract_z
 _atom_site_occupancy
  Ho  Ho0  1  0.305448  0.307727  0.831621  1
  Ho  Ho1  1  0.692273  0.694552  0.168379  1
  Ho  Ho2  1  0.991146  0.008854  0.500000  1
  Ho  Ho3  1  0.697165  0.699652  0.639915  1
  Ho  Ho4  1  0.300348  0.302835  0.360085  1
  As  As5  1  0.758418  0.241582  0.000000  1
  Ru  Ru6  1  0.248582  0.751418  0.000000  1
  O  O7  1  0.520752  0.479528  0.180751  1
  O  O8  1  0.520472  0.479248  0.819249  1
  O  O9  1  0.986870  0.013837  0.177991  1
  O  O10  1  0.986163  0.013130  0.822009  1
  O  O11  1  0.899727  0.418021  0.918403  1
  O  O12  1  0.581979  0.100273  0.081597  1
  O  O13  1  0.097488  0.569575  0.082457  1
  O  O14  1  0.593071  0.101043  0.573261  1
  O  O15  1  0.898957  0.406929  0.426739  1
  O  O16  1  0.397033  0.906313  0.424548  1
  O  O17  1  0.093687  0.602967  0.575452  1
  O  O18  1  0.430425  0.902512  0.917543  1
