# generated using pymatgen
data_La8MgCdTc2
_symmetry_space_group_name_H-M   'P 1'
_cell_length_a   10.13896812
_cell_length_b   10.11756786
_cell_length_c   10.11756797
_cell_angle_alpha   59.98424134
_cell_angle_beta   59.93000708
_cell_angle_gamma   59.93000983
_symmetry_Int_Tables_number   1
_chemical_formula_structural   La8MgCdTc2
_chemical_formula_sum   'La16 Mg2 Cd2 Tc4'
_cell_volume   733.02555555
_cell_formula_units_Z   2
loop_
 _symmetry_equiv_pos_site_id
 _symmetry_equiv_pos_as_xyz
  1  'x, y, z'
loop_
 _atom_site_type_symbol
 _atom_site_label
 _atom_site_symmetry_multiplicity
 _atom_site_fract_x
 _atom_site_fract_y
 _atom_site_fract_z
 _atom_site_occupancy
  La  La0  1  0.942642  0.944140  0.555841  1
  La  La1  1  0.557377  0.944140  0.555841  1
  La  La2  1  0.557267  0.942733  0.942733  1
  La  La3  1  0.687541  0.688129  0.312328  1
  La  La4  1  0.155591  0.155961  0.532856  1
  La  La5  1  0.313703  0.686297  0.686297  1
  La  La6  1  0.154461  0.155473  0.155473  1
  La  La7  1  0.534593  0.155473  0.155473  1
  La  La8  1  0.312002  0.688129  0.312328  1
  La  La9  1  0.312002  0.312328  0.688129  1
  La  La10  1  0.687541  0.312328  0.688129  1
  La  La11  1  0.944350  0.555650  0.555650  1
  La  La12  1  0.557377  0.555841  0.944140  1
  La  La13  1  0.155591  0.532856  0.155961  1
  La  La14  1  0.689185  0.310815  0.310815  1
  La  La15  1  0.942642  0.555841  0.944140  1
  Mg  Mg16  1  0.229724  0.923903  0.923903  1
  Mg  Mg17  1  0.922468  0.923903  0.923903  1
  Cd  Cd18  1  0.921947  0.921475  0.234631  1
  Cd  Cd19  1  0.921947  0.234631  0.921475  1
  Tc  Tc20  1  0.900991  0.366545  0.366545  1
  Tc  Tc21  1  0.366569  0.366879  0.899982  1
  Tc  Tc22  1  0.366569  0.899982  0.366879  1
  Tc  Tc23  1  0.365918  0.366545  0.366545  1
