# generated using pymatgen
data_Zr4TiGaBi2
_symmetry_space_group_name_H-M   'P 1'
_cell_length_a   5.47873395
_cell_length_b   8.40540736
_cell_length_c   8.40540695
_cell_angle_alpha   83.90288074
_cell_angle_beta   70.97958263
_cell_angle_gamma   70.97958004
_symmetry_Int_Tables_number   1
_chemical_formula_structural   Zr4TiGaBi2
_chemical_formula_sum   'Zr8 Ti2 Ga2 Bi4'
_cell_volume   345.96423717
_cell_formula_units_Z   2
loop_
 _symmetry_equiv_pos_site_id
 _symmetry_equiv_pos_as_xyz
  1  'x, y, z'
loop_
 _atom_site_type_symbol
 _atom_site_label
 _atom_site_symmetry_multiplicity
 _atom_site_fract_x
 _atom_site_fract_y
 _atom_site_fract_z
 _atom_site_occupancy
  Zr  Zr0  1  0.711347  0.866127  0.711178  1
  Zr  Zr1  1  0.288653  0.133873  0.288822  1
  Zr  Zr2  1  0.788653  0.288822  0.133873  1
  Zr  Zr3  1  0.211347  0.711178  0.866127  1
  Zr  Zr4  1  0.577474  0.711178  0.133873  1
  Zr  Zr5  1  0.422526  0.288822  0.866127  1
  Zr  Zr6  1  0.077474  0.133873  0.711178  1
  Zr  Zr7  1  0.922526  0.866127  0.288822  1
  Ti  Ti8  1  0.750000  0.500000  0.500000  1
  Ti  Ti9  1  0.250000  0.500000  0.500000  1
  Ga  Ga10  1  0.250000  0.000000  0.000000  1
  Ga  Ga11  1  0.750000  0.000000  0.000000  1
  Bi  Bi12  1  0.157904  0.500000  0.184194  1
  Bi  Bi13  1  0.842096  0.500000  0.815806  1
  Bi  Bi14  1  0.342096  0.815806  0.500000  1
  Bi  Bi15  1  0.657904  0.184194  0.500000  1
