# generated using pymatgen
data_TbMg4P12Ru19
_symmetry_space_group_name_H-M   'P 1'
_cell_length_a   3.96240900
_cell_length_b   12.41719988
_cell_length_c   12.41640215
_cell_angle_alpha   119.98682587
_cell_angle_beta   90.00000000
_cell_angle_gamma   90.00000000
_symmetry_Int_Tables_number   1
_chemical_formula_structural   TbMg4P12Ru19
_chemical_formula_sum   'Tb1 Mg4 P12 Ru19'
_cell_volume   529.13563832
_cell_formula_units_Z   1
loop_
 _symmetry_equiv_pos_site_id
 _symmetry_equiv_pos_as_xyz
  1  'x, y, z'
loop_
 _atom_site_type_symbol
 _atom_site_label
 _atom_site_symmetry_multiplicity
 _atom_site_fract_x
 _atom_site_fract_y
 _atom_site_fract_z
 _atom_site_occupancy
  Tb  Tb0  1  0.000000  0.666616  0.333284  1
  Mg  Mg1  1  0.500000  0.999804  0.186760  1
  Mg  Mg2  1  0.500000  0.186773  0.000189  1
  Mg  Mg3  1  0.500000  0.813322  0.813165  1
  Mg  Mg4  1  0.000000  0.333290  0.666652  1
  P  P5  1  0.000000  0.002843  0.821278  1
  P  P6  1  0.000000  0.818492  0.996992  1
  P  P7  1  0.000000  0.178576  0.181748  1
  P  P8  1  0.500000  0.299784  0.469493  1
  P  P9  1  0.500000  0.169687  0.700292  1
  P  P10  1  0.500000  0.530667  0.830421  1
  P  P11  1  0.500000  0.829971  0.528533  1
  P  P12  1  0.500000  0.471349  0.301392  1
  P  P13  1  0.500000  0.698627  0.169996  1
  P  P14  1  0.000000  0.001697  0.385231  1
  P  P15  1  0.000000  0.383648  0.998257  1
  P  P16  1  0.000000  0.614641  0.616335  1
  Ru  Ru17  1  0.000000  0.994273  0.561698  1
  Ru  Ru18  1  0.000000  0.567449  0.005708  1
  Ru  Ru19  1  0.000000  0.438324  0.432489  1
  Ru  Ru20  1  0.500000  0.000433  0.728427  1
  Ru  Ru21  1  0.500000  0.728071  0.999502  1
  Ru  Ru22  1  0.500000  0.271496  0.272041  1
  Ru  Ru23  1  0.000000  0.181296  0.371074  1
  Ru  Ru24  1  0.000000  0.189660  0.818866  1
  Ru  Ru25  1  0.000000  0.629138  0.810295  1
  Ru  Ru26  1  0.000000  0.812121  0.637878  1
  Ru  Ru27  1  0.000000  0.361883  0.174069  1
  Ru  Ru28  1  0.000000  0.825771  0.187785  1
  Ru  Ru29  1  0.500000  0.130927  0.502099  1
  Ru  Ru30  1  0.500000  0.371112  0.869108  1
  Ru  Ru31  1  0.500000  0.497980  0.628912  1
  Ru  Ru32  1  0.500000  0.631321  0.506574  1
  Ru  Ru33  1  0.500000  0.493409  0.124755  1
  Ru  Ru34  1  0.500000  0.875311  0.368667  1
  Ru  Ru35  1  0.000000  0.000137  0.000034  1
