# generated using pymatgen
data_Ba3Sr8Ca(InAs3)4
_symmetry_space_group_name_H-M   'P 1'
_cell_length_a   4.49134300
_cell_length_b   13.46672764
_cell_length_c   14.41374468
_cell_angle_alpha   89.97777793
_cell_angle_beta   90.00000000
_cell_angle_gamma   90.00000000
_symmetry_Int_Tables_number   1
_chemical_formula_structural   Ba3Sr8Ca(InAs3)4
_chemical_formula_sum   'Ba3 Sr8 Ca1 In4 As12'
_cell_volume   871.79644137
_cell_formula_units_Z   1
loop_
 _symmetry_equiv_pos_site_id
 _symmetry_equiv_pos_as_xyz
  1  'x, y, z'
loop_
 _atom_site_type_symbol
 _atom_site_label
 _atom_site_symmetry_multiplicity
 _atom_site_fract_x
 _atom_site_fract_y
 _atom_site_fract_z
 _atom_site_occupancy
  Ba  Ba0  1  0.750000  0.074774  0.603941  1
  Ba  Ba1  1  0.750000  0.568956  0.897523  1
  Ba  Ba2  1  0.250000  0.649615  0.498538  1
  Sr  Sr3  1  0.250000  0.420451  0.112758  1
  Sr  Sr4  1  0.250000  0.149284  0.001289  1
  Sr  Sr5  1  0.250000  0.219883  0.295076  1
  Sr  Sr6  1  0.750000  0.364714  0.511970  1
  Sr  Sr7  1  0.250000  0.924656  0.385332  1
  Sr  Sr8  1  0.750000  0.777499  0.714762  1
  Sr  Sr9  1  0.750000  0.872589  0.990830  1
  Sr  Sr10  1  0.250000  0.720457  0.197517  1
  Ca  Ca11  1  0.750000  0.277096  0.790018  1
  In  In12  1  0.750000  0.550460  0.301150  1
  In  In13  1  0.750000  0.052327  0.196724  1
  In  In14  1  0.250000  0.446584  0.707685  1
  In  In15  1  0.250000  0.952929  0.796287  1
  As  As16  1  0.750000  0.242172  0.129079  1
  As  As17  1  0.750000  0.745657  0.359744  1
  As  As18  1  0.750000  0.583660  0.117427  1
  As  As19  1  0.250000  0.262795  0.632774  1
  As  As20  1  0.250000  0.766941  0.876484  1
  As  As21  1  0.750000  0.087727  0.381191  1
  As  As22  1  0.250000  0.896992  0.613273  1
  As  As23  1  0.250000  0.386320  0.887898  1
  As  As24  1  0.750000  0.058956  0.852371  1
  As  As25  1  0.250000  0.446070  0.358850  1
  As  As26  1  0.250000  0.950446  0.138683  1
  As  As27  1  0.750000  0.549992  0.650824  1
