# generated using pymatgen
data_Nd3Ho5(CdCo)2
_symmetry_space_group_name_H-M   'P 1'
_cell_length_a   9.59076204
_cell_length_b   9.59076204
_cell_length_c   9.59076200
_cell_angle_alpha   59.99999324
_cell_angle_beta   59.99999323
_cell_angle_gamma   59.99999749
_symmetry_Int_Tables_number   1
_chemical_formula_structural   Nd3Ho5(CdCo)2
_chemical_formula_sum   'Nd6 Ho10 Cd4 Co4'
_cell_volume   623.79845491
_cell_formula_units_Z   2
loop_
 _symmetry_equiv_pos_site_id
 _symmetry_equiv_pos_as_xyz
  1  'x, y, z'
loop_
 _atom_site_type_symbol
 _atom_site_label
 _atom_site_symmetry_multiplicity
 _atom_site_fract_x
 _atom_site_fract_y
 _atom_site_fract_z
 _atom_site_occupancy
  Nd  Nd0  1  0.941223  0.558777  0.558777  1
  Nd  Nd1  1  0.558777  0.941223  0.941223  1
  Nd  Nd2  1  0.558777  0.941223  0.558777  1
  Nd  Nd3  1  0.941223  0.558777  0.941223  1
  Nd  Nd4  1  0.558777  0.558777  0.941223  1
  Nd  Nd5  1  0.941223  0.941223  0.558777  1
  Ho  Ho6  1  0.345551  0.345551  0.345551  1
  Ho  Ho7  1  0.345551  0.345551  0.963348  1
  Ho  Ho8  1  0.345551  0.963348  0.345551  1
  Ho  Ho9  1  0.963348  0.345551  0.345551  1
  Ho  Ho10  1  0.813826  0.186174  0.186174  1
  Ho  Ho11  1  0.186174  0.813826  0.813826  1
  Ho  Ho12  1  0.186174  0.813826  0.186174  1
  Ho  Ho13  1  0.813826  0.186174  0.813826  1
  Ho  Ho14  1  0.186174  0.186174  0.813826  1
  Ho  Ho15  1  0.813826  0.813826  0.186174  1
  Cd  Cd16  1  0.579325  0.579325  0.579325  1
  Cd  Cd17  1  0.579325  0.579325  0.262024  1
  Cd  Cd18  1  0.579325  0.262024  0.579325  1
  Cd  Cd19  1  0.262024  0.579325  0.579325  1
  Co  Co20  1  0.140976  0.140976  0.140976  1
  Co  Co21  1  0.140976  0.140976  0.577074  1
  Co  Co22  1  0.140976  0.577074  0.140976  1
  Co  Co23  1  0.577074  0.140976  0.140976  1
