# generated using pymatgen
data_Tb3YAl18Ir5Pd
_symmetry_space_group_name_H-M   'P 1'
_cell_length_a   7.57868303
_cell_length_b   7.57789510
_cell_length_c   9.48558502
_cell_angle_alpha   89.96402166
_cell_angle_beta   89.97186145
_cell_angle_gamma   119.59487543
_symmetry_Int_Tables_number   1
_chemical_formula_structural   Tb3YAl18Ir5Pd
_chemical_formula_sum   'Tb3 Y1 Al18 Ir5 Pd1'
_cell_volume   473.69118327
_cell_formula_units_Z   1
loop_
 _symmetry_equiv_pos_site_id
 _symmetry_equiv_pos_as_xyz
  1  'x, y, z'
loop_
 _atom_site_type_symbol
 _atom_site_label
 _atom_site_symmetry_multiplicity
 _atom_site_fract_x
 _atom_site_fract_y
 _atom_site_fract_z
 _atom_site_occupancy
  Tb  Tb0  1  0.004779  0.329284  0.749223  1
  Tb  Tb1  1  0.670689  0.995121  0.250791  1
  Tb  Tb2  1  0.329210  0.004902  0.749160  1
  Y  Y3  1  0.994969  0.670750  0.250878  1
  Al  Al4  1  0.128676  0.127806  0.250423  1
  Al  Al5  1  0.872140  0.871283  0.749572  1
  Al  Al6  1  0.004834  0.335516  0.076197  1
  Al  Al7  1  0.002156  0.668659  0.924238  1
  Al  Al8  1  0.999603  0.664911  0.573777  1
  Al  Al9  1  0.334961  0.000321  0.426127  1
  Al  Al10  1  0.000641  0.334784  0.425297  1
  Al  Al11  1  0.665343  0.999368  0.574706  1
  Al  Al12  1  0.664643  0.995204  0.923756  1
  Al  Al13  1  0.331188  0.997769  0.075848  1
  Al  Al14  1  0.333170  0.333059  0.550619  1
  Al  Al15  1  0.667023  0.666811  0.449307  1
  Al  Al16  1  0.666276  0.669391  0.054572  1
  Al  Al17  1  0.330607  0.333798  0.945480  1
  Al  Al18  1  0.340296  0.548806  0.250376  1
  Al  Al19  1  0.659900  0.453034  0.747458  1
  Al  Al20  1  0.547015  0.340108  0.252539  1
  Al  Al21  1  0.451135  0.659659  0.749618  1
  Ir  Ir22  1  0.328270  0.671800  0.000016  1
  Ir  Ir23  1  0.328411  0.671624  0.499978  1
  Ir  Ir24  1  0.671889  0.328266  0.499971  1
  Ir  Ir25  1  0.999692  0.000204  0.000041  1
  Ir  Ir26  1  0.000145  0.999787  0.499963  1
  Pd  Pd27  1  0.672338  0.327976  0.000067  1
