# generated using pymatgen
data_Nd2Sm2Se3N2
_symmetry_space_group_name_H-M   'P 1'
_cell_length_a   8.29099377
_cell_length_b   8.29099352
_cell_length_c   6.44237272
_cell_angle_alpha   90.04132140
_cell_angle_beta   90.04132141
_cell_angle_gamma   75.38411217
_symmetry_Int_Tables_number   1
_chemical_formula_structural   Nd2Sm2Se3N2
_chemical_formula_sum   'Nd4 Sm4 Se6 N4'
_cell_volume   428.52118879
_cell_formula_units_Z   2
loop_
 _symmetry_equiv_pos_site_id
 _symmetry_equiv_pos_as_xyz
  1  'x, y, z'
loop_
 _atom_site_type_symbol
 _atom_site_label
 _atom_site_symmetry_multiplicity
 _atom_site_fract_x
 _atom_site_fract_y
 _atom_site_fract_z
 _atom_site_occupancy
  Nd  Nd0  1  0.810570  0.442796  0.530104  1
  Nd  Nd1  1  0.557204  0.189430  0.969896  1
  Nd  Nd2  1  0.189430  0.557204  0.469896  1
  Nd  Nd3  1  0.442796  0.810570  0.030104  1
  Sm  Sm4  1  0.243803  0.086420  0.571857  1
  Sm  Sm5  1  0.913580  0.756197  0.928143  1
  Sm  Sm6  1  0.756197  0.913580  0.428143  1
  Sm  Sm7  1  0.086420  0.243803  0.071857  1
  Se  Se8  1  0.748391  0.483582  0.034819  1
  Se  Se9  1  0.094322  0.905678  0.250000  1
  Se  Se10  1  0.516418  0.251609  0.465181  1
  Se  Se11  1  0.251609  0.516418  0.965181  1
  Se  Se12  1  0.905678  0.094322  0.750000  1
  Se  Se13  1  0.483582  0.748391  0.534819  1
  N  N14  1  0.083753  0.326912  0.413737  1
  N  N15  1  0.326912  0.083753  0.913737  1
  N  N16  1  0.916247  0.673088  0.586263  1
  N  N17  1  0.673088  0.916247  0.086263  1
