# generated using pymatgen
data_PrNpReB6
_symmetry_space_group_name_H-M   'P 1'
_cell_length_a   3.69669300
_cell_length_b   9.36558400
_cell_length_c   11.48097000
_cell_angle_alpha   90.00000000
_cell_angle_beta   90.00000000
_cell_angle_gamma   90.00000000
_symmetry_Int_Tables_number   1
_chemical_formula_structural   PrNpReB6
_chemical_formula_sum   'Pr4 Np4 Re4 B24'
_cell_volume   397.49057062
_cell_formula_units_Z   4
loop_
 _symmetry_equiv_pos_site_id
 _symmetry_equiv_pos_as_xyz
  1  'x, y, z'
loop_
 _atom_site_type_symbol
 _atom_site_label
 _atom_site_symmetry_multiplicity
 _atom_site_fract_x
 _atom_site_fract_y
 _atom_site_fract_z
 _atom_site_occupancy
  Pr  Pr0  1  0.000000  0.338298  0.408211  1
  Pr  Pr1  1  0.000000  0.661702  0.591789  1
  Pr  Pr2  1  0.000000  0.838298  0.091789  1
  Pr  Pr3  1  0.000000  0.161702  0.908211  1
  Np  Np4  1  0.000000  0.960549  0.401171  1
  Np  Np5  1  0.000000  0.039451  0.598829  1
  Np  Np6  1  0.000000  0.460549  0.098829  1
  Np  Np7  1  0.000000  0.539451  0.901171  1
  Re  Re8  1  0.000000  0.649489  0.315866  1
  Re  Re9  1  0.000000  0.350511  0.684134  1
  Re  Re10  1  0.000000  0.149489  0.184134  1
  Re  Re11  1  0.000000  0.850511  0.815866  1
  B  B12  1  0.500000  0.557434  0.426757  1
  B  B13  1  0.500000  0.442566  0.573243  1
  B  B14  1  0.500000  0.057434  0.073243  1
  B  B15  1  0.500000  0.942566  0.926757  1
  B  B16  1  0.500000  0.747995  0.419779  1
  B  B17  1  0.500000  0.252005  0.580221  1
  B  B18  1  0.500000  0.247995  0.080221  1
  B  B19  1  0.500000  0.752005  0.919779  1
  B  B20  1  0.500000  0.805513  0.274617  1
  B  B21  1  0.500000  0.194487  0.725383  1
  B  B22  1  0.500000  0.305513  0.225383  1
  B  B23  1  0.500000  0.694487  0.774617  1
  B  B24  1  0.500000  0.644343  0.186921  1
  B  B25  1  0.500000  0.355657  0.813079  1
  B  B26  1  0.500000  0.144343  0.313079  1
  B  B27  1  0.500000  0.855657  0.686921  1
  B  B28  1  0.500000  0.993006  0.222415  1
  B  B29  1  0.500000  0.006994  0.777585  1
  B  B30  1  0.500000  0.493006  0.277585  1
  B  B31  1  0.500000  0.506994  0.722415  1
  B  B32  1  0.500000  0.634426  0.036047  1
  B  B33  1  0.500000  0.365574  0.963953  1
  B  B34  1  0.500000  0.134426  0.463953  1
  B  B35  1  0.500000  0.865574  0.536047  1
