# generated using pymatgen
data_DyHo11GaCo5
_symmetry_space_group_name_H-M   'P 1'
_cell_length_a   8.16882980
_cell_length_b   8.16864689
_cell_length_c   8.16845055
_cell_angle_alpha   110.87232880
_cell_angle_beta   110.78059957
_cell_angle_gamma   106.79662597
_symmetry_Int_Tables_number   1
_chemical_formula_structural   DyHo11GaCo5
_chemical_formula_sum   'Dy1 Ho11 Ga1 Co5'
_cell_volume   418.89345961
_cell_formula_units_Z   1
loop_
 _symmetry_equiv_pos_site_id
 _symmetry_equiv_pos_as_xyz
  1  'x, y, z'
loop_
 _atom_site_type_symbol
 _atom_site_label
 _atom_site_symmetry_multiplicity
 _atom_site_fract_x
 _atom_site_fract_y
 _atom_site_fract_z
 _atom_site_occupancy
  Dy  Dy0  1  0.813778  0.710529  0.524312  1
  Ho  Ho1  1  0.186182  0.289457  0.475634  1
  Ho  Ho2  1  0.186243  0.710561  0.896804  1
  Ho  Ho3  1  0.813811  0.289422  0.103229  1
  Ho  Ho4  1  0.684247  0.381825  0.697626  1
  Ho  Ho5  1  0.315703  0.618152  0.302393  1
  Ho  Ho6  1  0.684238  0.986680  0.302384  1
  Ho  Ho7  1  0.315791  0.013369  0.697621  1
  Ho  Ho8  1  0.593322  0.784732  0.808668  1
  Ho  Ho9  1  0.406613  0.215238  0.191328  1
  Ho  Ho10  1  0.976092  0.784713  0.191329  1
  Ho  Ho11  1  0.023939  0.215348  0.808671  1
  Ga  Ga12  1  0.499993  0.499996  0.999986  1
  Co  Co13  1  0.624107  0.000033  0.624136  1
  Co  Co14  1  0.375876  0.999998  0.375872  1
  Co  Co15  1  0.113788  0.613725  0.499984  1
  Co  Co16  1  0.886264  0.386196  0.499984  1
  Co  Co17  1  0.000012  0.000028  0.000041  1
