# generated using pymatgen
data_Nd6TaCo17(SiP5)2
_symmetry_space_group_name_H-M   'P 1'
_cell_length_a   3.78182600
_cell_length_b   10.73922100
_cell_length_c   12.49283000
_cell_angle_alpha   90.00000000
_cell_angle_beta   90.00000000
_cell_angle_gamma   90.00000000
_symmetry_Int_Tables_number   1
_chemical_formula_structural   Nd6TaCo17(SiP5)2
_chemical_formula_sum   'Nd6 Ta1 Co17 Si2 P10'
_cell_volume   507.38211356
_cell_formula_units_Z   1
loop_
 _symmetry_equiv_pos_site_id
 _symmetry_equiv_pos_as_xyz
  1  'x, y, z'
loop_
 _atom_site_type_symbol
 _atom_site_label
 _atom_site_symmetry_multiplicity
 _atom_site_fract_x
 _atom_site_fract_y
 _atom_site_fract_z
 _atom_site_occupancy
  Nd  Nd0  1  0.000000  0.500000  0.525470  1
  Nd  Nd1  1  0.500000  0.000000  0.476702  1
  Nd  Nd2  1  0.500000  0.818285  0.208126  1
  Nd  Nd3  1  0.500000  0.181715  0.208126  1
  Nd  Nd4  1  0.000000  0.682461  0.794925  1
  Nd  Nd5  1  0.000000  0.317539  0.794925  1
  Ta  Ta6  1  0.500000  0.500000  0.151543  1
  Co  Co7  1  0.000000  0.000000  0.846886  1
  Co  Co8  1  0.500000  0.500000  0.703443  1
  Co  Co9  1  0.000000  0.000000  0.300767  1
  Co  Co10  1  0.000000  0.500000  0.986161  1
  Co  Co11  1  0.500000  0.000000  0.007510  1
  Co  Co12  1  0.500000  0.331427  0.991373  1
  Co  Co13  1  0.500000  0.668573  0.991373  1
  Co  Co14  1  0.000000  0.167617  0.001360  1
  Co  Co15  1  0.000000  0.832383  0.001360  1
  Co  Co16  1  0.500000  0.296958  0.431774  1
  Co  Co17  1  0.500000  0.703042  0.431774  1
  Co  Co18  1  0.000000  0.206157  0.568635  1
  Co  Co19  1  0.000000  0.793843  0.568635  1
  Co  Co20  1  0.500000  0.879968  0.710942  1
  Co  Co21  1  0.500000  0.120032  0.710942  1
  Co  Co22  1  0.000000  0.619440  0.292767  1
  Co  Co23  1  0.000000  0.380560  0.292767  1
  Si  Si24  1  0.000000  0.000000  0.112053  1
  Si  Si25  1  0.000000  0.000000  0.661651  1
  P  P26  1  0.500000  0.500000  0.884554  1
  P  P27  1  0.500000  0.500000  0.350545  1
  P  P28  1  0.500000  0.304600  0.615504  1
  P  P29  1  0.500000  0.695400  0.615504  1
  P  P30  1  0.000000  0.195037  0.388072  1
  P  P31  1  0.000000  0.804963  0.388072  1
  P  P32  1  0.500000  0.850445  0.892704  1
  P  P33  1  0.500000  0.149555  0.892704  1
  P  P34  1  0.000000  0.658541  0.100173  1
  P  P35  1  0.000000  0.341459  0.100173  1
