# generated using pymatgen
data_BaTe7Mo6
_symmetry_space_group_name_H-M   'P 1'
_cell_length_a   10.43388821
_cell_length_b   10.43575542
_cell_length_c   10.43702774
_cell_angle_alpha   57.98191780
_cell_angle_beta   57.99425477
_cell_angle_gamma   57.99156842
_symmetry_Int_Tables_number   1
_chemical_formula_structural   BaTe7Mo6
_chemical_formula_sum   'Ba2 Te14 Mo12'
_cell_volume   766.51813505
_cell_formula_units_Z   2
loop_
 _symmetry_equiv_pos_site_id
 _symmetry_equiv_pos_as_xyz
  1  'x, y, z'
loop_
 _atom_site_type_symbol
 _atom_site_label
 _atom_site_symmetry_multiplicity
 _atom_site_fract_x
 _atom_site_fract_y
 _atom_site_fract_z
 _atom_site_occupancy
  Ba  Ba0  1  0.630438  0.630428  0.630468  1
  Ba  Ba1  1  0.369552  0.369551  0.369564  1
  Te  Te2  1  0.428809  0.786837  0.170533  1
  Te  Te3  1  0.170528  0.428745  0.786851  1
  Te  Te4  1  0.786807  0.170563  0.428785  1
  Te  Te5  1  0.571204  0.213176  0.829434  1
  Te  Te6  1  0.829480  0.571224  0.213175  1
  Te  Te7  1  0.213153  0.829466  0.571225  1
  Te  Te8  1  0.618205  0.981344  0.265529  1
  Te  Te9  1  0.265524  0.618184  0.981357  1
  Te  Te10  1  0.981307  0.265527  0.618163  1
  Te  Te11  1  0.381797  0.018646  0.734490  1
  Te  Te12  1  0.734465  0.381807  0.018662  1
  Te  Te13  1  0.018684  0.734472  0.381837  1
  Te  Te14  1  0.779925  0.779963  0.779841  1
  Te  Te15  1  0.220123  0.220058  0.220089  1
  Mo  Mo16  1  0.706058  0.884947  0.009487  1
  Mo  Mo17  1  0.009477  0.706077  0.884930  1
  Mo  Mo18  1  0.884915  0.009538  0.706039  1
  Mo  Mo19  1  0.293973  0.115048  0.990498  1
  Mo  Mo20  1  0.990519  0.293918  0.115084  1
  Mo  Mo21  1  0.115088  0.990499  0.293921  1
  Mo  Mo22  1  0.943098  0.808256  0.112695  1
  Mo  Mo23  1  0.112643  0.943117  0.808247  1
  Mo  Mo24  1  0.808249  0.112678  0.943069  1
  Mo  Mo25  1  0.056901  0.191729  0.887329  1
  Mo  Mo26  1  0.887332  0.056884  0.191768  1
  Mo  Mo27  1  0.191746  0.887317  0.056932  1
