# generated using pymatgen
data_LuSi(PRh2)3
_symmetry_space_group_name_H-M   'P 1'
_cell_length_a   7.04825800
_cell_length_b   7.04825932
_cell_length_c   3.68828200
_cell_angle_alpha   90.00000000
_cell_angle_beta   90.00000000
_cell_angle_gamma   119.99999382
_symmetry_Int_Tables_number   1
_chemical_formula_structural   LuSi(PRh2)3
_chemical_formula_sum   'Lu1 Si1 P3 Rh6'
_cell_volume   158.67863095
_cell_formula_units_Z   1
loop_
 _symmetry_equiv_pos_site_id
 _symmetry_equiv_pos_as_xyz
  1  'x, y, z'
loop_
 _atom_site_type_symbol
 _atom_site_label
 _atom_site_symmetry_multiplicity
 _atom_site_fract_x
 _atom_site_fract_y
 _atom_site_fract_z
 _atom_site_occupancy
  Lu  Lu0  1  0.333333  0.666667  0.000000  1
  Si  Si1  1  0.666667  0.333333  0.000000  1
  P  P2  1  0.713232  0.856616  0.500000  1
  P  P3  1  0.143384  0.286768  0.500000  1
  P  P4  1  0.143384  0.856616  0.500000  1
  Rh  Rh5  1  0.263535  0.131767  0.000000  1
  Rh  Rh6  1  0.868233  0.736465  0.000000  1
  Rh  Rh7  1  0.868233  0.131767  0.000000  1
  Rh  Rh8  1  0.944937  0.472468  0.500000  1
  Rh  Rh9  1  0.527532  0.055063  0.500000  1
  Rh  Rh10  1  0.527532  0.472468  0.500000  1
