# generated using pymatgen
data_Li3ScU4(ReB6)4
_symmetry_space_group_name_H-M   'P 1'
_cell_length_a   3.58441000
_cell_length_b   8.83792656
_cell_length_c   11.20399451
_cell_angle_alpha   89.85039699
_cell_angle_beta   90.00000000
_cell_angle_gamma   90.00000000
_symmetry_Int_Tables_number   1
_chemical_formula_structural   Li3ScU4(ReB6)4
_chemical_formula_sum   'Li3 Sc1 U4 Re4 B24'
_cell_volume   354.92735750
_cell_formula_units_Z   1
loop_
 _symmetry_equiv_pos_site_id
 _symmetry_equiv_pos_as_xyz
  1  'x, y, z'
loop_
 _atom_site_type_symbol
 _atom_site_label
 _atom_site_symmetry_multiplicity
 _atom_site_fract_x
 _atom_site_fract_y
 _atom_site_fract_z
 _atom_site_occupancy
  Li  Li0  1  0.000000  0.946644  0.377015  1
  Li  Li1  1  0.000000  0.053163  0.621060  1
  Li  Li2  1  0.000000  0.446256  0.123858  1
  Sc  Sc3  1  0.000000  0.554235  0.876835  1
  U  U4  1  0.000000  0.319243  0.411495  1
  U  U5  1  0.000000  0.683108  0.583524  1
  U  U6  1  0.000000  0.820250  0.088950  1
  U  U7  1  0.000000  0.180372  0.914907  1
  Re  Re8  1  0.000000  0.641705  0.319400  1
  Re  Re9  1  0.000000  0.356756  0.679565  1
  Re  Re10  1  0.000000  0.140201  0.181241  1
  Re  Re11  1  0.000000  0.862204  0.817627  1
  B  B12  1  0.500000  0.554404  0.433976  1
  B  B13  1  0.500000  0.445490  0.565887  1
  B  B14  1  0.500000  0.054111  0.066146  1
  B  B15  1  0.500000  0.946395  0.934393  1
  B  B16  1  0.500000  0.756951  0.418104  1
  B  B17  1  0.500000  0.243017  0.580520  1
  B  B18  1  0.500000  0.255214  0.081633  1
  B  B19  1  0.500000  0.746101  0.920859  1
  B  B20  1  0.500000  0.792920  0.262368  1
  B  B21  1  0.500000  0.205512  0.737397  1
  B  B22  1  0.500000  0.292720  0.237327  1
  B  B23  1  0.500000  0.706778  0.763670  1
  B  B24  1  0.500000  0.626693  0.181496  1
  B  B25  1  0.500000  0.370448  0.818738  1
  B  B26  1  0.500000  0.125645  0.319116  1
  B  B27  1  0.500000  0.874356  0.681083  1
  B  B28  1  0.500000  0.979538  0.212865  1
  B  B29  1  0.500000  0.020883  0.787884  1
  B  B30  1  0.500000  0.479863  0.287097  1
  B  B31  1  0.500000  0.519878  0.712951  1
  B  B32  1  0.500000  0.598864  0.028173  1
  B  B33  1  0.500000  0.400092  0.973436  1
  B  B34  1  0.500000  0.093682  0.473735  1
  B  B35  1  0.500000  0.906310  0.525667  1
