# generated using pymatgen
data_YbSb12(IrOs)2
_symmetry_space_group_name_H-M   'P 1'
_cell_length_a   8.15802589
_cell_length_b   8.13817950
_cell_length_c   8.15802539
_cell_angle_alpha   109.47421716
_cell_angle_beta   109.55893345
_cell_angle_gamma   109.47911204
_symmetry_Int_Tables_number   1
_chemical_formula_structural   YbSb12(IrOs)2
_chemical_formula_sum   'Yb1 Sb12 Ir2 Os2'
_cell_volume   416.43351597
_cell_formula_units_Z   1
loop_
 _symmetry_equiv_pos_site_id
 _symmetry_equiv_pos_as_xyz
  1  'x, y, z'
loop_
 _atom_site_type_symbol
 _atom_site_label
 _atom_site_symmetry_multiplicity
 _atom_site_fract_x
 _atom_site_fract_y
 _atom_site_fract_z
 _atom_site_occupancy
  Yb  Yb0  1  0.000000  0.000000  0.000000  1
  Sb  Sb1  1  0.842931  0.658834  0.504759  1
  Sb  Sb2  1  0.157069  0.341166  0.495241  1
  Sb  Sb3  1  0.154075  0.658834  0.815904  1
  Sb  Sb4  1  0.845925  0.341166  0.184096  1
  Sb  Sb5  1  0.661898  0.505098  0.843200  1
  Sb  Sb6  1  0.338102  0.494902  0.156800  1
  Sb  Sb7  1  0.659158  0.813563  0.154404  1
  Sb  Sb8  1  0.340842  0.186437  0.845596  1
  Sb  Sb9  1  0.504790  0.843473  0.659330  1
  Sb  Sb10  1  0.495210  0.156527  0.340670  1
  Sb  Sb11  1  0.184142  0.843473  0.338682  1
  Sb  Sb12  1  0.815858  0.156527  0.661318  1
  Ir  Ir13  1  0.500000  0.000000  0.000000  1
  Ir  Ir14  1  0.000000  0.000000  0.500000  1
  Os  Os15  1  0.500000  0.500000  0.500000  1
  Os  Os16  1  0.000000  0.500000  0.000000  1
