# generated using pymatgen
data_KMn2TlP6(HO10)2
_symmetry_space_group_name_H-M   'P 1'
_cell_length_a   8.37599400
_cell_length_b   9.42596209
_cell_length_c   12.38854300
_cell_angle_alpha   69.70130462
_cell_angle_beta   89.99997264
_cell_angle_gamma   89.99994796
_symmetry_Int_Tables_number   1
_chemical_formula_structural   KMn2TlP6(HO10)2
_chemical_formula_sum   'K2 Mn4 Tl2 P12 H4 O40'
_cell_volume   917.35482313
_cell_formula_units_Z   2
loop_
 _symmetry_equiv_pos_site_id
 _symmetry_equiv_pos_as_xyz
  1  'x, y, z'
loop_
 _atom_site_type_symbol
 _atom_site_label
 _atom_site_symmetry_multiplicity
 _atom_site_fract_x
 _atom_site_fract_y
 _atom_site_fract_z
 _atom_site_occupancy
  K  K0  1  0.056727  0.750003  0.499999  1
  K  K1  1  0.556721  0.750002  0.000000  1
  Mn  Mn2  1  0.749930  0.500539  0.749653  1
  Mn  Mn3  1  0.249939  0.999435  0.750365  1
  Mn  Mn4  1  0.249941  0.500565  0.249638  1
  Mn  Mn5  1  0.749946  0.999422  0.250368  1
  Tl  Tl6  1  0.942919  0.250003  0.499995  1
  Tl  Tl7  1  0.442918  0.250000  0.000003  1
  P  P8  1  0.371596  0.250012  0.499990  1
  P  P9  1  0.871597  0.249987  0.000010  1
  P  P10  1  0.628686  0.750013  0.499991  1
  P  P11  1  0.128685  0.749986  0.000010  1
  P  P12  1  0.065463  0.295149  0.792557  1
  P  P13  1  0.565460  0.295148  0.292552  1
  P  P14  1  0.065460  0.204853  0.207447  1
  P  P15  1  0.565462  0.204850  0.707443  1
  P  P16  1  0.934174  0.704856  0.207352  1
  P  P17  1  0.434171  0.704856  0.707349  1
  P  P18  1  0.934171  0.795144  0.792650  1
  P  P19  1  0.434174  0.795144  0.292647  1
  H  H20  1  0.750204  0.500775  0.249557  1
  H  H21  1  0.250203  0.500774  0.749557  1
  H  H22  1  0.250204  0.999227  0.250442  1
  H  H23  1  0.750203  0.999228  0.750442  1
  O  O24  1  0.890053  0.678942  0.738265  1
  O  O25  1  0.390055  0.678947  0.238263  1
  O  O26  1  0.890054  0.821055  0.261735  1
  O  O27  1  0.390053  0.821058  0.761734  1
  O  O28  1  0.110336  0.321556  0.261167  1
  O  O29  1  0.610336  0.321557  0.761166  1
  O  O30  1  0.110338  0.178443  0.738834  1
  O  O31  1  0.610336  0.178446  0.238832  1
  O  O32  1  0.936787  0.400597  0.716740  1
  O  O33  1  0.436788  0.400600  0.216737  1
  O  O34  1  0.936787  0.099403  0.283261  1
  O  O35  1  0.436789  0.099405  0.783260  1
  O  O36  1  0.063085  0.599743  0.283264  1
  O  O37  1  0.563084  0.599743  0.783265  1
  O  O38  1  0.063087  0.900258  0.716735  1
  O  O39  1  0.563085  0.900260  0.216733  1
  O  O40  1  0.279616  0.390022  0.432454  1
  O  O41  1  0.779611  0.390031  0.932448  1
  O  O42  1  0.279610  0.109970  0.567552  1
  O  O43  1  0.779616  0.109980  0.067545  1
  O  O44  1  0.721249  0.610464  0.567396  1
  O  O45  1  0.221243  0.610473  0.067389  1
  O  O46  1  0.721243  0.889528  0.432610  1
  O  O47  1  0.221250  0.889537  0.932604  1
  O  O48  1  0.988984  0.299898  0.083216  1
  O  O49  1  0.488984  0.299895  0.583219  1
  O  O50  1  0.988985  0.200106  0.916781  1
  O  O51  1  0.488983  0.200104  0.416784  1
  O  O52  1  0.010915  0.700168  0.916831  1
  O  O53  1  0.510917  0.700164  0.416834  1
  O  O54  1  0.010915  0.799837  0.083166  1
  O  O55  1  0.510914  0.799835  0.583168  1
  O  O56  1  0.706473  0.381731  0.319000  1
  O  O57  1  0.206472  0.381729  0.818997  1
  O  O58  1  0.706472  0.118273  0.681002  1
  O  O59  1  0.206474  0.118271  0.181000  1
  O  O60  1  0.292767  0.619085  0.680273  1
  O  O61  1  0.792767  0.619083  0.180271  1
  O  O62  1  0.292766  0.880918  0.319728  1
  O  O63  1  0.792767  0.880917  0.819726  1
