# generated using pymatgen
data_Ho5LuTh2(MgCo)2
_symmetry_space_group_name_H-M   'P 1'
_cell_length_a   9.58107222
_cell_length_b   9.58337282
_cell_length_c   9.58337228
_cell_angle_alpha   59.98410972
_cell_angle_beta   60.00794106
_cell_angle_gamma   60.00794645
_symmetry_Int_Tables_number   1
_chemical_formula_structural   Ho5LuTh2(MgCo)2
_chemical_formula_sum   'Ho10 Lu2 Th4 Mg4 Co4'
_cell_volume   622.20829918
_cell_formula_units_Z   2
loop_
 _symmetry_equiv_pos_site_id
 _symmetry_equiv_pos_as_xyz
  1  'x, y, z'
loop_
 _atom_site_type_symbol
 _atom_site_label
 _atom_site_symmetry_multiplicity
 _atom_site_fract_x
 _atom_site_fract_y
 _atom_site_fract_z
 _atom_site_occupancy
  Ho  Ho0  1  0.185249  0.814751  0.185249  1
  Ho  Ho1  1  0.814751  0.185249  0.814751  1
  Ho  Ho2  1  0.185249  0.185249  0.814751  1
  Ho  Ho3  1  0.814751  0.814751  0.185249  1
  Ho  Ho4  1  0.935564  0.564436  0.564436  1
  Ho  Ho5  1  0.564436  0.935564  0.935564  1
  Ho  Ho6  1  0.564574  0.935426  0.564574  1
  Ho  Ho7  1  0.935426  0.564574  0.935426  1
  Ho  Ho8  1  0.564574  0.564574  0.935426  1
  Ho  Ho9  1  0.935426  0.935426  0.564574  1
  Lu  Lu10  1  0.813422  0.186578  0.186578  1
  Lu  Lu11  1  0.186578  0.813422  0.813422  1
  Th  Th12  1  0.346056  0.344162  0.344162  1
  Th  Th13  1  0.344162  0.346056  0.965623  1
  Th  Th14  1  0.344162  0.965623  0.346056  1
  Th  Th15  1  0.965623  0.344162  0.344162  1
  Mg  Mg16  1  0.580450  0.579731  0.579731  1
  Mg  Mg17  1  0.579731  0.580450  0.260085  1
  Mg  Mg18  1  0.579731  0.260085  0.580450  1
  Mg  Mg19  1  0.260085  0.579731  0.579731  1
  Co  Co20  1  0.142404  0.145678  0.145678  1
  Co  Co21  1  0.145678  0.142404  0.566240  1
  Co  Co22  1  0.145678  0.566240  0.142404  1
  Co  Co23  1  0.566240  0.145678  0.145678  1
