# generated using pymatgen
data_NdYSiPd14
_symmetry_space_group_name_H-M   'P 1'
_cell_length_a   8.94890500
_cell_length_b   8.94890500
_cell_length_c   7.13319700
_cell_angle_alpha   90.00000000
_cell_angle_beta   90.00000000
_cell_angle_gamma   90.00000000
_symmetry_Int_Tables_number   1
_chemical_formula_structural   NdYSiPd14
_chemical_formula_sum   'Nd2 Y2 Si2 Pd28'
_cell_volume   571.24710702
_cell_formula_units_Z   2
loop_
 _symmetry_equiv_pos_site_id
 _symmetry_equiv_pos_as_xyz
  1  'x, y, z'
loop_
 _atom_site_type_symbol
 _atom_site_label
 _atom_site_symmetry_multiplicity
 _atom_site_fract_x
 _atom_site_fract_y
 _atom_site_fract_z
 _atom_site_occupancy
  Nd  Nd0  1  0.500000  0.000000  0.935866  1
  Nd  Nd1  1  0.000000  0.500000  0.064134  1
  Y  Y2  1  0.000000  0.000000  0.500000  1
  Y  Y3  1  0.500000  0.500000  0.500000  1
  Si  Si4  1  0.500000  0.000000  0.448621  1
  Si  Si5  1  0.000000  0.500000  0.551379  1
  Pd  Pd6  1  0.334093  0.834093  0.614625  1
  Pd  Pd7  1  0.334093  0.165907  0.614625  1
  Pd  Pd8  1  0.665907  0.834093  0.614625  1
  Pd  Pd9  1  0.665907  0.165907  0.614625  1
  Pd  Pd10  1  0.165907  0.665907  0.385375  1
  Pd  Pd11  1  0.165907  0.334093  0.385375  1
  Pd  Pd12  1  0.834093  0.665907  0.385375  1
  Pd  Pd13  1  0.834093  0.334093  0.385375  1
  Pd  Pd14  1  0.500000  0.769215  0.258521  1
  Pd  Pd15  1  0.500000  0.230785  0.258521  1
  Pd  Pd16  1  0.269215  0.000000  0.258521  1
  Pd  Pd17  1  0.730785  0.000000  0.258521  1
  Pd  Pd18  1  0.000000  0.730785  0.741479  1
  Pd  Pd19  1  0.000000  0.269215  0.741479  1
  Pd  Pd20  1  0.230785  0.500000  0.741479  1
  Pd  Pd21  1  0.769215  0.500000  0.741479  1
  Pd  Pd22  1  0.500000  0.349821  0.853206  1
  Pd  Pd23  1  0.500000  0.650179  0.853206  1
  Pd  Pd24  1  0.849821  0.000000  0.853206  1
  Pd  Pd25  1  0.150179  0.000000  0.853206  1
  Pd  Pd26  1  0.000000  0.150179  0.146794  1
  Pd  Pd27  1  0.000000  0.849821  0.146794  1
  Pd  Pd28  1  0.650179  0.500000  0.146794  1
  Pd  Pd29  1  0.349821  0.500000  0.146794  1
  Pd  Pd30  1  0.250000  0.750000  0.000000  1
  Pd  Pd31  1  0.250000  0.250000  0.000000  1
  Pd  Pd32  1  0.750000  0.750000  0.000000  1
  Pd  Pd33  1  0.750000  0.250000  0.000000  1
