# generated using pymatgen
data_Cs4K3Rb(ZrTe3)4
_symmetry_space_group_name_H-M   'P 1'
_cell_length_a   14.81665274
_cell_length_b   6.97489751
_cell_length_c   9.93276995
_cell_angle_alpha   70.43133066
_cell_angle_beta   89.71251480
_cell_angle_gamma   89.83131194
_symmetry_Int_Tables_number   1
_chemical_formula_structural   Cs4K3Rb(ZrTe3)4
_chemical_formula_sum   'Cs4 K3 Rb1 Zr4 Te12'
_cell_volume   967.19564560
_cell_formula_units_Z   1
loop_
 _symmetry_equiv_pos_site_id
 _symmetry_equiv_pos_as_xyz
  1  'x, y, z'
loop_
 _atom_site_type_symbol
 _atom_site_label
 _atom_site_symmetry_multiplicity
 _atom_site_fract_x
 _atom_site_fract_y
 _atom_site_fract_z
 _atom_site_occupancy
  Cs  Cs0  1  0.950964  0.671829  0.659253  1
  Cs  Cs1  1  0.451612  0.829124  0.339403  1
  Cs  Cs2  1  0.049441  0.327145  0.341606  1
  Cs  Cs3  1  0.548314  0.171173  0.660205  1
  K  K4  1  0.864127  0.073421  0.905003  1
  K  K5  1  0.362046  0.427323  0.095039  1
  K  K6  1  0.136522  0.926341  0.095943  1
  Rb  Rb7  1  0.635687  0.576065  0.900402  1
  Zr  Zr8  1  0.750008  0.667585  0.288765  1
  Zr  Zr9  1  0.247227  0.832621  0.709894  1
  Zr  Zr10  1  0.250346  0.332366  0.710138  1
  Zr  Zr11  1  0.752518  0.167161  0.290841  1
  Te  Te12  1  0.912100  0.902060  0.263499  1
  Te  Te13  1  0.408987  0.596240  0.734948  1
  Te  Te14  1  0.088089  0.097585  0.737339  1
  Te  Te15  1  0.590002  0.401953  0.267303  1
  Te  Te16  1  0.811151  0.281789  0.524679  1
  Te  Te17  1  0.310548  0.217520  0.476322  1
  Te  Te18  1  0.188524  0.718363  0.476247  1
  Te  Te19  1  0.689574  0.783709  0.521375  1
  Te  Te20  1  0.847926  0.492049  0.083766  1
  Te  Te21  1  0.344340  0.005400  0.917499  1
  Te  Te22  1  0.153721  0.506213  0.918345  1
  Te  Te23  1  0.656226  0.994966  0.082185  1
