# generated using pymatgen
data_Nd3Dy3Co16(P6W)2
_symmetry_space_group_name_H-M   'P 1'
_cell_length_a   3.74419300
_cell_length_b   10.60467372
_cell_length_c   12.32208587
_cell_angle_alpha   89.93577481
_cell_angle_beta   90.00000000
_cell_angle_gamma   90.00000000
_symmetry_Int_Tables_number   1
_chemical_formula_structural   Nd3Dy3Co16(P6W)2
_chemical_formula_sum   'Nd3 Dy3 Co16 P12 W2'
_cell_volume   489.25975794
_cell_formula_units_Z   1
loop_
 _symmetry_equiv_pos_site_id
 _symmetry_equiv_pos_as_xyz
  1  'x, y, z'
loop_
 _atom_site_type_symbol
 _atom_site_label
 _atom_site_symmetry_multiplicity
 _atom_site_fract_x
 _atom_site_fract_y
 _atom_site_fract_z
 _atom_site_occupancy
  Nd  Nd0  1  0.000000  0.500480  0.524086  1
  Nd  Nd1  1  0.500000  0.999730  0.475060  1
  Nd  Nd2  1  0.000000  0.319775  0.794940  1
  Dy  Dy3  1  0.500000  0.819011  0.204711  1
  Dy  Dy4  1  0.500000  0.180520  0.203560  1
  Dy  Dy5  1  0.000000  0.681923  0.796166  1
  Co  Co6  1  0.500000  0.502984  0.703787  1
  Co  Co7  1  0.000000  0.999400  0.295591  1
  Co  Co8  1  0.000000  0.501923  0.988562  1
  Co  Co9  1  0.500000  0.998505  0.013988  1
  Co  Co10  1  0.500000  0.332769  0.992864  1
  Co  Co11  1  0.500000  0.669025  0.991740  1
  Co  Co12  1  0.000000  0.166195  0.010680  1
  Co  Co13  1  0.000000  0.832291  0.010347  1
  Co  Co14  1  0.500000  0.295280  0.427980  1
  Co  Co15  1  0.500000  0.704748  0.429896  1
  Co  Co16  1  0.000000  0.203979  0.567226  1
  Co  Co17  1  0.000000  0.795605  0.569885  1
  Co  Co18  1  0.500000  0.878339  0.710318  1
  Co  Co19  1  0.500000  0.118883  0.708450  1
  Co  Co20  1  0.000000  0.621035  0.290284  1
  Co  Co21  1  0.000000  0.378694  0.288987  1
  P  P22  1  0.500000  0.503041  0.883929  1
  P  P23  1  0.000000  0.999155  0.118819  1
  P  P24  1  0.500000  0.499795  0.346001  1
  P  P25  1  0.000000  0.999978  0.653857  1
  P  P26  1  0.500000  0.307092  0.613029  1
  P  P27  1  0.500000  0.692627  0.617056  1
  P  P28  1  0.000000  0.191227  0.381236  1
  P  P29  1  0.000000  0.808041  0.382916  1
  P  P30  1  0.500000  0.844362  0.893678  1
  P  P31  1  0.500000  0.153335  0.895570  1
  P  P32  1  0.000000  0.656332  0.107801  1
  P  P33  1  0.000000  0.344350  0.106334  1
  W  W34  1  0.500000  0.500710  0.154527  1
  W  W35  1  0.000000  0.998863  0.846138  1
