# generated using pymatgen
data_TbYb7Y3In9Pd4
_symmetry_space_group_name_H-M   'P 1'
_cell_length_a   13.35987385
_cell_length_b   13.35987397
_cell_length_c   3.67126300
_cell_angle_alpha   90.00000000
_cell_angle_beta   90.00000000
_cell_angle_gamma   111.71761762
_symmetry_Int_Tables_number   1
_chemical_formula_structural   TbYb7Y3In9Pd4
_chemical_formula_sum   'Tb1 Yb7 Y3 In9 Pd4'
_cell_volume   608.75807531
_cell_formula_units_Z   1
loop_
 _symmetry_equiv_pos_site_id
 _symmetry_equiv_pos_as_xyz
  1  'x, y, z'
loop_
 _atom_site_type_symbol
 _atom_site_label
 _atom_site_symmetry_multiplicity
 _atom_site_fract_x
 _atom_site_fract_y
 _atom_site_fract_z
 _atom_site_occupancy
  Tb  Tb0  1  0.688559  0.688559  0.000000  1
  Yb  Yb1  1  0.413305  0.068727  0.000000  1
  Yb  Yb2  1  0.586594  0.931255  0.000000  1
  Yb  Yb3  1  0.068727  0.413305  0.000000  1
  Yb  Yb4  1  0.931255  0.586594  0.000000  1
  Yb  Yb5  1  0.159206  0.840824  0.000000  1
  Yb  Yb6  1  0.840824  0.159206  0.000000  1
  Yb  Yb7  1  0.999973  0.999973  0.000000  1
  Y  Y8  1  0.378177  0.621815  0.000000  1
  Y  Y9  1  0.621815  0.378177  0.000000  1
  Y  Y10  1  0.311264  0.311264  0.000000  1
  In  In11  1  0.368296  0.833406  0.500000  1
  In  In12  1  0.631740  0.166604  0.500000  1
  In  In13  1  0.833406  0.368296  0.500000  1
  In  In14  1  0.166604  0.631740  0.500000  1
  In  In15  1  0.218321  0.079836  0.500000  1
  In  In16  1  0.781716  0.920352  0.500000  1
  In  In17  1  0.079836  0.218321  0.500000  1
  In  In18  1  0.920352  0.781716  0.500000  1
  In  In19  1  0.499732  0.499732  0.500000  1
  Pd  Pd20  1  0.447168  0.244814  0.500000  1
  Pd  Pd21  1  0.553347  0.754968  0.500000  1
  Pd  Pd22  1  0.244814  0.447168  0.500000  1
  Pd  Pd23  1  0.754968  0.553347  0.500000  1
