# generated using pymatgen
data_Yb2TlAg2Ge
_symmetry_space_group_name_H-M   'P 1'
_cell_length_a   5.96868632
_cell_length_b   5.93267257
_cell_length_c   5.93267300
_cell_angle_alpha   133.42366145
_cell_angle_beta   104.42522504
_cell_angle_gamma   93.53223634
_symmetry_Int_Tables_number   1
_chemical_formula_structural   Yb2TlAg2Ge
_chemical_formula_sum   'Yb2 Tl1 Ag2 Ge1'
_cell_volume   139.43569231
_cell_formula_units_Z   1
loop_
 _symmetry_equiv_pos_site_id
 _symmetry_equiv_pos_as_xyz
  1  'x, y, z'
loop_
 _atom_site_type_symbol
 _atom_site_label
 _atom_site_symmetry_multiplicity
 _atom_site_fract_x
 _atom_site_fract_y
 _atom_site_fract_z
 _atom_site_occupancy
  Yb  Yb0  1  0.290886  0.292428  0.998457  1
  Yb  Yb1  1  0.865951  0.365644  0.500307  1
  Tl  Tl2  1  0.466681  0.664380  0.802302  1
  Ag  Ag3  1  0.252813  0.973621  0.279192  1
  Ag  Ag4  1  0.718496  0.007100  0.711396  1
  Ge  Ge5  1  0.866972  0.658626  0.208346  1
