# generated using pymatgen
data_NaTl2(P3Pd10)2
_symmetry_space_group_name_H-M   'P 1'
_cell_length_a   8.62104031
_cell_length_b   8.62103976
_cell_length_c   8.62104000
_cell_angle_alpha   59.99999909
_cell_angle_beta   60.00000117
_cell_angle_gamma   59.99999206
_symmetry_Int_Tables_number   1
_chemical_formula_structural   NaTl2(P3Pd10)2
_chemical_formula_sum   'Na1 Tl2 P6 Pd20'
_cell_volume   453.06859641
_cell_formula_units_Z   1
loop_
 _symmetry_equiv_pos_site_id
 _symmetry_equiv_pos_as_xyz
  1  'x, y, z'
loop_
 _atom_site_type_symbol
 _atom_site_label
 _atom_site_symmetry_multiplicity
 _atom_site_fract_x
 _atom_site_fract_y
 _atom_site_fract_z
 _atom_site_occupancy
  Na  Na0  1  0.000000  0.000000  0.000000  1
  Tl  Tl1  1  0.250000  0.250000  0.250000  1
  Tl  Tl2  1  0.750000  0.750000  0.750000  1
  P  P3  1  0.736826  0.736826  0.263174  1
  P  P4  1  0.263174  0.263174  0.736826  1
  P  P5  1  0.263174  0.736826  0.736826  1
  P  P6  1  0.736826  0.263174  0.736826  1
  P  P7  1  0.263174  0.736826  0.263174  1
  P  P8  1  0.736826  0.263174  0.263174  1
  Pd  Pd9  1  0.615749  0.615749  0.615749  1
  Pd  Pd10  1  0.384251  0.847247  0.384251  1
  Pd  Pd11  1  0.655610  0.344390  0.000000  1
  Pd  Pd12  1  0.000000  0.344390  0.655610  1
  Pd  Pd13  1  0.655610  0.000000  0.000000  1
  Pd  Pd14  1  0.615749  0.615749  0.152753  1
  Pd  Pd15  1  0.000000  0.000000  0.655610  1
  Pd  Pd16  1  0.000000  0.344390  0.000000  1
  Pd  Pd17  1  0.655610  0.000000  0.344390  1
  Pd  Pd18  1  0.344390  0.000000  0.000000  1
  Pd  Pd19  1  0.000000  0.655610  0.000000  1
  Pd  Pd20  1  0.344390  0.000000  0.655610  1
  Pd  Pd21  1  0.000000  0.655610  0.344390  1
  Pd  Pd22  1  0.344390  0.655610  0.000000  1
  Pd  Pd23  1  0.152753  0.615749  0.615749  1
  Pd  Pd24  1  0.384251  0.384251  0.384251  1
  Pd  Pd25  1  0.847247  0.384251  0.384251  1
  Pd  Pd26  1  0.384251  0.384251  0.847247  1
  Pd  Pd27  1  0.615749  0.152753  0.615749  1
  Pd  Pd28  1  0.000000  0.000000  0.344390  1
