# generated using pymatgen
data_Tm4Mn4Fe5Ni11P12
_symmetry_space_group_name_H-M   'P 1'
_cell_length_a   3.68086900
_cell_length_b   10.34977425
_cell_length_c   11.88657510
_cell_angle_alpha   89.69198261
_cell_angle_beta   90.00000000
_cell_angle_gamma   90.00000000
_symmetry_Int_Tables_number   1
_chemical_formula_structural   Tm4Mn4Fe5Ni11P12
_chemical_formula_sum   'Tm4 Mn4 Fe5 Ni11 P12'
_cell_volume   452.82636134
_cell_formula_units_Z   1
loop_
 _symmetry_equiv_pos_site_id
 _symmetry_equiv_pos_as_xyz
  1  'x, y, z'
loop_
 _atom_site_type_symbol
 _atom_site_label
 _atom_site_symmetry_multiplicity
 _atom_site_fract_x
 _atom_site_fract_y
 _atom_site_fract_z
 _atom_site_occupancy
  Tm  Tm0  1  0.250000  0.576961  0.707079  1
  Tm  Tm1  1  0.250000  0.921183  0.205095  1
  Tm  Tm2  1  0.750000  0.420400  0.294569  1
  Tm  Tm3  1  0.750000  0.081933  0.793329  1
  Mn  Mn4  1  0.250000  0.708543  0.989755  1
  Mn  Mn5  1  0.250000  0.790502  0.490690  1
  Mn  Mn6  1  0.750000  0.294416  0.010363  1
  Mn  Mn7  1  0.750000  0.209124  0.511375  1
  Fe  Fe8  1  0.750000  0.377078  0.799456  1
  Fe  Fe9  1  0.250000  0.463704  0.933076  1
  Fe  Fe10  1  0.250000  0.035708  0.429688  1
  Fe  Fe11  1  0.750000  0.537565  0.070937  1
  Fe  Fe12  1  0.750000  0.962195  0.569377  1
  Ni  Ni13  1  0.250000  0.407940  0.487218  1
  Ni  Ni14  1  0.250000  0.095132  0.986137  1
  Ni  Ni15  1  0.750000  0.591186  0.512343  1
  Ni  Ni16  1  0.750000  0.908447  0.011110  1
  Ni  Ni17  1  0.250000  0.225035  0.177376  1
  Ni  Ni18  1  0.250000  0.274379  0.672802  1
  Ni  Ni19  1  0.750000  0.773294  0.823554  1
  Ni  Ni20  1  0.750000  0.724981  0.322819  1
  Ni  Ni21  1  0.250000  0.878570  0.702721  1
  Ni  Ni22  1  0.250000  0.621570  0.203132  1
  Ni  Ni23  1  0.750000  0.121322  0.297523  1
  P  P24  1  0.250000  0.425887  0.112538  1
  P  P25  1  0.250000  0.073797  0.610278  1
  P  P26  1  0.750000  0.570063  0.887594  1
  P  P27  1  0.750000  0.924666  0.388725  1
  P  P28  1  0.250000  0.271868  0.862762  1
  P  P29  1  0.250000  0.233121  0.369594  1
  P  P30  1  0.750000  0.734306  0.131141  1
  P  P31  1  0.750000  0.765350  0.632131  1
  P  P32  1  0.250000  0.600904  0.392535  1
  P  P33  1  0.250000  0.899716  0.892319  1
  P  P34  1  0.750000  0.397888  0.611908  1
  P  P35  1  0.750000  0.101266  0.106954  1
