# generated using pymatgen
data_Ho5Er3(CdRu)2
_symmetry_space_group_name_H-M   'P 1'
_cell_length_a   9.54488331
_cell_length_b   9.54491767
_cell_length_c   9.54491716
_cell_angle_alpha   59.99976567
_cell_angle_beta   60.00011580
_cell_angle_gamma   60.00011664
_symmetry_Int_Tables_number   1
_chemical_formula_structural   Ho5Er3(CdRu)2
_chemical_formula_sum   'Ho10 Er6 Cd4 Ru4'
_cell_volume   614.89359560
_cell_formula_units_Z   2
loop_
 _symmetry_equiv_pos_site_id
 _symmetry_equiv_pos_as_xyz
  1  'x, y, z'
loop_
 _atom_site_type_symbol
 _atom_site_label
 _atom_site_symmetry_multiplicity
 _atom_site_fract_x
 _atom_site_fract_y
 _atom_site_fract_z
 _atom_site_occupancy
  Ho  Ho0  1  0.438958  0.061042  0.438958  1
  Ho  Ho1  1  0.061042  0.438958  0.061042  1
  Ho  Ho2  1  0.438958  0.438958  0.061042  1
  Ho  Ho3  1  0.061042  0.061042  0.438958  1
  Ho  Ho4  1  0.189320  0.810680  0.810680  1
  Ho  Ho5  1  0.810680  0.189320  0.189320  1
  Ho  Ho6  1  0.810703  0.189297  0.810703  1
  Ho  Ho7  1  0.189297  0.810703  0.189297  1
  Ho  Ho8  1  0.810703  0.810703  0.189297  1
  Ho  Ho9  1  0.189297  0.189297  0.810703  1
  Er  Er10  1  0.596735  0.596423  0.596423  1
  Er  Er11  1  0.596423  0.596735  0.210419  1
  Er  Er12  1  0.596423  0.210419  0.596735  1
  Er  Er13  1  0.210419  0.596423  0.596423  1
  Er  Er14  1  0.060459  0.439541  0.439541  1
  Er  Er15  1  0.439541  0.060459  0.060459  1
  Cd  Cd16  1  0.830347  0.830737  0.830737  1
  Cd  Cd17  1  0.830737  0.830347  0.508176  1
  Cd  Cd18  1  0.830737  0.508176  0.830347  1
  Cd  Cd19  1  0.508176  0.830737  0.830737  1
  Ru  Ru20  1  0.389241  0.389946  0.389946  1
  Ru  Ru21  1  0.389946  0.389241  0.830868  1
  Ru  Ru22  1  0.389946  0.830868  0.389241  1
  Ru  Ru23  1  0.830868  0.389946  0.389946  1
