# generated using pymatgen
data_Ho4Hf3NpF28
_symmetry_space_group_name_H-M   'P 1'
_cell_length_a   5.69534272
_cell_length_b   9.02377323
_cell_length_c   12.13639200
_cell_angle_alpha   62.44649910
_cell_angle_beta   89.92623925
_cell_angle_gamma   90.01257999
_symmetry_Int_Tables_number   1
_chemical_formula_structural   Ho4Hf3NpF28
_chemical_formula_sum   'Ho4 Hf3 Np1 F28'
_cell_volume   552.98667401
_cell_formula_units_Z   1
loop_
 _symmetry_equiv_pos_site_id
 _symmetry_equiv_pos_as_xyz
  1  'x, y, z'
loop_
 _atom_site_type_symbol
 _atom_site_label
 _atom_site_symmetry_multiplicity
 _atom_site_fract_x
 _atom_site_fract_y
 _atom_site_fract_z
 _atom_site_occupancy
  Ho  Ho0  1  0.757051  0.810210  0.767819  1
  Ho  Ho1  1  0.254634  0.182989  0.738263  1
  Ho  Ho2  1  0.242819  0.184162  0.230288  1
  Ho  Ho3  1  0.743735  0.819016  0.265113  1
  Hf  Hf4  1  0.754497  0.274283  0.955369  1
  Hf  Hf5  1  0.257591  0.725118  0.545793  1
  Hf  Hf6  1  0.244558  0.725856  0.045197  1
  Np  Np7  1  0.743832  0.269524  0.459178  1
  F  F8  1  0.464903  0.711881  0.921396  1
  F  F9  1  0.956623  0.296962  0.595792  1
  F  F10  1  0.529572  0.290045  0.075565  1
  F  F11  1  0.038450  0.711771  0.421446  1
  F  F12  1  0.415424  0.278254  0.548483  1
  F  F13  1  0.954712  0.721701  0.950740  1
  F  F14  1  0.547851  0.721327  0.451021  1
  F  F15  1  0.043502  0.280609  0.048941  1
  F  F16  1  0.770018  0.523379  0.860315  1
  F  F17  1  0.275472  0.476288  0.643802  1
  F  F18  1  0.229850  0.477299  0.137670  1
  F  F19  1  0.728940  0.537807  0.350792  1
  F  F20  1  0.759493  0.025529  0.057853  1
  F  F21  1  0.262386  0.974610  0.443374  1
  F  F22  1  0.243192  0.975422  0.942844  1
  F  F23  1  0.739744  0.000896  0.559604  1
  F  F24  1  0.988916  0.727365  0.651987  1
  F  F25  1  0.488630  0.266238  0.850729  1
  F  F26  1  0.046845  0.271137  0.350092  1
  F  F27  1  0.514440  0.737360  0.146216  1
  F  F28  1  0.035517  0.750168  0.170491  1
  F  F29  1  0.542435  0.254404  0.312555  1
  F  F30  1  0.969537  0.253044  0.832185  1
  F  F31  1  0.463367  0.740751  0.675836  1
  F  F32  1  0.424066  0.970967  0.233235  1
  F  F33  1  0.923059  0.029785  0.267773  1
  F  F34  1  0.575243  0.029595  0.759448  1
  F  F35  1  0.069096  0.974249  0.732797  1
