# generated using pymatgen
data_Li2MnCrNi9P7W
_symmetry_space_group_name_H-M   'P 1'
_cell_length_a   9.08459400
_cell_length_b   9.09131013
_cell_length_c   3.59093200
_cell_angle_alpha   90.00000000
_cell_angle_beta   90.00000000
_cell_angle_gamma   119.97758822
_symmetry_Int_Tables_number   1
_chemical_formula_structural   Li2MnCrNi9P7W
_chemical_formula_sum   'Li2 Mn1 Cr1 Ni9 P7 W1'
_cell_volume   256.90221214
_cell_formula_units_Z   1
loop_
 _symmetry_equiv_pos_site_id
 _symmetry_equiv_pos_as_xyz
  1  'x, y, z'
loop_
 _atom_site_type_symbol
 _atom_site_label
 _atom_site_symmetry_multiplicity
 _atom_site_fract_x
 _atom_site_fract_y
 _atom_site_fract_z
 _atom_site_occupancy
  Li  Li0  1  0.333708  0.664698  0.000000  1
  Li  Li1  1  0.669047  0.333254  0.500000  1
  Mn  Mn2  1  0.878537  0.787022  0.500000  1
  Cr  Cr3  1  0.901296  0.122515  0.500000  1
  Ni  Ni4  1  0.716221  0.876035  0.000000  1
  Ni  Ni5  1  0.156920  0.282728  0.000000  1
  Ni  Ni6  1  0.122821  0.836089  0.000000  1
  Ni  Ni7  1  0.627710  0.565577  0.000000  1
  Ni  Ni8  1  0.936702  0.375882  0.000000  1
  Ni  Ni9  1  0.438579  0.062625  0.000000  1
  Ni  Ni10  1  0.561454  0.944743  0.500000  1
  Ni  Ni11  1  0.384824  0.444542  0.500000  1
  Ni  Ni12  1  0.049656  0.612736  0.500000  1
  P  P13  1  0.594425  0.710759  0.500000  1
  P  P14  1  0.117221  0.410422  0.500000  1
  P  P15  1  0.292093  0.873269  0.500000  1
  P  P16  1  0.993156  0.993006  0.000000  1
  P  P17  1  0.879310  0.590257  0.000000  1
  P  P18  1  0.709573  0.120434  0.000000  1
  P  P19  1  0.417501  0.297457  0.000000  1
  W  W20  1  0.219244  0.095951  0.500000  1
