# generated using pymatgen
data_Li4Ca7TbIn4
_symmetry_space_group_name_H-M   'P 1'
_cell_length_a   7.55673401
_cell_length_b   5.49196000
_cell_length_c   10.99014602
_cell_angle_alpha   90.00000000
_cell_angle_beta   90.00624521
_cell_angle_gamma   90.00000000
_symmetry_Int_Tables_number   1
_chemical_formula_structural   Li4Ca7TbIn4
_chemical_formula_sum   'Li4 Ca7 Tb1 In4'
_cell_volume   456.10513447
_cell_formula_units_Z   1
loop_
 _symmetry_equiv_pos_site_id
 _symmetry_equiv_pos_as_xyz
  1  'x, y, z'
loop_
 _atom_site_type_symbol
 _atom_site_label
 _atom_site_symmetry_multiplicity
 _atom_site_fract_x
 _atom_site_fract_y
 _atom_site_fract_z
 _atom_site_occupancy
  Li  Li0  1  0.243366  0.250001  0.121359  1
  Li  Li1  1  0.753900  0.750001  0.379585  1
  Li  Li2  1  0.250261  0.250001  0.621204  1
  Li  Li3  1  0.753321  0.750001  0.877136  1
  Ca  Ca4  1  0.502125  0.750001  0.126223  1
  Ca  Ca5  1  0.999538  0.250001  0.373485  1
  Ca  Ca6  1  0.500116  0.250001  0.373208  1
  Ca  Ca7  1  0.498775  0.750001  0.625990  1
  Ca  Ca8  1  0.999250  0.750001  0.626182  1
  Ca  Ca9  1  0.500147  0.250001  0.874225  1
  Ca  Ca10  1  0.999652  0.250001  0.873784  1
  Tb  Tb11  1  0.000648  0.750001  0.126044  1
  In  In12  1  0.763015  0.250001  0.123943  1
  In  In13  1  0.243370  0.750001  0.370557  1
  In  In14  1  0.748758  0.250001  0.623420  1
  In  In15  1  0.243758  0.750001  0.883656  1
