# generated using pymatgen
data_PaTiCuS4
_symmetry_space_group_name_H-M   'P 1'
_cell_length_a   7.42555214
_cell_length_b   7.42555196
_cell_length_c   7.42555207
_cell_angle_alpha   122.37818147
_cell_angle_beta   116.88372817
_cell_angle_gamma   90.70552339
_symmetry_Int_Tables_number   1
_chemical_formula_structural   PaTiCuS4
_chemical_formula_sum   'Pa2 Ti2 Cu2 S8'
_cell_volume   290.28166954
_cell_formula_units_Z   2
loop_
 _symmetry_equiv_pos_site_id
 _symmetry_equiv_pos_as_xyz
  1  'x, y, z'
loop_
 _atom_site_type_symbol
 _atom_site_label
 _atom_site_symmetry_multiplicity
 _atom_site_fract_x
 _atom_site_fract_y
 _atom_site_fract_z
 _atom_site_occupancy
  Pa  Pa0  1  0.000000  0.000000  0.000000  1
  Pa  Pa1  1  0.500000  0.000000  0.500000  1
  Ti  Ti2  1  0.000000  0.000000  0.500000  1
  Ti  Ti3  1  0.000000  0.500000  0.000000  1
  Cu  Cu4  1  0.388881  0.638881  0.750000  1
  Cu  Cu5  1  0.611119  0.361119  0.250000  1
  S  S6  1  0.240520  0.732860  0.992340  1
  S  S7  1  0.240520  0.248179  0.507660  1
  S  S8  1  0.224938  0.743861  0.481077  1
  S  S9  1  0.762783  0.743861  0.018923  1
  S  S10  1  0.759480  0.267140  0.007660  1
  S  S11  1  0.759480  0.751821  0.492340  1
  S  S12  1  0.775062  0.256139  0.518923  1
  S  S13  1  0.237217  0.256139  0.981077  1
