# generated using pymatgen
data_TmSc4Si7Pt9
_symmetry_space_group_name_H-M   'P 1'
_cell_length_a   10.04374300
_cell_length_b   10.04374224
_cell_length_c   3.94095900
_cell_angle_alpha   90.00000000
_cell_angle_beta   90.00000000
_cell_angle_gamma   119.99999920
_symmetry_Int_Tables_number   1
_chemical_formula_structural   TmSc4Si7Pt9
_chemical_formula_sum   'Tm1 Sc4 Si7 Pt9'
_cell_volume   344.28943971
_cell_formula_units_Z   1
loop_
 _symmetry_equiv_pos_site_id
 _symmetry_equiv_pos_as_xyz
  1  'x, y, z'
loop_
 _atom_site_type_symbol
 _atom_site_label
 _atom_site_symmetry_multiplicity
 _atom_site_fract_x
 _atom_site_fract_y
 _atom_site_fract_z
 _atom_site_occupancy
  Tm  Tm0  1  0.333333  0.666667  0.500000  1
  Sc  Sc1  1  0.000000  0.000000  0.000000  1
  Sc  Sc2  1  0.895681  0.458450  0.500000  1
  Sc  Sc3  1  0.562769  0.104319  0.500000  1
  Sc  Sc4  1  0.541550  0.437231  0.500000  1
  Si  Si5  1  0.239896  0.189577  0.500000  1
  Si  Si6  1  0.810423  0.050321  0.500000  1
  Si  Si7  1  0.949679  0.760104  0.500000  1
  Si  Si8  1  0.556242  0.647718  0.000000  1
  Si  Si9  1  0.352282  0.908522  0.000000  1
  Si  Si10  1  0.091478  0.443758  0.000000  1
  Si  Si11  1  0.666667  0.333333  0.000000  1
  Pt  Pt12  1  0.217206  0.935983  0.500000  1
  Pt  Pt13  1  0.064017  0.281224  0.500000  1
  Pt  Pt14  1  0.718776  0.782794  0.500000  1
  Pt  Pt15  1  0.315225  0.415026  0.000000  1
  Pt  Pt16  1  0.584974  0.900200  0.000000  1
  Pt  Pt17  1  0.099800  0.684775  0.000000  1
  Pt  Pt18  1  0.382693  0.171729  0.000000  1
  Pt  Pt19  1  0.828271  0.210964  0.000000  1
  Pt  Pt20  1  0.789036  0.617307  0.000000  1
