# generated using pymatgen
data_YEr5Al24GaOs7
_symmetry_space_group_name_H-M   'P 1'
_cell_length_a   8.84970904
_cell_length_b   8.84986118
_cell_length_c   9.53595364
_cell_angle_alpha   90.04932557
_cell_angle_beta   89.91438840
_cell_angle_gamma   119.86844112
_symmetry_Int_Tables_number   1
_chemical_formula_structural   YEr5Al24GaOs7
_chemical_formula_sum   'Y1 Er5 Al24 Ga1 Os7'
_cell_volume   647.64040053
_cell_formula_units_Z   1
loop_
 _symmetry_equiv_pos_site_id
 _symmetry_equiv_pos_as_xyz
  1  'x, y, z'
loop_
 _atom_site_type_symbol
 _atom_site_label
 _atom_site_symmetry_multiplicity
 _atom_site_fract_x
 _atom_site_fract_y
 _atom_site_fract_z
 _atom_site_occupancy
  Y  Y0  1  0.191816  0.384315  0.245520  1
  Er  Er1  1  0.808043  0.613585  0.753865  1
  Er  Er2  1  0.613997  0.808438  0.246238  1
  Er  Er3  1  0.386303  0.191990  0.753778  1
  Er  Er4  1  0.195071  0.805346  0.255853  1
  Er  Er5  1  0.804979  0.195256  0.744188  1
  Al  Al6  1  0.327620  0.672959  0.022718  1
  Al  Al7  1  0.672354  0.327601  0.976576  1
  Al  Al8  1  0.665990  0.334095  0.519592  1
  Al  Al9  1  0.334199  0.666349  0.480957  1
  Al  Al10  1  0.162521  0.325676  0.572745  1
  Al  Al11  1  0.837605  0.674480  0.428013  1
  Al  Al12  1  0.674496  0.837424  0.572288  1
  Al  Al13  1  0.852128  0.678693  0.081956  1
  Al  Al14  1  0.325895  0.162360  0.428159  1
  Al  Al15  1  0.147779  0.321366  0.917319  1
  Al  Al16  1  0.162703  0.837102  0.576471  1
  Al  Al17  1  0.321521  0.147441  0.081683  1
  Al  Al18  1  0.836753  0.162760  0.423961  1
  Al  Al19  1  0.678743  0.852163  0.917868  1
  Al  Al20  1  0.836348  0.162921  0.076716  1
  Al  Al21  1  0.163043  0.836943  0.922774  1
  Al  Al22  1  0.561827  0.120939  0.249492  1
  Al  Al23  1  0.438175  0.879042  0.750528  1
  Al  Al24  1  0.878519  0.438418  0.249532  1
  Al  Al25  1  0.121051  0.561913  0.750478  1
  Al  Al26  1  0.566114  0.435028  0.258026  1
  Al  Al27  1  0.434707  0.565278  0.742294  1
  Al  Al28  1  0.998164  0.999348  0.250717  1
  Al  Al29  1  0.000929  0.998858  0.749270  1
  Ga  Ga30  1  0.500243  0.500159  0.999845  1
  Os  Os31  1  0.500140  0.000192  0.999934  1
  Os  Os32  1  0.999667  0.500262  0.999443  1
  Os  Os33  1  0.500171  0.000246  0.500126  1
  Os  Os34  1  0.999644  0.500273  0.500630  1
  Os  Os35  1  0.500471  0.500214  0.500465  1
  Os  Os36  1  0.000142  0.000256  0.000020  1
  Os  Os37  1  0.000128  0.000312  0.499963  1
