# generated using pymatgen
data_ErTm7Sc11Si16Au
_symmetry_space_group_name_H-M   'P 1'
_cell_length_a   6.96821118
_cell_length_b   7.35418261
_cell_length_c   13.94999721
_cell_angle_alpha   90.01733901
_cell_angle_beta   90.00976582
_cell_angle_gamma   89.84960013
_symmetry_Int_Tables_number   1
_chemical_formula_structural   ErTm7Sc11Si16Au
_chemical_formula_sum   'Er1 Tm7 Sc11 Si16 Au1'
_cell_volume   714.87204088
_cell_formula_units_Z   1
loop_
 _symmetry_equiv_pos_site_id
 _symmetry_equiv_pos_as_xyz
  1  'x, y, z'
loop_
 _atom_site_type_symbol
 _atom_site_label
 _atom_site_symmetry_multiplicity
 _atom_site_fract_x
 _atom_site_fract_y
 _atom_site_fract_z
 _atom_site_occupancy
  Er  Er0  1  0.010721  0.175959  0.095736  1
  Tm  Tm1  1  0.990789  0.813363  0.901910  1
  Tm  Tm2  1  0.486379  0.673397  0.902398  1
  Tm  Tm3  1  0.990794  0.813390  0.598040  1
  Tm  Tm4  1  0.509959  0.322553  0.095823  1
  Tm  Tm5  1  0.010737  0.176316  0.404111  1
  Tm  Tm6  1  0.509947  0.322461  0.404195  1
  Tm  Tm7  1  0.486365  0.673375  0.597579  1
  Sc  Sc8  1  0.838173  0.496723  0.250058  1
  Sc  Sc9  1  0.340683  0.004141  0.250046  1
  Sc  Sc10  1  0.655590  0.996561  0.750008  1
  Sc  Sc11  1  0.323493  0.182712  0.627504  1
  Sc  Sc12  1  0.671332  0.824032  0.375035  1
  Sc  Sc13  1  0.170504  0.678799  0.374002  1
  Sc  Sc14  1  0.671304  0.823918  0.125001  1
  Sc  Sc15  1  0.837564  0.327791  0.627412  1
  Sc  Sc16  1  0.323520  0.182673  0.872474  1
  Sc  Sc17  1  0.837515  0.327905  0.872583  1
  Sc  Sc18  1  0.170558  0.678744  0.126008  1
  Si  Si19  1  0.025169  0.090803  0.749977  1
  Si  Si20  1  0.969643  0.890684  0.250086  1
  Si  Si21  1  0.467697  0.614715  0.250005  1
  Si  Si22  1  0.534337  0.387194  0.749996  1
  Si  Si23  1  0.288302  0.877305  0.750012  1
  Si  Si24  1  0.713857  0.130966  0.250152  1
  Si  Si25  1  0.213296  0.369785  0.250129  1
  Si  Si26  1  0.777728  0.631831  0.749998  1
  Si  Si27  1  0.164188  0.459669  0.530537  1
  Si  Si28  1  0.841083  0.535015  0.462397  1
  Si  Si29  1  0.343265  0.965857  0.463220  1
  Si  Si30  1  0.840973  0.535240  0.037520  1
  Si  Si31  1  0.658902  0.033448  0.540524  1
  Si  Si32  1  0.164283  0.459966  0.969372  1
  Si  Si33  1  0.658824  0.033404  0.959450  1
  Si  Si34  1  0.343657  0.965679  0.036700  1
  Au  Au35  1  0.158865  0.523627  0.750004  1
