# generated using pymatgen
data_Ho10Al3Ru
_symmetry_space_group_name_H-M   'P 1'
_cell_length_a   9.47827400
_cell_length_b   9.47766050
_cell_length_c   9.60351201
_cell_angle_alpha   90.00060169
_cell_angle_beta   89.99630742
_cell_angle_gamma   120.00207662
_symmetry_Int_Tables_number   1
_chemical_formula_structural   Ho10Al3Ru
_chemical_formula_sum   'Ho20 Al6 Ru2'
_cell_volume   747.10567141
_cell_formula_units_Z   2
loop_
 _symmetry_equiv_pos_site_id
 _symmetry_equiv_pos_as_xyz
  1  'x, y, z'
loop_
 _atom_site_type_symbol
 _atom_site_label
 _atom_site_symmetry_multiplicity
 _atom_site_fract_x
 _atom_site_fract_y
 _atom_site_fract_z
 _atom_site_occupancy
  Ho  Ho0  1  0.000013  0.000043  0.499985  1
  Ho  Ho1  1  0.000042  0.000006  0.999995  1
  Ho  Ho2  1  0.206969  0.793154  0.439798  1
  Ho  Ho3  1  0.206897  0.413760  0.439802  1
  Ho  Ho4  1  0.586286  0.793176  0.439834  1
  Ho  Ho5  1  0.793042  0.206808  0.560143  1
  Ho  Ho6  1  0.793122  0.586252  0.560169  1
  Ho  Ho7  1  0.413728  0.206839  0.560155  1
  Ho  Ho8  1  0.793098  0.206823  0.939826  1
  Ho  Ho9  1  0.793141  0.586265  0.939832  1
  Ho  Ho10  1  0.413722  0.206822  0.939922  1
  Ho  Ho11  1  0.206896  0.793170  0.060195  1
  Ho  Ho12  1  0.206888  0.413766  0.060197  1
  Ho  Ho13  1  0.586238  0.793163  0.060131  1
  Ho  Ho14  1  0.539957  0.459950  0.250009  1
  Ho  Ho15  1  0.539956  0.079938  0.249983  1
  Ho  Ho16  1  0.919993  0.460005  0.249985  1
  Ho  Ho17  1  0.459999  0.540007  0.750017  1
  Ho  Ho18  1  0.460007  0.920023  0.750026  1
  Ho  Ho19  1  0.080030  0.540003  0.750006  1
  Al  Al20  1  0.889003  0.111018  0.249997  1
  Al  Al21  1  0.888980  0.777976  0.250003  1
  Al  Al22  1  0.222000  0.111012  0.249993  1
  Al  Al23  1  0.110996  0.889005  0.749980  1
  Al  Al24  1  0.110997  0.222004  0.749990  1
  Al  Al25  1  0.778008  0.888999  0.750015  1
  Ru  Ru26  1  0.333313  0.666515  0.250018  1
  Ru  Ru27  1  0.666678  0.333497  0.749996  1
