# generated using pymatgen
data_Li2Yb3InPt3
_symmetry_space_group_name_H-M   'P 1'
_cell_length_a   7.14765994
_cell_length_b   7.14766020
_cell_length_c   4.16866100
_cell_angle_alpha   90.00000000
_cell_angle_beta   90.00000000
_cell_angle_gamma   119.15367689
_symmetry_Int_Tables_number   1
_chemical_formula_structural   Li2Yb3InPt3
_chemical_formula_sum   'Li2 Yb3 In1 Pt3'
_cell_volume   185.99269476
_cell_formula_units_Z   1
loop_
 _symmetry_equiv_pos_site_id
 _symmetry_equiv_pos_as_xyz
  1  'x, y, z'
loop_
 _atom_site_type_symbol
 _atom_site_label
 _atom_site_symmetry_multiplicity
 _atom_site_fract_x
 _atom_site_fract_y
 _atom_site_fract_z
 _atom_site_occupancy
  Li  Li0  1  0.756633  0.999407  0.500000  1
  Li  Li1  1  0.999407  0.756633  0.500000  1
  Yb  Yb2  1  0.419493  0.000060  0.000000  1
  Yb  Yb3  1  0.000060  0.419493  0.000000  1
  Yb  Yb4  1  0.589992  0.589992  0.000000  1
  In  In5  1  0.238743  0.238743  0.500000  1
  Pt  Pt6  1  0.331563  0.667777  0.500000  1
  Pt  Pt7  1  0.667777  0.331563  0.500000  1
  Pt  Pt8  1  0.996333  0.996333  0.000000  1
