# generated using pymatgen
data_TlV3F9
_symmetry_space_group_name_H-M   'P 1'
_cell_length_a   7.62585405
_cell_length_b   7.66528102
_cell_length_c   7.73291500
_cell_angle_alpha   89.86031242
_cell_angle_beta   89.92207142
_cell_angle_gamma   59.83046750
_symmetry_Int_Tables_number   1
_chemical_formula_structural   TlV3F9
_chemical_formula_sum   'Tl2 V6 F18'
_cell_volume   390.79112328
_cell_formula_units_Z   2
loop_
 _symmetry_equiv_pos_site_id
 _symmetry_equiv_pos_as_xyz
  1  'x, y, z'
loop_
 _atom_site_type_symbol
 _atom_site_label
 _atom_site_symmetry_multiplicity
 _atom_site_fract_x
 _atom_site_fract_y
 _atom_site_fract_z
 _atom_site_occupancy
  Tl  Tl0  1  0.932300  0.533727  0.249163  1
  Tl  Tl1  1  0.065746  0.470292  0.749261  1
  V  V2  1  0.499078  0.000197  0.999616  1
  V  V3  1  0.499226  0.500031  0.999585  1
  V  V4  1  0.999385  0.000075  0.499648  1
  V  V5  1  0.999226  0.000252  0.999671  1
  V  V6  1  0.499500  0.499816  0.499454  1
  V  V7  1  0.499314  0.999935  0.499747  1
  F  F8  1  0.569425  0.503049  0.758600  1
  F  F9  1  0.429685  0.073357  0.258716  1
  F  F10  1  0.806406  0.285530  0.456252  1
  F  F11  1  0.207844  0.079627  0.549370  1
  F  F12  1  0.790585  0.288271  0.049761  1
  F  F13  1  0.192109  0.093003  0.956867  1
  F  F14  1  0.411452  0.285772  0.552918  1
  F  F15  1  0.587303  0.714176  0.446332  1
  F  F16  1  0.075718  0.961513  0.249559  1
  F  F17  1  0.922883  0.038239  0.749639  1
  F  F18  1  0.411139  0.302379  0.946415  1
  F  F19  1  0.587105  0.697956  0.052744  1
  F  F20  1  0.790877  0.920154  0.450141  1
  F  F21  1  0.192380  0.714243  0.542718  1
  F  F22  1  0.806339  0.907182  0.042409  1
  F  F23  1  0.207796  0.711855  0.949548  1
  F  F24  1  0.569230  0.926439  0.740726  1
  F  F25  1  0.429080  0.496715  0.240535  1
