# generated using pymatgen
data_SrLa5PrOsI12
_symmetry_space_group_name_H-M   'P 1'
_cell_length_a   10.16462884
_cell_length_b   10.30188675
_cell_length_c   10.16190698
_cell_angle_alpha   106.72353343
_cell_angle_beta   106.47455098
_cell_angle_gamma   106.24763715
_symmetry_Int_Tables_number   1
_chemical_formula_structural   SrLa5PrOsI12
_chemical_formula_sum   'Sr1 La5 Pr1 Os1 I12'
_cell_volume   898.41317763
_cell_formula_units_Z   1
loop_
 _symmetry_equiv_pos_site_id
 _symmetry_equiv_pos_as_xyz
  1  'x, y, z'
loop_
 _atom_site_type_symbol
 _atom_site_label
 _atom_site_symmetry_multiplicity
 _atom_site_fract_x
 _atom_site_fract_y
 _atom_site_fract_z
 _atom_site_occupancy
  Sr  Sr0  1  0.499632  0.499982  0.499438  1
  La  La1  1  0.295864  0.022072  0.096612  1
  La  La2  1  0.022702  0.097600  0.297171  1
  La  La3  1  0.977702  0.903754  0.703328  1
  La  La4  1  0.704220  0.977981  0.903437  1
  La  La5  1  0.898318  0.687928  0.977086  1
  Pr  Pr6  1  0.101228  0.308761  0.023217  1
  Os  Os7  1  0.999854  0.999425  0.000260  1
  I  I8  1  0.225719  0.679775  0.073614  1
  I  I9  1  0.453479  0.373290  0.146219  1
  I  I10  1  0.678900  0.073799  0.226083  1
  I  I11  1  0.927385  0.777069  0.322205  1
  I  I12  1  0.147076  0.454663  0.372435  1
  I  I13  1  0.376112  0.150536  0.457513  1
  I  I14  1  0.623963  0.849734  0.542631  1
  I  I15  1  0.852434  0.545291  0.624626  1
  I  I16  1  0.073443  0.225126  0.680991  1
  I  I17  1  0.321216  0.926414  0.773917  1
  I  I18  1  0.543720  0.626816  0.852148  1
  I  I19  1  0.777032  0.319984  0.927069  1
