# generated using pymatgen
data_NdTh4Zr3(Ni4As3)4
_symmetry_space_group_name_H-M   'P 1'
_cell_length_a   12.86225000
_cell_length_b   12.86224892
_cell_length_c   4.02688200
_cell_angle_alpha   90.00000000
_cell_angle_beta   90.00000000
_cell_angle_gamma   120.00000278
_symmetry_Int_Tables_number   1
_chemical_formula_structural   NdTh4Zr3(Ni4As3)4
_chemical_formula_sum   'Nd1 Th4 Zr3 Ni16 As12'
_cell_volume   576.94362613
_cell_formula_units_Z   1
loop_
 _symmetry_equiv_pos_site_id
 _symmetry_equiv_pos_as_xyz
  1  'x, y, z'
loop_
 _atom_site_type_symbol
 _atom_site_label
 _atom_site_symmetry_multiplicity
 _atom_site_fract_x
 _atom_site_fract_y
 _atom_site_fract_z
 _atom_site_occupancy
  Nd  Nd0  1  0.333333  0.666667  0.000000  1
  Th  Th1  1  0.188883  0.189032  0.500000  1
  Th  Th2  1  0.810968  0.999850  0.500000  1
  Th  Th3  1  0.000150  0.811117  0.500000  1
  Th  Th4  1  0.666667  0.333333  0.000000  1
  Zr  Zr5  1  0.571487  0.572164  0.000000  1
  Zr  Zr6  1  0.427836  0.999322  0.000000  1
  Zr  Zr7  1  0.000678  0.428513  0.000000  1
  Ni  Ni8  1  0.726460  0.726490  0.500000  1
  Ni  Ni9  1  0.273510  0.999970  0.500000  1
  Ni  Ni10  1  0.000030  0.273540  0.500000  1
  Ni  Ni11  1  0.185879  0.375131  0.000000  1
  Ni  Ni12  1  0.624869  0.810748  0.000000  1
  Ni  Ni13  1  0.189252  0.814121  0.000000  1
  Ni  Ni14  1  0.810811  0.624356  0.000000  1
  Ni  Ni15  1  0.813544  0.189189  0.000000  1
  Ni  Ni16  1  0.375644  0.186456  0.000000  1
  Ni  Ni17  1  0.366968  0.485397  0.500000  1
  Ni  Ni18  1  0.514603  0.881572  0.500000  1
  Ni  Ni19  1  0.118428  0.633032  0.500000  1
  Ni  Ni20  1  0.880695  0.513793  0.500000  1
  Ni  Ni21  1  0.633099  0.119305  0.500000  1
  Ni  Ni22  1  0.486207  0.366901  0.500000  1
  Ni  Ni23  1  0.000000  0.000000  0.000000  1
  As  As24  1  0.819230  0.819294  0.000000  1
  As  As25  1  0.180706  0.999936  0.000000  1
  As  As26  1  0.000064  0.180770  0.000000  1
  As  As27  1  0.172467  0.474924  0.500000  1
  As  As28  1  0.525076  0.697543  0.500000  1
  As  As29  1  0.302457  0.827533  0.500000  1
  As  As30  1  0.697032  0.525668  0.500000  1
  As  As31  1  0.828636  0.302968  0.500000  1
  As  As32  1  0.474332  0.171364  0.500000  1
  As  As33  1  0.366803  0.367180  0.000000  1
  As  As34  1  0.632820  0.999623  0.000000  1
  As  As35  1  0.000377  0.633197  0.000000  1
