# generated using pymatgen
data_Yb4CoOs7
_symmetry_space_group_name_H-M   'P 1'
_cell_length_a   5.31379618
_cell_length_b   5.31379630
_cell_length_c   8.62290100
_cell_angle_alpha   90.00000000
_cell_angle_beta   90.00000000
_cell_angle_gamma   121.10528417
_symmetry_Int_Tables_number   1
_chemical_formula_structural   Yb4CoOs7
_chemical_formula_sum   'Yb4 Co1 Os7'
_cell_volume   208.47226266
_cell_formula_units_Z   1
loop_
 _symmetry_equiv_pos_site_id
 _symmetry_equiv_pos_as_xyz
  1  'x, y, z'
loop_
 _atom_site_type_symbol
 _atom_site_label
 _atom_site_symmetry_multiplicity
 _atom_site_fract_x
 _atom_site_fract_y
 _atom_site_fract_z
 _atom_site_occupancy
  Yb  Yb0  1  0.334213  0.665787  0.432156  1
  Yb  Yb1  1  0.669312  0.330688  0.563266  1
  Yb  Yb2  1  0.669312  0.330688  0.936734  1
  Yb  Yb3  1  0.334213  0.665787  0.067844  1
  Co  Co4  1  0.818704  0.181296  0.250000  1
  Os  Os5  1  0.010294  0.989706  0.493630  1
  Os  Os6  1  0.010294  0.989706  0.006370  1
  Os  Os7  1  0.820715  0.658901  0.250000  1
  Os  Os8  1  0.341099  0.179285  0.250000  1
  Os  Os9  1  0.167778  0.832222  0.750000  1
  Os  Os10  1  0.170228  0.346162  0.750000  1
  Os  Os11  1  0.653838  0.829772  0.750000  1
