# generated using pymatgen
data_Ba(AsO2)2
_symmetry_space_group_name_H-M   'P 1'
_cell_length_a   6.75164379
_cell_length_b   4.75632109
_cell_length_c   19.27663530
_cell_angle_alpha   90.00468478
_cell_angle_beta   106.48486167
_cell_angle_gamma   89.99783836
_symmetry_Int_Tables_number   1
_chemical_formula_structural   Ba(AsO2)2
_chemical_formula_sum   'Ba4 As8 O16'
_cell_volume   593.58491194
_cell_formula_units_Z   4
loop_
 _symmetry_equiv_pos_site_id
 _symmetry_equiv_pos_as_xyz
  1  'x, y, z'
loop_
 _atom_site_type_symbol
 _atom_site_label
 _atom_site_symmetry_multiplicity
 _atom_site_fract_x
 _atom_site_fract_y
 _atom_site_fract_z
 _atom_site_occupancy
  Ba  Ba0  1  0.255463  0.257620  0.006184  1
  Ba  Ba1  1  0.744944  0.742208  0.993524  1
  Ba  Ba2  1  0.755110  0.242393  0.506490  1
  Ba  Ba3  1  0.244495  0.757726  0.493801  1
  As  As4  1  0.839722  0.215142  0.155978  1
  As  As5  1  0.173131  0.711131  0.153224  1
  As  As6  1  0.326645  0.211412  0.346758  1
  As  As7  1  0.660071  0.715420  0.344028  1
  As  As8  1  0.339600  0.284758  0.656292  1
  As  As9  1  0.672982  0.788761  0.653488  1
  As  As10  1  0.827256  0.288738  0.846522  1
  As  As11  1  0.160623  0.784704  0.843710  1
  O  O12  1  0.659247  0.250987  0.071091  1
  O  O13  1  0.182865  0.768022  0.064484  1
  O  O14  1  0.080902  0.341914  0.134700  1
  O  O15  1  0.905793  0.839143  0.145018  1
  O  O16  1  0.593979  0.339426  0.354983  1
  O  O17  1  0.418807  0.842147  0.365251  1
  O  O18  1  0.316843  0.268181  0.435472  1
  O  O19  1  0.840532  0.751264  0.428889  1
  O  O20  1  0.159038  0.248898  0.571449  1
  O  O21  1  0.682681  0.731935  0.564779  1
  O  O22  1  0.580755  0.157995  0.634996  1
  O  O23  1  0.405682  0.660748  0.645329  1
  O  O24  1  0.094561  0.160718  0.854675  1
  O  O25  1  0.919536  0.657931  0.865049  1
  O  O26  1  0.817563  0.231802  0.935251  1
  O  O27  1  0.341180  0.748868  0.928579  1
