# generated using pymatgen
data_Nd3BIrO9
_symmetry_space_group_name_H-M   'P 1'
_cell_length_a   8.78046100
_cell_length_b   8.78046004
_cell_length_c   5.62034000
_cell_angle_alpha   90.00000000
_cell_angle_beta   90.00000000
_cell_angle_gamma   120.00003200
_symmetry_Int_Tables_number   1
_chemical_formula_structural   Nd3BIrO9
_chemical_formula_sum   'Nd6 B2 Ir2 O18'
_cell_volume   375.25602122
_cell_formula_units_Z   2
loop_
 _symmetry_equiv_pos_site_id
 _symmetry_equiv_pos_as_xyz
  1  'x, y, z'
loop_
 _atom_site_type_symbol
 _atom_site_label
 _atom_site_symmetry_multiplicity
 _atom_site_fract_x
 _atom_site_fract_y
 _atom_site_fract_z
 _atom_site_occupancy
  Nd  Nd0  1  0.353910  0.072665  0.201148  1
  Nd  Nd1  1  0.927336  0.281247  0.201148  1
  Nd  Nd2  1  0.718754  0.646090  0.201148  1
  Nd  Nd3  1  0.281247  0.353911  0.701147  1
  Nd  Nd4  1  0.072664  0.718754  0.701147  1
  Nd  Nd5  1  0.646090  0.927336  0.701147  1
  B  B6  1  0.000000  0.000000  0.367841  1
  B  B7  1  0.000000  0.000000  0.867840  1
  Ir  Ir8  1  0.333334  0.666667  0.251303  1
  Ir  Ir9  1  0.666666  0.333334  0.751304  1
  O  O10  1  0.536919  0.758111  0.048910  1
  O  O11  1  0.241889  0.778807  0.048910  1
  O  O12  1  0.221194  0.463082  0.048912  1
  O  O13  1  0.131183  0.174387  0.359821  1
  O  O14  1  0.043204  0.868817  0.359821  1
  O  O15  1  0.825612  0.956795  0.359821  1
  O  O16  1  0.130667  0.523689  0.468504  1
  O  O17  1  0.476311  0.606977  0.468504  1
  O  O18  1  0.393023  0.869332  0.468504  1
  O  O19  1  0.758111  0.221193  0.548911  1
  O  O20  1  0.463081  0.241888  0.548911  1
  O  O21  1  0.778806  0.536919  0.548911  1
  O  O22  1  0.174387  0.043204  0.859822  1
  O  O23  1  0.956795  0.131183  0.859822  1
  O  O24  1  0.868817  0.825612  0.859822  1
  O  O25  1  0.606976  0.130667  0.968502  1
  O  O26  1  0.869332  0.476310  0.968502  1
  O  O27  1  0.523689  0.393022  0.968504  1
