# generated using pymatgen
data_LiNd2Gd4CoBr12
_symmetry_space_group_name_H-M   'P 1'
_cell_length_a   9.43873605
_cell_length_b   9.27209944
_cell_length_c   9.27153500
_cell_angle_alpha   106.78306599
_cell_angle_beta   107.10288964
_cell_angle_gamma   107.26936601
_symmetry_Int_Tables_number   1
_chemical_formula_structural   LiNd2Gd4CoBr12
_chemical_formula_sum   'Li1 Nd2 Gd4 Co1 Br12'
_cell_volume   674.78863834
_cell_formula_units_Z   1
loop_
 _symmetry_equiv_pos_site_id
 _symmetry_equiv_pos_as_xyz
  1  'x, y, z'
loop_
 _atom_site_type_symbol
 _atom_site_label
 _atom_site_symmetry_multiplicity
 _atom_site_fract_x
 _atom_site_fract_y
 _atom_site_fract_z
 _atom_site_occupancy
  Li  Li0  1  0.500078  0.500827  0.499131  1
  Nd  Nd1  1  0.107966  0.314265  0.029723  1
  Nd  Nd2  1  0.324337  0.032142  0.115926  1
  Gd  Gd3  1  0.030390  0.108080  0.311316  1
  Gd  Gd4  1  0.969458  0.889259  0.687490  1
  Gd  Gd5  1  0.680897  0.967309  0.885690  1
  Gd  Gd6  1  0.889027  0.687514  0.968775  1
  Co  Co7  1  0.999543  0.998479  0.999024  1
  Br  Br8  1  0.212725  0.679808  0.070287  1
  Br  Br9  1  0.459963  0.382483  0.167346  1
  Br  Br10  1  0.688423  0.073259  0.217730  1
  Br  Br11  1  0.926023  0.780094  0.317414  1
  Br  Br12  1  0.165438  0.457203  0.382908  1
  Br  Br13  1  0.373920  0.169191  0.464088  1
  Br  Br14  1  0.626715  0.836100  0.543293  1
  Br  Br15  1  0.833796  0.542764  0.623382  1
  Br  Br16  1  0.070166  0.215432  0.676830  1
  Br  Br17  1  0.317454  0.926776  0.778286  1
  Br  Br18  1  0.546548  0.623185  0.836177  1
  Br  Br19  1  0.777136  0.315832  0.925184  1
