# generated using pymatgen
data_Tb8Co3Si12Ir
_symmetry_space_group_name_H-M   'P 1'
_cell_length_a   8.06031200
_cell_length_b   8.06031031
_cell_length_c   8.00108100
_cell_angle_alpha   90.00000000
_cell_angle_beta   90.00000000
_cell_angle_gamma   120.00000695
_symmetry_Int_Tables_number   1
_chemical_formula_structural   Tb8Co3Si12Ir
_chemical_formula_sum   'Tb8 Co3 Si12 Ir1'
_cell_volume   450.17656489
_cell_formula_units_Z   1
loop_
 _symmetry_equiv_pos_site_id
 _symmetry_equiv_pos_as_xyz
  1  'x, y, z'
loop_
 _atom_site_type_symbol
 _atom_site_label
 _atom_site_symmetry_multiplicity
 _atom_site_fract_x
 _atom_site_fract_y
 _atom_site_fract_z
 _atom_site_occupancy
  Tb  Tb0  1  0.507118  0.014236  0.251221  1
  Tb  Tb1  1  0.494670  0.989342  0.750212  1
  Tb  Tb2  1  0.985764  0.492882  0.251221  1
  Tb  Tb3  1  0.010658  0.505330  0.750212  1
  Tb  Tb4  1  0.507118  0.492882  0.251221  1
  Tb  Tb5  1  0.494670  0.505330  0.750212  1
  Tb  Tb6  1  0.000000  0.000000  0.252555  1
  Tb  Tb7  1  0.000000  0.000000  0.748096  1
  Co  Co8  1  0.666667  0.333333  0.969214  1
  Co  Co9  1  0.666667  0.333333  0.533513  1
  Co  Co10  1  0.333333  0.666667  0.463806  1
  Si  Si11  1  0.165671  0.331342  0.000024  1
  Si  Si12  1  0.827776  0.655551  0.999084  1
  Si  Si13  1  0.668658  0.834329  0.000024  1
  Si  Si14  1  0.828673  0.657347  0.501177  1
  Si  Si15  1  0.344449  0.172224  0.999084  1
  Si  Si16  1  0.171917  0.343833  0.499773  1
  Si  Si17  1  0.165671  0.834329  0.000024  1
  Si  Si18  1  0.342653  0.171327  0.501177  1
  Si  Si19  1  0.827776  0.172224  0.999084  1
  Si  Si20  1  0.656167  0.828083  0.499773  1
  Si  Si21  1  0.828673  0.171327  0.501177  1
  Si  Si22  1  0.171917  0.828083  0.499773  1
  Ir  Ir23  1  0.333333  0.666667  0.028345  1
