# generated using pymatgen
data_HoErMn2(Co4P3)2
_symmetry_space_group_name_H-M   'P 1'
_cell_length_a   3.64716800
_cell_length_b   10.30969700
_cell_length_c   11.79903400
_cell_angle_alpha   90.00000000
_cell_angle_beta   90.00000000
_cell_angle_gamma   90.00000000
_symmetry_Int_Tables_number   1
_chemical_formula_structural   HoErMn2(Co4P3)2
_chemical_formula_sum   'Ho2 Er2 Mn4 Co16 P12'
_cell_volume   443.65780170
_cell_formula_units_Z   2
loop_
 _symmetry_equiv_pos_site_id
 _symmetry_equiv_pos_as_xyz
  1  'x, y, z'
loop_
 _atom_site_type_symbol
 _atom_site_label
 _atom_site_symmetry_multiplicity
 _atom_site_fract_x
 _atom_site_fract_y
 _atom_site_fract_z
 _atom_site_occupancy
  Ho  Ho0  1  0.750000  0.417935  0.295805  1
  Ho  Ho1  1  0.750000  0.082065  0.795805  1
  Er  Er2  1  0.250000  0.582113  0.704108  1
  Er  Er3  1  0.250000  0.917887  0.204108  1
  Mn  Mn4  1  0.250000  0.710435  0.988213  1
  Mn  Mn5  1  0.250000  0.789565  0.488213  1
  Mn  Mn6  1  0.750000  0.289857  0.011945  1
  Mn  Mn7  1  0.750000  0.210143  0.511945  1
  Co  Co8  1  0.250000  0.406970  0.488169  1
  Co  Co9  1  0.250000  0.093030  0.988169  1
  Co  Co10  1  0.750000  0.593256  0.512354  1
  Co  Co11  1  0.750000  0.906744  0.012354  1
  Co  Co12  1  0.250000  0.220976  0.177273  1
  Co  Co13  1  0.250000  0.279024  0.677273  1
  Co  Co14  1  0.750000  0.778865  0.822725  1
  Co  Co15  1  0.750000  0.721135  0.322725  1
  Co  Co16  1  0.250000  0.883225  0.698627  1
  Co  Co17  1  0.250000  0.616775  0.198627  1
  Co  Co18  1  0.750000  0.116106  0.301153  1
  Co  Co19  1  0.750000  0.383894  0.801153  1
  Co  Co20  1  0.250000  0.466201  0.932114  1
  Co  Co21  1  0.250000  0.033799  0.432114  1
  Co  Co22  1  0.750000  0.534342  0.067549  1
  Co  Co23  1  0.750000  0.965658  0.567549  1
  P  P24  1  0.250000  0.418946  0.112756  1
  P  P25  1  0.250000  0.081054  0.612756  1
  P  P26  1  0.750000  0.581317  0.886810  1
  P  P27  1  0.750000  0.918683  0.386810  1
  P  P28  1  0.250000  0.269410  0.868538  1
  P  P29  1  0.250000  0.230590  0.368538  1
  P  P30  1  0.750000  0.731044  0.131698  1
  P  P31  1  0.750000  0.768956  0.631698  1
  P  P32  1  0.250000  0.600030  0.390813  1
  P  P33  1  0.250000  0.899970  0.890813  1
  P  P34  1  0.750000  0.400326  0.609351  1
  P  P35  1  0.750000  0.099674  0.109351  1
