# generated using pymatgen
data_Y3MgCd2PdPb2
_symmetry_space_group_name_H-M   'P 1'
_cell_length_a   7.56634655
_cell_length_b   7.49102703
_cell_length_c   4.55493000
_cell_angle_alpha   90.00000000
_cell_angle_beta   90.00000000
_cell_angle_gamma   119.67124333
_symmetry_Int_Tables_number   1
_chemical_formula_structural   Y3MgCd2PdPb2
_chemical_formula_sum   'Y3 Mg1 Cd2 Pd1 Pb2'
_cell_volume   224.32058970
_cell_formula_units_Z   1
loop_
 _symmetry_equiv_pos_site_id
 _symmetry_equiv_pos_as_xyz
  1  'x, y, z'
loop_
 _atom_site_type_symbol
 _atom_site_label
 _atom_site_symmetry_multiplicity
 _atom_site_fract_x
 _atom_site_fract_y
 _atom_site_fract_z
 _atom_site_occupancy
  Y  Y0  1  0.402355  0.399995  0.500000  1
  Y  Y1  1  0.000000  0.605154  0.500000  1
  Y  Y2  1  0.597645  0.997641  0.500000  1
  Mg  Mg3  1  0.000000  0.222762  0.000000  1
  Cd  Cd4  1  0.767531  0.770066  0.000000  1
  Cd  Cd5  1  0.232469  0.002535  0.000000  1
  Pd  Pd6  1  0.000000  0.011961  0.500000  1
  Pb  Pb7  1  0.673083  0.331484  0.000000  1
  Pb  Pb8  1  0.326917  0.658401  0.000000  1
