# generated using pymatgen
data_Sc5Si7Ni16W
_symmetry_space_group_name_H-M   'P 1'
_cell_length_a   8.05243752
_cell_length_b   8.05243716
_cell_length_c   8.01910100
_cell_angle_alpha   60.13685616
_cell_angle_beta   60.13685763
_cell_angle_gamma   59.72629098
_symmetry_Int_Tables_number   1
_chemical_formula_structural   Sc5Si7Ni16W
_chemical_formula_sum   'Sc5 Si7 Ni16 W1'
_cell_volume   367.66355623
_cell_formula_units_Z   1
loop_
 _symmetry_equiv_pos_site_id
 _symmetry_equiv_pos_as_xyz
  1  'x, y, z'
loop_
 _atom_site_type_symbol
 _atom_site_label
 _atom_site_symmetry_multiplicity
 _atom_site_fract_x
 _atom_site_fract_y
 _atom_site_fract_z
 _atom_site_occupancy
  Sc  Sc0  1  0.301025  0.704008  0.295992  1
  Sc  Sc1  1  0.704008  0.301025  0.295992  1
  Sc  Sc2  1  0.288750  0.288750  0.711250  1
  Sc  Sc3  1  0.704008  0.301025  0.698975  1
  Sc  Sc4  1  0.301025  0.704008  0.698975  1
  Si  Si5  1  0.005091  0.005091  0.994909  1
  Si  Si6  1  0.998461  0.998461  0.501539  1
  Si  Si7  1  0.506247  0.994722  0.493753  1
  Si  Si8  1  0.994722  0.506247  0.493753  1
  Si  Si9  1  0.498461  0.498461  0.001539  1
  Si  Si10  1  0.994722  0.506247  0.005278  1
  Si  Si11  1  0.506247  0.994722  0.005278  1
  Ni  Ni12  1  0.881240  0.881240  0.351289  1
  Ni  Ni13  1  0.879789  0.357858  0.881176  1
  Ni  Ni14  1  0.357858  0.879789  0.881176  1
  Ni  Ni15  1  0.881240  0.881240  0.886231  1
  Ni  Ni16  1  0.118824  0.118824  0.642142  1
  Ni  Ni17  1  0.113769  0.648711  0.118760  1
  Ni  Ni18  1  0.648711  0.113769  0.118760  1
  Ni  Ni19  1  0.118824  0.118824  0.120211  1
  Ni  Ni20  1  0.667674  0.667674  0.994706  1
  Ni  Ni21  1  0.667190  0.993660  0.669574  1
  Ni  Ni22  1  0.993660  0.667190  0.669574  1
  Ni  Ni23  1  0.667674  0.667674  0.669946  1
  Ni  Ni24  1  0.330426  0.330426  0.006340  1
  Ni  Ni25  1  0.330054  0.005294  0.332326  1
  Ni  Ni26  1  0.005294  0.330054  0.332326  1
  Ni  Ni27  1  0.330426  0.330426  0.332810  1
  W  W28  1  0.704582  0.704582  0.295418  1
