# generated using pymatgen
data_Mg3P6PbN13
_symmetry_space_group_name_H-M   'P 1'
_cell_length_a   7.15683556
_cell_length_b   7.15683663
_cell_length_c   7.15683562
_cell_angle_alpha   109.18951024
_cell_angle_beta   109.18951957
_cell_angle_gamma   109.18951575
_symmetry_Int_Tables_number   1
_chemical_formula_structural   Mg3P6PbN13
_chemical_formula_sum   'Mg3 P6 Pb1 N13'
_cell_volume   285.09500447
_cell_formula_units_Z   1
loop_
 _symmetry_equiv_pos_site_id
 _symmetry_equiv_pos_as_xyz
  1  'x, y, z'
loop_
 _atom_site_type_symbol
 _atom_site_label
 _atom_site_symmetry_multiplicity
 _atom_site_fract_x
 _atom_site_fract_y
 _atom_site_fract_z
 _atom_site_occupancy
  Mg  Mg0  1  0.993481  0.684655  0.993481  1
  Mg  Mg1  1  0.684655  0.993481  0.993481  1
  Mg  Mg2  1  0.993481  0.993481  0.684655  1
  P  P3  1  0.506023  0.255002  0.759230  1
  P  P4  1  0.506023  0.759230  0.255002  1
  P  P5  1  0.759230  0.255002  0.506023  1
  P  P6  1  0.255002  0.506023  0.759230  1
  P  P7  1  0.759230  0.506023  0.255002  1
  P  P8  1  0.255002  0.759230  0.506023  1
  Pb  Pb9  1  0.270131  0.270131  0.270131  1
  N  N10  1  0.946829  0.946829  0.946829  1
  N  N11  1  0.003847  0.734024  0.447312  1
  N  N12  1  0.276147  0.724931  0.276147  1
  N  N13  1  0.289777  0.566771  0.566771  1
  N  N14  1  0.566771  0.566771  0.289777  1
  N  N15  1  0.566771  0.289777  0.566771  1
  N  N16  1  0.734024  0.003847  0.447312  1
  N  N17  1  0.447312  0.003847  0.734024  1
  N  N18  1  0.734024  0.447312  0.003847  1
  N  N19  1  0.276147  0.276147  0.724931  1
  N  N20  1  0.724931  0.276147  0.276147  1
  N  N21  1  0.003847  0.447312  0.734024  1
  N  N22  1  0.447312  0.734024  0.003847  1
