# generated using pymatgen
data_Tb9Nd8Tm3Si16
_symmetry_space_group_name_H-M   'P 1'
_cell_length_a   7.77837907
_cell_length_b   7.77837907
_cell_length_c   14.39636517
_cell_angle_alpha   90.01226794
_cell_angle_beta   89.98773206
_cell_angle_gamma   90.00873675
_symmetry_Int_Tables_number   1
_chemical_formula_structural   Tb9Nd8Tm3Si16
_chemical_formula_sum   'Tb9 Nd8 Tm3 Si16'
_cell_volume   871.02583601
_cell_formula_units_Z   1
loop_
 _symmetry_equiv_pos_site_id
 _symmetry_equiv_pos_as_xyz
  1  'x, y, z'
loop_
 _atom_site_type_symbol
 _atom_site_label
 _atom_site_symmetry_multiplicity
 _atom_site_fract_x
 _atom_site_fract_y
 _atom_site_fract_z
 _atom_site_occupancy
  Tb  Tb0  1  0.491989  0.362068  0.124282  1
  Tb  Tb1  1  0.991666  0.137845  0.625607  1
  Tb  Tb2  1  0.862056  0.008436  0.874719  1
  Tb  Tb3  1  0.137845  0.991666  0.374393  1
  Tb  Tb4  1  0.508584  0.637932  0.625108  1
  Tb  Tb5  1  0.362068  0.491989  0.875718  1
  Tb  Tb6  1  0.637932  0.508584  0.374892  1
  Tb  Tb7  1  0.008436  0.862056  0.125281  1
  Tb  Tb8  1  0.316662  0.316662  0.500000  1
  Nd  Nd9  1  0.641113  0.992846  0.457815  1
  Nd  Nd10  1  0.358743  0.007120  0.957751  1
  Nd  Nd11  1  0.992846  0.641113  0.542185  1
  Nd  Nd12  1  0.492886  0.858683  0.207519  1
  Nd  Nd13  1  0.507645  0.141057  0.708256  1
  Nd  Nd14  1  0.858683  0.492886  0.792481  1
  Nd  Nd15  1  0.141057  0.507645  0.291744  1
  Nd  Nd16  1  0.007120  0.358743  0.042249  1
  Tm  Tm17  1  0.183238  0.816090  0.750129  1
  Tm  Tm18  1  0.816090  0.183238  0.249871  1
  Tm  Tm19  1  0.683473  0.683473  0.000000  1
  Si  Si20  1  0.290623  0.934481  0.562082  1
  Si  Si21  1  0.709086  0.063756  0.061894  1
  Si  Si22  1  0.934481  0.290623  0.437918  1
  Si  Si23  1  0.436830  0.208083  0.310510  1
  Si  Si24  1  0.563826  0.791396  0.812340  1
  Si  Si25  1  0.208083  0.436830  0.689490  1
  Si  Si26  1  0.791396  0.563826  0.187660  1
  Si  Si27  1  0.063756  0.709086  0.938106  1
  Si  Si28  1  0.797206  0.845724  0.690128  1
  Si  Si29  1  0.203511  0.153813  0.189534  1
  Si  Si30  1  0.845724  0.797206  0.309872  1
  Si  Si31  1  0.346428  0.703837  0.439697  1
  Si  Si32  1  0.654175  0.297095  0.939931  1
  Si  Si33  1  0.703837  0.346428  0.560303  1
  Si  Si34  1  0.297095  0.654175  0.060069  1
  Si  Si35  1  0.153813  0.203511  0.810466  1
