# generated using pymatgen
data_Tb4In2Cu3Ru
_symmetry_space_group_name_H-M   'P 1'
_cell_length_a   7.60647650
_cell_length_b   7.60647650
_cell_length_c   3.73053200
_cell_angle_alpha   90.00000000
_cell_angle_beta   90.00000000
_cell_angle_gamma   90.44557859
_symmetry_Int_Tables_number   1
_chemical_formula_structural   Tb4In2Cu3Ru
_chemical_formula_sum   'Tb4 In2 Cu3 Ru1'
_cell_volume   215.83640210
_cell_formula_units_Z   1
loop_
 _symmetry_equiv_pos_site_id
 _symmetry_equiv_pos_as_xyz
  1  'x, y, z'
loop_
 _atom_site_type_symbol
 _atom_site_label
 _atom_site_symmetry_multiplicity
 _atom_site_fract_x
 _atom_site_fract_y
 _atom_site_fract_z
 _atom_site_occupancy
  Tb  Tb0  1  0.674399  0.174399  0.500000  1
  Tb  Tb1  1  0.315202  0.815202  0.500000  1
  Tb  Tb2  1  0.179430  0.338677  0.500000  1
  Tb  Tb3  1  0.838677  0.679430  0.500000  1
  In  In4  1  0.501779  0.500048  0.000000  1
  In  In5  1  0.000048  0.001779  0.000000  1
  Cu  Cu6  1  0.876139  0.376139  0.000000  1
  Cu  Cu7  1  0.615188  0.880164  0.000000  1
  Cu  Cu8  1  0.380164  0.115188  0.000000  1
  Ru  Ru9  1  0.118974  0.618974  0.000000  1
