# generated using pymatgen
data_Cs2Na2Zr6FeBr18
_symmetry_space_group_name_H-M   'P 1'
_cell_length_a   10.71049632
_cell_length_b   10.71296033
_cell_length_c   10.81816677
_cell_angle_alpha   119.63954305
_cell_angle_beta   101.69770864
_cell_angle_gamma   100.35728142
_symmetry_Int_Tables_number   1
_chemical_formula_structural   Cs2Na2Zr6FeBr18
_chemical_formula_sum   'Cs2 Na2 Zr6 Fe1 Br18'
_cell_volume   997.63263321
_cell_formula_units_Z   1
loop_
 _symmetry_equiv_pos_site_id
 _symmetry_equiv_pos_as_xyz
  1  'x, y, z'
loop_
 _atom_site_type_symbol
 _atom_site_label
 _atom_site_symmetry_multiplicity
 _atom_site_fract_x
 _atom_site_fract_y
 _atom_site_fract_z
 _atom_site_occupancy
  Cs  Cs0  1  0.682439  0.224711  0.542845  1
  Cs  Cs1  1  0.317561  0.775289  0.457155  1
  Na  Na2  1  0.615033  0.528272  0.194800  1
  Na  Na3  1  0.384967  0.471728  0.805200  1
  Zr  Zr4  1  0.148239  0.074372  0.249750  1
  Zr  Zr5  1  0.851761  0.925628  0.750250  1
  Zr  Zr6  1  0.860212  0.150068  0.124895  1
  Zr  Zr7  1  0.139788  0.849932  0.875105  1
  Zr  Zr8  1  0.145551  0.226036  0.027878  1
  Zr  Zr9  1  0.854449  0.773964  0.972122  1
  Fe  Fe10  1  0.000000  0.000000  0.000000  1
  Br  Br11  1  0.007163  0.413269  0.165393  1
  Br  Br12  1  0.992837  0.586731  0.834607  1
  Br  Br13  1  0.321270  0.332533  0.306142  1
  Br  Br14  1  0.678730  0.667467  0.693858  1
  Br  Br15  1  0.325881  0.489779  0.068266  1
  Br  Br16  1  0.674119  0.510221  0.931734  1
  Br  Br17  1  0.003532  0.830910  0.242525  1
  Br  Br18  1  0.996468  0.169090  0.757475  1
  Br  Br19  1  0.703314  0.321804  0.264916  1
  Br  Br20  1  0.296686  0.678196  0.735084  1
  Br  Br21  1  0.311031  0.084397  0.892502  1
  Br  Br22  1  0.688969  0.915603  0.107498  1
  Br  Br23  1  0.009844  0.244486  0.410665  1
  Br  Br24  1  0.990156  0.755514  0.589335  1
  Br  Br25  1  0.317126  0.920576  0.139143  1
  Br  Br26  1  0.682874  0.079424  0.860857  1
  Br  Br27  1  0.324999  0.162006  0.536910  1
  Br  Br28  1  0.675001  0.837994  0.463090  1
