# generated using pymatgen
data_Ho2FeCo3(SiC)2
_symmetry_space_group_name_H-M   'P 1'
_cell_length_a   5.53667641
_cell_length_b   5.53667745
_cell_length_c   6.71863438
_cell_angle_alpha   89.90929319
_cell_angle_beta   90.09070581
_cell_angle_gamma   141.03229521
_symmetry_Int_Tables_number   1
_chemical_formula_structural   Ho2FeCo3(SiC)2
_chemical_formula_sum   'Ho2 Fe1 Co3 Si2 C2'
_cell_volume   129.52335823
_cell_formula_units_Z   1
loop_
 _symmetry_equiv_pos_site_id
 _symmetry_equiv_pos_as_xyz
  1  'x, y, z'
loop_
 _atom_site_type_symbol
 _atom_site_label
 _atom_site_symmetry_multiplicity
 _atom_site_fract_x
 _atom_site_fract_y
 _atom_site_fract_z
 _atom_site_occupancy
  Ho  Ho0  1  0.550497  0.449503  0.250555  1
  Ho  Ho1  1  0.449454  0.550546  0.749067  1
  Fe  Fe2  1  0.836138  0.163862  0.441358  1
  Co  Co3  1  0.835476  0.164524  0.056710  1
  Co  Co4  1  0.164182  0.835818  0.944788  1
  Co  Co5  1  0.165148  0.834852  0.557967  1
  Si  Si6  1  0.271956  0.728044  0.252066  1
  Si  Si7  1  0.728968  0.271032  0.748275  1
  C  C8  1  0.999617  0.000383  0.999744  1
  C  C9  1  0.998564  0.001436  0.499470  1
