# generated using pymatgen
data_CeSn6RuRh3
_symmetry_space_group_name_H-M   'P 1'
_cell_length_a   7.01720383
_cell_length_b   7.01720363
_cell_length_c   6.94625663
_cell_angle_alpha   119.44499041
_cell_angle_beta   119.44498392
_cell_angle_gamma   91.46306189
_symmetry_Int_Tables_number   1
_chemical_formula_structural   CeSn6RuRh3
_chemical_formula_sum   'Ce1 Sn6 Ru1 Rh3'
_cell_volume   242.75102824
_cell_formula_units_Z   1
loop_
 _symmetry_equiv_pos_site_id
 _symmetry_equiv_pos_as_xyz
  1  'x, y, z'
loop_
 _atom_site_type_symbol
 _atom_site_label
 _atom_site_symmetry_multiplicity
 _atom_site_fract_x
 _atom_site_fract_y
 _atom_site_fract_z
 _atom_site_occupancy
  Ce  Ce0  1  0.994397  0.994397  0.987785  1
  Sn  Sn1  1  0.503306  0.003135  0.500255  1
  Sn  Sn2  1  0.535611  0.874404  0.006690  1
  Sn  Sn3  1  0.127564  0.127564  0.658459  1
  Sn  Sn4  1  0.467005  0.467005  0.339224  1
  Sn  Sn5  1  0.874404  0.535611  0.006690  1
  Sn  Sn6  1  0.003135  0.503306  0.500255  1
  Ru  Ru7  1  0.756563  0.756563  0.360438  1
  Rh  Rh8  1  0.601606  0.237753  0.998736  1
  Rh  Rh9  1  0.237753  0.601606  0.998736  1
  Rh  Rh10  1  0.398655  0.398655  0.642733  1
