# generated using pymatgen
data_Tb4Er16ZnBi11
_symmetry_space_group_name_H-M   'P 1'
_cell_length_a   8.17054013
_cell_length_b   9.42548700
_cell_length_c   11.95379900
_cell_angle_alpha   90.00000000
_cell_angle_beta   90.32584382
_cell_angle_gamma   90.00000000
_symmetry_Int_Tables_number   1
_chemical_formula_structural   Tb4Er16ZnBi11
_chemical_formula_sum   'Tb4 Er16 Zn1 Bi11'
_cell_volume   920.56295022
_cell_formula_units_Z   1
loop_
 _symmetry_equiv_pos_site_id
 _symmetry_equiv_pos_as_xyz
  1  'x, y, z'
loop_
 _atom_site_type_symbol
 _atom_site_label
 _atom_site_symmetry_multiplicity
 _atom_site_fract_x
 _atom_site_fract_y
 _atom_site_fract_z
 _atom_site_occupancy
  Tb  Tb0  1  0.314738  0.250000  0.219252  1
  Tb  Tb1  1  0.811926  0.250000  0.281821  1
  Tb  Tb2  1  0.674014  0.750000  0.788184  1
  Tb  Tb3  1  0.188883  0.750000  0.720562  1
  Er  Er4  1  0.355980  0.750000  0.205547  1
  Er  Er5  1  0.851802  0.750000  0.284255  1
  Er  Er6  1  0.649169  0.250000  0.783904  1
  Er  Er7  1  0.150531  0.250000  0.717156  1
  Er  Er8  1  0.683113  0.571020  0.055151  1
  Er  Er9  1  0.192538  0.934759  0.438558  1
  Er  Er10  1  0.309851  0.047133  0.940796  1
  Er  Er11  1  0.807357  0.435150  0.559900  1
  Er  Er12  1  0.309851  0.452867  0.940796  1
  Er  Er13  1  0.807357  0.064850  0.559900  1
  Er  Er14  1  0.683113  0.928980  0.055151  1
  Er  Er15  1  0.192538  0.565241  0.438558  1
  Er  Er16  1  0.476162  0.250000  0.489747  1
  Er  Er17  1  0.980883  0.250000  0.009778  1
  Er  Er18  1  0.524364  0.750000  0.511044  1
  Er  Er19  1  0.034711  0.750000  0.991012  1
  Zn  Zn20  1  0.406469  0.750000  0.962288  1
  Bi  Bi21  1  0.905612  0.750000  0.543513  1
  Bi  Bi22  1  0.594987  0.250000  0.041457  1
  Bi  Bi23  1  0.095150  0.250000  0.458599  1
  Bi  Bi24  1  0.564342  0.995038  0.326508  1
  Bi  Bi25  1  0.063159  0.504140  0.175323  1
  Bi  Bi26  1  0.435945  0.495744  0.674924  1
  Bi  Bi27  1  0.936004  0.003526  0.824782  1
  Bi  Bi28  1  0.435945  0.004256  0.674924  1
  Bi  Bi29  1  0.936004  0.496474  0.824782  1
  Bi  Bi30  1  0.564342  0.504962  0.326508  1
  Bi  Bi31  1  0.063159  0.995860  0.175323  1
