# generated using pymatgen
data_DyScTcB6
_symmetry_space_group_name_H-M   'P 1'
_cell_length_a   3.58515100
_cell_length_b   9.00022200
_cell_length_c   11.38027400
_cell_angle_alpha   90.00000000
_cell_angle_beta   90.00000000
_cell_angle_gamma   90.00000000
_symmetry_Int_Tables_number   1
_chemical_formula_structural   DyScTcB6
_chemical_formula_sum   'Dy4 Sc4 Tc4 B24'
_cell_volume   367.20906400
_cell_formula_units_Z   4
loop_
 _symmetry_equiv_pos_site_id
 _symmetry_equiv_pos_as_xyz
  1  'x, y, z'
loop_
 _atom_site_type_symbol
 _atom_site_label
 _atom_site_symmetry_multiplicity
 _atom_site_fract_x
 _atom_site_fract_y
 _atom_site_fract_z
 _atom_site_occupancy
  Dy  Dy0  1  0.000000  0.822215  0.085377  1
  Dy  Dy1  1  0.000000  0.177785  0.914623  1
  Dy  Dy2  1  0.000000  0.322215  0.414623  1
  Dy  Dy3  1  0.000000  0.677785  0.585377  1
  Sc  Sc4  1  0.000000  0.444001  0.130261  1
  Sc  Sc5  1  0.000000  0.555999  0.869739  1
  Sc  Sc6  1  0.000000  0.944001  0.369739  1
  Sc  Sc7  1  0.000000  0.055999  0.630261  1
  Tc  Tc8  1  0.000000  0.140825  0.181957  1
  Tc  Tc9  1  0.000000  0.859175  0.818043  1
  Tc  Tc10  1  0.000000  0.640825  0.318043  1
  Tc  Tc11  1  0.000000  0.359175  0.681957  1
  B  B12  1  0.500000  0.054527  0.067738  1
  B  B13  1  0.500000  0.945473  0.932262  1
  B  B14  1  0.500000  0.554527  0.432262  1
  B  B15  1  0.500000  0.445473  0.567738  1
  B  B16  1  0.500000  0.254434  0.081951  1
  B  B17  1  0.500000  0.745566  0.918049  1
  B  B18  1  0.500000  0.754434  0.418049  1
  B  B19  1  0.500000  0.245566  0.581951  1
  B  B20  1  0.500000  0.295328  0.235541  1
  B  B21  1  0.500000  0.704672  0.764459  1
  B  B22  1  0.500000  0.795328  0.264459  1
  B  B23  1  0.500000  0.204672  0.735541  1
  B  B24  1  0.500000  0.129312  0.317246  1
  B  B25  1  0.500000  0.870688  0.682754  1
  B  B26  1  0.500000  0.629312  0.182754  1
  B  B27  1  0.500000  0.370688  0.817246  1
  B  B28  1  0.500000  0.481785  0.286193  1
  B  B29  1  0.500000  0.518215  0.713807  1
  B  B30  1  0.500000  0.981785  0.213807  1
  B  B31  1  0.500000  0.018215  0.786193  1
  B  B32  1  0.500000  0.095690  0.473955  1
  B  B33  1  0.500000  0.904310  0.526045  1
  B  B34  1  0.500000  0.595690  0.026045  1
  B  B35  1  0.500000  0.404310  0.973955  1
