# generated using pymatgen
data_Pr7Nd3Si5Pt
_symmetry_space_group_name_H-M   'P 1'
_cell_length_a   7.73924610
_cell_length_b   7.74276878
_cell_length_c   9.11085446
_cell_angle_alpha   115.11073369
_cell_angle_beta   115.07538297
_cell_angle_gamma   90.06433833
_symmetry_Int_Tables_number   1
_chemical_formula_structural   Pr7Nd3Si5Pt
_chemical_formula_sum   'Pr7 Nd3 Si5 Pt1'
_cell_volume   436.72384212
_cell_formula_units_Z   1
loop_
 _symmetry_equiv_pos_site_id
 _symmetry_equiv_pos_as_xyz
  1  'x, y, z'
loop_
 _atom_site_type_symbol
 _atom_site_label
 _atom_site_symmetry_multiplicity
 _atom_site_fract_x
 _atom_site_fract_y
 _atom_site_fract_z
 _atom_site_occupancy
  Pr  Pr0  1  0.332298  0.476536  0.286393  1
  Pr  Pr1  1  0.810122  0.332338  0.286437  1
  Pr  Pr2  1  0.476195  0.954025  0.286363  1
  Pr  Pr3  1  0.023573  0.167433  0.713622  1
  Pr  Pr4  1  0.689691  0.546061  0.713818  1
  Pr  Pr5  1  0.167874  0.690073  0.713472  1
  Pr  Pr6  1  0.545702  0.023830  0.713592  1
  Nd  Nd7  1  0.473308  0.473592  0.945967  1
  Nd  Nd8  1  0.026510  0.026816  0.054214  1
  Nd  Nd9  1  0.953443  0.809489  0.285370  1
  Si  Si10  1  0.250468  0.248809  0.499805  1
  Si  Si11  1  0.615382  0.884960  0.000346  1
  Si  Si12  1  0.385322  0.114726  0.000079  1
  Si  Si13  1  0.885015  0.385716  0.000403  1
  Si  Si14  1  0.114705  0.615378  0.000429  1
  Pt  Pt15  1  0.750391  0.750216  0.499691  1
