# generated using pymatgen
data_La5Nd3Pd24Pb
_symmetry_space_group_name_H-M   'P 1'
_cell_length_a   8.58079573
_cell_length_b   8.58079547
_cell_length_c   8.58079600
_cell_angle_alpha   90.05341769
_cell_angle_beta   90.05341769
_cell_angle_gamma   90.05342129
_symmetry_Int_Tables_number   1
_chemical_formula_structural   La5Nd3Pd24Pb
_chemical_formula_sum   'La5 Nd3 Pd24 Pb1'
_cell_volume   631.80364071
_cell_formula_units_Z   1
loop_
 _symmetry_equiv_pos_site_id
 _symmetry_equiv_pos_as_xyz
  1  'x, y, z'
loop_
 _atom_site_type_symbol
 _atom_site_label
 _atom_site_symmetry_multiplicity
 _atom_site_fract_x
 _atom_site_fract_y
 _atom_site_fract_z
 _atom_site_occupancy
  La  La0  1  0.747200  0.747200  0.747200  1
  La  La1  1  0.747372  0.252711  0.252711  1
  La  La2  1  0.252711  0.252711  0.747372  1
  La  La3  1  0.252711  0.747372  0.252711  1
  La  La4  1  0.252355  0.252355  0.252355  1
  Nd  Nd5  1  0.748115  0.748115  0.251875  1
  Nd  Nd6  1  0.748115  0.251875  0.748115  1
  Nd  Nd7  1  0.251875  0.748115  0.748115  1
  Pd  Pd8  1  0.999296  0.999296  0.318288  1
  Pd  Pd9  1  0.732168  0.999956  0.500176  1
  Pd  Pd10  1  0.732168  0.500176  0.999956  1
  Pd  Pd11  1  0.500176  0.999956  0.732168  1
  Pd  Pd12  1  0.999956  0.732168  0.500176  1
  Pd  Pd13  1  0.500292  0.999353  0.267721  1
  Pd  Pd14  1  0.999353  0.267721  0.500292  1
  Pd  Pd15  1  0.500176  0.732168  0.999956  1
  Pd  Pd16  1  0.255381  0.500571  0.500571  1
  Pd  Pd17  1  0.500082  0.500082  0.744627  1
  Pd  Pd18  1  0.500571  0.500571  0.255381  1
  Pd  Pd19  1  0.500571  0.255381  0.500571  1
  Pd  Pd20  1  0.500082  0.744627  0.500082  1
  Pd  Pd21  1  0.744627  0.500082  0.500082  1
  Pd  Pd22  1  0.318288  0.999296  0.999296  1
  Pd  Pd23  1  0.000048  0.000048  0.681931  1
  Pd  Pd24  1  0.999353  0.500292  0.267721  1
  Pd  Pd25  1  0.999296  0.318288  0.999296  1
  Pd  Pd26  1  0.000048  0.681931  0.000048  1
  Pd  Pd27  1  0.681931  0.000048  0.000048  1
  Pd  Pd28  1  0.267721  0.500292  0.999353  1
  Pd  Pd29  1  0.267721  0.999353  0.500292  1
  Pd  Pd30  1  0.999956  0.500176  0.732168  1
  Pd  Pd31  1  0.500292  0.267721  0.999353  1
  Pb  Pb32  1  0.999995  0.999995  0.999995  1
