# generated using pymatgen
data_Dy4HoEr7Rh4
_symmetry_space_group_name_H-M   'P 1'
_cell_length_a   6.28574027
_cell_length_b   7.15569027
_cell_length_c   9.33765300
_cell_angle_alpha   90.00790293
_cell_angle_beta   89.95129748
_cell_angle_gamma   90.01376278
_symmetry_Int_Tables_number   1
_chemical_formula_structural   Dy4HoEr7Rh4
_chemical_formula_sum   'Dy4 Ho1 Er7 Rh4'
_cell_volume   419.99635718
_cell_formula_units_Z   1
loop_
 _symmetry_equiv_pos_site_id
 _symmetry_equiv_pos_as_xyz
  1  'x, y, z'
loop_
 _atom_site_type_symbol
 _atom_site_label
 _atom_site_symmetry_multiplicity
 _atom_site_fract_x
 _atom_site_fract_y
 _atom_site_fract_z
 _atom_site_occupancy
  Dy  Dy0  1  0.867280  0.965866  0.749916  1
  Dy  Dy1  1  0.367309  0.534232  0.250090  1
  Dy  Dy2  1  0.632618  0.465915  0.749826  1
  Dy  Dy3  1  0.132715  0.034106  0.250090  1
  Ho  Ho4  1  0.671787  0.177847  0.063117  1
  Er  Er5  1  0.171506  0.322144  0.936817  1
  Er  Er6  1  0.828241  0.677795  0.436863  1
  Er  Er7  1  0.328380  0.822088  0.562957  1
  Er  Er8  1  0.328522  0.822100  0.936778  1
  Er  Er9  1  0.828458  0.677953  0.063126  1
  Er  Er10  1  0.171301  0.322265  0.563056  1
  Er  Er11  1  0.671426  0.177828  0.437010  1
  Rh  Rh12  1  0.056047  0.616659  0.750210  1
  Rh  Rh13  1  0.556307  0.883472  0.250420  1
  Rh  Rh14  1  0.444009  0.116702  0.749390  1
  Rh  Rh15  1  0.944096  0.383028  0.250333  1
