# generated using pymatgen
data_Tb3Y7(Sn3Cl)2
_symmetry_space_group_name_H-M   'P 1'
_cell_length_a   9.12590100
_cell_length_b   9.12590116
_cell_length_c   6.57995500
_cell_angle_alpha   90.00000000
_cell_angle_beta   90.00000000
_cell_angle_gamma   120.00000303
_symmetry_Int_Tables_number   1
_chemical_formula_structural   Tb3Y7(Sn3Cl)2
_chemical_formula_sum   'Tb3 Y7 Sn6 Cl2'
_cell_volume   474.57521816
_cell_formula_units_Z   1
loop_
 _symmetry_equiv_pos_site_id
 _symmetry_equiv_pos_as_xyz
  1  'x, y, z'
loop_
 _atom_site_type_symbol
 _atom_site_label
 _atom_site_symmetry_multiplicity
 _atom_site_fract_x
 _atom_site_fract_y
 _atom_site_fract_z
 _atom_site_occupancy
  Tb  Tb0  1  0.261641  0.261641  0.750000  1
  Tb  Tb1  1  0.000000  0.738359  0.750000  1
  Tb  Tb2  1  0.738359  0.000000  0.750000  1
  Y  Y3  1  0.000000  0.261892  0.250000  1
  Y  Y4  1  0.333333  0.666667  0.499929  1
  Y  Y5  1  0.738108  0.738108  0.250000  1
  Y  Y6  1  0.666667  0.333333  0.499929  1
  Y  Y7  1  0.261892  0.000000  0.250000  1
  Y  Y8  1  0.333333  0.666667  0.000071  1
  Y  Y9  1  0.666667  0.333333  0.000071  1
  Sn  Sn10  1  0.609939  0.000000  0.250000  1
  Sn  Sn11  1  0.000000  0.390138  0.750000  1
  Sn  Sn12  1  0.390138  0.000000  0.750000  1
  Sn  Sn13  1  0.609862  0.609862  0.750000  1
  Sn  Sn14  1  0.000000  0.609939  0.250000  1
  Sn  Sn15  1  0.390061  0.390061  0.250000  1
  Cl  Cl16  1  0.000000  0.000000  0.000007  1
  Cl  Cl17  1  0.000000  0.000000  0.499993  1
