# generated using pymatgen
data_La2In3Rh2Au
_symmetry_space_group_name_H-M   'P 1'
_cell_length_a   5.43449660
_cell_length_b   5.43449656
_cell_length_c   8.73931086
_cell_angle_alpha   90.28476392
_cell_angle_beta   89.71523785
_cell_angle_gamma   134.34683625
_symmetry_Int_Tables_number   1
_chemical_formula_structural   La2In3Rh2Au
_chemical_formula_sum   'La2 In3 Rh2 Au1'
_cell_volume   184.57352038
_cell_formula_units_Z   1
loop_
 _symmetry_equiv_pos_site_id
 _symmetry_equiv_pos_as_xyz
  1  'x, y, z'
loop_
 _atom_site_type_symbol
 _atom_site_label
 _atom_site_symmetry_multiplicity
 _atom_site_fract_x
 _atom_site_fract_y
 _atom_site_fract_z
 _atom_site_occupancy
  La  La0  1  0.063013  0.936987  0.261831  1
  La  La1  1  0.942872  0.057128  0.733798  1
  In  In2  1  0.340378  0.659622  0.461007  1
  In  In3  1  0.653307  0.346693  0.950325  1
  In  In4  1  0.355213  0.644787  0.046651  1
  Rh  Rh5  1  0.222003  0.777997  0.758907  1
  Rh  Rh6  1  0.791845  0.208155  0.247739  1
  Au  Au7  1  0.631369  0.368631  0.539742  1
