# generated using pymatgen
data_YbTmCo4(SiC)2
_symmetry_space_group_name_H-M   'P 1'
_cell_length_a   5.49197100
_cell_length_b   5.49197088
_cell_length_c   6.66191600
_cell_angle_alpha   90.00000000
_cell_angle_beta   90.00000000
_cell_angle_gamma   141.35278953
_symmetry_Int_Tables_number   1
_chemical_formula_structural   YbTmCo4(SiC)2
_chemical_formula_sum   'Yb1 Tm1 Co4 Si2 C2'
_cell_volume   125.48860387
_cell_formula_units_Z   1
loop_
 _symmetry_equiv_pos_site_id
 _symmetry_equiv_pos_as_xyz
  1  'x, y, z'
loop_
 _atom_site_type_symbol
 _atom_site_label
 _atom_site_symmetry_multiplicity
 _atom_site_fract_x
 _atom_site_fract_y
 _atom_site_fract_z
 _atom_site_occupancy
  Yb  Yb0  1  0.449949  0.550051  0.750000  1
  Tm  Tm1  1  0.549359  0.450641  0.250000  1
  Co  Co2  1  0.835720  0.164280  0.057146  1
  Co  Co3  1  0.164077  0.835923  0.944205  1
  Co  Co4  1  0.164077  0.835923  0.555795  1
  Co  Co5  1  0.835720  0.164280  0.442854  1
  Si  Si6  1  0.271231  0.728769  0.250000  1
  Si  Si7  1  0.729189  0.270811  0.750000  1
  C  C8  1  0.000339  0.999661  0.003033  1
  C  C9  1  0.000339  0.999661  0.496967  1
