# generated using pymatgen
data_CaLaCu7Pd3
_symmetry_space_group_name_H-M   'P 1'
_cell_length_a   4.09198700
_cell_length_b   5.16224390
_cell_length_c   9.35644415
_cell_angle_alpha   87.96980389
_cell_angle_beta   90.00000000
_cell_angle_gamma   90.00000000
_symmetry_Int_Tables_number   1
_chemical_formula_structural   CaLaCu7Pd3
_chemical_formula_sum   'Ca1 La1 Cu7 Pd3'
_cell_volume   197.51991990
_cell_formula_units_Z   1
loop_
 _symmetry_equiv_pos_site_id
 _symmetry_equiv_pos_as_xyz
  1  'x, y, z'
loop_
 _atom_site_type_symbol
 _atom_site_label
 _atom_site_symmetry_multiplicity
 _atom_site_fract_x
 _atom_site_fract_y
 _atom_site_fract_z
 _atom_site_occupancy
  Ca  Ca0  1  0.000000  0.237152  0.753421  1
  La  La1  1  0.000000  0.762814  0.245717  1
  Cu  Cu2  1  0.000000  0.270603  0.077101  1
  Cu  Cu3  1  0.000000  0.747783  0.572420  1
  Cu  Cu4  1  0.000000  0.727594  0.915735  1
  Cu  Cu5  1  0.000000  0.254050  0.434571  1
  Cu  Cu6  1  0.500000  0.502283  0.501464  1
  Cu  Cu7  1  0.500000  0.495497  0.996463  1
  Cu  Cu8  1  0.500000  0.002124  0.501778  1
  Pd  Pd9  1  0.500000  0.736046  0.744550  1
  Pd  Pd10  1  0.500000  0.268485  0.255190  1
  Pd  Pd11  1  0.500000  0.995569  0.001591  1
