# generated using pymatgen
data_La16Er4Ir11Os
_symmetry_space_group_name_H-M   'P 1'
_cell_length_a   11.37194300
_cell_length_b   11.37194300
_cell_length_c   6.54638200
_cell_angle_alpha   90.00000000
_cell_angle_beta   90.00000000
_cell_angle_gamma   90.00000000
_symmetry_Int_Tables_number   1
_chemical_formula_structural   La16Er4Ir11Os
_chemical_formula_sum   'La16 Er4 Ir11 Os1'
_cell_volume   846.58524005
_cell_formula_units_Z   1
loop_
 _symmetry_equiv_pos_site_id
 _symmetry_equiv_pos_as_xyz
  1  'x, y, z'
loop_
 _atom_site_type_symbol
 _atom_site_label
 _atom_site_symmetry_multiplicity
 _atom_site_fract_x
 _atom_site_fract_y
 _atom_site_fract_z
 _atom_site_occupancy
  La  La0  1  0.289026  0.087038  0.391275  1
  La  La1  1  0.289560  0.913267  0.895546  1
  La  La2  1  0.710440  0.086733  0.895546  1
  La  La3  1  0.710974  0.912962  0.391275  1
  La  La4  1  0.586733  0.789560  0.895546  1
  La  La5  1  0.587038  0.210974  0.391275  1
  La  La6  1  0.412962  0.789026  0.391275  1
  La  La7  1  0.413267  0.210440  0.895546  1
  La  La8  1  0.213219  0.412099  0.609965  1
  La  La9  1  0.212696  0.587469  0.109797  1
  La  La10  1  0.787304  0.412531  0.109797  1
  La  La11  1  0.786781  0.587901  0.609965  1
  La  La12  1  0.912531  0.712696  0.109797  1
  La  La13  1  0.912099  0.286781  0.609965  1
  La  La14  1  0.087901  0.713219  0.609965  1
  La  La15  1  0.087469  0.287304  0.109797  1
  Er  Er16  1  0.000000  0.000000  0.495132  1
  Er  Er17  1  0.000000  0.000000  0.995105  1
  Er  Er18  1  0.500000  0.500000  0.995105  1
  Er  Er19  1  0.500000  0.500000  0.495132  1
  Ir  Ir20  1  0.854506  0.149516  0.247571  1
  Ir  Ir21  1  0.853281  0.851998  0.748157  1
  Ir  Ir22  1  0.146719  0.148002  0.748157  1
  Ir  Ir23  1  0.145494  0.850484  0.247571  1
  Ir  Ir24  1  0.648002  0.353281  0.748157  1
  Ir  Ir25  1  0.649516  0.645494  0.247571  1
  Ir  Ir26  1  0.350484  0.354506  0.247571  1
  Ir  Ir27  1  0.351998  0.646719  0.748157  1
  Ir  Ir28  1  0.500000  0.000000  0.629085  1
  Ir  Ir29  1  0.000000  0.500000  0.874485  1
  Ir  Ir30  1  0.000000  0.500000  0.375529  1
  Os  Os31  1  0.500000  0.000000  0.131176  1
