# generated using pymatgen
data_Mg4Ge5PIr7
_symmetry_space_group_name_H-M   'P 1'
_cell_length_a   7.04560133
_cell_length_b   7.04560156
_cell_length_c   7.04560085
_cell_angle_alpha   109.13900350
_cell_angle_beta   110.13772974
_cell_angle_gamma   109.13899067
_symmetry_Int_Tables_number   1
_chemical_formula_structural   Mg4Ge5PIr7
_chemical_formula_sum   'Mg4 Ge5 P1 Ir7'
_cell_volume   269.20812088
_cell_formula_units_Z   1
loop_
 _symmetry_equiv_pos_site_id
 _symmetry_equiv_pos_as_xyz
  1  'x, y, z'
loop_
 _atom_site_type_symbol
 _atom_site_label
 _atom_site_symmetry_multiplicity
 _atom_site_fract_x
 _atom_site_fract_y
 _atom_site_fract_z
 _atom_site_occupancy
  Mg  Mg0  1  0.998452  0.000000  0.492687  1
  Mg  Mg1  1  0.492687  0.000000  0.998452  1
  Mg  Mg2  1  0.998452  0.505764  0.998452  1
  Mg  Mg3  1  0.492687  0.494236  0.492687  1
  Ge  Ge4  1  0.688662  0.690099  0.998563  1
  Ge  Ge5  1  0.308465  0.309901  0.998563  1
  Ge  Ge6  1  0.998563  0.690099  0.688662  1
  Ge  Ge7  1  0.998563  0.309901  0.308465  1
  Ge  Ge8  1  0.700760  0.000000  0.700760  1
  P  P9  1  0.321862  0.000000  0.321862  1
  Ir  Ir10  1  0.017527  0.000000  0.017527  1
  Ir  Ir11  1  0.247849  0.500000  0.747849  1
  Ir  Ir12  1  0.742511  0.245604  0.496905  1
  Ir  Ir13  1  0.496905  0.245604  0.742511  1
  Ir  Ir14  1  0.496905  0.754396  0.251301  1
  Ir  Ir15  1  0.747849  0.500000  0.247849  1
  Ir  Ir16  1  0.251301  0.754396  0.496905  1
