# generated using pymatgen
data_Ac3Sm(GePt)4
_symmetry_space_group_name_H-M   'P 1'
_cell_length_a   4.37997900
_cell_length_b   8.70285188
_cell_length_c   7.60662983
_cell_angle_alpha   90.17362176
_cell_angle_beta   90.00000000
_cell_angle_gamma   90.00000000
_symmetry_Int_Tables_number   1
_chemical_formula_structural   Ac3Sm(GePt)4
_chemical_formula_sum   'Ac3 Sm1 Ge4 Pt4'
_cell_volume   289.95053095
_cell_formula_units_Z   1
loop_
 _symmetry_equiv_pos_site_id
 _symmetry_equiv_pos_as_xyz
  1  'x, y, z'
loop_
 _atom_site_type_symbol
 _atom_site_label
 _atom_site_symmetry_multiplicity
 _atom_site_fract_x
 _atom_site_fract_y
 _atom_site_fract_z
 _atom_site_occupancy
  Ac  Ac0  1  0.750000  0.997681  0.252162  1
  Ac  Ac1  1  0.250000  0.001895  0.746596  1
  Ac  Ac2  1  0.250000  0.501495  0.754385  1
  Sm  Sm3  1  0.750000  0.497530  0.247102  1
  Ge  Ge4  1  0.750000  0.756193  0.918853  1
  Ge  Ge5  1  0.250000  0.730046  0.410751  1
  Ge  Ge6  1  0.250000  0.258063  0.089421  1
  Ge  Ge7  1  0.750000  0.251058  0.580618  1
  Pt  Pt8  1  0.750000  0.255790  0.918765  1
  Pt  Pt9  1  0.250000  0.267493  0.416516  1
  Pt  Pt10  1  0.250000  0.739133  0.083608  1
  Pt  Pt11  1  0.750000  0.743623  0.581222  1
