# generated using pymatgen
data_Dy11Sc(Si3Au)4
_symmetry_space_group_name_H-M   'P 1'
_cell_length_a   4.20909900
_cell_length_b   10.97777198
_cell_length_c   12.36348516
_cell_angle_alpha   90.01382677
_cell_angle_beta   90.00000000
_cell_angle_gamma   90.00000000
_symmetry_Int_Tables_number   1
_chemical_formula_structural   Dy11Sc(Si3Au)4
_chemical_formula_sum   'Dy11 Sc1 Si12 Au4'
_cell_volume   571.27372002
_cell_formula_units_Z   1
loop_
 _symmetry_equiv_pos_site_id
 _symmetry_equiv_pos_as_xyz
  1  'x, y, z'
loop_
 _atom_site_type_symbol
 _atom_site_label
 _atom_site_symmetry_multiplicity
 _atom_site_fract_x
 _atom_site_fract_y
 _atom_site_fract_z
 _atom_site_occupancy
  Dy  Dy0  1  0.250000  0.876660  0.018759  1
  Dy  Dy1  1  0.250000  0.624212  0.519391  1
  Dy  Dy2  1  0.750000  0.124326  0.976925  1
  Dy  Dy3  1  0.750000  0.374305  0.482372  1
  Dy  Dy4  1  0.250000  0.925006  0.602879  1
  Dy  Dy5  1  0.250000  0.576082  0.102275  1
  Dy  Dy6  1  0.750000  0.076897  0.401570  1
  Dy  Dy7  1  0.750000  0.422575  0.895563  1
  Dy  Dy8  1  0.250000  0.664938  0.802336  1
  Dy  Dy9  1  0.250000  0.836363  0.302589  1
  Dy  Dy10  1  0.750000  0.333124  0.197846  1
  Sc  Sc11  1  0.750000  0.165045  0.698952  1
  Si  Si12  1  0.250000  0.028667  0.823090  1
  Si  Si13  1  0.250000  0.472182  0.326331  1
  Si  Si14  1  0.750000  0.974766  0.173975  1
  Si  Si15  1  0.750000  0.527260  0.673906  1
  Si  Si16  1  0.250000  0.246032  0.843156  1
  Si  Si17  1  0.250000  0.251567  0.351102  1
  Si  Si18  1  0.750000  0.753417  0.152174  1
  Si  Si19  1  0.750000  0.747420  0.651882  1
  Si  Si20  1  0.250000  0.184540  0.543383  1
  Si  Si21  1  0.250000  0.315578  0.032712  1
  Si  Si22  1  0.750000  0.815829  0.465402  1
  Si  Si23  1  0.750000  0.683623  0.965412  1
  Au  Au24  1  0.250000  0.387647  0.681685  1
  Au  Au25  1  0.250000  0.110207  0.183443  1
  Au  Au26  1  0.750000  0.609029  0.316567  1
  Au  Au27  1  0.750000  0.892704  0.814323  1
