# generated using pymatgen
data_YHoCo5Si2NiB2
_symmetry_space_group_name_H-M   'P 1'
_cell_length_a   5.11886100
_cell_length_b   5.11886154
_cell_length_c   6.44119300
_cell_angle_alpha   90.00000000
_cell_angle_beta   90.00000000
_cell_angle_gamma   120.00000297
_symmetry_Int_Tables_number   1
_chemical_formula_structural   YHoCo5Si2NiB2
_chemical_formula_sum   'Y1 Ho1 Co5 Si2 Ni1 B2'
_cell_volume   146.16508727
_cell_formula_units_Z   1
loop_
 _symmetry_equiv_pos_site_id
 _symmetry_equiv_pos_as_xyz
  1  'x, y, z'
loop_
 _atom_site_type_symbol
 _atom_site_label
 _atom_site_symmetry_multiplicity
 _atom_site_fract_x
 _atom_site_fract_y
 _atom_site_fract_z
 _atom_site_occupancy
  Y  Y0  1  0.000000  0.000000  0.497646  1
  Ho  Ho1  1  0.000000  0.000000  0.001486  1
  Co  Co2  1  0.500000  0.000000  0.783570  1
  Co  Co3  1  0.000000  0.500000  0.783570  1
  Co  Co4  1  0.500000  0.500000  0.219069  1
  Co  Co5  1  0.500000  0.000000  0.215373  1
  Co  Co6  1  0.000000  0.500000  0.215373  1
  Si  Si7  1  0.668702  0.331298  0.498389  1
  Si  Si8  1  0.331298  0.668702  0.498389  1
  Ni  Ni9  1  0.500000  0.500000  0.783102  1
  B  B10  1  0.668277  0.331723  0.002016  1
  B  B11  1  0.331723  0.668277  0.002016  1
