# generated using pymatgen
data_YLu3(Ta3B10)2
_symmetry_space_group_name_H-M   'P 1'
_cell_length_a   6.22653927
_cell_length_b   7.10132803
_cell_length_c   7.54536600
_cell_angle_alpha   94.52815074
_cell_angle_beta   101.95501447
_cell_angle_gamma   115.94816133
_symmetry_Int_Tables_number   1
_chemical_formula_structural   YLu3(Ta3B10)2
_chemical_formula_sum   'Y1 Lu3 Ta6 B20'
_cell_volume   287.98580714
_cell_formula_units_Z   1
loop_
 _symmetry_equiv_pos_site_id
 _symmetry_equiv_pos_as_xyz
  1  'x, y, z'
loop_
 _atom_site_type_symbol
 _atom_site_label
 _atom_site_symmetry_multiplicity
 _atom_site_fract_x
 _atom_site_fract_y
 _atom_site_fract_z
 _atom_site_occupancy
  Y  Y0  1  0.000977  0.002208  0.999949  1
  Lu  Lu1  1  0.498940  0.798157  0.399975  1
  Lu  Lu2  1  0.000753  0.401258  0.200359  1
  Lu  Lu3  1  0.499335  0.198358  0.600165  1
  Ta  Ta4  1  0.498862  0.000137  0.998434  1
  Ta  Ta5  1  0.996837  0.797313  0.398449  1
  Ta  Ta6  1  0.499107  0.598037  0.798283  1
  Ta  Ta7  1  0.503800  0.402985  0.201873  1
  Ta  Ta8  1  0.000884  0.199868  0.601740  1
  Ta  Ta9  1  0.000446  0.601651  0.800810  1
  B  B10  1  0.336676  0.237452  0.866362  1
  B  B11  1  0.334989  0.635118  0.063409  1
  B  B12  1  0.170129  0.371551  0.929714  1
  B  B13  1  0.336223  0.034504  0.267453  1
  B  B14  1  0.168134  0.766541  0.130130  1
  B  B15  1  0.834580  0.237310  0.864384  1
  B  B16  1  0.165841  0.165815  0.336619  1
  B  B17  1  0.829500  0.631538  0.065138  1
  B  B18  1  0.332923  0.432343  0.470966  1
  B  B19  1  0.665542  0.368916  0.931935  1
  B  B20  1  0.834168  0.033640  0.270108  1
  B  B21  1  0.664102  0.764677  0.131669  1
  B  B22  1  0.330714  0.830568  0.668937  1
  B  B23  1  0.165095  0.564824  0.536842  1
  B  B24  1  0.665540  0.166545  0.332521  1
  B  B25  1  0.834540  0.433814  0.469420  1
  B  B26  1  0.165058  0.963821  0.730520  1
  B  B27  1  0.833822  0.830527  0.665706  1
  B  B28  1  0.669335  0.566168  0.535295  1
  B  B29  1  0.663150  0.964354  0.732837  1
