# generated using pymatgen
data_Li2CeEr3(Si4Pd)2
_symmetry_space_group_name_H-M   'P 1'
_cell_length_a   3.86148500
_cell_length_b   7.32450032
_cell_length_c   10.10295377
_cell_angle_alpha   90.17379225
_cell_angle_beta   90.00000000
_cell_angle_gamma   90.00000000
_symmetry_Int_Tables_number   1
_chemical_formula_structural   Li2CeEr3(Si4Pd)2
_chemical_formula_sum   'Li2 Ce1 Er3 Si8 Pd2'
_cell_volume   285.74505408
_cell_formula_units_Z   1
loop_
 _symmetry_equiv_pos_site_id
 _symmetry_equiv_pos_as_xyz
  1  'x, y, z'
loop_
 _atom_site_type_symbol
 _atom_site_label
 _atom_site_symmetry_multiplicity
 _atom_site_fract_x
 _atom_site_fract_y
 _atom_site_fract_z
 _atom_site_occupancy
  Li  Li0  1  0.750000  0.004078  0.605509  1
  Li  Li1  1  0.750000  0.506178  0.896502  1
  Ce  Ce2  1  0.250000  0.647825  0.630869  1
  Er  Er3  1  0.250000  0.143337  0.871216  1
  Er  Er4  1  0.750000  0.863297  0.133508  1
  Er  Er5  1  0.750000  0.360585  0.366000  1
  Si  Si6  1  0.250000  0.218706  0.570463  1
  Si  Si7  1  0.250000  0.730146  0.933700  1
  Si  Si8  1  0.750000  0.769704  0.427571  1
  Si  Si9  1  0.750000  0.269322  0.068994  1
  Si  Si10  1  0.250000  0.656879  0.316508  1
  Si  Si11  1  0.250000  0.158653  0.181777  1
  Si  Si12  1  0.750000  0.340482  0.678188  1
  Si  Si13  1  0.750000  0.841997  0.822544  1
  Pd  Pd14  1  0.250000  0.994253  0.388353  1
  Pd  Pd15  1  0.250000  0.494555  0.108296  1
