# generated using pymatgen
data_Lu13Th3(ZnCo)4
_symmetry_space_group_name_H-M   'P 1'
_cell_length_a   9.25991859
_cell_length_b   9.25099827
_cell_length_c   9.25099700
_cell_angle_alpha   60.00000097
_cell_angle_beta   60.03186242
_cell_angle_gamma   60.03186419
_symmetry_Int_Tables_number   1
_chemical_formula_structural   Lu13Th3(ZnCo)4
_chemical_formula_sum   'Lu13 Th3 Zn4 Co4'
_cell_volume   560.63254893
_cell_formula_units_Z   1
loop_
 _symmetry_equiv_pos_site_id
 _symmetry_equiv_pos_as_xyz
  1  'x, y, z'
loop_
 _atom_site_type_symbol
 _atom_site_label
 _atom_site_symmetry_multiplicity
 _atom_site_fract_x
 _atom_site_fract_y
 _atom_site_fract_z
 _atom_site_occupancy
  Lu  Lu0  1  0.941447  0.352851  0.352851  1
  Lu  Lu1  1  0.811991  0.189163  0.189163  1
  Lu  Lu2  1  0.188205  0.812615  0.812615  1
  Lu  Lu3  1  0.188205  0.812615  0.186564  1
  Lu  Lu4  1  0.811991  0.189163  0.809683  1
  Lu  Lu5  1  0.188205  0.186564  0.812615  1
  Lu  Lu6  1  0.811991  0.809683  0.189163  1
  Lu  Lu7  1  0.935118  0.564610  0.564610  1
  Lu  Lu8  1  0.566044  0.933968  0.933968  1
  Lu  Lu9  1  0.566044  0.933968  0.566021  1
  Lu  Lu10  1  0.935118  0.564610  0.935661  1
  Lu  Lu11  1  0.566044  0.566021  0.933968  1
  Lu  Lu12  1  0.935118  0.935661  0.564610  1
  Th  Th13  1  0.346960  0.350746  0.350746  1
  Th  Th14  1  0.346960  0.350746  0.951546  1
  Th  Th15  1  0.346960  0.951546  0.350746  1
  Zn  Zn16  1  0.585154  0.579686  0.579686  1
  Zn  Zn17  1  0.585154  0.579686  0.255472  1
  Zn  Zn18  1  0.585154  0.255472  0.579686  1
  Zn  Zn19  1  0.254593  0.581803  0.581803  1
  Co  Co20  1  0.144653  0.142220  0.142220  1
  Co  Co21  1  0.144653  0.142220  0.570907  1
  Co  Co22  1  0.144653  0.570907  0.142220  1
  Co  Co23  1  0.569580  0.143473  0.143473  1
