# generated using pymatgen
data_Tm6FeRh
_symmetry_space_group_name_H-M   'P 1'
_cell_length_a   7.09179000
_cell_length_b   9.06722700
_cell_length_c   6.20153500
_cell_angle_alpha   90.00000000
_cell_angle_beta   90.00000000
_cell_angle_gamma   90.00000000
_symmetry_Int_Tables_number   1
_chemical_formula_structural   Tm6FeRh
_chemical_formula_sum   'Tm12 Fe2 Rh2'
_cell_volume   398.77649746
_cell_formula_units_Z   2
loop_
 _symmetry_equiv_pos_site_id
 _symmetry_equiv_pos_as_xyz
  1  'x, y, z'
loop_
 _atom_site_type_symbol
 _atom_site_label
 _atom_site_symmetry_multiplicity
 _atom_site_fract_x
 _atom_site_fract_y
 _atom_site_fract_z
 _atom_site_occupancy
  Tm  Tm0  1  0.462440  0.250000  0.132645  1
  Tm  Tm1  1  0.175830  0.570953  0.177748  1
  Tm  Tm2  1  0.175830  0.929047  0.177748  1
  Tm  Tm3  1  0.675829  0.570953  0.322253  1
  Tm  Tm4  1  0.675829  0.929047  0.322253  1
  Tm  Tm5  1  0.962440  0.250000  0.367357  1
  Tm  Tm6  1  0.040958  0.750000  0.633927  1
  Tm  Tm7  1  0.322927  0.056838  0.668857  1
  Tm  Tm8  1  0.322927  0.443162  0.668857  1
  Tm  Tm9  1  0.822928  0.056838  0.831144  1
  Tm  Tm10  1  0.822928  0.443162  0.831144  1
  Tm  Tm11  1  0.540959  0.750000  0.866075  1
  Fe  Fe12  1  0.885295  0.750000  0.032987  1
  Fe  Fe13  1  0.385296  0.750000  0.467015  1
  Rh  Rh14  1  0.613793  0.250000  0.549065  1
  Rh  Rh15  1  0.113794  0.250000  0.950937  1
