# generated using pymatgen
data_Ta2TiAl2IrC
_symmetry_space_group_name_H-M   'P 1'
_cell_length_a   8.26830443
_cell_length_b   8.26763603
_cell_length_c   8.27944904
_cell_angle_alpha   59.95801425
_cell_angle_beta   59.94842815
_cell_angle_gamma   60.09191491
_symmetry_Int_Tables_number   1
_chemical_formula_structural   Ta2TiAl2IrC
_chemical_formula_sum   'Ta8 Ti4 Al8 Ir4 C4'
_cell_volume   400.20006141
_cell_formula_units_Z   4
loop_
 _symmetry_equiv_pos_site_id
 _symmetry_equiv_pos_as_xyz
  1  'x, y, z'
loop_
 _atom_site_type_symbol
 _atom_site_label
 _atom_site_symmetry_multiplicity
 _atom_site_fract_x
 _atom_site_fract_y
 _atom_site_fract_z
 _atom_site_occupancy
  Ta  Ta0  1  0.689564  0.688925  0.311135  1
  Ta  Ta1  1  0.311137  0.310375  0.689564  1
  Ta  Ta2  1  0.561445  0.560733  0.939356  1
  Ta  Ta3  1  0.939737  0.560320  0.560853  1
  Ta  Ta4  1  0.560853  0.939090  0.939738  1
  Ta  Ta5  1  0.939356  0.938466  0.561445  1
  Ta  Ta6  1  0.688493  0.311506  0.688494  1
  Ta  Ta7  1  0.938252  0.561749  0.938254  1
  Ti  Ti8  1  0.561009  0.938993  0.561007  1
  Ti  Ti9  1  0.312049  0.687914  0.688828  1
  Ti  Ti10  1  0.688828  0.311208  0.312048  1
  Ti  Ti11  1  0.310816  0.689184  0.310815  1
  Al  Al12  1  0.918136  0.915470  0.915846  1
  Al  Al13  1  0.997909  0.332653  0.332845  1
  Al  Al14  1  0.332837  0.996390  0.336803  1
  Al  Al15  1  0.332844  0.336594  0.997910  1
  Al  Al16  1  0.915845  0.250550  0.918135  1
  Al  Al17  1  0.914127  0.917811  0.252286  1
  Al  Al18  1  0.252286  0.915775  0.914127  1
  Al  Al19  1  0.336803  0.333970  0.332836  1
  Ir  Ir20  1  0.126348  0.124168  0.124422  1
  Ir  Ir21  1  0.624613  0.124303  0.124110  1
  Ir  Ir22  1  0.124422  0.625061  0.126349  1
  Ir  Ir23  1  0.124110  0.126974  0.624613  1
  C  C24  1  0.621547  0.629450  0.625166  1
  C  C25  1  0.129647  0.625932  0.621822  1
  C  C26  1  0.625166  0.123836  0.621547  1
  C  C27  1  0.621822  0.622600  0.129647  1
