# generated using pymatgen
data_Eu3Ga4Co3Ru
_symmetry_space_group_name_H-M   'P 1'
_cell_length_a   6.49820634
_cell_length_b   6.49820582
_cell_length_c   6.58558400
_cell_angle_alpha   109.74384160
_cell_angle_beta   109.74383993
_cell_angle_gamma   109.19723251
_symmetry_Int_Tables_number   1
_chemical_formula_structural   Eu3Ga4Co3Ru
_chemical_formula_sum   'Eu3 Ga4 Co3 Ru1'
_cell_volume   213.34727150
_cell_formula_units_Z   1
loop_
 _symmetry_equiv_pos_site_id
 _symmetry_equiv_pos_as_xyz
  1  'x, y, z'
loop_
 _atom_site_type_symbol
 _atom_site_label
 _atom_site_symmetry_multiplicity
 _atom_site_fract_x
 _atom_site_fract_y
 _atom_site_fract_z
 _atom_site_occupancy
  Eu  Eu0  1  0.503943  0.503943  0.004483  1
  Eu  Eu1  1  0.496057  0.000000  0.500540  1
  Eu  Eu2  1  0.000000  0.496057  0.500540  1
  Ga  Ga3  1  0.402825  0.000000  0.005378  1
  Ga  Ga4  1  0.000000  0.402825  0.005378  1
  Ga  Ga5  1  0.000000  0.000000  0.386056  1
  Ga  Ga6  1  0.597175  0.597175  0.602553  1
  Co  Co7  1  0.767362  0.000000  0.000565  1
  Co  Co8  1  0.000000  0.767362  0.000565  1
  Co  Co9  1  0.232638  0.232638  0.233203  1
  Ru  Ru10  1  0.000000  0.000000  0.760740  1
