# generated using pymatgen
data_YBiPt2O7
_symmetry_space_group_name_H-M   'P 1'
_cell_length_a   7.36488637
_cell_length_b   7.36488685
_cell_length_c   7.36488697
_cell_angle_alpha   120.21814623
_cell_angle_beta   119.93287736
_cell_angle_gamma   89.86943980
_symmetry_Int_Tables_number   1
_chemical_formula_structural   YBiPt2O7
_chemical_formula_sum   'Y2 Bi2 Pt4 O14'
_cell_volume   282.15168208
_cell_formula_units_Z   2
loop_
 _symmetry_equiv_pos_site_id
 _symmetry_equiv_pos_as_xyz
  1  'x, y, z'
loop_
 _atom_site_type_symbol
 _atom_site_label
 _atom_site_symmetry_multiplicity
 _atom_site_fract_x
 _atom_site_fract_y
 _atom_site_fract_z
 _atom_site_occupancy
  Y  Y0  1  0.000000  0.500000  0.500000  1
  Y  Y1  1  0.500000  0.500000  0.000000  1
  Bi  Bi2  1  0.000000  0.500000  0.000000  1
  Bi  Bi3  1  0.000000  0.000000  0.500000  1
  Pt  Pt4  1  0.500000  0.000000  0.000000  1
  Pt  Pt5  1  0.500000  0.500000  0.500000  1
  Pt  Pt6  1  0.500000  0.000000  0.500000  1
  Pt  Pt7  1  0.000000  0.000000  0.000000  1
  O  O8  1  0.866026  0.616026  0.250000  1
  O  O9  1  0.133974  0.383974  0.750000  1
  O  O10  1  0.834276  0.084276  0.750000  1
  O  O11  1  0.411111  0.661111  0.750000  1
  O  O12  1  0.836328  0.662413  0.743423  1
  O  O13  1  0.418990  0.092906  0.756577  1
  O  O14  1  0.836328  0.092906  0.173915  1
  O  O15  1  0.418990  0.662413  0.326085  1
  O  O16  1  0.165724  0.915724  0.250000  1
  O  O17  1  0.588889  0.338889  0.250000  1
  O  O18  1  0.163672  0.337587  0.256577  1
  O  O19  1  0.581010  0.907094  0.243423  1
  O  O20  1  0.163672  0.907094  0.826085  1
  O  O21  1  0.581010  0.337587  0.673915  1
