# generated using pymatgen
data_Ho7PaNb12Si15Ge
_symmetry_space_group_name_H-M   'P 1'
_cell_length_a   6.88004904
_cell_length_b   7.08158440
_cell_length_c   13.42478993
_cell_angle_alpha   90.02931539
_cell_angle_beta   90.06199996
_cell_angle_gamma   90.03286523
_symmetry_Int_Tables_number   1
_chemical_formula_structural   Ho7PaNb12Si15Ge
_chemical_formula_sum   'Ho7 Pa1 Nb12 Si15 Ge1'
_cell_volume   654.07731180
_cell_formula_units_Z   1
loop_
 _symmetry_equiv_pos_site_id
 _symmetry_equiv_pos_as_xyz
  1  'x, y, z'
loop_
 _atom_site_type_symbol
 _atom_site_label
 _atom_site_symmetry_multiplicity
 _atom_site_fract_x
 _atom_site_fract_y
 _atom_site_fract_z
 _atom_site_occupancy
  Ho  Ho0  1  0.001111  0.171576  0.404525  1
  Ho  Ho1  1  0.500259  0.673836  0.596878  1
  Ho  Ho2  1  0.997601  0.828162  0.903235  1
  Ho  Ho3  1  0.497645  0.671259  0.903721  1
  Ho  Ho4  1  0.997327  0.828593  0.596316  1
  Ho  Ho5  1  0.503243  0.326562  0.403363  1
  Ho  Ho6  1  0.000367  0.171878  0.095604  1
  Pa  Pa7  1  0.503210  0.327785  0.095994  1
  Nb  Nb8  1  0.664368  0.007411  0.750666  1
  Nb  Nb9  1  0.163389  0.491109  0.751495  1
  Nb  Nb10  1  0.335882  0.995989  0.248344  1
  Nb  Nb11  1  0.834161  0.506943  0.249063  1
  Nb  Nb12  1  0.836326  0.325349  0.626026  1
  Nb  Nb13  1  0.339267  0.175766  0.875694  1
  Nb  Nb14  1  0.164362  0.672451  0.125408  1
  Nb  Nb15  1  0.662199  0.826373  0.374005  1
  Nb  Nb16  1  0.159592  0.678186  0.372302  1
  Nb  Nb17  1  0.660527  0.826094  0.125561  1
  Nb  Nb18  1  0.837555  0.325897  0.875137  1
  Nb  Nb19  1  0.341369  0.171039  0.627220  1
  Si  Si20  1  0.797144  0.626349  0.749973  1
  Si  Si21  1  0.296530  0.871689  0.750342  1
  Si  Si22  1  0.201168  0.373736  0.250766  1
  Si  Si23  1  0.703440  0.125843  0.250591  1
  Si  Si24  1  0.541612  0.378024  0.750223  1
  Si  Si25  1  0.042039  0.122355  0.750115  1
  Si  Si26  1  0.458438  0.622468  0.250889  1
  Si  Si27  1  0.957307  0.877388  0.248976  1
  Si  Si28  1  0.664069  0.037188  0.540854  1
  Si  Si29  1  0.164541  0.462569  0.958423  1
  Si  Si30  1  0.333948  0.960806  0.040845  1
  Si  Si31  1  0.832517  0.537605  0.458503  1
  Si  Si32  1  0.336183  0.962871  0.459136  1
  Si  Si33  1  0.837909  0.539031  0.040640  1
  Si  Si34  1  0.664158  0.036171  0.958217  1
  Ge  Ge35  1  0.169239  0.463655  0.540942  1
