# generated using pymatgen
data_LiEr4Co17(P6Os)2
_symmetry_space_group_name_H-M   'P 1'
_cell_length_a   3.67652200
_cell_length_b   10.29521404
_cell_length_c   11.73909175
_cell_angle_alpha   89.88659261
_cell_angle_beta   90.00000000
_cell_angle_gamma   90.00000000
_symmetry_Int_Tables_number   1
_chemical_formula_structural   LiEr4Co17(P6Os)2
_chemical_formula_sum   'Li1 Er4 Co17 P12 Os2'
_cell_volume   444.33057177
_cell_formula_units_Z   1
loop_
 _symmetry_equiv_pos_site_id
 _symmetry_equiv_pos_as_xyz
  1  'x, y, z'
loop_
 _atom_site_type_symbol
 _atom_site_label
 _atom_site_symmetry_multiplicity
 _atom_site_fract_x
 _atom_site_fract_y
 _atom_site_fract_z
 _atom_site_occupancy
  Li  Li0  1  0.750000  0.295986  0.009084  1
  Er  Er1  1  0.250000  0.582258  0.701529  1
  Er  Er2  1  0.250000  0.919020  0.202276  1
  Er  Er3  1  0.750000  0.414281  0.296164  1
  Er  Er4  1  0.750000  0.084924  0.794597  1
  Co  Co5  1  0.750000  0.216330  0.508523  1
  Co  Co6  1  0.250000  0.406310  0.486351  1
  Co  Co7  1  0.250000  0.092030  0.987083  1
  Co  Co8  1  0.750000  0.591693  0.510322  1
  Co  Co9  1  0.750000  0.905541  0.010942  1
  Co  Co10  1  0.250000  0.218347  0.179794  1
  Co  Co11  1  0.250000  0.281172  0.673402  1
  Co  Co12  1  0.750000  0.776548  0.822977  1
  Co  Co13  1  0.750000  0.722246  0.323045  1
  Co  Co14  1  0.250000  0.887299  0.702569  1
  Co  Co15  1  0.250000  0.614115  0.202045  1
  Co  Co16  1  0.750000  0.113904  0.302498  1
  Co  Co17  1  0.750000  0.383211  0.799733  1
  Co  Co18  1  0.250000  0.464435  0.933451  1
  Co  Co19  1  0.250000  0.034098  0.433703  1
  Co  Co20  1  0.750000  0.535482  0.069206  1
  Co  Co21  1  0.750000  0.966019  0.569322  1
  P  P22  1  0.250000  0.417264  0.115981  1
  P  P23  1  0.250000  0.083828  0.612733  1
  P  P24  1  0.750000  0.576711  0.885789  1
  P  P25  1  0.750000  0.920677  0.386876  1
  P  P26  1  0.250000  0.269687  0.863348  1
  P  P27  1  0.250000  0.229383  0.369340  1
  P  P28  1  0.750000  0.731748  0.133285  1
  P  P29  1  0.750000  0.769623  0.633337  1
  P  P30  1  0.250000  0.593602  0.389728  1
  P  P31  1  0.250000  0.905881  0.890832  1
  P  P32  1  0.750000  0.398564  0.607507  1
  P  P33  1  0.750000  0.101547  0.109167  1
  Os  Os34  1  0.250000  0.711733  0.991271  1
  Os  Os35  1  0.250000  0.784502  0.492190  1
