# generated using pymatgen
data_Pr8YEr10Si16Tc
_symmetry_space_group_name_H-M   'P 1'
_cell_length_a   7.40466872
_cell_length_b   7.76041601
_cell_length_c   14.64554400
_cell_angle_alpha   90.00000000
_cell_angle_beta   90.00000000
_cell_angle_gamma   90.05446185
_symmetry_Int_Tables_number   1
_chemical_formula_structural   Pr8YEr10Si16Tc
_chemical_formula_sum   'Pr8 Y1 Er10 Si16 Tc1'
_cell_volume   841.58104993
_cell_formula_units_Z   1
loop_
 _symmetry_equiv_pos_site_id
 _symmetry_equiv_pos_as_xyz
  1  'x, y, z'
loop_
 _atom_site_type_symbol
 _atom_site_label
 _atom_site_symmetry_multiplicity
 _atom_site_fract_x
 _atom_site_fract_y
 _atom_site_fract_z
 _atom_site_occupancy
  Pr  Pr0  1  0.021951  0.179760  0.403844  1
  Pr  Pr1  1  0.520690  0.321667  0.406989  1
  Pr  Pr2  1  0.486361  0.684643  0.896735  1
  Pr  Pr3  1  0.486361  0.684643  0.603265  1
  Pr  Pr4  1  0.975366  0.827049  0.601355  1
  Pr  Pr5  1  0.975366  0.827049  0.898645  1
  Pr  Pr6  1  0.520690  0.321667  0.093011  1
  Pr  Pr7  1  0.021951  0.179760  0.096156  1
  Y  Y8  1  0.152951  0.510178  0.750000  1
  Er  Er9  1  0.321107  0.168700  0.628070  1
  Er  Er10  1  0.679393  0.824376  0.379864  1
  Er  Er11  1  0.180790  0.677577  0.377832  1
  Er  Er12  1  0.817518  0.317723  0.872835  1
  Er  Er13  1  0.817518  0.317723  0.627165  1
  Er  Er14  1  0.847604  0.489123  0.250000  1
  Er  Er15  1  0.348014  0.010268  0.250000  1
  Er  Er16  1  0.321107  0.168700  0.871930  1
  Er  Er17  1  0.180790  0.677577  0.122168  1
  Er  Er18  1  0.679393  0.824376  0.120136  1
  Si  Si19  1  0.287105  0.877174  0.750000  1
  Si  Si20  1  0.476275  0.616196  0.250000  1
  Si  Si21  1  0.008845  0.100844  0.750000  1
  Si  Si22  1  0.525071  0.379473  0.750000  1
  Si  Si23  1  0.148076  0.468263  0.541185  1
  Si  Si24  1  0.972773  0.881264  0.250000  1
  Si  Si25  1  0.726867  0.120107  0.250000  1
  Si  Si26  1  0.855747  0.532061  0.036438  1
  Si  Si27  1  0.352887  0.967433  0.036460  1
  Si  Si28  1  0.148076  0.468263  0.958815  1
  Si  Si29  1  0.644802  0.030049  0.550260  1
  Si  Si30  1  0.352887  0.967433  0.463540  1
  Si  Si31  1  0.855747  0.532061  0.463562  1
  Si  Si32  1  0.774807  0.628802  0.750000  1
  Si  Si33  1  0.230407  0.379246  0.250000  1
  Si  Si34  1  0.644802  0.030049  0.949740  1
  Tc  Tc35  1  0.639906  0.008719  0.750000  1
