# generated using pymatgen
data_Rb2TcO4
_symmetry_space_group_name_H-M   'P 1'
_cell_length_a   7.30533039
_cell_length_b   7.30533077
_cell_length_c   7.90295565
_cell_angle_alpha   66.62773224
_cell_angle_beta   66.62773308
_cell_angle_gamma   52.05952979
_symmetry_Int_Tables_number   1
_chemical_formula_structural   Rb2TcO4
_chemical_formula_sum   'Rb4 Tc2 O8'
_cell_volume   298.45306677
_cell_formula_units_Z   2
loop_
 _symmetry_equiv_pos_site_id
 _symmetry_equiv_pos_as_xyz
  1  'x, y, z'
loop_
 _atom_site_type_symbol
 _atom_site_label
 _atom_site_symmetry_multiplicity
 _atom_site_fract_x
 _atom_site_fract_y
 _atom_site_fract_z
 _atom_site_occupancy
  Rb  Rb0  1  0.158594  0.158594  0.247734  1
  Rb  Rb1  1  0.841406  0.841406  0.752266  1
  Rb  Rb2  1  0.514512  0.514512  0.761279  1
  Rb  Rb3  1  0.485488  0.485488  0.238721  1
  Tc  Tc4  1  0.823970  0.823970  0.226047  1
  Tc  Tc5  1  0.176030  0.176030  0.773953  1
  O  O6  1  0.618751  0.091381  0.090544  1
  O  O7  1  0.908619  0.381249  0.909456  1
  O  O8  1  0.381249  0.908619  0.909456  1
  O  O9  1  0.091381  0.618751  0.090544  1
  O  O10  1  0.327569  0.327569  0.636341  1
  O  O11  1  0.672431  0.672431  0.363659  1
  O  O12  1  0.911977  0.911977  0.346622  1
  O  O13  1  0.088023  0.088023  0.653378  1
