# generated using pymatgen
data_Y4FeOs5Ru2
_symmetry_space_group_name_H-M   'P 1'
_cell_length_a   5.24839529
_cell_length_b   5.26018509
_cell_length_c   9.00967000
_cell_angle_alpha   90.00000000
_cell_angle_beta   90.00000000
_cell_angle_gamma   120.07433345
_symmetry_Int_Tables_number   1
_chemical_formula_structural   Y4FeOs5Ru2
_chemical_formula_sum   'Y4 Fe1 Os5 Ru2'
_cell_volume   215.24907352
_cell_formula_units_Z   1
loop_
 _symmetry_equiv_pos_site_id
 _symmetry_equiv_pos_as_xyz
  1  'x, y, z'
loop_
 _atom_site_type_symbol
 _atom_site_label
 _atom_site_symmetry_multiplicity
 _atom_site_fract_x
 _atom_site_fract_y
 _atom_site_fract_z
 _atom_site_occupancy
  Y  Y0  1  0.335123  0.667562  0.436558  1
  Y  Y1  1  0.665069  0.332534  0.567163  1
  Y  Y2  1  0.665069  0.332534  0.932837  1
  Y  Y3  1  0.335123  0.667562  0.063442  1
  Fe  Fe4  1  0.670898  0.835450  0.750000  1
  Os  Os5  1  0.828099  0.171223  0.250000  1
  Os  Os6  1  0.828099  0.656875  0.250000  1
  Os  Os7  1  0.334288  0.167144  0.250000  1
  Os  Os8  1  0.169039  0.824372  0.750000  1
  Os  Os9  1  0.169039  0.344669  0.750000  1
  Ru  Ru10  1  0.000076  0.000038  0.502888  1
  Ru  Ru11  1  0.000076  0.000038  0.997112  1
