# generated using pymatgen
data_Nd4Ga10Ir5Rh
_symmetry_space_group_name_H-M   'P 1'
_cell_length_a   8.66723182
_cell_length_b   8.66723298
_cell_length_c   5.82190633
_cell_angle_alpha   70.36116092
_cell_angle_beta   70.36116130
_cell_angle_gamma   95.22828529
_symmetry_Int_Tables_number   1
_chemical_formula_structural   Nd4Ga10Ir5Rh
_chemical_formula_sum   'Nd4 Ga10 Ir5 Rh1'
_cell_volume   377.53888392
_cell_formula_units_Z   1
loop_
 _symmetry_equiv_pos_site_id
 _symmetry_equiv_pos_as_xyz
  1  'x, y, z'
loop_
 _atom_site_type_symbol
 _atom_site_label
 _atom_site_symmetry_multiplicity
 _atom_site_fract_x
 _atom_site_fract_y
 _atom_site_fract_z
 _atom_site_occupancy
  Nd  Nd0  1  0.865925  0.591179  0.772143  1
  Nd  Nd1  1  0.408821  0.134075  0.727857  1
  Nd  Nd2  1  0.134079  0.408959  0.228408  1
  Nd  Nd3  1  0.591041  0.865921  0.271592  1
  Ga  Ga4  1  0.080409  0.260474  0.829544  1
  Ga  Ga5  1  0.739526  0.919591  0.670456  1
  Ga  Ga6  1  0.919477  0.739582  0.171048  1
  Ga  Ga7  1  0.260418  0.080523  0.328952  1
  Ga  Ga8  1  0.206371  0.793629  0.750000  1
  Ga  Ga9  1  0.793250  0.206750  0.250000  1
  Ga  Ga10  1  0.500237  0.499763  0.750000  1
  Ga  Ga11  1  0.499777  0.500223  0.250000  1
  Ga  Ga12  1  0.793109  0.206891  0.750000  1
  Ga  Ga13  1  0.207442  0.792558  0.250000  1
  Ir  Ir14  1  0.255858  0.552166  0.597405  1
  Ir  Ir15  1  0.447834  0.744142  0.902595  1
  Ir  Ir16  1  0.744188  0.447768  0.403767  1
  Ir  Ir17  1  0.552232  0.255812  0.096233  1
  Ir  Ir18  1  0.999900  0.000100  0.750000  1
  Rh  Rh19  1  0.000104  0.999896  0.250000  1
