# generated using pymatgen
data_Cs2KHg3F12
_symmetry_space_group_name_H-M   'P 1'
_cell_length_a   8.46785156
_cell_length_b   8.46785071
_cell_length_c   13.35363965
_cell_angle_alpha   72.81412706
_cell_angle_beta   72.81412913
_cell_angle_gamma   59.55504896
_symmetry_Int_Tables_number   1
_chemical_formula_structural   Cs2KHg3F12
_chemical_formula_sum   'Cs4 K2 Hg6 F24'
_cell_volume   776.18617177
_cell_formula_units_Z   2
loop_
 _symmetry_equiv_pos_site_id
 _symmetry_equiv_pos_as_xyz
  1  'x, y, z'
loop_
 _atom_site_type_symbol
 _atom_site_label
 _atom_site_symmetry_multiplicity
 _atom_site_fract_x
 _atom_site_fract_y
 _atom_site_fract_z
 _atom_site_occupancy
  Cs  Cs0  1  0.895579  0.478120  0.684262  1
  Cs  Cs1  1  0.104421  0.521880  0.315738  1
  Cs  Cs2  1  0.521880  0.104421  0.815738  1
  Cs  Cs3  1  0.478120  0.895579  0.184262  1
  K  K4  1  0.229555  0.770445  0.750000  1
  K  K5  1  0.770445  0.229555  0.250000  1
  Hg  Hg6  1  0.500000  0.000000  0.500000  1
  Hg  Hg7  1  0.000000  0.500000  0.000000  1
  Hg  Hg8  1  0.000000  0.000000  0.500000  1
  Hg  Hg9  1  0.000000  0.000000  0.000000  1
  Hg  Hg10  1  0.500000  0.500000  0.500000  1
  Hg  Hg11  1  0.500000  0.500000  0.000000  1
  F  F12  1  0.893336  0.950281  0.663251  1
  F  F13  1  0.512413  0.878532  0.661621  1
  F  F14  1  0.265346  0.387348  0.039615  1
  F  F15  1  0.665507  0.206688  0.039978  1
  F  F16  1  0.878532  0.512413  0.161621  1
  F  F17  1  0.121468  0.487587  0.838379  1
  F  F18  1  0.487587  0.121468  0.338379  1
  F  F19  1  0.793312  0.334493  0.460022  1
  F  F20  1  0.106664  0.049719  0.336749  1
  F  F21  1  0.612652  0.734654  0.460385  1
  F  F22  1  0.452106  0.513102  0.159729  1
  F  F23  1  0.387348  0.265346  0.539615  1
  F  F24  1  0.513102  0.452106  0.659729  1
  F  F25  1  0.835990  0.920102  0.452533  1
  F  F26  1  0.164010  0.079898  0.547467  1
  F  F27  1  0.547894  0.486898  0.840271  1
  F  F28  1  0.920102  0.835990  0.952533  1
  F  F29  1  0.486898  0.547894  0.340271  1
  F  F30  1  0.734654  0.612652  0.960385  1
  F  F31  1  0.950281  0.893336  0.163251  1
  F  F32  1  0.079898  0.164010  0.047467  1
  F  F33  1  0.334493  0.793312  0.960022  1
  F  F34  1  0.049719  0.106664  0.836749  1
  F  F35  1  0.206688  0.665507  0.539978  1
