# generated using pymatgen
data_LiTb4Co19As12
_symmetry_space_group_name_H-M   'P 1'
_cell_length_a   3.80372600
_cell_length_b   10.69620535
_cell_length_c   12.23202038
_cell_angle_alpha   90.09745058
_cell_angle_beta   90.00000000
_cell_angle_gamma   90.00000000
_symmetry_Int_Tables_number   1
_chemical_formula_structural   LiTb4Co19As12
_chemical_formula_sum   'Li1 Tb4 Co19 As12'
_cell_volume   497.66434271
_cell_formula_units_Z   1
loop_
 _symmetry_equiv_pos_site_id
 _symmetry_equiv_pos_as_xyz
  1  'x, y, z'
loop_
 _atom_site_type_symbol
 _atom_site_label
 _atom_site_symmetry_multiplicity
 _atom_site_fract_x
 _atom_site_fract_y
 _atom_site_fract_z
 _atom_site_occupancy
  Li  Li0  1  0.250000  0.798905  0.491293  1
  Tb  Tb1  1  0.250000  0.919781  0.200261  1
  Tb  Tb2  1  0.750000  0.080788  0.798921  1
  Tb  Tb3  1  0.750000  0.420859  0.298119  1
  Tb  Tb4  1  0.250000  0.578901  0.702301  1
  Co  Co5  1  0.750000  0.206807  0.508995  1
  Co  Co6  1  0.750000  0.288336  0.007339  1
  Co  Co7  1  0.250000  0.711840  0.992346  1
  Co  Co8  1  0.250000  0.093960  0.988391  1
  Co  Co9  1  0.750000  0.907265  0.012977  1
  Co  Co10  1  0.750000  0.589799  0.513008  1
  Co  Co11  1  0.250000  0.405398  0.487880  1
  Co  Co12  1  0.250000  0.281888  0.676491  1
  Co  Co13  1  0.750000  0.715002  0.320202  1
  Co  Co14  1  0.750000  0.784337  0.826961  1
  Co  Co15  1  0.250000  0.216759  0.175980  1
  Co  Co16  1  0.250000  0.615856  0.196008  1
  Co  Co17  1  0.750000  0.382293  0.802369  1
  Co  Co18  1  0.750000  0.119233  0.302383  1
  Co  Co19  1  0.250000  0.881450  0.699556  1
  Co  Co20  1  0.250000  0.034163  0.431671  1
  Co  Co21  1  0.750000  0.968392  0.567567  1
  Co  Co22  1  0.750000  0.530128  0.066620  1
  Co  Co23  1  0.250000  0.468276  0.931665  1
  As  As24  1  0.250000  0.081499  0.614285  1
  As  As25  1  0.750000  0.918390  0.383308  1
  As  As26  1  0.750000  0.583333  0.886000  1
  As  As27  1  0.250000  0.416314  0.113297  1
  As  As28  1  0.250000  0.232807  0.368554  1
  As  As29  1  0.750000  0.768438  0.635169  1
  As  As30  1  0.750000  0.729971  0.129662  1
  As  As31  1  0.250000  0.268776  0.869113  1
  As  As32  1  0.250000  0.899224  0.893112  1
  As  As33  1  0.750000  0.102211  0.108612  1
  As  As34  1  0.750000  0.396393  0.608076  1
  As  As35  1  0.250000  0.602226  0.391508  1
