# generated using pymatgen
data_Co2Ni4As3
_symmetry_space_group_name_H-M   'P 1'
_cell_length_a   6.10927332
_cell_length_b   6.10927477
_cell_length_c   3.41103400
_cell_angle_alpha   90.00000000
_cell_angle_beta   90.00000000
_cell_angle_gamma   120.03708953
_symmetry_Int_Tables_number   1
_chemical_formula_structural   Co2Ni4As3
_chemical_formula_sum   'Co2 Ni4 As3'
_cell_volume   110.21316128
_cell_formula_units_Z   1
loop_
 _symmetry_equiv_pos_site_id
 _symmetry_equiv_pos_as_xyz
  1  'x, y, z'
loop_
 _atom_site_type_symbol
 _atom_site_label
 _atom_site_symmetry_multiplicity
 _atom_site_fract_x
 _atom_site_fract_y
 _atom_site_fract_z
 _atom_site_occupancy
  Co  Co0  1  0.261486  0.999826  0.000000  1
  Co  Co1  1  0.999826  0.261486  0.000000  1
  Ni  Ni2  1  0.739380  0.739380  0.000000  1
  Ni  Ni3  1  0.404965  0.404965  0.500000  1
  Ni  Ni4  1  0.601723  0.990274  0.500000  1
  Ni  Ni5  1  0.990274  0.601723  0.500000  1
  As  As6  1  0.665528  0.327558  0.000000  1
  As  As7  1  0.327558  0.665528  0.000000  1
  As  As8  1  0.009261  0.009261  0.500000  1
