# generated using pymatgen
data_Dy2YTm5(CdNi)2
_symmetry_space_group_name_H-M   'P 1'
_cell_length_a   9.45231325
_cell_length_b   9.45231337
_cell_length_c   9.44710700
_cell_angle_alpha   60.01821526
_cell_angle_beta   60.01821486
_cell_angle_gamma   59.96355437
_symmetry_Int_Tables_number   1
_chemical_formula_structural   Dy2YTm5(CdNi)2
_chemical_formula_sum   'Dy4 Y2 Tm10 Cd4 Ni4'
_cell_volume   596.84249748
_cell_formula_units_Z   2
loop_
 _symmetry_equiv_pos_site_id
 _symmetry_equiv_pos_as_xyz
  1  'x, y, z'
loop_
 _atom_site_type_symbol
 _atom_site_label
 _atom_site_symmetry_multiplicity
 _atom_site_fract_x
 _atom_site_fract_y
 _atom_site_fract_z
 _atom_site_occupancy
  Dy  Dy0  1  0.599335  0.599335  0.599900  1
  Dy  Dy1  1  0.599335  0.599335  0.201429  1
  Dy  Dy2  1  0.599900  0.201429  0.599335  1
  Dy  Dy3  1  0.201429  0.599900  0.599335  1
  Y  Y4  1  0.815120  0.815120  0.184880  1
  Y  Y5  1  0.184880  0.184880  0.815120  1
  Tm  Tm6  1  0.062358  0.437642  0.437642  1
  Tm  Tm7  1  0.437642  0.062358  0.062358  1
  Tm  Tm8  1  0.437642  0.062358  0.437642  1
  Tm  Tm9  1  0.062358  0.437642  0.062358  1
  Tm  Tm10  1  0.437365  0.437365  0.062635  1
  Tm  Tm11  1  0.062635  0.062635  0.437365  1
  Tm  Tm12  1  0.187021  0.812979  0.812979  1
  Tm  Tm13  1  0.812979  0.187021  0.187021  1
  Tm  Tm14  1  0.812979  0.187021  0.812979  1
  Tm  Tm15  1  0.187021  0.812979  0.187021  1
  Cd  Cd16  1  0.831891  0.831891  0.830447  1
  Cd  Cd17  1  0.831891  0.831891  0.505772  1
  Cd  Cd18  1  0.830447  0.505772  0.831891  1
  Cd  Cd19  1  0.505772  0.830447  0.831891  1
  Ni  Ni20  1  0.392685  0.392685  0.390268  1
  Ni  Ni21  1  0.392685  0.392685  0.824361  1
  Ni  Ni22  1  0.390268  0.824361  0.392685  1
  Ni  Ni23  1  0.824361  0.390268  0.392685  1
