# generated using pymatgen
data_CaLa4CdPd4
_symmetry_space_group_name_H-M   'P 1'
_cell_length_a   8.11252400
_cell_length_b   8.11252400
_cell_length_c   4.00339800
_cell_angle_alpha   90.00000000
_cell_angle_beta   90.00000000
_cell_angle_gamma   90.00000000
_symmetry_Int_Tables_number   1
_chemical_formula_structural   CaLa4CdPd4
_chemical_formula_sum   'Ca1 La4 Cd1 Pd4'
_cell_volume   263.47581533
_cell_formula_units_Z   1
loop_
 _symmetry_equiv_pos_site_id
 _symmetry_equiv_pos_as_xyz
  1  'x, y, z'
loop_
 _atom_site_type_symbol
 _atom_site_label
 _atom_site_symmetry_multiplicity
 _atom_site_fract_x
 _atom_site_fract_y
 _atom_site_fract_z
 _atom_site_occupancy
  Ca  Ca0  1  0.000000  0.000000  0.000000  1
  La  La1  1  0.651254  0.186907  0.500000  1
  La  La2  1  0.348746  0.813093  0.500000  1
  La  La3  1  0.186907  0.348746  0.500000  1
  La  La4  1  0.813093  0.651254  0.500000  1
  Cd  Cd5  1  0.500000  0.500000  0.000000  1
  Pd  Pd6  1  0.126056  0.631860  0.000000  1
  Pd  Pd7  1  0.873944  0.368140  0.000000  1
  Pd  Pd8  1  0.631860  0.873944  0.000000  1
  Pd  Pd9  1  0.368140  0.126056  0.000000  1
