# generated using pymatgen
data_Lu4B12MoOs
_symmetry_space_group_name_H-M   'P 1'
_cell_length_a   3.58890600
_cell_length_b   9.09876650
_cell_length_c   11.47383569
_cell_angle_alpha   89.84346582
_cell_angle_beta   90.00000000
_cell_angle_gamma   90.00000000
_symmetry_Int_Tables_number   1
_chemical_formula_structural   Lu4B12MoOs
_chemical_formula_sum   'Lu8 B24 Mo2 Os2'
_cell_volume   374.67231959
_cell_formula_units_Z   2
loop_
 _symmetry_equiv_pos_site_id
 _symmetry_equiv_pos_as_xyz
  1  'x, y, z'
loop_
 _atom_site_type_symbol
 _atom_site_label
 _atom_site_symmetry_multiplicity
 _atom_site_fract_x
 _atom_site_fract_y
 _atom_site_fract_z
 _atom_site_occupancy
  Lu  Lu0  1  0.000000  0.322050  0.414263  1
  Lu  Lu1  1  0.000000  0.677950  0.585737  1
  Lu  Lu2  1  0.000000  0.821348  0.086443  1
  Lu  Lu3  1  0.000000  0.178652  0.913557  1
  Lu  Lu4  1  0.000000  0.944535  0.371615  1
  Lu  Lu5  1  0.000000  0.055465  0.628385  1
  Lu  Lu6  1  0.000000  0.443262  0.128028  1
  Lu  Lu7  1  0.000000  0.556738  0.871972  1
  B  B8  1  0.500000  0.551641  0.434530  1
  B  B9  1  0.500000  0.448359  0.565470  1
  B  B10  1  0.500000  0.053775  0.066048  1
  B  B11  1  0.500000  0.946225  0.933952  1
  B  B12  1  0.500000  0.751764  0.421861  1
  B  B13  1  0.500000  0.248236  0.578139  1
  B  B14  1  0.500000  0.249759  0.080253  1
  B  B15  1  0.500000  0.750241  0.919747  1
  B  B16  1  0.500000  0.796323  0.263384  1
  B  B17  1  0.500000  0.203677  0.736615  1
  B  B18  1  0.500000  0.291557  0.234088  1
  B  B19  1  0.500000  0.708443  0.765913  1
  B  B20  1  0.500000  0.631587  0.181867  1
  B  B21  1  0.500000  0.368413  0.818133  1
  B  B22  1  0.500000  0.130469  0.314218  1
  B  B23  1  0.500000  0.869531  0.685782  1
  B  B24  1  0.500000  0.982281  0.211785  1
  B  B25  1  0.500000  0.017719  0.788215  1
  B  B26  1  0.500000  0.477575  0.286652  1
  B  B27  1  0.500000  0.522425  0.713348  1
  B  B28  1  0.500000  0.602135  0.027461  1
  B  B29  1  0.500000  0.397865  0.972539  1
  B  B30  1  0.500000  0.102124  0.470832  1
  B  B31  1  0.500000  0.897876  0.529168  1
  Mo  Mo32  1  0.000000  0.639036  0.319370  1
  Mo  Mo33  1  0.000000  0.360964  0.680630  1
  Os  Os34  1  0.000000  0.138000  0.177976  1
  Os  Os35  1  0.000000  0.862000  0.822024  1
