# generated using pymatgen
data_Yb17Tm2PaPt16
_symmetry_space_group_name_H-M   'P 1'
_cell_length_a   7.45920199
_cell_length_b   7.55733148
_cell_length_c   14.56550753
_cell_angle_alpha   90.01180171
_cell_angle_beta   89.69013540
_cell_angle_gamma   90.00959398
_symmetry_Int_Tables_number   1
_chemical_formula_structural   Yb17Tm2PaPt16
_chemical_formula_sum   'Yb17 Tm2 Pa1 Pt16'
_cell_volume   821.06983064
_cell_formula_units_Z   1
loop_
 _symmetry_equiv_pos_site_id
 _symmetry_equiv_pos_as_xyz
  1  'x, y, z'
loop_
 _atom_site_type_symbol
 _atom_site_label
 _atom_site_symmetry_multiplicity
 _atom_site_fract_x
 _atom_site_fract_y
 _atom_site_fract_z
 _atom_site_occupancy
  Yb  Yb0  1  0.848493  0.662045  0.377768  1
  Yb  Yb1  1  0.351180  0.832323  0.379400  1
  Yb  Yb2  1  0.853762  0.665538  0.121324  1
  Yb  Yb3  1  0.645522  0.166413  0.878367  1
  Yb  Yb4  1  0.150757  0.330346  0.622267  1
  Yb  Yb5  1  0.492025  0.675011  0.594511  1
  Yb  Yb6  1  0.986817  0.822310  0.902854  1
  Yb  Yb7  1  0.512433  0.327368  0.094719  1
  Yb  Yb8  1  0.008525  0.179907  0.407682  1
  Yb  Yb9  1  0.511066  0.317375  0.407938  1
  Yb  Yb10  1  0.002845  0.185963  0.095950  1
  Yb  Yb11  1  0.490990  0.678145  0.900788  1
  Yb  Yb12  1  0.991636  0.817258  0.594024  1
  Yb  Yb13  1  0.809991  0.505323  0.748728  1
  Yb  Yb14  1  0.308632  0.991037  0.748470  1
  Yb  Yb15  1  0.184086  0.490712  0.253901  1
  Yb  Yb16  1  0.698447  0.007294  0.253002  1
  Tm  Tm17  1  0.651714  0.161976  0.624219  1
  Tm  Tm18  1  0.148251  0.338108  0.875891  1
  Pa  Pa19  1  0.350761  0.842950  0.123689  1
  Pt  Pt20  1  0.687662  0.968126  0.461192  1
  Pt  Pt21  1  0.196469  0.553984  0.038565  1
  Pt  Pt22  1  0.300102  0.037335  0.965030  1
  Pt  Pt23  1  0.815721  0.454840  0.541102  1
  Pt  Pt24  1  0.328018  0.029743  0.544144  1
  Pt  Pt25  1  0.829042  0.465940  0.957306  1
  Pt  Pt26  1  0.666253  0.961186  0.044634  1
  Pt  Pt27  1  0.177766  0.528721  0.458549  1
  Pt  Pt28  1  0.444663  0.378529  0.748482  1
  Pt  Pt29  1  0.944737  0.119449  0.754071  1
  Pt  Pt30  1  0.545018  0.624789  0.239845  1
  Pt  Pt31  1  0.064255  0.879478  0.245696  1
  Pt  Pt32  1  0.682322  0.863405  0.747025  1
  Pt  Pt33  1  0.179368  0.634952  0.752588  1
  Pt  Pt34  1  0.331497  0.135989  0.244925  1
  Pt  Pt35  1  0.809172  0.366132  0.251354  1
