# generated using pymatgen
data_YbHo3Ir8
_symmetry_space_group_name_H-M   'P 1'
_cell_length_a   5.34466800
_cell_length_b   5.34466864
_cell_length_c   8.69714700
_cell_angle_alpha   90.00000000
_cell_angle_beta   90.00000000
_cell_angle_gamma   119.99999605
_symmetry_Int_Tables_number   1
_chemical_formula_structural   YbHo3Ir8
_chemical_formula_sum   'Yb1 Ho3 Ir8'
_cell_volume   215.15377838
_cell_formula_units_Z   1
loop_
 _symmetry_equiv_pos_site_id
 _symmetry_equiv_pos_as_xyz
  1  'x, y, z'
loop_
 _atom_site_type_symbol
 _atom_site_label
 _atom_site_symmetry_multiplicity
 _atom_site_fract_x
 _atom_site_fract_y
 _atom_site_fract_z
 _atom_site_occupancy
  Yb  Yb0  1  0.666666  0.333334  0.934056  1
  Ho  Ho1  1  0.333334  0.666667  0.063572  1
  Ho  Ho2  1  0.333334  0.666667  0.431986  1
  Ho  Ho3  1  0.666666  0.333334  0.572781  1
  Ir  Ir4  1  0.000000  0.000000  0.999166  1
  Ir  Ir5  1  0.339914  0.169957  0.250725  1
  Ir  Ir6  1  0.830044  0.169957  0.250725  1
  Ir  Ir7  1  0.830042  0.660085  0.250725  1
  Ir  Ir8  1  0.000000  0.000000  0.499764  1
  Ir  Ir9  1  0.169917  0.339834  0.748832  1
  Ir  Ir10  1  0.169917  0.830082  0.748832  1
  Ir  Ir11  1  0.660165  0.830082  0.748832  1
