# generated using pymatgen
data_Tm2Lu2Mg3ZnPt4
_symmetry_space_group_name_H-M   'P 1'
_cell_length_a   4.12344900
_cell_length_b   6.94673647
_cell_length_c   8.50201369
_cell_angle_alpha   89.64142603
_cell_angle_beta   90.00000000
_cell_angle_gamma   90.00000000
_symmetry_Int_Tables_number   1
_chemical_formula_structural   Tm2Lu2Mg3ZnPt4
_chemical_formula_sum   'Tm2 Lu2 Mg3 Zn1 Pt4'
_cell_volume   243.53127730
_cell_formula_units_Z   1
loop_
 _symmetry_equiv_pos_site_id
 _symmetry_equiv_pos_as_xyz
  1  'x, y, z'
loop_
 _atom_site_type_symbol
 _atom_site_label
 _atom_site_symmetry_multiplicity
 _atom_site_fract_x
 _atom_site_fract_y
 _atom_site_fract_z
 _atom_site_occupancy
  Tm  Tm0  1  0.750000  0.448721  0.831151  1
  Tm  Tm1  1  0.750000  0.962622  0.679503  1
  Lu  Lu2  1  0.250000  0.536983  0.171746  1
  Lu  Lu3  1  0.250000  0.043446  0.322254  1
  Mg  Mg4  1  0.250000  0.635729  0.560332  1
  Mg  Mg5  1  0.750000  0.365097  0.439263  1
  Mg  Mg6  1  0.750000  0.871288  0.055887  1
  Zn  Zn7  1  0.250000  0.136295  0.940145  1
  Pt  Pt8  1  0.250000  0.744738  0.872333  1
  Pt  Pt9  1  0.750000  0.252719  0.129866  1
  Pt  Pt10  1  0.750000  0.757838  0.369066  1
  Pt  Pt11  1  0.250000  0.244522  0.628455  1
