# generated using pymatgen
data_Hf3GaRe2Si2Rh
_symmetry_space_group_name_H-M   'P 1'
_cell_length_a   6.99542121
_cell_length_b   6.97725274
_cell_length_c   3.46006000
_cell_angle_alpha   90.00000000
_cell_angle_beta   90.00000000
_cell_angle_gamma   120.48956857
_symmetry_Int_Tables_number   1
_chemical_formula_structural   Hf3GaRe2Si2Rh
_chemical_formula_sum   'Hf3 Ga1 Re2 Si2 Rh1'
_cell_volume   145.52878659
_cell_formula_units_Z   1
loop_
 _symmetry_equiv_pos_site_id
 _symmetry_equiv_pos_as_xyz
  1  'x, y, z'
loop_
 _atom_site_type_symbol
 _atom_site_label
 _atom_site_symmetry_multiplicity
 _atom_site_fract_x
 _atom_site_fract_y
 _atom_site_fract_z
 _atom_site_occupancy
  Hf  Hf0  1  0.391541  0.397219  0.500000  1
  Hf  Hf1  1  0.593650  0.004060  0.500000  1
  Hf  Hf2  1  0.016553  0.597840  0.500000  1
  Ga  Ga3  1  0.669069  0.342324  0.000000  1
  Re  Re4  1  0.246398  0.990919  0.000000  1
  Re  Re5  1  0.007724  0.253553  0.000000  1
  Si  Si6  1  0.339960  0.669221  0.000000  1
  Si  Si7  1  0.990190  0.988919  0.500000  1
  Rh  Rh8  1  0.744913  0.755946  0.000000  1
