# generated using pymatgen
data_Tm10Zn3CuBi2
_symmetry_space_group_name_H-M   'P 1'
_cell_length_a   8.50794054
_cell_length_b   8.50793955
_cell_length_c   8.55995128
_cell_angle_alpha   124.08827311
_cell_angle_beta   124.08827811
_cell_angle_gamma   82.65801479
_symmetry_Int_Tables_number   1
_chemical_formula_structural   Tm10Zn3CuBi2
_chemical_formula_sum   'Tm10 Zn3 Cu1 Bi2'
_cell_volume   408.99227403
_cell_formula_units_Z   1
loop_
 _symmetry_equiv_pos_site_id
 _symmetry_equiv_pos_as_xyz
  1  'x, y, z'
loop_
 _atom_site_type_symbol
 _atom_site_label
 _atom_site_symmetry_multiplicity
 _atom_site_fract_x
 _atom_site_fract_y
 _atom_site_fract_z
 _atom_site_occupancy
  Tm  Tm0  1  0.001187  0.000412  0.001600  1
  Tm  Tm1  1  0.499588  0.498813  0.998400  1
  Tm  Tm2  1  0.788121  0.294687  0.799529  1
  Tm  Tm3  1  0.205313  0.711879  0.200471  1
  Tm  Tm4  1  0.488592  0.995159  0.200471  1
  Tm  Tm5  1  0.298888  0.480683  0.500000  1
  Tm  Tm6  1  0.019317  0.201112  0.500000  1
  Tm  Tm7  1  0.504841  0.011408  0.799529  1
  Tm  Tm8  1  0.705944  0.511734  0.500000  1
  Tm  Tm9  1  0.988266  0.794056  0.500000  1
  Zn  Zn10  1  0.139487  0.639331  0.778818  1
  Zn  Zn11  1  0.860669  0.360513  0.221182  1
  Zn  Zn12  1  0.636845  0.863155  0.500000  1
  Cu  Cu13  1  0.368187  0.131813  0.500000  1
  Bi  Bi14  1  0.247378  0.252622  0.000000  1
  Bi  Bi15  1  0.747378  0.752622  0.000000  1
