# generated using pymatgen
data_CsRb7Tm6BBr20
_symmetry_space_group_name_H-M   'P 1'
_cell_length_a   12.32414883
_cell_length_b   12.32414866
_cell_length_c   12.32414828
_cell_angle_alpha   59.53614202
_cell_angle_beta   59.53614279
_cell_angle_gamma   59.53614499
_symmetry_Int_Tables_number   1
_chemical_formula_structural   CsRb7Tm6BBr20
_chemical_formula_sum   'Cs1 Rb7 Tm6 B1 Br20'
_cell_volume   1309.63699925
_cell_formula_units_Z   1
loop_
 _symmetry_equiv_pos_site_id
 _symmetry_equiv_pos_as_xyz
  1  'x, y, z'
loop_
 _atom_site_type_symbol
 _atom_site_label
 _atom_site_symmetry_multiplicity
 _atom_site_fract_x
 _atom_site_fract_y
 _atom_site_fract_z
 _atom_site_occupancy
  Cs  Cs0  1  0.359144  0.359144  0.359144  1
  Rb  Rb1  1  0.640459  0.640459  0.640459  1
  Rb  Rb2  1  0.359723  0.359723  0.920400  1
  Rb  Rb3  1  0.359723  0.920400  0.359723  1
  Rb  Rb4  1  0.640483  0.640483  0.079122  1
  Rb  Rb5  1  0.640483  0.079122  0.640483  1
  Rb  Rb6  1  0.920400  0.359723  0.359723  1
  Rb  Rb7  1  0.079122  0.640483  0.640483  1
  Tm  Tm8  1  0.853226  0.148305  0.148305  1
  Tm  Tm9  1  0.147153  0.851594  0.851594  1
  Tm  Tm10  1  0.148305  0.853226  0.148305  1
  Tm  Tm11  1  0.851594  0.147153  0.851594  1
  Tm  Tm12  1  0.148305  0.148305  0.853226  1
  Tm  Tm13  1  0.851594  0.851594  0.147153  1
  B  B14  1  0.999983  0.999983  0.999983  1
  Br  Br15  1  0.326023  0.999398  0.999398  1
  Br  Br16  1  0.673915  0.000553  0.000553  1
  Br  Br17  1  0.000048  0.325199  0.674889  1
  Br  Br18  1  0.000048  0.674889  0.325199  1
  Br  Br19  1  0.999398  0.326023  0.999398  1
  Br  Br20  1  0.674889  0.000048  0.325199  1
  Br  Br21  1  0.000553  0.673915  0.000553  1
  Br  Br22  1  0.325199  0.000048  0.674889  1
  Br  Br23  1  0.999398  0.999398  0.326023  1
  Br  Br24  1  0.000553  0.000553  0.673915  1
  Br  Br25  1  0.674889  0.325199  0.000048  1
  Br  Br26  1  0.325199  0.674889  0.000048  1
  Br  Br27  1  0.689911  0.314331  0.314331  1
  Br  Br28  1  0.314902  0.685242  0.685242  1
  Br  Br29  1  0.314331  0.689911  0.314331  1
  Br  Br30  1  0.685242  0.314902  0.685242  1
  Br  Br31  1  0.314331  0.314331  0.689911  1
  Br  Br32  1  0.685242  0.685242  0.314902  1
  Br  Br33  1  0.246380  0.246380  0.246380  1
  Br  Br34  1  0.749853  0.749853  0.749853  1
