# generated using pymatgen
data_Dy5Ho5Ru3Rh
_symmetry_space_group_name_H-M   'P 1'
_cell_length_a   6.33839963
_cell_length_b   7.29206133
_cell_length_c   8.47604153
_cell_angle_alpha   96.72256842
_cell_angle_beta   112.01068698
_cell_angle_gamma   90.09124485
_symmetry_Int_Tables_number   1
_chemical_formula_structural   Dy5Ho5Ru3Rh
_chemical_formula_sum   'Dy5 Ho5 Ru3 Rh1'
_cell_volume   360.27138510
_cell_formula_units_Z   1
loop_
 _symmetry_equiv_pos_site_id
 _symmetry_equiv_pos_as_xyz
  1  'x, y, z'
loop_
 _atom_site_type_symbol
 _atom_site_label
 _atom_site_symmetry_multiplicity
 _atom_site_fract_x
 _atom_site_fract_y
 _atom_site_fract_z
 _atom_site_occupancy
  Dy  Dy0  1  0.978833  0.917801  0.185794  1
  Dy  Dy1  1  0.791246  0.584755  0.811227  1
  Dy  Dy2  1  0.021801  0.084705  0.813564  1
  Dy  Dy3  1  0.209457  0.414035  0.185758  1
  Dy  Dy4  1  0.640438  0.816252  0.436161  1
  Ho  Ho5  1  0.209368  0.685670  0.567595  1
  Ho  Ho6  1  0.357819  0.185452  0.565380  1
  Ho  Ho7  1  0.793538  0.313072  0.435981  1
  Ho  Ho8  1  0.418901  0.750731  0.999342  1
  Ho  Ho9  1  0.578611  0.247911  0.998382  1
  Ru  Ru10  1  0.603603  0.923193  0.779865  1
  Ru  Ru11  1  0.175841  0.425050  0.778838  1
  Ru  Ru12  1  0.397991  0.075978  0.220694  1
  Rh  Rh13  1  0.822552  0.575392  0.221422  1
