# generated using pymatgen
data_Nd3Y(IO4)4
_symmetry_space_group_name_H-M   'P 1'
_cell_length_a   5.73141310
_cell_length_b   5.73802173
_cell_length_c   11.15485351
_cell_angle_alpha   90.05813723
_cell_angle_beta   89.31374861
_cell_angle_gamma   90.20522532
_symmetry_Int_Tables_number   1
_chemical_formula_structural   Nd3Y(IO4)4
_chemical_formula_sum   'Nd3 Y1 I4 O16'
_cell_volume   366.82052528
_cell_formula_units_Z   1
loop_
 _symmetry_equiv_pos_site_id
 _symmetry_equiv_pos_as_xyz
  1  'x, y, z'
loop_
 _atom_site_type_symbol
 _atom_site_label
 _atom_site_symmetry_multiplicity
 _atom_site_fract_x
 _atom_site_fract_y
 _atom_site_fract_z
 _atom_site_occupancy
  Nd  Nd0  1  0.486788  0.316874  0.895587  1
  Nd  Nd1  1  0.500806  0.815976  0.108910  1
  Nd  Nd2  1  0.005237  0.818088  0.895846  1
  Y  Y3  1  0.979992  0.317758  0.098158  1
  I  I4  1  0.006221  0.326248  0.636702  1
  I  I5  1  0.998635  0.824387  0.359278  1
  I  I6  1  0.496585  0.826239  0.636698  1
  I  I7  1  0.512809  0.323104  0.362884  1
  O  O8  1  0.236165  0.070487  0.011904  1
  O  O9  1  0.751639  0.565031  0.993854  1
  O  O10  1  0.245860  0.564023  0.010582  1
  O  O11  1  0.741116  0.069862  0.994482  1
  O  O12  1  0.131353  0.433519  0.778431  1
  O  O13  1  0.871263  0.940046  0.220231  1
  O  O14  1  0.366446  0.933439  0.778812  1
  O  O15  1  0.646176  0.428020  0.221008  1
  O  O16  1  0.849908  0.082190  0.715128  1
  O  O17  1  0.151375  0.581225  0.278654  1
  O  O18  1  0.649660  0.583251  0.714919  1
  O  O19  1  0.362018  0.074386  0.287932  1
  O  O20  1  0.248208  0.164997  0.564302  1
  O  O21  1  0.755433  0.664282  0.432885  1
  O  O22  1  0.256909  0.664775  0.564361  1
  O  O23  1  0.749400  0.165438  0.438453  1
