# generated using pymatgen
data_Pr5MoRuO12
_symmetry_space_group_name_H-M   'P 1'
_cell_length_a   7.11003422
_cell_length_b   7.11003459
_cell_length_c   7.88078422
_cell_angle_alpha   73.78092514
_cell_angle_beta   73.78092467
_cell_angle_gamma   49.01277497
_symmetry_Int_Tables_number   1
_chemical_formula_structural   Pr5MoRuO12
_chemical_formula_sum   'Pr5 Mo1 Ru1 O12'
_cell_volume   286.21120292
_cell_formula_units_Z   1
loop_
 _symmetry_equiv_pos_site_id
 _symmetry_equiv_pos_as_xyz
  1  'x, y, z'
loop_
 _atom_site_type_symbol
 _atom_site_label
 _atom_site_symmetry_multiplicity
 _atom_site_fract_x
 _atom_site_fract_y
 _atom_site_fract_z
 _atom_site_occupancy
  Pr  Pr0  1  0.298414  0.317066  0.355986  1
  Pr  Pr1  1  0.682934  0.701586  0.644014  1
  Pr  Pr2  1  0.683093  0.691515  0.169514  1
  Pr  Pr3  1  0.308485  0.316907  0.830486  1
  Pr  Pr4  1  0.996933  0.003067  0.500000  1
  Mo  Mo5  1  0.796114  0.203886  0.000000  1
  Ru  Ru6  1  0.233687  0.766313  0.000000  1
  O  O7  1  0.090400  0.595131  0.579417  1
  O  O8  1  0.998306  0.000478  0.194696  1
  O  O9  1  0.404869  0.909600  0.420583  1
  O  O10  1  0.505199  0.493805  0.167302  1
  O  O11  1  0.088068  0.583072  0.080049  1
  O  O12  1  0.898202  0.408169  0.424887  1
  O  O13  1  0.999522  0.001694  0.805304  1
  O  O14  1  0.591831  0.101797  0.575113  1
  O  O15  1  0.506195  0.494801  0.832698  1
  O  O16  1  0.596333  0.095512  0.077172  1
  O  O17  1  0.416928  0.911932  0.919951  1
  O  O18  1  0.904488  0.403667  0.922828  1
