# generated using pymatgen
data_Pr3Sm2P12Pd2Ru17
_symmetry_space_group_name_H-M   'P 1'
_cell_length_a   12.65195788
_cell_length_b   12.76157742
_cell_length_c   4.01960000
_cell_angle_alpha   90.00000000
_cell_angle_beta   90.00000000
_cell_angle_gamma   120.28703054
_symmetry_Int_Tables_number   1
_chemical_formula_structural   Pr3Sm2P12Pd2Ru17
_chemical_formula_sum   'Pr3 Sm2 P12 Pd2 Ru17'
_cell_volume   560.41812373
_cell_formula_units_Z   1
loop_
 _symmetry_equiv_pos_site_id
 _symmetry_equiv_pos_as_xyz
  1  'x, y, z'
loop_
 _atom_site_type_symbol
 _atom_site_label
 _atom_site_symmetry_multiplicity
 _atom_site_fract_x
 _atom_site_fract_y
 _atom_site_fract_z
 _atom_site_occupancy
  Pr  Pr0  1  0.182950  0.181852  0.500000  1
  Pr  Pr1  1  0.817050  0.998903  0.500000  1
  Pr  Pr2  1  0.000000  0.815702  0.500000  1
  Sm  Sm3  1  0.327899  0.663919  0.000000  1
  Sm  Sm4  1  0.672101  0.336020  0.000000  1
  P  P5  1  0.808796  0.810108  0.000000  1
  P  P6  1  0.191204  0.001310  0.000000  1
  P  P7  1  0.000000  0.186109  0.000000  1
  P  P8  1  0.170390  0.476674  0.500000  1
  P  P9  1  0.517987  0.700153  0.500000  1
  P  P10  1  0.298482  0.821992  0.500000  1
  P  P11  1  0.701518  0.523511  0.500000  1
  P  P12  1  0.829610  0.306284  0.500000  1
  P  P13  1  0.482013  0.182167  0.500000  1
  P  P14  1  0.368831  0.368587  0.000000  1
  P  P15  1  0.631169  0.999756  0.000000  1
  P  P16  1  0.000000  0.623403  0.000000  1
  Pd  Pd17  1  0.552570  0.553244  0.000000  1
  Pd  Pd18  1  0.447430  0.000674  0.000000  1
  Ru  Ru19  1  0.000000  0.444428  0.000000  1
  Ru  Ru20  1  0.708817  0.710901  0.500000  1
  Ru  Ru21  1  0.291183  0.002084  0.500000  1
  Ru  Ru22  1  0.000000  0.284640  0.500000  1
  Ru  Ru23  1  0.185162  0.379013  0.000000  1
  Ru  Ru24  1  0.616052  0.803622  0.000000  1
  Ru  Ru25  1  0.194045  0.815134  0.000000  1
  Ru  Ru26  1  0.805955  0.621089  0.000000  1
  Ru  Ru27  1  0.814838  0.193850  0.000000  1
  Ru  Ru28  1  0.383948  0.187570  0.000000  1
  Ru  Ru29  1  0.366416  0.493928  0.500000  1
  Ru  Ru30  1  0.506998  0.878137  0.500000  1
  Ru  Ru31  1  0.123332  0.631191  0.500000  1
  Ru  Ru32  1  0.876668  0.507859  0.500000  1
  Ru  Ru33  1  0.633584  0.127512  0.500000  1
  Ru  Ru34  1  0.493002  0.371139  0.500000  1
  Ru  Ru35  1  0.000000  0.997534  0.000000  1
