# generated using pymatgen
data_Be6Co2Ru3W
_symmetry_space_group_name_H-M   'P 1'
_cell_length_a   4.48052600
_cell_length_b   4.48052707
_cell_length_c   7.03032300
_cell_angle_alpha   90.00000000
_cell_angle_beta   90.00000000
_cell_angle_gamma   120.00000684
_symmetry_Int_Tables_number   1
_chemical_formula_structural   Be6Co2Ru3W
_chemical_formula_sum   'Be6 Co2 Ru3 W1'
_cell_volume   122.22610945
_cell_formula_units_Z   1
loop_
 _symmetry_equiv_pos_site_id
 _symmetry_equiv_pos_as_xyz
  1  'x, y, z'
loop_
 _atom_site_type_symbol
 _atom_site_label
 _atom_site_symmetry_multiplicity
 _atom_site_fract_x
 _atom_site_fract_y
 _atom_site_fract_z
 _atom_site_occupancy
  Be  Be0  1  0.828969  0.171031  0.255599  1
  Be  Be1  1  0.828969  0.657938  0.255599  1
  Be  Be2  1  0.342062  0.171031  0.255599  1
  Be  Be3  1  0.168666  0.831334  0.747113  1
  Be  Be4  1  0.168666  0.337333  0.747113  1
  Be  Be5  1  0.662667  0.831334  0.747113  1
  Co  Co6  1  0.000000  0.000000  0.503071  1
  Co  Co7  1  0.000000  0.000000  0.004548  1
  Ru  Ru8  1  0.333333  0.666667  0.425470  1
  Ru  Ru9  1  0.666667  0.333333  0.559053  1
  Ru  Ru10  1  0.666667  0.333333  0.938332  1
  W  W11  1  0.333333  0.666667  0.061391  1
