# generated using pymatgen
data_CeSmNp8O20
_symmetry_space_group_name_H-M   'P 1'
_cell_length_a   6.62079127
_cell_length_b   7.65208794
_cell_length_c   8.55236464
_cell_angle_alpha   102.92159056
_cell_angle_beta   97.54926269
_cell_angle_gamma   106.77854941
_symmetry_Int_Tables_number   1
_chemical_formula_structural   CeSmNp8O20
_chemical_formula_sum   'Ce1 Sm1 Np8 O20'
_cell_volume   395.32364277
_cell_formula_units_Z   1
loop_
 _symmetry_equiv_pos_site_id
 _symmetry_equiv_pos_as_xyz
  1  'x, y, z'
loop_
 _atom_site_type_symbol
 _atom_site_label
 _atom_site_symmetry_multiplicity
 _atom_site_fract_x
 _atom_site_fract_y
 _atom_site_fract_z
 _atom_site_occupancy
  Ce  Ce0  1  0.000000  0.500000  0.000000  1
  Sm  Sm1  1  0.000000  0.000000  0.000000  1
  Np  Np2  1  0.799416  0.599955  0.599586  1
  Np  Np3  1  0.601030  0.200006  0.200112  1
  Np  Np4  1  0.799129  0.099512  0.600098  1
  Np  Np5  1  0.398970  0.799994  0.799888  1
  Np  Np6  1  0.200584  0.400045  0.400414  1
  Np  Np7  1  0.602204  0.700964  0.200193  1
  Np  Np8  1  0.397796  0.299036  0.799807  1
  Np  Np9  1  0.200871  0.900488  0.399902  1
  O  O10  1  0.850783  0.326060  0.453696  1
  O  O11  1  0.639169  0.922413  0.052977  1
  O  O12  1  0.949408  0.773906  0.158597  1
  O  O13  1  0.444611  0.522497  0.647472  1
  O  O14  1  0.851644  0.826325  0.453152  1
  O  O15  1  0.642669  0.424232  0.051578  1
  O  O16  1  0.739165  0.371111  0.744913  1
  O  O17  1  0.262936  0.130118  0.257442  1
  O  O18  1  0.948144  0.279823  0.159053  1
  O  O19  1  0.444664  0.023448  0.646831  1
  O  O20  1  0.555336  0.976552  0.353169  1
  O  O21  1  0.051856  0.720177  0.840947  1
  O  O22  1  0.737064  0.869882  0.742558  1
  O  O23  1  0.357331  0.575768  0.948422  1
  O  O24  1  0.260835  0.628889  0.255087  1
  O  O25  1  0.555389  0.477503  0.352528  1
  O  O26  1  0.148356  0.173675  0.546848  1
  O  O27  1  0.050592  0.226094  0.841403  1
  O  O28  1  0.360831  0.077587  0.947023  1
  O  O29  1  0.149217  0.673940  0.546304  1
