# generated using pymatgen
data_Dy12AlZnCo4
_symmetry_space_group_name_H-M   'P 1'
_cell_length_a   8.24401720
_cell_length_b   8.24401784
_cell_length_c   8.24401738
_cell_angle_alpha   106.61713050
_cell_angle_beta   109.65450338
_cell_angle_gamma   112.18989159
_symmetry_Int_Tables_number   1
_chemical_formula_structural   Dy12AlZnCo4
_chemical_formula_sum   'Dy12 Al1 Zn1 Co4'
_cell_volume   430.29527431
_cell_formula_units_Z   1
loop_
 _symmetry_equiv_pos_site_id
 _symmetry_equiv_pos_as_xyz
  1  'x, y, z'
loop_
 _atom_site_type_symbol
 _atom_site_label
 _atom_site_symmetry_multiplicity
 _atom_site_fract_x
 _atom_site_fract_y
 _atom_site_fract_z
 _atom_site_occupancy
  Dy  Dy0  1  0.304914  0.263901  0.568813  1
  Dy  Dy1  1  0.695086  0.736099  0.431187  1
  Dy  Dy2  1  0.304914  0.736099  0.041013  1
  Dy  Dy3  1  0.695086  0.263901  0.958987  1
  Dy  Dy4  1  0.187759  0.514484  0.326725  1
  Dy  Dy5  1  0.187759  0.861035  0.673275  1
  Dy  Dy6  1  0.812241  0.485516  0.673275  1
  Dy  Dy7  1  0.812241  0.138965  0.326725  1
  Dy  Dy8  1  0.397741  0.217856  0.179885  1
  Dy  Dy9  1  0.037969  0.217856  0.820115  1
  Dy  Dy10  1  0.962031  0.782144  0.179885  1
  Dy  Dy11  1  0.602259  0.782144  0.820115  1
  Al  Al12  1  0.500000  0.000000  0.500000  1
  Zn  Zn13  1  0.500000  0.500000  0.000000  1
  Co  Co14  1  0.166204  0.500000  0.666204  1
  Co  Co15  1  0.833796  0.500000  0.333796  1
  Co  Co16  1  0.000000  0.115099  0.115099  1
  Co  Co17  1  0.000000  0.884901  0.884901  1
