# generated using pymatgen
data_U8Ta11Si16Mo
_symmetry_space_group_name_H-M   'P 1'
_cell_length_a   6.83161001
_cell_length_b   7.04592344
_cell_length_c   13.22362535
_cell_angle_alpha   90.01939899
_cell_angle_beta   89.97731037
_cell_angle_gamma   89.95569209
_symmetry_Int_Tables_number   1
_chemical_formula_structural   U8Ta11Si16Mo
_chemical_formula_sum   'U8 Ta11 Si16 Mo1'
_cell_volume   636.51894329
_cell_formula_units_Z   1
loop_
 _symmetry_equiv_pos_site_id
 _symmetry_equiv_pos_as_xyz
  1  'x, y, z'
loop_
 _atom_site_type_symbol
 _atom_site_label
 _atom_site_symmetry_multiplicity
 _atom_site_fract_x
 _atom_site_fract_y
 _atom_site_fract_z
 _atom_site_occupancy
  U  U0  1  0.499753  0.331347  0.092046  1
  U  U1  1  0.997869  0.169626  0.407801  1
  U  U2  1  0.501305  0.668895  0.592248  1
  U  U3  1  0.001317  0.832234  0.907155  1
  U  U4  1  0.500629  0.668513  0.906457  1
  U  U5  1  0.000932  0.830867  0.592926  1
  U  U6  1  0.499481  0.331134  0.409351  1
  U  U7  1  0.999759  0.168802  0.092135  1
  Ta  Ta8  1  0.835977  0.328018  0.623589  1
  Ta  Ta9  1  0.335965  0.172737  0.875060  1
  Ta  Ta10  1  0.164074  0.672545  0.124307  1
  Ta  Ta11  1  0.662300  0.828749  0.376638  1
  Ta  Ta12  1  0.165544  0.672581  0.377435  1
  Ta  Ta13  1  0.664333  0.827651  0.124179  1
  Ta  Ta14  1  0.835742  0.326863  0.874700  1
  Ta  Ta15  1  0.664705  0.000634  0.749404  1
  Ta  Ta16  1  0.164949  0.498890  0.749205  1
  Ta  Ta17  1  0.334596  0.999734  0.250600  1
  Ta  Ta18  1  0.835127  0.500788  0.250084  1
  Si  Si19  1  0.661518  0.039224  0.542615  1
  Si  Si20  1  0.163578  0.461121  0.958190  1
  Si  Si21  1  0.336477  0.960651  0.041004  1
  Si  Si22  1  0.836045  0.540393  0.458823  1
  Si  Si23  1  0.335180  0.962881  0.460716  1
  Si  Si24  1  0.836066  0.539395  0.040543  1
  Si  Si25  1  0.663834  0.038798  0.958395  1
  Si  Si26  1  0.165743  0.456562  0.542851  1
  Si  Si27  1  0.538329  0.376859  0.747520  1
  Si  Si28  1  0.042327  0.121493  0.748646  1
  Si  Si29  1  0.460211  0.621298  0.250447  1
  Si  Si30  1  0.959756  0.878315  0.250585  1
  Si  Si31  1  0.797189  0.629941  0.749920  1
  Si  Si32  1  0.297717  0.871237  0.749335  1
  Si  Si33  1  0.203114  0.370276  0.250428  1
  Si  Si34  1  0.702049  0.130359  0.250194  1
  Mo  Mo35  1  0.336511  0.170586  0.624467  1
