# generated using pymatgen
data_EuY2TaO7
_symmetry_space_group_name_H-M   'P 1'
_cell_length_a   6.50762217
_cell_length_b   6.50762147
_cell_length_c   7.58722500
_cell_angle_alpha   90.00000000
_cell_angle_beta   90.00000000
_cell_angle_gamma   108.92864974
_symmetry_Int_Tables_number   1
_chemical_formula_structural   EuY2TaO7
_chemical_formula_sum   'Eu2 Y4 Ta2 O14'
_cell_volume   303.93694012
_cell_formula_units_Z   2
loop_
 _symmetry_equiv_pos_site_id
 _symmetry_equiv_pos_as_xyz
  1  'x, y, z'
loop_
 _atom_site_type_symbol
 _atom_site_label
 _atom_site_symmetry_multiplicity
 _atom_site_fract_x
 _atom_site_fract_y
 _atom_site_fract_z
 _atom_site_occupancy
  Eu  Eu0  1  0.505421  0.505421  0.500000  1
  Eu  Eu1  1  0.494579  0.494579  0.000000  1
  Y  Y2  1  0.000326  0.466251  0.748119  1
  Y  Y3  1  0.999674  0.533749  0.248119  1
  Y  Y4  1  0.533749  0.999674  0.751881  1
  Y  Y5  1  0.466251  0.000326  0.251881  1
  Ta  Ta6  1  0.999923  0.999923  0.500000  1
  Ta  Ta7  1  0.000077  0.000077  0.000000  1
  O  O8  1  0.639951  0.360049  0.750000  1
  O  O9  1  0.360049  0.639951  0.250000  1
  O  O10  1  0.935924  0.064076  0.750000  1
  O  O11  1  0.064076  0.935924  0.250000  1
  O  O12  1  0.930395  0.679121  0.530293  1
  O  O13  1  0.069605  0.320879  0.030293  1
  O  O14  1  0.320879  0.069605  0.969707  1
  O  O15  1  0.679121  0.930395  0.469707  1
  O  O16  1  0.366873  0.633127  0.750000  1
  O  O17  1  0.633127  0.366873  0.250000  1
  O  O18  1  0.936738  0.683551  0.965354  1
  O  O19  1  0.063262  0.316449  0.465354  1
  O  O20  1  0.316449  0.063262  0.534646  1
  O  O21  1  0.683551  0.936738  0.034646  1
