# generated using pymatgen
data_Pr3GeI3
_symmetry_space_group_name_H-M   'P 1'
_cell_length_a   10.92616358
_cell_length_b   10.92616328
_cell_length_c   10.92616300
_cell_angle_alpha   109.47121826
_cell_angle_beta   109.47121770
_cell_angle_gamma   109.47122412
_symmetry_Int_Tables_number   1
_chemical_formula_structural   Pr3GeI3
_chemical_formula_sum   'Pr12 Ge4 I12'
_cell_volume   1004.10973751
_cell_formula_units_Z   4
loop_
 _symmetry_equiv_pos_site_id
 _symmetry_equiv_pos_as_xyz
  1  'x, y, z'
loop_
 _atom_site_type_symbol
 _atom_site_label
 _atom_site_symmetry_multiplicity
 _atom_site_fract_x
 _atom_site_fract_y
 _atom_site_fract_z
 _atom_site_occupancy
  Pr  Pr0  1  0.466849  0.483425  0.233425  1
  Pr  Pr1  1  0.750000  0.233425  0.266575  1
  Pr  Pr2  1  0.750000  0.016575  0.483425  1
  Pr  Pr3  1  0.233425  0.466849  0.483425  1
  Pr  Pr4  1  0.266575  0.750000  0.233425  1
  Pr  Pr5  1  0.033151  0.266575  0.016575  1
  Pr  Pr6  1  0.016575  0.033151  0.266575  1
  Pr  Pr7  1  0.483425  0.750000  0.016575  1
  Pr  Pr8  1  0.483425  0.233425  0.466849  1
  Pr  Pr9  1  0.016575  0.483425  0.750000  1
  Pr  Pr10  1  0.266575  0.016575  0.033151  1
  Pr  Pr11  1  0.233425  0.266575  0.750000  1
  Ge  Ge12  1  0.250000  0.250000  0.250000  1
  Ge  Ge13  1  0.500000  0.000000  0.250000  1
  Ge  Ge14  1  0.000000  0.250000  0.500000  1
  Ge  Ge15  1  0.250000  0.500000  0.000000  1
  I  I16  1  0.250000  0.757455  0.742545  1
  I  I17  1  0.514908  0.507455  0.757455  1
  I  I18  1  0.985092  0.742545  0.992545  1
  I  I19  1  0.742545  0.250000  0.757455  1
  I  I20  1  0.992545  0.985092  0.742545  1
  I  I21  1  0.250000  0.992545  0.507455  1
  I  I22  1  0.757455  0.514908  0.507455  1
  I  I23  1  0.507455  0.250000  0.992545  1
  I  I24  1  0.757455  0.742545  0.250000  1
  I  I25  1  0.742545  0.992545  0.985092  1
  I  I26  1  0.992545  0.507455  0.250000  1
  I  I27  1  0.507455  0.757455  0.514908  1
