# generated using pymatgen
data_Rb8Hf3Zr3BeI20
_symmetry_space_group_name_H-M   'P 1'
_cell_length_a   12.86179503
_cell_length_b   12.86524589
_cell_length_c   12.86910646
_cell_angle_alpha   59.97233574
_cell_angle_beta   59.99893800
_cell_angle_gamma   60.02873469
_symmetry_Int_Tables_number   1
_chemical_formula_structural   Rb8Hf3Zr3BeI20
_chemical_formula_sum   'Rb8 Hf3 Zr3 Be1 I20'
_cell_volume   1505.75005688
_cell_formula_units_Z   1
loop_
 _symmetry_equiv_pos_site_id
 _symmetry_equiv_pos_as_xyz
  1  'x, y, z'
loop_
 _atom_site_type_symbol
 _atom_site_label
 _atom_site_symmetry_multiplicity
 _atom_site_fract_x
 _atom_site_fract_y
 _atom_site_fract_z
 _atom_site_occupancy
  Rb  Rb0  1  0.361358  0.361347  0.361779  1
  Rb  Rb1  1  0.638744  0.638305  0.638324  1
  Rb  Rb2  1  0.361695  0.361256  0.915372  1
  Rb  Rb3  1  0.361779  0.915515  0.361358  1
  Rb  Rb4  1  0.638653  0.638642  0.084485  1
  Rb  Rb5  1  0.638324  0.084628  0.638744  1
  Rb  Rb6  1  0.915372  0.361676  0.361695  1
  Rb  Rb7  1  0.084485  0.638221  0.638653  1
  Hf  Hf8  1  0.867290  0.132710  0.132344  1
  Hf  Hf9  1  0.132344  0.867656  0.867290  1
  Hf  Hf10  1  0.132632  0.867368  0.132632  1
  Zr  Zr11  1  0.866338  0.133662  0.866338  1
  Zr  Zr12  1  0.133583  0.133925  0.866075  1
  Zr  Zr13  1  0.866075  0.866417  0.133583  1
  Be  Be14  1  0.000497  0.999503  0.000497  1
  I  I15  1  0.318499  0.997854  0.002146  1
  I  I16  1  0.679909  0.999949  0.000051  1
  I  I17  1  0.000051  0.320091  0.679909  1
  I  I18  1  0.002146  0.681501  0.318499  1
  I  I19  1  0.997979  0.318380  0.002197  1
  I  I20  1  0.681620  0.002021  0.318556  1
  I  I21  1  0.002197  0.681444  0.997979  1
  I  I22  1  0.318556  0.997803  0.681620  1
  I  I23  1  0.000032  0.999968  0.316951  1
  I  I24  1  0.002144  0.997856  0.681543  1
  I  I25  1  0.681543  0.318457  0.002144  1
  I  I26  1  0.316951  0.683049  0.000032  1
  I  I27  1  0.690971  0.309029  0.309452  1
  I  I28  1  0.309452  0.690548  0.690971  1
  I  I29  1  0.309163  0.690837  0.309163  1
  I  I30  1  0.689266  0.310734  0.689266  1
  I  I31  1  0.310858  0.310458  0.689542  1
  I  I32  1  0.689542  0.689142  0.310858  1
  I  I33  1  0.249976  0.250024  0.249976  1
  I  I34  1  0.749976  0.750024  0.749976  1
