# generated using pymatgen
data_Pr4Ga24PtRh
_symmetry_space_group_name_H-M   'P 1'
_cell_length_a   6.17868900
_cell_length_b   6.17868900
_cell_length_c   15.57346300
_cell_angle_alpha   90.00000000
_cell_angle_beta   90.00000000
_cell_angle_gamma   90.00000000
_symmetry_Int_Tables_number   1
_chemical_formula_structural   Pr4Ga24PtRh
_chemical_formula_sum   'Pr4 Ga24 Pt1 Rh1'
_cell_volume   594.53560328
_cell_formula_units_Z   1
loop_
 _symmetry_equiv_pos_site_id
 _symmetry_equiv_pos_as_xyz
  1  'x, y, z'
loop_
 _atom_site_type_symbol
 _atom_site_label
 _atom_site_symmetry_multiplicity
 _atom_site_fract_x
 _atom_site_fract_y
 _atom_site_fract_z
 _atom_site_occupancy
  Pr  Pr0  1  0.750000  0.250000  0.244856  1
  Pr  Pr1  1  0.250000  0.750000  0.242997  1
  Pr  Pr2  1  0.250000  0.750000  0.757003  1
  Pr  Pr3  1  0.750000  0.250000  0.755144  1
  Ga  Ga4  1  0.250000  0.250000  0.187592  1
  Ga  Ga5  1  0.750000  0.750000  0.187592  1
  Ga  Ga6  1  0.750000  0.750000  0.812408  1
  Ga  Ga7  1  0.250000  0.250000  0.812408  1
  Ga  Ga8  1  0.250000  0.250000  0.347138  1
  Ga  Ga9  1  0.750000  0.750000  0.347138  1
  Ga  Ga10  1  0.750000  0.750000  0.652862  1
  Ga  Ga11  1  0.250000  0.250000  0.652862  1
  Ga  Ga12  1  0.502892  0.002892  0.912227  1
  Ga  Ga13  1  0.997017  0.002983  0.912441  1
  Ga  Ga14  1  0.502983  0.497017  0.912441  1
  Ga  Ga15  1  0.997108  0.497108  0.912227  1
  Ga  Ga16  1  0.502983  0.002983  0.087559  1
  Ga  Ga17  1  0.997108  0.002892  0.087773  1
  Ga  Ga18  1  0.502892  0.497108  0.087773  1
  Ga  Ga19  1  0.997017  0.497017  0.087559  1
  Ga  Ga20  1  0.582895  0.082895  0.432240  1
  Ga  Ga21  1  0.083805  0.916195  0.431621  1
  Ga  Ga22  1  0.416195  0.583805  0.431621  1
  Ga  Ga23  1  0.917105  0.417105  0.432240  1
  Ga  Ga24  1  0.416195  0.916195  0.568379  1
  Ga  Ga25  1  0.917105  0.082895  0.567760  1
  Ga  Ga26  1  0.582895  0.417105  0.567760  1
  Ga  Ga27  1  0.083805  0.583805  0.568379  1
  Pt  Pt28  1  0.250000  0.750000  0.000000  1
  Rh  Rh29  1  0.750000  0.250000  0.000000  1
