# generated using pymatgen
data_Tb3NdCuNiPt2
_symmetry_space_group_name_H-M   'P 1'
_cell_length_a   4.38317700
_cell_length_b   5.61127853
_cell_length_c   7.23428608
_cell_angle_alpha   90.78555551
_cell_angle_beta   90.00000000
_cell_angle_gamma   90.00000000
_symmetry_Int_Tables_number   1
_chemical_formula_structural   Tb3NdCuNiPt2
_chemical_formula_sum   'Tb3 Nd1 Cu1 Ni1 Pt2'
_cell_volume   177.91218499
_cell_formula_units_Z   1
loop_
 _symmetry_equiv_pos_site_id
 _symmetry_equiv_pos_as_xyz
  1  'x, y, z'
loop_
 _atom_site_type_symbol
 _atom_site_label
 _atom_site_symmetry_multiplicity
 _atom_site_fract_x
 _atom_site_fract_y
 _atom_site_fract_z
 _atom_site_occupancy
  Tb  Tb0  1  0.000000  0.631906  0.328341  1
  Tb  Tb1  1  0.000000  0.869070  0.810576  1
  Tb  Tb2  1  0.500000  0.361341  0.677212  1
  Nd  Nd3  1  0.500000  0.135315  0.186436  1
  Cu  Cu4  1  0.500000  0.634226  0.036108  1
  Ni  Ni5  1  0.000000  0.138981  0.463010  1
  Pt  Pt6  1  0.000000  0.375262  0.954423  1
  Pt  Pt7  1  0.500000  0.853898  0.543895  1
