# generated using pymatgen
data_BaScSi4N7
_symmetry_space_group_name_H-M   'P 1'
_cell_length_a   5.98544400
_cell_length_b   5.98544388
_cell_length_c   9.75430000
_cell_angle_alpha   90.00000000
_cell_angle_beta   90.00000000
_cell_angle_gamma   119.99998959
_symmetry_Int_Tables_number   1
_chemical_formula_structural   BaScSi4N7
_chemical_formula_sum   'Ba2 Sc2 Si8 N14'
_cell_volume   302.63525640
_cell_formula_units_Z   2
loop_
 _symmetry_equiv_pos_site_id
 _symmetry_equiv_pos_as_xyz
  1  'x, y, z'
loop_
 _atom_site_type_symbol
 _atom_site_label
 _atom_site_symmetry_multiplicity
 _atom_site_fract_x
 _atom_site_fract_y
 _atom_site_fract_z
 _atom_site_occupancy
  Ba  Ba0  1  0.666667  0.333333  0.577073  1
  Ba  Ba1  1  0.333333  0.666667  0.077073  1
  Sc  Sc2  1  0.666667  0.333333  0.950913  1
  Sc  Sc3  1  0.333333  0.666667  0.450913  1
  Si  Si4  1  0.173973  0.347945  0.760596  1
  Si  Si5  1  0.826027  0.173973  0.260596  1
  Si  Si6  1  0.347945  0.173973  0.260596  1
  Si  Si7  1  0.652055  0.826027  0.760596  1
  Si  Si8  1  0.173973  0.826027  0.760596  1
  Si  Si9  1  0.826027  0.652055  0.260596  1
  Si  Si10  1  0.000000  0.000000  0.025726  1
  Si  Si11  1  0.000000  0.000000  0.525726  1
  N  N12  1  0.000000  0.000000  0.833790  1
  N  N13  1  0.000000  0.000000  0.333790  1
  N  N14  1  0.843025  0.686051  0.083909  1
  N  N15  1  0.156975  0.843025  0.583909  1
  N  N16  1  0.686051  0.843025  0.583909  1
  N  N17  1  0.313949  0.156975  0.083909  1
  N  N18  1  0.843025  0.156975  0.083909  1
  N  N19  1  0.156975  0.313949  0.583909  1
  N  N20  1  0.491829  0.508171  0.817268  1
  N  N21  1  0.983659  0.491829  0.317268  1
  N  N22  1  0.508171  0.016341  0.317268  1
  N  N23  1  0.491829  0.983659  0.817268  1
  N  N24  1  0.508171  0.491829  0.317268  1
  N  N25  1  0.016341  0.508171  0.817268  1
