# generated using pymatgen
data_Lu8GePd23Pt
_symmetry_space_group_name_H-M   'P 1'
_cell_length_a   8.27924000
_cell_length_b   8.28642500
_cell_length_c   8.28642500
_cell_angle_alpha   90.00000000
_cell_angle_beta   90.00000000
_cell_angle_gamma   90.00000000
_symmetry_Int_Tables_number   1
_chemical_formula_structural   Lu8GePd23Pt
_chemical_formula_sum   'Lu8 Ge1 Pd23 Pt1'
_cell_volume   568.49268397
_cell_formula_units_Z   1
loop_
 _symmetry_equiv_pos_site_id
 _symmetry_equiv_pos_as_xyz
  1  'x, y, z'
loop_
 _atom_site_type_symbol
 _atom_site_label
 _atom_site_symmetry_multiplicity
 _atom_site_fract_x
 _atom_site_fract_y
 _atom_site_fract_z
 _atom_site_occupancy
  Lu  Lu0  1  0.253134  0.252882  0.252882  1
  Lu  Lu1  1  0.746630  0.746273  0.746273  1
  Lu  Lu2  1  0.746630  0.746273  0.253727  1
  Lu  Lu3  1  0.746630  0.253727  0.746273  1
  Lu  Lu4  1  0.253134  0.252882  0.747118  1
  Lu  Lu5  1  0.253134  0.747118  0.252882  1
  Lu  Lu6  1  0.253134  0.747118  0.747118  1
  Lu  Lu7  1  0.746630  0.253727  0.253727  1
  Ge  Ge8  1  0.001314  0.000000  0.000000  1
  Pd  Pd9  1  0.259457  0.500000  0.000000  1
  Pd  Pd10  1  0.740035  0.500000  0.000000  1
  Pd  Pd11  1  0.999925  0.259848  0.500000  1
  Pd  Pd12  1  0.499962  0.259822  0.000000  1
  Pd  Pd13  1  0.999925  0.740152  0.500000  1
  Pd  Pd14  1  0.499962  0.740178  0.000000  1
  Pd  Pd15  1  0.499962  0.000000  0.259822  1
  Pd  Pd16  1  0.259457  0.000000  0.500000  1
  Pd  Pd17  1  0.499962  0.000000  0.740178  1
  Pd  Pd18  1  0.740035  0.000000  0.500000  1
  Pd  Pd19  1  0.999925  0.500000  0.259848  1
  Pd  Pd20  1  0.999925  0.500000  0.740152  1
  Pd  Pd21  1  0.253072  0.500000  0.500000  1
  Pd  Pd22  1  0.747193  0.500000  0.500000  1
  Pd  Pd23  1  0.500111  0.253069  0.500000  1
  Pd  Pd24  1  0.500111  0.746931  0.500000  1
  Pd  Pd25  1  0.500111  0.500000  0.253069  1
  Pd  Pd26  1  0.500111  0.500000  0.746931  1
  Pd  Pd27  1  0.711955  0.000000  0.000000  1
  Pd  Pd28  1  0.999518  0.290163  0.000000  1
  Pd  Pd29  1  0.999518  0.709837  0.000000  1
  Pd  Pd30  1  0.999518  0.000000  0.290163  1
  Pd  Pd31  1  0.999518  0.000000  0.709837  1
  Pt  Pt32  1  0.290356  0.000000  0.000000  1
