# generated using pymatgen
data_Nd4Mn5Ag3O20
_symmetry_space_group_name_H-M   'P 1'
_cell_length_a   5.85571400
_cell_length_b   7.81713058
_cell_length_c   8.85586605
_cell_angle_alpha   89.17875202
_cell_angle_beta   90.00000000
_cell_angle_gamma   90.00000000
_symmetry_Int_Tables_number   1
_chemical_formula_structural   Nd4Mn5Ag3O20
_chemical_formula_sum   'Nd4 Mn5 Ag3 O20'
_cell_volume   405.33457304
_cell_formula_units_Z   1
loop_
 _symmetry_equiv_pos_site_id
 _symmetry_equiv_pos_as_xyz
  1  'x, y, z'
loop_
 _atom_site_type_symbol
 _atom_site_label
 _atom_site_symmetry_multiplicity
 _atom_site_fract_x
 _atom_site_fract_y
 _atom_site_fract_z
 _atom_site_occupancy
  Nd  Nd0  1  0.000000  0.356297  0.676007  1
  Nd  Nd1  1  0.000000  0.644902  0.325389  1
  Nd  Nd2  1  0.000000  0.849828  0.826309  1
  Nd  Nd3  1  0.000000  0.153393  0.173114  1
  Mn  Mn4  1  0.500000  0.406764  0.348955  1
  Mn  Mn5  1  0.259221  0.498581  0.003575  1
  Mn  Mn6  1  0.744216  0.004551  0.498350  1
  Mn  Mn7  1  0.740779  0.498581  0.003575  1
  Mn  Mn8  1  0.255784  0.004551  0.498350  1
  Ag  Ag9  1  0.500000  0.068412  0.841841  1
  Ag  Ag10  1  0.500000  0.933230  0.156267  1
  Ag  Ag11  1  0.500000  0.565907  0.653640  1
  O  O12  1  0.232563  0.908074  0.298515  1
  O  O13  1  0.233380  0.097786  0.699751  1
  O  O14  1  0.753175  0.402615  0.209159  1
  O  O15  1  0.766024  0.594166  0.798165  1
  O  O16  1  0.766620  0.097786  0.699751  1
  O  O17  1  0.767437  0.908074  0.298515  1
  O  O18  1  0.233976  0.594166  0.798165  1
  O  O19  1  0.246825  0.402615  0.209159  1
  O  O20  1  0.500000  0.356808  0.944015  1
  O  O21  1  0.500000  0.642511  0.060367  1
  O  O22  1  0.500000  0.864136  0.558198  1
  O  O23  1  0.500000  0.154116  0.433636  1
  O  O24  1  0.254848  0.999742  0.998738  1
  O  O25  1  0.733078  0.493696  0.493248  1
  O  O26  1  0.745152  0.999742  0.998738  1
  O  O27  1  0.266922  0.493696  0.493248  1
  O  O28  1  0.000000  0.160787  0.448396  1
  O  O29  1  0.000000  0.846479  0.549892  1
  O  O30  1  0.000000  0.654507  0.053767  1
  O  O31  1  0.000000  0.343501  0.951205  1
