# generated using pymatgen
data_YbCo3GeO8
_symmetry_space_group_name_H-M   'P 1'
_cell_length_a   5.68352322
_cell_length_b   6.28285227
_cell_length_c   9.88112556
_cell_angle_alpha   105.77849946
_cell_angle_beta   89.61996499
_cell_angle_gamma   116.25503870
_symmetry_Int_Tables_number   1
_chemical_formula_structural   YbCo3GeO8
_chemical_formula_sum   'Yb2 Co6 Ge2 O16'
_cell_volume   301.86550598
_cell_formula_units_Z   2
loop_
 _symmetry_equiv_pos_site_id
 _symmetry_equiv_pos_as_xyz
  1  'x, y, z'
loop_
 _atom_site_type_symbol
 _atom_site_label
 _atom_site_symmetry_multiplicity
 _atom_site_fract_x
 _atom_site_fract_y
 _atom_site_fract_z
 _atom_site_occupancy
  Yb  Yb0  1  0.749997  0.499982  0.249994  1
  Yb  Yb1  1  0.250000  0.500006  0.749998  1
  Co  Co2  1  0.250001  0.000000  0.750006  1
  Co  Co3  1  0.749998  0.999982  0.250000  1
  Co  Co4  1  0.500089  0.000089  0.000031  1
  Co  Co5  1  0.999887  0.999932  0.499975  1
  Co  Co6  1  0.750009  0.000021  0.749994  1
  Co  Co7  1  0.250006  0.000012  0.249990  1
  Ge  Ge8  1  0.499885  0.999873  0.499939  1
  Ge  Ge9  1  0.000151  0.000110  0.000073  1
  O  O10  1  0.590037  0.173664  0.861210  1
  O  O11  1  0.089967  0.173606  0.361218  1
  O  O12  1  0.410025  0.826406  0.138775  1
  O  O13  1  0.909950  0.826338  0.638788  1
  O  O14  1  0.658826  0.814991  0.385330  1
  O  O15  1  0.159057  0.815156  0.885411  1
  O  O16  1  0.910645  0.812980  0.135706  1
  O  O17  1  0.410574  0.812928  0.635708  1
  O  O18  1  0.158147  0.812900  0.383254  1
  O  O19  1  0.658356  0.813041  0.883307  1
  O  O20  1  0.841643  0.186946  0.616683  1
  O  O21  1  0.341839  0.187071  0.116748  1
  O  O22  1  0.089430  0.187084  0.864300  1
  O  O23  1  0.589350  0.187002  0.364295  1
  O  O24  1  0.340942  0.184874  0.614594  1
  O  O25  1  0.841182  0.185007  0.114672  1
