# generated using pymatgen
data_Yb6HoTmSb6
_symmetry_space_group_name_H-M   'P 1'
_cell_length_a   8.16600576
_cell_length_b   8.14785720
_cell_length_c   8.09014323
_cell_angle_alpha   109.46263091
_cell_angle_beta   109.54185540
_cell_angle_gamma   109.74783729
_symmetry_Int_Tables_number   1
_chemical_formula_structural   Yb6HoTmSb6
_chemical_formula_sum   'Yb6 Ho1 Tm1 Sb6'
_cell_volume   412.62614764
_cell_formula_units_Z   1
loop_
 _symmetry_equiv_pos_site_id
 _symmetry_equiv_pos_as_xyz
  1  'x, y, z'
loop_
 _atom_site_type_symbol
 _atom_site_label
 _atom_site_symmetry_multiplicity
 _atom_site_fract_x
 _atom_site_fract_y
 _atom_site_fract_z
 _atom_site_occupancy
  Yb  Yb0  1  0.004595  0.355604  0.499586  1
  Yb  Yb1  1  0.351074  0.493863  0.995654  1
  Yb  Yb2  1  0.004853  0.855911  0.500409  1
  Yb  Yb3  1  0.855377  0.498273  0.004240  1
  Yb  Yb4  1  0.498963  0.004325  0.858354  1
  Yb  Yb5  1  0.140516  0.145967  0.141570  1
  Ho  Ho6  1  0.498978  0.000104  0.353351  1
  Tm  Tm7  1  0.645517  0.646623  0.646510  1
  Sb  Sb8  1  0.864277  0.113871  0.738236  1
  Sb  Sb9  1  0.383301  0.253765  0.620610  1
  Sb  Sb10  1  0.121462  0.751171  0.879440  1
  Sb  Sb11  1  0.742093  0.871489  0.119851  1
  Sb  Sb12  1  0.262867  0.632495  0.379831  1
  Sb  Sb13  1  0.626126  0.376537  0.262358  1
