# generated using pymatgen
data_Ac3Yb(MgPd)4
_symmetry_space_group_name_H-M   'P 1'
_cell_length_a   4.35594100
_cell_length_b   7.67392776
_cell_length_c   9.04377630
_cell_angle_alpha   89.69515651
_cell_angle_beta   90.00000000
_cell_angle_gamma   90.00000000
_symmetry_Int_Tables_number   1
_chemical_formula_structural   Ac3Yb(MgPd)4
_chemical_formula_sum   'Ac3 Yb1 Mg4 Pd4'
_cell_volume   302.30362815
_cell_formula_units_Z   1
loop_
 _symmetry_equiv_pos_site_id
 _symmetry_equiv_pos_as_xyz
  1  'x, y, z'
loop_
 _atom_site_type_symbol
 _atom_site_label
 _atom_site_symmetry_multiplicity
 _atom_site_fract_x
 _atom_site_fract_y
 _atom_site_fract_z
 _atom_site_occupancy
  Ac  Ac0  1  0.250000  0.536524  0.180506  1
  Ac  Ac1  1  0.750000  0.464296  0.815457  1
  Ac  Ac2  1  0.250000  0.033596  0.327508  1
  Yb  Yb3  1  0.750000  0.962468  0.683066  1
  Mg  Mg4  1  0.250000  0.643607  0.559719  1
  Mg  Mg5  1  0.750000  0.364419  0.447621  1
  Mg  Mg6  1  0.250000  0.127041  0.936506  1
  Mg  Mg7  1  0.750000  0.869998  0.049983  1
  Pd  Pd8  1  0.750000  0.735778  0.376781  1
  Pd  Pd9  1  0.250000  0.257409  0.626516  1
  Pd  Pd10  1  0.750000  0.237759  0.125999  1
  Pd  Pd11  1  0.250000  0.767106  0.870338  1
