# generated using pymatgen
data_Lu2Be(SiMo)3
_symmetry_space_group_name_H-M   'P 1'
_cell_length_a   6.64697500
_cell_length_b   6.76554700
_cell_length_c   12.81417200
_cell_angle_alpha   90.00000000
_cell_angle_beta   90.00000000
_cell_angle_gamma   90.00000000
_symmetry_Int_Tables_number   1
_chemical_formula_structural   Lu2Be(SiMo)3
_chemical_formula_sum   'Lu8 Be4 Si12 Mo12'
_cell_volume   576.25871948
_cell_formula_units_Z   4
loop_
 _symmetry_equiv_pos_site_id
 _symmetry_equiv_pos_as_xyz
  1  'x, y, z'
loop_
 _atom_site_type_symbol
 _atom_site_label
 _atom_site_symmetry_multiplicity
 _atom_site_fract_x
 _atom_site_fract_y
 _atom_site_fract_z
 _atom_site_occupancy
  Lu  Lu0  1  0.500534  0.332892  0.095985  1
  Lu  Lu1  1  0.000534  0.167108  0.404015  1
  Lu  Lu2  1  0.499466  0.667108  0.595985  1
  Lu  Lu3  1  0.999466  0.832892  0.904015  1
  Lu  Lu4  1  0.499466  0.667108  0.904015  1
  Lu  Lu5  1  0.999466  0.832892  0.595985  1
  Lu  Lu6  1  0.500534  0.332892  0.404015  1
  Lu  Lu7  1  0.000534  0.167108  0.095985  1
  Be  Be8  1  0.541391  0.369562  0.750000  1
  Be  Be9  1  0.041391  0.130438  0.750000  1
  Be  Be10  1  0.458609  0.630438  0.250000  1
  Be  Be11  1  0.958609  0.869562  0.250000  1
  Si  Si12  1  0.662389  0.041965  0.542780  1
  Si  Si13  1  0.162389  0.458035  0.957220  1
  Si  Si14  1  0.337611  0.958035  0.042780  1
  Si  Si15  1  0.837611  0.541965  0.457220  1
  Si  Si16  1  0.337611  0.958035  0.457220  1
  Si  Si17  1  0.837611  0.541965  0.042780  1
  Si  Si18  1  0.662389  0.041965  0.957220  1
  Si  Si19  1  0.162389  0.458035  0.542780  1
  Si  Si20  1  0.793942  0.623468  0.750000  1
  Si  Si21  1  0.293942  0.876532  0.750000  1
  Si  Si22  1  0.206058  0.376532  0.250000  1
  Si  Si23  1  0.706058  0.123468  0.250000  1
  Mo  Mo24  1  0.837275  0.328966  0.627801  1
  Mo  Mo25  1  0.337275  0.171034  0.872199  1
  Mo  Mo26  1  0.162725  0.671034  0.127801  1
  Mo  Mo27  1  0.662725  0.828966  0.372199  1
  Mo  Mo28  1  0.162725  0.671034  0.372199  1
  Mo  Mo29  1  0.662725  0.828966  0.127801  1
  Mo  Mo30  1  0.837275  0.328966  0.872199  1
  Mo  Mo31  1  0.337275  0.171034  0.627801  1
  Mo  Mo32  1  0.664958  0.010937  0.750000  1
  Mo  Mo33  1  0.164958  0.489063  0.750000  1
  Mo  Mo34  1  0.335042  0.989063  0.250000  1
  Mo  Mo35  1  0.835042  0.510937  0.250000  1
