# generated using pymatgen
data_La3Sm(Tm4Bi3)4
_symmetry_space_group_name_H-M   'P 1'
_cell_length_a   8.30144964
_cell_length_b   9.47330900
_cell_length_c   12.09132200
_cell_angle_alpha   90.00000000
_cell_angle_beta   89.96402729
_cell_angle_gamma   90.00000000
_symmetry_Int_Tables_number   1
_chemical_formula_structural   La3Sm(Tm4Bi3)4
_chemical_formula_sum   'La3 Sm1 Tm16 Bi12'
_cell_volume   950.88794597
_cell_formula_units_Z   1
loop_
 _symmetry_equiv_pos_site_id
 _symmetry_equiv_pos_as_xyz
  1  'x, y, z'
loop_
 _atom_site_type_symbol
 _atom_site_label
 _atom_site_symmetry_multiplicity
 _atom_site_fract_x
 _atom_site_fract_y
 _atom_site_fract_z
 _atom_site_occupancy
  La  La0  1  0.316957  0.250000  0.219425  1
  La  La1  1  0.816243  0.250000  0.280215  1
  La  La2  1  0.683400  0.750000  0.780874  1
  Sm  Sm3  1  0.184648  0.750000  0.718055  1
  Tm  Tm4  1  0.351076  0.750000  0.218677  1
  Tm  Tm5  1  0.852566  0.750000  0.282221  1
  Tm  Tm6  1  0.646774  0.250000  0.779849  1
  Tm  Tm7  1  0.147844  0.250000  0.718914  1
  Tm  Tm8  1  0.690175  0.567202  0.061733  1
  Tm  Tm9  1  0.191717  0.933492  0.439108  1
  Tm  Tm10  1  0.309882  0.066278  0.937121  1
  Tm  Tm11  1  0.808037  0.433682  0.561955  1
  Tm  Tm12  1  0.309882  0.433722  0.937121  1
  Tm  Tm13  1  0.808037  0.066318  0.561955  1
  Tm  Tm14  1  0.690175  0.932798  0.061733  1
  Tm  Tm15  1  0.191717  0.566508  0.439108  1
  Tm  Tm16  1  0.477079  0.250000  0.490018  1
  Tm  Tm17  1  0.979091  0.250000  0.010272  1
  Tm  Tm18  1  0.522148  0.750000  0.512693  1
  Tm  Tm19  1  0.022127  0.750000  0.988340  1
  Bi  Bi20  1  0.400067  0.750000  0.964020  1
  Bi  Bi21  1  0.904963  0.750000  0.537193  1
  Bi  Bi22  1  0.599066  0.250000  0.033793  1
  Bi  Bi23  1  0.097624  0.250000  0.465447  1
  Bi  Bi24  1  0.564825  0.988604  0.329639  1
  Bi  Bi25  1  0.064711  0.511022  0.170931  1
  Bi  Bi26  1  0.431408  0.491034  0.671953  1
  Bi  Bi27  1  0.938409  0.008748  0.827557  1
  Bi  Bi28  1  0.431408  0.008966  0.671953  1
  Bi  Bi29  1  0.938409  0.491252  0.827557  1
  Bi  Bi30  1  0.564825  0.511396  0.329639  1
  Bi  Bi31  1  0.064711  0.988978  0.170931  1
