# generated using pymatgen
data_K4TbGdF10
_symmetry_space_group_name_H-M   'P 1'
_cell_length_a   6.72721920
_cell_length_b   7.41081500
_cell_length_c   11.02413529
_cell_angle_alpha   90.00000000
_cell_angle_beta   90.11201618
_cell_angle_gamma   90.00000000
_symmetry_Int_Tables_number   1
_chemical_formula_structural   K4TbGdF10
_chemical_formula_sum   'K8 Tb2 Gd2 F20'
_cell_volume   549.59814120
_cell_formula_units_Z   2
loop_
 _symmetry_equiv_pos_site_id
 _symmetry_equiv_pos_as_xyz
  1  'x, y, z'
loop_
 _atom_site_type_symbol
 _atom_site_label
 _atom_site_symmetry_multiplicity
 _atom_site_fract_x
 _atom_site_fract_y
 _atom_site_fract_z
 _atom_site_occupancy
  K  K0  1  0.528652  0.497519  0.828801  1
  K  K1  1  0.471348  0.502481  0.171199  1
  K  K2  1  0.028412  0.502280  0.672822  1
  K  K3  1  0.471348  0.997519  0.171199  1
  K  K4  1  0.971588  0.497720  0.327178  1
  K  K5  1  0.528652  0.002481  0.828801  1
  K  K6  1  0.971588  0.002280  0.327178  1
  K  K7  1  0.028412  0.997720  0.672822  1
  Tb  Tb8  1  0.063645  0.250000  0.998114  1
  Tb  Tb9  1  0.936355  0.750000  0.001886  1
  Gd  Gd10  1  0.565397  0.750000  0.502368  1
  Gd  Gd11  1  0.434603  0.250000  0.497632  1
  F  F12  1  0.836463  0.750000  0.808217  1
  F  F13  1  0.163537  0.250000  0.191783  1
  F  F14  1  0.334295  0.250000  0.693333  1
  F  F15  1  0.665705  0.750000  0.306666  1
  F  F16  1  0.365677  0.750000  0.665758  1
  F  F17  1  0.634323  0.250000  0.334242  1
  F  F18  1  0.867150  0.250000  0.835754  1
  F  F19  1  0.132850  0.750000  0.164246  1
  F  F20  1  0.898016  0.750000  0.512431  1
  F  F21  1  0.101984  0.250000  0.487569  1
  F  F22  1  0.392400  0.250000  0.986545  1
  F  F23  1  0.607600  0.750000  0.013455  1
  F  F24  1  0.645039  0.033520  0.579808  1
  F  F25  1  0.354961  0.966480  0.420192  1
  F  F26  1  0.143260  0.966818  0.922619  1
  F  F27  1  0.354961  0.533520  0.420192  1
  F  F28  1  0.856740  0.033182  0.077381  1
  F  F29  1  0.645039  0.466480  0.579808  1
  F  F30  1  0.856740  0.466818  0.077381  1
  F  F31  1  0.143260  0.533182  0.922619  1
