# generated using pymatgen
data_Hf10InCo4Hg7
_symmetry_space_group_name_H-M   'P 1'
_cell_length_a   17.14305640
_cell_length_b   7.46170197
_cell_length_c   3.30691600
_cell_angle_alpha   90.00000000
_cell_angle_beta   90.00000000
_cell_angle_gamma   89.82276642
_symmetry_Int_Tables_number   1
_chemical_formula_structural   Hf10InCo4Hg7
_chemical_formula_sum   'Hf10 In1 Co4 Hg7'
_cell_volume   423.00669234
_cell_formula_units_Z   1
loop_
 _symmetry_equiv_pos_site_id
 _symmetry_equiv_pos_as_xyz
  1  'x, y, z'
loop_
 _atom_site_type_symbol
 _atom_site_label
 _atom_site_symmetry_multiplicity
 _atom_site_fract_x
 _atom_site_fract_y
 _atom_site_fract_z
 _atom_site_occupancy
  Hf  Hf0  1  0.998817  0.997938  0.000000  1
  Hf  Hf1  1  0.409321  0.127120  0.000000  1
  Hf  Hf2  1  0.720774  0.235837  0.000000  1
  Hf  Hf3  1  0.222734  0.269988  0.000000  1
  Hf  Hf4  1  0.909231  0.370264  0.000000  1
  Hf  Hf5  1  0.500419  0.500166  0.000000  1
  Hf  Hf6  1  0.089664  0.627833  0.000000  1
  Hf  Hf7  1  0.778575  0.735976  0.000000  1
  Hf  Hf8  1  0.280157  0.761641  0.000000  1
  Hf  Hf9  1  0.590684  0.871484  0.000000  1
  In  In10  1  0.150416  0.942599  0.500000  1
  Co  Co11  1  0.304886  0.050724  0.500000  1
  Co  Co12  1  0.805261  0.448854  0.500000  1
  Co  Co13  1  0.194635  0.553386  0.500000  1
  Co  Co14  1  0.694249  0.950435  0.500000  1
  Hg  Hg15  1  0.849157  0.057935  0.500000  1
  Hg  Hg16  1  0.564757  0.197336  0.500000  1
  Hg  Hg17  1  0.065860  0.300944  0.500000  1
  Hg  Hg18  1  0.351139  0.442422  0.500000  1
  Hg  Hg19  1  0.650158  0.558026  0.500000  1
  Hg  Hg20  1  0.933826  0.696722  0.500000  1
  Hg  Hg21  1  0.435282  0.802365  0.500000  1
