# generated using pymatgen
data_EuCd9Au2
_symmetry_space_group_name_H-M   'P 1'
_cell_length_a   9.34845845
_cell_length_b   9.34845758
_cell_length_c   9.34845728
_cell_angle_alpha   99.54336336
_cell_angle_beta   99.54335826
_cell_angle_gamma   131.94462558
_symmetry_Int_Tables_number   1
_chemical_formula_structural   EuCd9Au2
_chemical_formula_sum   'Eu2 Cd18 Au4'
_cell_volume   555.01866962
_cell_formula_units_Z   2
loop_
 _symmetry_equiv_pos_site_id
 _symmetry_equiv_pos_as_xyz
  1  'x, y, z'
loop_
 _atom_site_type_symbol
 _atom_site_label
 _atom_site_symmetry_multiplicity
 _atom_site_fract_x
 _atom_site_fract_y
 _atom_site_fract_z
 _atom_site_occupancy
  Eu  Eu0  1  0.500000  0.500000  0.000000  1
  Eu  Eu1  1  0.750000  0.250000  0.500000  1
  Cd  Cd2  1  0.995838  0.317540  0.919526  1
  Cd  Cd3  1  0.567540  0.148014  0.821703  1
  Cd  Cd4  1  0.995838  0.076312  0.678297  1
  Cd  Cd5  1  0.567540  0.745838  0.419526  1
  Cd  Cd6  1  0.923688  0.601986  0.919526  1
  Cd  Cd7  1  0.923688  0.004162  0.321703  1
  Cd  Cd8  1  0.851986  0.432460  0.178297  1
  Cd  Cd9  1  0.254162  0.673688  0.821703  1
  Cd  Cd10  1  0.250000  0.750000  0.500000  1
  Cd  Cd11  1  0.682460  0.004162  0.080474  1
  Cd  Cd12  1  0.000000  0.000000  0.000000  1
  Cd  Cd13  1  0.682460  0.601986  0.678297  1
  Cd  Cd14  1  0.398014  0.076312  0.080474  1
  Cd  Cd15  1  0.254162  0.432460  0.580474  1
  Cd  Cd16  1  0.326312  0.745838  0.178297  1
  Cd  Cd17  1  0.326312  0.148014  0.580474  1
  Cd  Cd18  1  0.851986  0.673688  0.419526  1
  Cd  Cd19  1  0.398014  0.317540  0.321703  1
  Au  Au20  1  0.125000  0.875000  0.750000  1
  Au  Au21  1  0.625000  0.875000  0.750000  1
  Au  Au22  1  0.125000  0.875000  0.250000  1
  Au  Au23  1  0.125000  0.375000  0.250000  1
