# generated using pymatgen
data_Pr2Y(Si3Pd10)2
_symmetry_space_group_name_H-M   'P 1'
_cell_length_a   8.77580109
_cell_length_b   8.77580513
_cell_length_c   8.77580000
_cell_angle_alpha   59.99993637
_cell_angle_beta   59.99999759
_cell_angle_gamma   59.99999115
_symmetry_Int_Tables_number   1
_chemical_formula_structural   Pr2Y(Si3Pd10)2
_chemical_formula_sum   'Pr2 Y1 Si6 Pd20'
_cell_volume   477.90900696
_cell_formula_units_Z   1
loop_
 _symmetry_equiv_pos_site_id
 _symmetry_equiv_pos_as_xyz
  1  'x, y, z'
loop_
 _atom_site_type_symbol
 _atom_site_label
 _atom_site_symmetry_multiplicity
 _atom_site_fract_x
 _atom_site_fract_y
 _atom_site_fract_z
 _atom_site_occupancy
  Pr  Pr0  1  0.250000  0.250000  0.250000  1
  Pr  Pr1  1  0.750000  0.750000  0.750000  1
  Y  Y2  1  0.000000  0.000000  0.000000  1
  Si  Si3  1  0.733570  0.266430  0.266430  1
  Si  Si4  1  0.266430  0.733570  0.733570  1
  Si  Si5  1  0.266430  0.733570  0.266430  1
  Si  Si6  1  0.733570  0.266430  0.733570  1
  Si  Si7  1  0.266430  0.266430  0.733570  1
  Si  Si8  1  0.733570  0.733570  0.266430  1
  Pd  Pd9  1  0.385561  0.385561  0.385561  1
  Pd  Pd10  1  0.614439  0.614439  0.614439  1
  Pd  Pd11  1  0.385561  0.385561  0.843318  1
  Pd  Pd12  1  0.385561  0.843318  0.385561  1
  Pd  Pd13  1  0.614439  0.614439  0.156682  1
  Pd  Pd14  1  0.614439  0.156682  0.614439  1
  Pd  Pd15  1  0.843318  0.385561  0.385561  1
  Pd  Pd16  1  0.156682  0.614439  0.614439  1
  Pd  Pd17  1  0.345749  0.000000  0.000000  1
  Pd  Pd18  1  0.654251  0.000000  0.000000  1
  Pd  Pd19  1  0.000000  0.345749  0.654251  1
  Pd  Pd20  1  0.000000  0.654251  0.345749  1
  Pd  Pd21  1  0.000000  0.345749  0.000000  1
  Pd  Pd22  1  0.654251  0.000000  0.345749  1
  Pd  Pd23  1  0.000000  0.654251  0.000000  1
  Pd  Pd24  1  0.345749  0.000000  0.654251  1
  Pd  Pd25  1  0.000000  0.000000  0.345748  1
  Pd  Pd26  1  0.000000  0.000000  0.654252  1
  Pd  Pd27  1  0.654251  0.345749  0.000000  1
  Pd  Pd28  1  0.345749  0.654251  0.000000  1
