# generated using pymatgen
data_K2Ca(Hf2S5)2
_symmetry_space_group_name_H-M   'P 1'
_cell_length_a   6.41560136
_cell_length_b   10.87315012
_cell_length_c   8.69669300
_cell_angle_alpha   59.41487370
_cell_angle_beta   68.47211122
_cell_angle_gamma   90.11275309
_symmetry_Int_Tables_number   1
_chemical_formula_structural   K2Ca(Hf2S5)2
_chemical_formula_sum   'K2 Ca1 Hf4 S10'
_cell_volume   472.14931117
_cell_formula_units_Z   1
loop_
 _symmetry_equiv_pos_site_id
 _symmetry_equiv_pos_as_xyz
  1  'x, y, z'
loop_
 _atom_site_type_symbol
 _atom_site_label
 _atom_site_symmetry_multiplicity
 _atom_site_fract_x
 _atom_site_fract_y
 _atom_site_fract_z
 _atom_site_occupancy
  K  K0  1  0.782100  0.071448  0.430972  1
  K  K1  1  0.006262  0.529242  0.979737  1
  Ca  Ca2  1  0.797253  0.601674  0.407699  1
  Hf  Hf3  1  0.400000  0.797308  0.199761  1
  Hf  Hf4  1  0.204006  0.400836  0.590276  1
  Hf  Hf5  1  0.599715  0.203985  0.804947  1
  Hf  Hf6  1  0.000840  0.996375  0.997449  1
  S  S7  1  0.017237  0.858559  0.325556  1
  S  S8  1  0.598403  0.032828  0.147843  1
  S  S9  1  0.195406  0.238858  0.942753  1
  S  S10  1  0.796353  0.416536  0.772750  1
  S  S11  1  0.358957  0.636200  0.548513  1
  S  S12  1  0.403865  0.964320  0.855510  1
  S  S13  1  0.001125  0.165165  0.651962  1
  S  S14  1  0.593309  0.342781  0.469359  1
  S  S15  1  0.237430  0.562603  0.244873  1
  S  S16  1  0.807741  0.781283  0.030040  1
