# generated using pymatgen
data_Tb4Ga18Rh5Au
_symmetry_space_group_name_H-M   'P 1'
_cell_length_a   7.64789102
_cell_length_b   7.64788987
_cell_length_c   9.54021221
_cell_angle_alpha   89.98810220
_cell_angle_beta   89.98810281
_cell_angle_gamma   119.76771496
_symmetry_Int_Tables_number   1
_chemical_formula_structural   Tb4Ga18Rh5Au
_chemical_formula_sum   'Tb4 Ga18 Rh5 Au1'
_cell_volume   484.37724166
_cell_formula_units_Z   1
loop_
 _symmetry_equiv_pos_site_id
 _symmetry_equiv_pos_as_xyz
  1  'x, y, z'
loop_
 _atom_site_type_symbol
 _atom_site_label
 _atom_site_symmetry_multiplicity
 _atom_site_fract_x
 _atom_site_fract_y
 _atom_site_fract_z
 _atom_site_occupancy
  Tb  Tb0  1  0.994218  0.666137  0.250486  1
  Tb  Tb1  1  0.000619  0.330378  0.749883  1
  Tb  Tb2  1  0.669622  0.999381  0.250117  1
  Tb  Tb3  1  0.333863  0.005782  0.749514  1
  Ga  Ga4  1  0.125328  0.122412  0.251318  1
  Ga  Ga5  1  0.877588  0.874672  0.748682  1
  Ga  Ga6  1  0.011630  0.334571  0.083883  1
  Ga  Ga7  1  0.010495  0.675577  0.917086  1
  Ga  Ga8  1  0.002461  0.666167  0.577885  1
  Ga  Ga9  1  0.333833  0.997539  0.422115  1
  Ga  Ga10  1  0.999539  0.334268  0.421227  1
  Ga  Ga11  1  0.665732  0.000461  0.578773  1
  Ga  Ga12  1  0.665429  0.988370  0.916117  1
  Ga  Ga13  1  0.324423  0.989505  0.082914  1
  Ga  Ga14  1  0.330029  0.331008  0.562982  1
  Ga  Ga15  1  0.668992  0.669971  0.437018  1
  Ga  Ga16  1  0.667243  0.675580  0.069461  1
  Ga  Ga17  1  0.324420  0.332757  0.930539  1
  Ga  Ga18  1  0.340410  0.549909  0.251676  1
  Ga  Ga19  1  0.661053  0.460692  0.741419  1
  Ga  Ga20  1  0.539308  0.338947  0.258581  1
  Ga  Ga21  1  0.450091  0.659590  0.748324  1
  Rh  Rh22  1  0.329950  0.670050  0.000000  1
  Rh  Rh23  1  0.328686  0.671314  0.500000  1
  Rh  Rh24  1  0.672389  0.327611  0.500000  1
  Rh  Rh25  1  0.000132  0.999868  0.000000  1
  Rh  Rh26  1  0.999856  0.000144  0.500000  1
  Au  Au27  1  0.672663  0.327337  0.000000  1
