# generated using pymatgen
data_Ho2Tm2LuInAu4
_symmetry_space_group_name_H-M   'P 1'
_cell_length_a   8.02048824
_cell_length_b   8.01532324
_cell_length_c   3.70998700
_cell_angle_alpha   90.00000000
_cell_angle_beta   90.00000000
_cell_angle_gamma   90.10296643
_symmetry_Int_Tables_number   1
_chemical_formula_structural   Ho2Tm2LuInAu4
_chemical_formula_sum   'Ho2 Tm2 Lu1 In1 Au4'
_cell_volume   238.50282842
_cell_formula_units_Z   1
loop_
 _symmetry_equiv_pos_site_id
 _symmetry_equiv_pos_as_xyz
  1  'x, y, z'
loop_
 _atom_site_type_symbol
 _atom_site_label
 _atom_site_symmetry_multiplicity
 _atom_site_fract_x
 _atom_site_fract_y
 _atom_site_fract_z
 _atom_site_occupancy
  Ho  Ho0  1  0.145344  0.316784  0.500000  1
  Ho  Ho1  1  0.854656  0.683216  0.500000  1
  Tm  Tm2  1  0.682233  0.145143  0.500000  1
  Tm  Tm3  1  0.317767  0.854857  0.500000  1
  Lu  Lu4  1  0.500000  0.500000  0.000000  1
  In  In5  1  0.000000  0.000000  0.000000  1
  Au  Au6  1  0.147305  0.620214  0.000000  1
  Au  Au7  1  0.852695  0.379786  0.000000  1
  Au  Au8  1  0.617885  0.854631  0.000000  1
  Au  Au9  1  0.382115  0.145369  0.000000  1
