# generated using pymatgen
data_Gd2Tm3ReOsC7
_symmetry_space_group_name_H-M   'P 1'
_cell_length_a   8.28646754
_cell_length_b   8.16597188
_cell_length_c   3.45877700
_cell_angle_alpha   90.00000000
_cell_angle_beta   90.00000000
_cell_angle_gamma   122.56857981
_symmetry_Int_Tables_number   1
_chemical_formula_structural   Gd2Tm3ReOsC7
_chemical_formula_sum   'Gd2 Tm3 Re1 Os1 C7'
_cell_volume   197.24112201
_cell_formula_units_Z   1
loop_
 _symmetry_equiv_pos_site_id
 _symmetry_equiv_pos_as_xyz
  1  'x, y, z'
loop_
 _atom_site_type_symbol
 _atom_site_label
 _atom_site_symmetry_multiplicity
 _atom_site_fract_x
 _atom_site_fract_y
 _atom_site_fract_z
 _atom_site_occupancy
  Gd  Gd0  1  0.074040  0.327202  0.500000  1
  Gd  Gd1  1  0.927927  0.674341  0.500000  1
  Tm  Tm2  1  0.343145  0.075781  0.500000  1
  Tm  Tm3  1  0.656282  0.922222  0.500000  1
  Tm  Tm4  1  0.499383  0.500590  0.000000  1
  Re  Re5  1  0.715217  0.288057  0.000000  1
  Os  Os6  1  0.286938  0.710707  0.000000  1
  C  C7  1  0.177851  0.163149  0.000000  1
  C  C8  1  0.821950  0.835289  0.000000  1
  C  C9  1  0.999924  0.999151  0.000000  1
  C  C10  1  0.368415  0.626688  0.500000  1
  C  C11  1  0.626714  0.378441  0.500000  1
  C  C12  1  0.501357  0.999428  0.000000  1
  C  C13  1  0.000859  0.498954  0.000000  1
