# generated using pymatgen
data_PrHoCI
_symmetry_space_group_name_H-M   'P 1'
_cell_length_a   3.81891000
_cell_length_b   3.81890857
_cell_length_c   15.27844300
_cell_angle_alpha   90.00000000
_cell_angle_beta   90.00000000
_cell_angle_gamma   119.99999507
_symmetry_Int_Tables_number   1
_chemical_formula_structural   PrHoCI
_chemical_formula_sum   'Pr2 Ho2 C2 I2'
_cell_volume   192.96939527
_cell_formula_units_Z   2
loop_
 _symmetry_equiv_pos_site_id
 _symmetry_equiv_pos_as_xyz
  1  'x, y, z'
loop_
 _atom_site_type_symbol
 _atom_site_label
 _atom_site_symmetry_multiplicity
 _atom_site_fract_x
 _atom_site_fract_y
 _atom_site_fract_z
 _atom_site_occupancy
  Pr  Pr0  1  0.333333  0.666667  0.413192  1
  Pr  Pr1  1  0.666667  0.333333  0.913192  1
  Ho  Ho2  1  0.666667  0.333333  0.585355  1
  Ho  Ho3  1  0.333333  0.666667  0.085355  1
  C  C4  1  0.000000  0.000000  0.509221  1
  C  C5  1  0.000000  0.000000  0.009221  1
  I  I6  1  0.666667  0.333333  0.242233  1
  I  I7  1  0.333333  0.666667  0.742233  1
