# generated using pymatgen
data_NpTe5
_symmetry_space_group_name_H-M   'P 1'
_cell_length_a   4.27159434
_cell_length_b   10.00424500
_cell_length_c   18.83431200
_cell_angle_alpha   90.00000000
_cell_angle_beta   88.98644521
_cell_angle_gamma   90.00000000
_symmetry_Int_Tables_number   1
_chemical_formula_structural   NpTe5
_chemical_formula_sum   'Np4 Te20'
_cell_volume   804.74099573
_cell_formula_units_Z   4
loop_
 _symmetry_equiv_pos_site_id
 _symmetry_equiv_pos_as_xyz
  1  'x, y, z'
loop_
 _atom_site_type_symbol
 _atom_site_label
 _atom_site_symmetry_multiplicity
 _atom_site_fract_x
 _atom_site_fract_y
 _atom_site_fract_z
 _atom_site_occupancy
  Np  Np0  1  0.893390  0.747551  0.906923  1
  Np  Np1  1  0.106610  0.247551  0.093077  1
  Np  Np2  1  0.394539  0.247263  0.592546  1
  Np  Np3  1  0.605461  0.747263  0.407454  1
  Te  Te4  1  0.603127  0.443001  0.161257  1
  Te  Te5  1  0.380398  0.750984  0.033090  1
  Te  Te6  1  0.107265  0.751064  0.533256  1
  Te  Te7  1  0.108005  0.941801  0.339423  1
  Te  Te8  1  0.028180  0.994968  0.001734  1
  Te  Te9  1  0.665837  0.752890  0.745023  1
  Te  Te10  1  0.619602  0.250984  0.966910  1
  Te  Te11  1  0.148601  0.254106  0.755111  1
  Te  Te12  1  0.534941  0.494393  0.498428  1
  Te  Te13  1  0.465059  0.994393  0.501572  1
  Te  Te14  1  0.394269  0.558820  0.836148  1
  Te  Te15  1  0.971820  0.494968  0.998266  1
  Te  Te16  1  0.111585  0.560556  0.335841  1
  Te  Te17  1  0.396873  0.943001  0.838743  1
  Te  Te18  1  0.888415  0.060556  0.664159  1
  Te  Te19  1  0.851399  0.754106  0.244889  1
  Te  Te20  1  0.605731  0.058820  0.163852  1
  Te  Te21  1  0.891995  0.441801  0.660577  1
  Te  Te22  1  0.892735  0.251064  0.466744  1
  Te  Te23  1  0.334163  0.252890  0.254977  1
