# generated using pymatgen
data_Zr8Ti7Nb2Si16W3
_symmetry_space_group_name_H-M   'P 1'
_cell_length_a   6.79691931
_cell_length_b   6.79417384
_cell_length_c   12.50464600
_cell_angle_alpha   89.99850735
_cell_angle_beta   89.98255901
_cell_angle_gamma   89.97147045
_symmetry_Int_Tables_number   1
_chemical_formula_structural   Zr8Ti7Nb2Si16W3
_chemical_formula_sum   'Zr8 Ti7 Nb2 Si16 W3'
_cell_volume   577.45759411
_cell_formula_units_Z   1
loop_
 _symmetry_equiv_pos_site_id
 _symmetry_equiv_pos_as_xyz
  1  'x, y, z'
loop_
 _atom_site_type_symbol
 _atom_site_label
 _atom_site_symmetry_multiplicity
 _atom_site_fract_x
 _atom_site_fract_y
 _atom_site_fract_z
 _atom_site_occupancy
  Zr  Zr0  1  0.341149  0.998698  0.469945  1
  Zr  Zr1  1  0.499044  0.840678  0.720437  1
  Zr  Zr2  1  0.499273  0.159834  0.220290  1
  Zr  Zr3  1  0.841449  0.500490  0.279268  1
  Zr  Zr4  1  0.159724  0.498546  0.780431  1
  Zr  Zr5  1  0.658076  0.000858  0.970292  1
  Zr  Zr6  1  0.998475  0.341223  0.529341  1
  Zr  Zr7  1  0.000633  0.659984  0.029503  1
  Ti  Ti8  1  0.495419  0.652344  0.123393  1
  Ti  Ti9  1  0.503847  0.347728  0.623638  1
  Ti  Ti10  1  0.653357  0.494657  0.877413  1
  Ti  Ti11  1  0.347265  0.503856  0.375752  1
  Ti  Ti12  1  0.847354  0.995567  0.372777  1
  Ti  Ti13  1  0.004642  0.152450  0.126659  1
  Ti  Ti14  1  0.995497  0.847490  0.626874  1
  Nb  Nb15  1  0.670109  0.670297  0.499858  1
  Nb  Nb16  1  0.153323  0.003163  0.873387  1
  Si  Si17  1  0.207481  0.134142  0.675100  1
  Si  Si18  1  0.368988  0.703483  0.928689  1
  Si  Si19  1  0.633081  0.291548  0.427251  1
  Si  Si20  1  0.706580  0.366596  0.073133  1
  Si  Si21  1  0.291413  0.633324  0.572176  1
  Si  Si22  1  0.793339  0.866692  0.177581  1
  Si  Si23  1  0.132902  0.206797  0.322786  1
  Si  Si24  1  0.862652  0.791182  0.821838  1
  Si  Si25  1  0.296441  0.955214  0.066542  1
  Si  Si26  1  0.542749  0.795401  0.312911  1
  Si  Si27  1  0.457747  0.207771  0.813437  1
  Si  Si28  1  0.795598  0.542594  0.686627  1
  Si  Si29  1  0.205565  0.455486  0.185696  1
  Si  Si30  1  0.705849  0.046949  0.564724  1
  Si  Si31  1  0.954028  0.297268  0.936821  1
  Si  Si32  1  0.046819  0.705948  0.434950  1
  W  W33  1  0.330945  0.330364  0.000531  1
  W  W34  1  0.169560  0.830470  0.249420  1
  W  W35  1  0.829628  0.170910  0.750526  1
