# generated using pymatgen
data_Yb4Sb4IrPt3
_symmetry_space_group_name_H-M   'P 1'
_cell_length_a   4.58916800
_cell_length_b   7.31928582
_cell_length_c   7.93714189
_cell_angle_alpha   90.05430807
_cell_angle_beta   90.00000000
_cell_angle_gamma   90.00000000
_symmetry_Int_Tables_number   1
_chemical_formula_structural   Yb4Sb4IrPt3
_chemical_formula_sum   'Yb4 Sb4 Ir1 Pt3'
_cell_volume   266.60397027
_cell_formula_units_Z   1
loop_
 _symmetry_equiv_pos_site_id
 _symmetry_equiv_pos_as_xyz
  1  'x, y, z'
loop_
 _atom_site_type_symbol
 _atom_site_label
 _atom_site_symmetry_multiplicity
 _atom_site_fract_x
 _atom_site_fract_y
 _atom_site_fract_z
 _atom_site_occupancy
  Yb  Yb0  1  0.250000  0.012938  0.306281  1
  Yb  Yb1  1  0.250000  0.515087  0.195567  1
  Yb  Yb2  1  0.750000  0.988858  0.696508  1
  Yb  Yb3  1  0.750000  0.484536  0.803881  1
  Sb  Sb4  1  0.250000  0.681964  0.586317  1
  Sb  Sb5  1  0.250000  0.183567  0.918920  1
  Sb  Sb6  1  0.750000  0.314837  0.406806  1
  Sb  Sb7  1  0.750000  0.824331  0.085918  1
  Ir  Ir8  1  0.750000  0.198213  0.089888  1
  Pt  Pt9  1  0.250000  0.296782  0.592982  1
  Pt  Pt10  1  0.250000  0.794048  0.908840  1
  Pt  Pt11  1  0.750000  0.704838  0.408091  1
