# generated using pymatgen
data_Zr12Si12IrRh3
_symmetry_space_group_name_H-M   'P 1'
_cell_length_a   3.91416400
_cell_length_b   10.42086718
_cell_length_c   11.79384700
_cell_angle_alpha   90.05711508
_cell_angle_beta   90.00000000
_cell_angle_gamma   90.00000000
_symmetry_Int_Tables_number   1
_chemical_formula_structural   Zr12Si12IrRh3
_chemical_formula_sum   'Zr12 Si12 Ir1 Rh3'
_cell_volume   481.05878761
_cell_formula_units_Z   1
loop_
 _symmetry_equiv_pos_site_id
 _symmetry_equiv_pos_as_xyz
  1  'x, y, z'
loop_
 _atom_site_type_symbol
 _atom_site_label
 _atom_site_symmetry_multiplicity
 _atom_site_fract_x
 _atom_site_fract_y
 _atom_site_fract_z
 _atom_site_occupancy
  Zr  Zr0  1  0.250000  0.876786  0.022374  1
  Zr  Zr1  1  0.250000  0.622915  0.522325  1
  Zr  Zr2  1  0.750000  0.122902  0.977609  1
  Zr  Zr3  1  0.750000  0.377132  0.478042  1
  Zr  Zr4  1  0.250000  0.927850  0.595585  1
  Zr  Zr5  1  0.250000  0.572577  0.095357  1
  Zr  Zr6  1  0.750000  0.073249  0.404939  1
  Zr  Zr7  1  0.750000  0.427266  0.903322  1
  Zr  Zr8  1  0.250000  0.657703  0.800543  1
  Zr  Zr9  1  0.250000  0.841987  0.300589  1
  Zr  Zr10  1  0.750000  0.341946  0.199310  1
  Zr  Zr11  1  0.750000  0.158573  0.699562  1
  Si  Si12  1  0.250000  0.016171  0.824714  1
  Si  Si13  1  0.250000  0.483335  0.324535  1
  Si  Si14  1  0.750000  0.983258  0.175335  1
  Si  Si15  1  0.750000  0.516816  0.675129  1
  Si  Si16  1  0.250000  0.249126  0.844050  1
  Si  Si17  1  0.250000  0.250258  0.343321  1
  Si  Si18  1  0.750000  0.749993  0.156390  1
  Si  Si19  1  0.750000  0.750156  0.656434  1
  Si  Si20  1  0.250000  0.194300  0.542733  1
  Si  Si21  1  0.250000  0.306797  0.042236  1
  Si  Si22  1  0.750000  0.806755  0.457770  1
  Si  Si23  1  0.750000  0.692962  0.957630  1
  Ir  Ir24  1  0.250000  0.385569  0.681334  1
  Rh  Rh25  1  0.250000  0.114104  0.181700  1
  Rh  Rh26  1  0.750000  0.614154  0.318352  1
  Rh  Rh27  1  0.750000  0.885356  0.818782  1
