# generated using pymatgen
data_Ca4LaRh
_symmetry_space_group_name_H-M   'P 1'
_cell_length_a   6.80728000
_cell_length_b   7.55060700
_cell_length_c   16.52243000
_cell_angle_alpha   90.00000000
_cell_angle_beta   90.00000000
_cell_angle_gamma   90.00000000
_symmetry_Int_Tables_number   1
_chemical_formula_structural   Ca4LaRh
_chemical_formula_sum   'Ca16 La4 Rh4'
_cell_volume   849.23796604
_cell_formula_units_Z   4
loop_
 _symmetry_equiv_pos_site_id
 _symmetry_equiv_pos_as_xyz
  1  'x, y, z'
loop_
 _atom_site_type_symbol
 _atom_site_label
 _atom_site_symmetry_multiplicity
 _atom_site_fract_x
 _atom_site_fract_y
 _atom_site_fract_z
 _atom_site_occupancy
  Ca  Ca0  1  0.350856  0.309270  0.059723  1
  Ca  Ca1  1  0.649144  0.690730  0.940277  1
  Ca  Ca2  1  0.850856  0.190730  0.940277  1
  Ca  Ca3  1  0.649144  0.690730  0.559723  1
  Ca  Ca4  1  0.149144  0.809270  0.059723  1
  Ca  Ca5  1  0.350856  0.309270  0.440277  1
  Ca  Ca6  1  0.149144  0.809270  0.440277  1
  Ca  Ca7  1  0.850856  0.190730  0.559723  1
  Ca  Ca8  1  0.326194  0.039111  0.644335  1
  Ca  Ca9  1  0.673806  0.960889  0.355665  1
  Ca  Ca10  1  0.826194  0.460889  0.355665  1
  Ca  Ca11  1  0.673806  0.960889  0.144335  1
  Ca  Ca12  1  0.173806  0.539111  0.644335  1
  Ca  Ca13  1  0.326194  0.039111  0.855665  1
  Ca  Ca14  1  0.173806  0.539111  0.855665  1
  Ca  Ca15  1  0.826194  0.460889  0.144335  1
  La  La16  1  0.162649  0.085953  0.250000  1
  La  La17  1  0.837351  0.914047  0.750000  1
  La  La18  1  0.662649  0.414047  0.750000  1
  La  La19  1  0.337351  0.585953  0.250000  1
  Rh  Rh20  1  0.515233  0.269396  0.250000  1
  Rh  Rh21  1  0.484767  0.730604  0.750000  1
  Rh  Rh22  1  0.015233  0.230604  0.750000  1
  Rh  Rh23  1  0.984767  0.769396  0.250000  1
