# generated using pymatgen
data_Tm2Co9SnB6
_symmetry_space_group_name_H-M   'P 1'
_cell_length_a   5.76668649
_cell_length_b   5.76668603
_cell_length_c   5.76668651
_cell_angle_alpha   95.60302918
_cell_angle_beta   95.60304328
_cell_angle_gamma   95.60304299
_symmetry_Int_Tables_number   1
_chemical_formula_structural   Tm2Co9SnB6
_chemical_formula_sum   'Tm2 Co9 Sn1 B6'
_cell_volume   188.82606188
_cell_formula_units_Z   1
loop_
 _symmetry_equiv_pos_site_id
 _symmetry_equiv_pos_as_xyz
  1  'x, y, z'
loop_
 _atom_site_type_symbol
 _atom_site_label
 _atom_site_symmetry_multiplicity
 _atom_site_fract_x
 _atom_site_fract_y
 _atom_site_fract_z
 _atom_site_occupancy
  Tm  Tm0  1  0.671742  0.671742  0.671742  1
  Tm  Tm1  1  0.328258  0.328258  0.328258  1
  Co  Co2  1  0.000000  0.000000  0.500000  1
  Co  Co3  1  0.500000  0.000000  0.000000  1
  Co  Co4  1  0.000000  0.500000  0.000000  1
  Co  Co5  1  0.702468  0.196748  0.702468  1
  Co  Co6  1  0.702468  0.702468  0.196748  1
  Co  Co7  1  0.196748  0.702468  0.702468  1
  Co  Co8  1  0.297532  0.803252  0.297532  1
  Co  Co9  1  0.297532  0.297532  0.803252  1
  Co  Co10  1  0.803252  0.297532  0.297532  1
  Sn  Sn11  1  0.000000  0.000000  0.000000  1
  B  B12  1  0.615533  0.384467  0.000000  1
  B  B13  1  0.000000  0.615533  0.384467  1
  B  B14  1  0.384467  0.000000  0.615533  1
  B  B15  1  0.000000  0.384467  0.615533  1
  B  B16  1  0.615533  0.000000  0.384467  1
  B  B17  1  0.384467  0.615533  0.000000  1
