# generated using pymatgen
data_As2PNF20
_symmetry_space_group_name_H-M   'P 1'
_cell_length_a   6.18661800
_cell_length_b   7.57960700
_cell_length_c   7.57960700
_cell_angle_alpha   90.00000000
_cell_angle_beta   90.00000000
_cell_angle_gamma   90.00000000
_symmetry_Int_Tables_number   1
_chemical_formula_structural   As2PNF20
_chemical_formula_sum   'As2 P1 N1 F20'
_cell_volume   355.42394028
_cell_formula_units_Z   1
loop_
 _symmetry_equiv_pos_site_id
 _symmetry_equiv_pos_as_xyz
  1  'x, y, z'
loop_
 _atom_site_type_symbol
 _atom_site_label
 _atom_site_symmetry_multiplicity
 _atom_site_fract_x
 _atom_site_fract_y
 _atom_site_fract_z
 _atom_site_occupancy
  As  As0  1  0.660377  0.250000  0.250000  1
  As  As1  1  0.339623  0.750000  0.750000  1
  P  P2  1  0.000000  0.250000  0.750000  1
  N  N3  1  0.000000  0.750000  0.250000  1
  F  F4  1  0.667325  0.174393  0.026898  1
  F  F5  1  0.875753  0.781988  0.108918  1
  F  F6  1  0.662867  0.471912  0.174776  1
  F  F7  1  0.124247  0.608918  0.218012  1
  F  F8  1  0.376748  0.250000  0.250000  1
  F  F9  1  0.947576  0.250000  0.250000  1
  F  F10  1  0.124247  0.891083  0.281989  1
  F  F11  1  0.662867  0.028087  0.325225  1
  F  F12  1  0.875753  0.718014  0.391081  1
  F  F13  1  0.667325  0.325608  0.473101  1
  F  F14  1  0.337131  0.674776  0.528086  1
  F  F15  1  0.138299  0.292391  0.592767  1
  F  F16  1  0.332673  0.973101  0.674393  1
  F  F17  1  0.861701  0.092767  0.707612  1
  F  F18  1  0.052424  0.750000  0.750000  1
  F  F19  1  0.623254  0.750000  0.750000  1
  F  F20  1  0.861701  0.407232  0.792390  1
  F  F21  1  0.332673  0.526897  0.825609  1
  F  F22  1  0.138299  0.207610  0.907234  1
  F  F23  1  0.337131  0.825226  0.971912  1
