# generated using pymatgen
data_Ta2CrSi2Ni
_symmetry_space_group_name_H-M   'P 1'
_cell_length_a   3.51553500
_cell_length_b   6.33919645
_cell_length_c   7.44084942
_cell_angle_alpha   90.68201371
_cell_angle_beta   90.00000000
_cell_angle_gamma   90.00000000
_symmetry_Int_Tables_number   1
_chemical_formula_structural   Ta2CrSi2Ni
_chemical_formula_sum   'Ta4 Cr2 Si4 Ni2'
_cell_volume   165.81254447
_cell_formula_units_Z   2
loop_
 _symmetry_equiv_pos_site_id
 _symmetry_equiv_pos_as_xyz
  1  'x, y, z'
loop_
 _atom_site_type_symbol
 _atom_site_label
 _atom_site_symmetry_multiplicity
 _atom_site_fract_x
 _atom_site_fract_y
 _atom_site_fract_z
 _atom_site_occupancy
  Ta  Ta0  1  0.250000  0.519299  0.168454  1
  Ta  Ta1  1  0.750000  0.480701  0.831546  1
  Ta  Ta2  1  0.750000  0.960220  0.665218  1
  Ta  Ta3  1  0.250000  0.039780  0.334782  1
  Cr  Cr4  1  0.250000  0.640128  0.564887  1
  Cr  Cr5  1  0.750000  0.359872  0.435113  1
  Si  Si6  1  0.250000  0.779100  0.880006  1
  Si  Si7  1  0.750000  0.220900  0.119994  1
  Si  Si8  1  0.750000  0.735283  0.359434  1
  Si  Si9  1  0.250000  0.264717  0.640566  1
  Ni  Ni10  1  0.750000  0.855652  0.063757  1
  Ni  Ni11  1  0.250000  0.144348  0.936243  1
