# generated using pymatgen
data_CaScGa2(Co3B)2
_symmetry_space_group_name_H-M   'P 1'
_cell_length_a   5.11214801
_cell_length_b   5.11070017
_cell_length_c   6.66277100
_cell_angle_alpha   90.00000000
_cell_angle_beta   90.00000000
_cell_angle_gamma   120.00977843
_symmetry_Int_Tables_number   1
_chemical_formula_structural   CaScGa2(Co3B)2
_chemical_formula_sum   'Ca1 Sc1 Ga2 Co6 B2'
_cell_volume   150.73931590
_cell_formula_units_Z   1
loop_
 _symmetry_equiv_pos_site_id
 _symmetry_equiv_pos_as_xyz
  1  'x, y, z'
loop_
 _atom_site_type_symbol
 _atom_site_label
 _atom_site_symmetry_multiplicity
 _atom_site_fract_x
 _atom_site_fract_y
 _atom_site_fract_z
 _atom_site_occupancy
  Ca  Ca0  1  0.999980  0.000004  0.000000  1
  Sc  Sc1  1  0.999966  0.999970  0.500000  1
  Ga  Ga2  1  0.333350  0.666708  0.000000  1
  Ga  Ga3  1  0.666609  0.333297  0.000000  1
  Co  Co4  1  0.499990  0.000002  0.298600  1
  Co  Co5  1  0.499989  0.500005  0.298597  1
  Co  Co6  1  0.999985  0.500001  0.298598  1
  Co  Co7  1  0.499990  0.000002  0.701400  1
  Co  Co8  1  0.499989  0.500005  0.701402  1
  Co  Co9  1  0.999985  0.500001  0.701401  1
  B  B10  1  0.333300  0.666668  0.500000  1
  B  B11  1  0.666666  0.333335  0.500000  1
