# generated using pymatgen
data_CdRh2AuO6
_symmetry_space_group_name_H-M   'P 1'
_cell_length_a   6.35578436
_cell_length_b   6.35578426
_cell_length_c   3.19073900
_cell_angle_alpha   90.00000000
_cell_angle_beta   90.00000000
_cell_angle_gamma   109.71182089
_symmetry_Int_Tables_number   1
_chemical_formula_structural   CdRh2AuO6
_chemical_formula_sum   'Cd1 Rh2 Au1 O6'
_cell_volume   121.34006608
_cell_formula_units_Z   1
loop_
 _symmetry_equiv_pos_site_id
 _symmetry_equiv_pos_as_xyz
  1  'x, y, z'
loop_
 _atom_site_type_symbol
 _atom_site_label
 _atom_site_symmetry_multiplicity
 _atom_site_fract_x
 _atom_site_fract_y
 _atom_site_fract_z
 _atom_site_occupancy
  Cd  Cd0  1  0.500000  0.500000  0.000000  1
  Rh  Rh1  1  0.000000  0.500000  0.500000  1
  Rh  Rh2  1  0.500000  0.000000  0.500000  1
  Au  Au3  1  0.000000  0.000000  0.000000  1
  O  O4  1  0.661449  0.919406  0.000000  1
  O  O5  1  0.338551  0.080594  0.000000  1
  O  O6  1  0.919406  0.661449  0.000000  1
  O  O7  1  0.080594  0.338551  0.000000  1
  O  O8  1  0.670108  0.329892  0.500000  1
  O  O9  1  0.329892  0.670108  0.500000  1
