# generated using pymatgen
data_Li4Pr3(SnBi)2
_symmetry_space_group_name_H-M   'P 1'
_cell_length_a   8.96631114
_cell_length_b   8.96631111
_cell_length_c   8.96631166
_cell_angle_alpha   149.13433083
_cell_angle_beta   131.35879268
_cell_angle_gamma   58.72510270
_symmetry_Int_Tables_number   1
_chemical_formula_structural   Li4Pr3(SnBi)2
_chemical_formula_sum   'Li4 Pr3 Sn2 Bi2'
_cell_volume   275.40738234
_cell_formula_units_Z   1
loop_
 _symmetry_equiv_pos_site_id
 _symmetry_equiv_pos_as_xyz
  1  'x, y, z'
loop_
 _atom_site_type_symbol
 _atom_site_label
 _atom_site_symmetry_multiplicity
 _atom_site_fract_x
 _atom_site_fract_y
 _atom_site_fract_z
 _atom_site_occupancy
  Li  Li0  1  0.640467  0.329133  0.311332  1
  Li  Li1  1  0.359533  0.670867  0.688668  1
  Li  Li2  1  0.017800  0.329133  0.688668  1
  Li  Li3  1  0.982200  0.670867  0.311332  1
  Pr  Pr4  1  0.378524  0.878524  0.500000  1
  Pr  Pr5  1  0.621476  0.121476  0.500000  1
  Pr  Pr6  1  0.000000  0.000000  0.000000  1
  Sn  Sn7  1  0.697828  0.500000  0.197828  1
  Sn  Sn8  1  0.302172  0.500000  0.802172  1
  Bi  Bi9  1  0.215242  0.215242  0.000000  1
  Bi  Bi10  1  0.784758  0.784758  0.000000  1
