# generated using pymatgen
data_Tb9PrSi5Hg
_symmetry_space_group_name_H-M   'P 1'
_cell_length_a   7.55586664
_cell_length_b   7.60286460
_cell_length_c   8.86981187
_cell_angle_alpha   115.35098329
_cell_angle_beta   114.96865921
_cell_angle_gamma   90.21533131
_symmetry_Int_Tables_number   1
_chemical_formula_structural   Tb9PrSi5Hg
_chemical_formula_sum   'Tb9 Pr1 Si5 Hg1'
_cell_volume   406.71070466
_cell_formula_units_Z   1
loop_
 _symmetry_equiv_pos_site_id
 _symmetry_equiv_pos_as_xyz
  1  'x, y, z'
loop_
 _atom_site_type_symbol
 _atom_site_label
 _atom_site_symmetry_multiplicity
 _atom_site_fract_x
 _atom_site_fract_y
 _atom_site_fract_z
 _atom_site_occupancy
  Tb  Tb0  1  0.513923  0.513018  0.027877  1
  Tb  Tb1  1  0.990861  0.990798  0.981240  1
  Tb  Tb2  1  0.974301  0.822471  0.283425  1
  Tb  Tb3  1  0.307985  0.460912  0.285117  1
  Tb  Tb4  1  0.821403  0.306535  0.282763  1
  Tb  Tb5  1  0.460510  0.976432  0.282766  1
  Tb  Tb6  1  0.038117  0.193632  0.716189  1
  Tb  Tb7  1  0.678792  0.524347  0.717039  1
  Tb  Tb8  1  0.191414  0.676796  0.717439  1
  Pr  Pr9  1  0.522719  0.036553  0.708388  1
  Si  Si10  1  0.242560  0.249910  0.492255  1
  Si  Si11  1  0.621149  0.877349  0.002083  1
  Si  Si12  1  0.378179  0.122180  0.002721  1
  Si  Si13  1  0.882553  0.381821  0.001805  1
  Si  Si14  1  0.121236  0.621570  0.000517  1
  Hg  Hg15  1  0.754297  0.745676  0.498375  1
