# generated using pymatgen
data_Ac6HgOsI6
_symmetry_space_group_name_H-M   'P 1'
_cell_length_a   11.76024146
_cell_length_b   11.76024159
_cell_length_c   11.44995265
_cell_angle_alpha   109.41376855
_cell_angle_beta   109.41377187
_cell_angle_gamma   110.65646729
_symmetry_Int_Tables_number   1
_chemical_formula_structural   Ac6HgOsI6
_chemical_formula_sum   'Ac12 Hg2 Os2 I12'
_cell_volume   1202.51621981
_cell_formula_units_Z   2
loop_
 _symmetry_equiv_pos_site_id
 _symmetry_equiv_pos_as_xyz
  1  'x, y, z'
loop_
 _atom_site_type_symbol
 _atom_site_label
 _atom_site_symmetry_multiplicity
 _atom_site_fract_x
 _atom_site_fract_y
 _atom_site_fract_z
 _atom_site_occupancy
  Ac  Ac0  1  0.462084  0.492489  0.222644  1
  Ac  Ac1  1  0.769845  0.239441  0.277356  1
  Ac  Ac2  1  0.775011  0.034253  0.493282  1
  Ac  Ac3  1  0.218271  0.459028  0.493282  1
  Ac  Ac4  1  0.260559  0.730155  0.222644  1
  Ac  Ac5  1  0.040972  0.281729  0.006718  1
  Ac  Ac6  1  0.007511  0.037916  0.277356  1
  Ac  Ac7  1  0.465747  0.724989  0.006718  1
  Ac  Ac8  1  0.487812  0.237812  0.475623  1
  Ac  Ac9  1  0.021031  0.478969  0.750000  1
  Ac  Ac10  1  0.262188  0.012188  0.024377  1
  Ac  Ac11  1  0.228969  0.271031  0.750000  1
  Hg  Hg12  1  0.249239  0.250761  0.250000  1
  Hg  Hg13  1  0.500761  0.999239  0.250000  1
  Os  Os14  1  0.001613  0.251613  0.503225  1
  Os  Os15  1  0.248387  0.498387  0.996775  1
  I  I16  1  0.252087  0.761833  0.742839  1
  I  I17  1  0.518994  0.509248  0.757161  1
  I  I18  1  0.989094  0.745445  0.996348  1
  I  I19  1  0.738167  0.247913  0.757161  1
  I  I20  1  0.990752  0.981006  0.742839  1
  I  I21  1  0.249099  0.992747  0.503652  1
  I  I22  1  0.754555  0.510906  0.503652  1
  I  I23  1  0.507253  0.250901  0.996348  1
  I  I24  1  0.758505  0.741495  0.250000  1
  I  I25  1  0.743744  0.993744  0.987489  1
  I  I26  1  0.991495  0.508505  0.250000  1
  I  I27  1  0.506256  0.756256  0.512511  1
