# generated using pymatgen
data_Dy9Ho(GaCo5)2
_symmetry_space_group_name_H-M   'P 1'
_cell_length_a   5.48240174
_cell_length_b   5.48240133
_cell_length_c   20.54746900
_cell_angle_alpha   89.99766779
_cell_angle_beta   90.00233231
_cell_angle_gamma   136.89528641
_symmetry_Int_Tables_number   1
_chemical_formula_structural   Dy9Ho(GaCo5)2
_chemical_formula_sum   'Dy9 Ho1 Ga2 Co10'
_cell_volume   422.01991216
_cell_formula_units_Z   1
loop_
 _symmetry_equiv_pos_site_id
 _symmetry_equiv_pos_as_xyz
  1  'x, y, z'
loop_
 _atom_site_type_symbol
 _atom_site_label
 _atom_site_symmetry_multiplicity
 _atom_site_fract_x
 _atom_site_fract_y
 _atom_site_fract_z
 _atom_site_occupancy
  Dy  Dy0  1  0.288297  0.711703  0.249983  1
  Dy  Dy1  1  0.291022  0.708978  0.065787  1
  Dy  Dy2  1  0.998144  0.001856  0.842841  1
  Dy  Dy3  1  0.708873  0.291127  0.565838  1
  Dy  Dy4  1  0.001990  0.998010  0.343036  1
  Dy  Dy5  1  0.998204  0.001796  0.657191  1
  Dy  Dy6  1  0.708970  0.291030  0.934116  1
  Dy  Dy7  1  0.001982  0.998018  0.156987  1
  Dy  Dy8  1  0.290984  0.709016  0.434197  1
  Ho  Ho9  1  0.712107  0.287893  0.750017  1
  Ga  Ga10  1  0.000004  0.999996  0.499999  1
  Ga  Ga11  1  0.000000  0.000000  0.999968  1
  Co  Co12  1  0.294925  0.705075  0.654406  1
  Co  Co13  1  0.581701  0.418299  0.441517  1
  Co  Co14  1  0.413467  0.586533  0.749987  1
  Co  Co15  1  0.418165  0.581835  0.941482  1
  Co  Co16  1  0.586075  0.413925  0.249993  1
  Co  Co17  1  0.418084  0.581916  0.558571  1
  Co  Co18  1  0.705191  0.294809  0.345637  1
  Co  Co19  1  0.705194  0.294806  0.154349  1
  Co  Co20  1  0.581759  0.418241  0.058524  1
  Co  Co21  1  0.294862  0.705138  0.845572  1
