# generated using pymatgen
data_Yb2LuZr(Al8Pt3)3
_symmetry_space_group_name_H-M   'P 1'
_cell_length_a   7.49262330
_cell_length_b   7.51532203
_cell_length_c   13.16588335
_cell_angle_alpha   84.62582659
_cell_angle_beta   79.16908551
_cell_angle_gamma   60.03090654
_symmetry_Int_Tables_number   1
_chemical_formula_structural   Yb2LuZr(Al8Pt3)3
_chemical_formula_sum   'Yb2 Lu1 Zr1 Al24 Pt9'
_cell_volume   630.79904392
_cell_formula_units_Z   1
loop_
 _symmetry_equiv_pos_site_id
 _symmetry_equiv_pos_as_xyz
  1  'x, y, z'
loop_
 _atom_site_type_symbol
 _atom_site_label
 _atom_site_symmetry_multiplicity
 _atom_site_fract_x
 _atom_site_fract_y
 _atom_site_fract_z
 _atom_site_occupancy
  Yb  Yb0  1  0.606497  0.831239  0.191725  1
  Yb  Yb1  1  0.734075  0.499060  0.807783  1
  Lu  Lu2  1  0.266199  0.501879  0.192595  1
  Zr  Zr3  1  0.394136  0.167883  0.810181  1
  Al  Al4  1  0.682185  0.835818  0.942947  1
  Al  Al5  1  0.316776  0.166959  0.054045  1
  Al  Al6  1  0.147087  0.832224  0.561751  1
  Al  Al7  1  0.852402  0.167879  0.439287  1
  Al  Al8  1  0.478986  0.166833  0.560363  1
  Al  Al9  1  0.519880  0.833964  0.441760  1
  Al  Al10  1  0.217395  0.165232  0.328784  1
  Al  Al11  1  0.778937  0.836203  0.674371  1
  Al  Al12  1  0.436114  0.504244  0.674565  1
  Al  Al13  1  0.562781  0.493535  0.328059  1
  Al  Al14  1  0.110482  0.160308  0.673202  1
  Al  Al15  1  0.890181  0.839892  0.329216  1
  Al  Al16  1  0.354576  0.496435  0.942232  1
  Al  Al17  1  0.647568  0.500277  0.053984  1
  Al  Al18  1  0.018701  0.168753  0.950054  1
  Al  Al19  1  0.985092  0.832201  0.046226  1
  Al  Al20  1  0.187387  0.498718  0.441647  1
  Al  Al21  1  0.813617  0.500724  0.558775  1
  Al  Al22  1  0.731592  0.167063  0.183032  1
  Al  Al23  1  0.265564  0.842913  0.816898  1
  Al  Al24  1  0.067839  0.624665  0.815496  1
  Al  Al25  1  0.941994  0.367426  0.183386  1
  Al  Al26  1  0.848352  0.041354  0.816157  1
  Al  Al27  1  0.143504  0.956858  0.182930  1
  Pt  Pt28  1  0.119558  0.491943  0.638762  1
  Pt  Pt29  1  0.879932  0.507785  0.361435  1
  Pt  Pt30  1  0.657990  0.171525  0.999058  1
  Pt  Pt31  1  0.342991  0.828367  0.999508  1
  Pt  Pt32  1  0.537270  0.166973  0.361780  1
  Pt  Pt33  1  0.462532  0.832255  0.638416  1
  Pt  Pt34  1  0.779249  0.175242  0.636989  1
  Pt  Pt35  1  0.220237  0.825054  0.363399  1
  Pt  Pt36  1  0.000347  0.500318  0.999198  1
