# generated using pymatgen
data_LiU2Ir5
_symmetry_space_group_name_H-M   'P 1'
_cell_length_a   5.75405900
_cell_length_b   5.66640230
_cell_length_c   4.69615700
_cell_angle_alpha   90.00000000
_cell_angle_beta   90.00000000
_cell_angle_gamma   120.51305587
_symmetry_Int_Tables_number   1
_chemical_formula_structural   LiU2Ir5
_chemical_formula_sum   'Li1 U2 Ir5'
_cell_volume   131.91263747
_cell_formula_units_Z   1
loop_
 _symmetry_equiv_pos_site_id
 _symmetry_equiv_pos_as_xyz
  1  'x, y, z'
loop_
 _atom_site_type_symbol
 _atom_site_label
 _atom_site_symmetry_multiplicity
 _atom_site_fract_x
 _atom_site_fract_y
 _atom_site_fract_z
 _atom_site_occupancy
  Li  Li0  1  0.145836  0.291671  0.250000  1
  U  U1  1  0.334611  0.669222  0.749999  1
  U  U2  1  0.664895  0.329791  0.250000  1
  Ir  Ir3  1  0.673368  0.832657  0.250000  1
  Ir  Ir4  1  0.159288  0.832657  0.250000  1
  Ir  Ir5  1  0.841613  0.683228  0.749999  1
  Ir  Ir6  1  0.334240  0.180389  0.749999  1
  Ir  Ir7  1  0.846149  0.180389  0.749999  1
