# generated using pymatgen
data_CePrSm2Se3N2
_symmetry_space_group_name_H-M   'P 1'
_cell_length_a   8.27707527
_cell_length_b   8.27707470
_cell_length_c   6.47232905
_cell_angle_alpha   90.11045735
_cell_angle_beta   90.11045944
_cell_angle_gamma   75.30578213
_symmetry_Int_Tables_number   1
_chemical_formula_structural   CePrSm2Se3N2
_chemical_formula_sum   'Ce2 Pr2 Sm4 Se6 N4'
_cell_volume   428.91505020
_cell_formula_units_Z   2
loop_
 _symmetry_equiv_pos_site_id
 _symmetry_equiv_pos_as_xyz
  1  'x, y, z'
loop_
 _atom_site_type_symbol
 _atom_site_label
 _atom_site_symmetry_multiplicity
 _atom_site_fract_x
 _atom_site_fract_y
 _atom_site_fract_z
 _atom_site_occupancy
  Ce  Ce0  1  0.944065  0.312645  0.531062  1
  Ce  Ce1  1  0.687355  0.055935  0.968938  1
  Pr  Pr2  1  0.057907  0.694124  0.468320  1
  Pr  Pr3  1  0.305876  0.942093  0.031680  1
  Sm  Sm4  1  0.587279  0.741812  0.573816  1
  Sm  Sm5  1  0.258188  0.412721  0.926184  1
  Sm  Sm6  1  0.413880  0.257610  0.426059  1
  Sm  Sm7  1  0.742390  0.586120  0.073941  1
  Se  Se8  1  0.984585  0.251336  0.034357  1
  Se  Se9  1  0.404975  0.595025  0.250000  1
  Se  Se10  1  0.748664  0.015415  0.465643  1
  Se  Se11  1  0.014888  0.749845  0.966175  1
  Se  Se12  1  0.594272  0.405728  0.750000  1
  Se  Se13  1  0.250155  0.985112  0.533825  1
  N  N14  1  0.828066  0.576898  0.416646  1
  N  N15  1  0.586473  0.832119  0.915676  1
  N  N16  1  0.167881  0.413527  0.584324  1
  N  N17  1  0.423102  0.171934  0.083354  1
