# generated using pymatgen
data_Dy4Tm2CoNi15(P6W)2
_symmetry_space_group_name_H-M   'P 1'
_cell_length_a   3.72073100
_cell_length_b   10.54556000
_cell_length_c   12.24338900
_cell_angle_alpha   90.00000000
_cell_angle_beta   90.00000000
_cell_angle_gamma   90.00000000
_symmetry_Int_Tables_number   1
_chemical_formula_structural   Dy4Tm2CoNi15(P6W)2
_chemical_formula_sum   'Dy4 Tm2 Co1 Ni15 P12 W2'
_cell_volume   480.39620498
_cell_formula_units_Z   1
loop_
 _symmetry_equiv_pos_site_id
 _symmetry_equiv_pos_as_xyz
  1  'x, y, z'
loop_
 _atom_site_type_symbol
 _atom_site_label
 _atom_site_symmetry_multiplicity
 _atom_site_fract_x
 _atom_site_fract_y
 _atom_site_fract_z
 _atom_site_occupancy
  Dy  Dy0  1  0.000000  0.500000  0.525998  1
  Dy  Dy1  1  0.500000  0.000000  0.475079  1
  Dy  Dy2  1  0.500000  0.818857  0.207446  1
  Dy  Dy3  1  0.500000  0.181143  0.207446  1
  Tm  Tm4  1  0.000000  0.679913  0.793366  1
  Tm  Tm5  1  0.000000  0.320087  0.793366  1
  Co  Co6  1  0.000000  0.500000  0.985043  1
  Ni  Ni7  1  0.500000  0.500000  0.702736  1
  Ni  Ni8  1  0.000000  0.000000  0.298721  1
  Ni  Ni9  1  0.500000  0.000000  0.014062  1
  Ni  Ni10  1  0.500000  0.334514  0.987118  1
  Ni  Ni11  1  0.500000  0.665486  0.987118  1
  Ni  Ni12  1  0.000000  0.168715  0.011022  1
  Ni  Ni13  1  0.000000  0.831285  0.011022  1
  Ni  Ni14  1  0.500000  0.301943  0.428965  1
  Ni  Ni15  1  0.500000  0.698057  0.428965  1
  Ni  Ni16  1  0.000000  0.198654  0.572407  1
  Ni  Ni17  1  0.000000  0.801346  0.572407  1
  Ni  Ni18  1  0.500000  0.877990  0.709249  1
  Ni  Ni19  1  0.500000  0.122010  0.709249  1
  Ni  Ni20  1  0.000000  0.620607  0.290683  1
  Ni  Ni21  1  0.000000  0.379393  0.290683  1
  P  P22  1  0.500000  0.500000  0.878528  1
  P  P23  1  0.000000  0.000000  0.120792  1
  P  P24  1  0.500000  0.500000  0.350511  1
  P  P25  1  0.000000  0.000000  0.649418  1
  P  P26  1  0.500000  0.314758  0.615478  1
  P  P27  1  0.500000  0.685242  0.615478  1
  P  P28  1  0.000000  0.185991  0.386049  1
  P  P29  1  0.000000  0.814009  0.386049  1
  P  P30  1  0.500000  0.843282  0.890991  1
  P  P31  1  0.500000  0.156718  0.890991  1
  P  P32  1  0.000000  0.654665  0.107039  1
  P  P33  1  0.000000  0.345335  0.107039  1
  W  W34  1  0.500000  0.500000  0.153796  1
  W  W35  1  0.000000  0.000000  0.845686  1
