# generated using pymatgen
data_Pr2YTm(SiO5)2
_symmetry_space_group_name_H-M   'P 1'
_cell_length_a   8.12249512
_cell_length_b   8.12249402
_cell_length_c   10.79842079
_cell_angle_alpha   61.10955951
_cell_angle_beta   61.10956455
_cell_angle_gamma   50.28862489
_symmetry_Int_Tables_number   1
_chemical_formula_structural   Pr2YTm(SiO5)2
_chemical_formula_sum   'Pr4 Y2 Tm2 Si4 O20'
_cell_volume   463.46717056
_cell_formula_units_Z   2
loop_
 _symmetry_equiv_pos_site_id
 _symmetry_equiv_pos_as_xyz
  1  'x, y, z'
loop_
 _atom_site_type_symbol
 _atom_site_label
 _atom_site_symmetry_multiplicity
 _atom_site_fract_x
 _atom_site_fract_y
 _atom_site_fract_z
 _atom_site_occupancy
  Pr  Pr0  1  0.782436  0.292749  0.035968  1
  Pr  Pr1  1  0.707251  0.217564  0.464032  1
  Pr  Pr2  1  0.217101  0.709204  0.964975  1
  Pr  Pr3  1  0.290796  0.782899  0.535025  1
  Y  Y4  1  0.765532  0.521216  0.662154  1
  Y  Y5  1  0.478784  0.234468  0.837846  1
  Tm  Tm6  1  0.238713  0.477794  0.335859  1
  Tm  Tm7  1  0.522206  0.761287  0.164141  1
  Si  Si8  1  0.728164  0.902713  0.305858  1
  Si  Si9  1  0.097287  0.271836  0.194142  1
  Si  Si10  1  0.272061  0.097719  0.691260  1
  Si  Si11  1  0.902281  0.727939  0.808740  1
  O  O12  1  0.420094  0.613498  0.111676  1
  O  O13  1  0.386502  0.579906  0.388324  1
  O  O14  1  0.578297  0.388023  0.891334  1
  O  O15  1  0.611977  0.421703  0.608666  1
  O  O16  1  0.871078  0.722960  0.430193  1
  O  O17  1  0.277040  0.128922  0.069807  1
  O  O18  1  0.136851  0.277798  0.562911  1
  O  O19  1  0.722202  0.863149  0.937089  1
  O  O20  1  0.567501  0.839885  0.314421  1
  O  O21  1  0.160115  0.432499  0.185579  1
  O  O22  1  0.434547  0.157431  0.683115  1
  O  O23  1  0.842569  0.565453  0.816885  1
  O  O24  1  0.158568  0.586957  0.824241  1
  O  O25  1  0.413043  0.841432  0.675759  1
  O  O26  1  0.840373  0.416789  0.176869  1
  O  O27  1  0.583211  0.159627  0.323131  1
  O  O28  1  0.905892  0.908234  0.648255  1
  O  O29  1  0.091766  0.094108  0.851745  1
  O  O30  1  0.089782  0.094021  0.355322  1
  O  O31  1  0.905979  0.910218  0.144678  1
