# generated using pymatgen
data_AcY6Sn23Ir6
_symmetry_space_group_name_H-M   'P 1'
_cell_length_a   9.90250900
_cell_length_b   9.90251031
_cell_length_c   10.09561800
_cell_angle_alpha   90.00000000
_cell_angle_beta   90.00000000
_cell_angle_gamma   120.00000565
_symmetry_Int_Tables_number   1
_chemical_formula_structural   AcY6Sn23Ir6
_chemical_formula_sum   'Ac1 Y6 Sn23 Ir6'
_cell_volume   857.34193186
_cell_formula_units_Z   1
loop_
 _symmetry_equiv_pos_site_id
 _symmetry_equiv_pos_as_xyz
  1  'x, y, z'
loop_
 _atom_site_type_symbol
 _atom_site_label
 _atom_site_symmetry_multiplicity
 _atom_site_fract_x
 _atom_site_fract_y
 _atom_site_fract_z
 _atom_site_occupancy
  Ac  Ac0  1  0.000000  0.000000  0.000000  1
  Y  Y1  1  0.038495  0.519248  0.306496  1
  Y  Y2  1  0.480752  0.961505  0.306496  1
  Y  Y3  1  0.480752  0.519248  0.306496  1
  Y  Y4  1  0.961505  0.480752  0.693504  1
  Y  Y5  1  0.519248  0.038495  0.693504  1
  Y  Y6  1  0.519248  0.480752  0.693504  1
  Sn  Sn7  1  0.000000  0.000000  0.500000  1
  Sn  Sn8  1  0.118979  0.881021  0.285966  1
  Sn  Sn9  1  0.762042  0.881021  0.285966  1
  Sn  Sn10  1  0.118979  0.237958  0.285966  1
  Sn  Sn11  1  0.881021  0.118979  0.714034  1
  Sn  Sn12  1  0.237958  0.118979  0.714034  1
  Sn  Sn13  1  0.881021  0.762042  0.714034  1
  Sn  Sn14  1  0.354785  0.000000  0.000000  1
  Sn  Sn15  1  0.645215  0.645215  0.000000  1
  Sn  Sn16  1  0.000000  0.354785  0.000000  1
  Sn  Sn17  1  0.354785  0.354785  0.000000  1
  Sn  Sn18  1  0.000000  0.645215  0.000000  1
  Sn  Sn19  1  0.645215  0.000000  0.000000  1
  Sn  Sn20  1  0.777364  0.554727  0.457896  1
  Sn  Sn21  1  0.777364  0.222636  0.457896  1
  Sn  Sn22  1  0.445273  0.222636  0.457896  1
  Sn  Sn23  1  0.222636  0.445273  0.542104  1
  Sn  Sn24  1  0.222636  0.777364  0.542104  1
  Sn  Sn25  1  0.554727  0.777364  0.542104  1
  Sn  Sn26  1  0.666667  0.333333  0.172831  1
  Sn  Sn27  1  0.333333  0.666667  0.827169  1
  Sn  Sn28  1  0.666667  0.333333  0.877759  1
  Sn  Sn29  1  0.333333  0.666667  0.122241  1
  Ir  Ir30  1  0.170102  0.829898  0.799835  1
  Ir  Ir31  1  0.659797  0.829898  0.799835  1
  Ir  Ir32  1  0.170102  0.340203  0.799835  1
  Ir  Ir33  1  0.829898  0.170102  0.200165  1
  Ir  Ir34  1  0.340203  0.170102  0.200165  1
  Ir  Ir35  1  0.829898  0.659797  0.200165  1
