# generated using pymatgen
data_PaTlI6
_symmetry_space_group_name_H-M   'P 1'
_cell_length_a   8.48004237
_cell_length_b   8.51260852
_cell_length_c   8.75030397
_cell_angle_alpha   89.96318066
_cell_angle_beta   118.45065801
_cell_angle_gamma   119.83301559
_symmetry_Int_Tables_number   1
_chemical_formula_structural   PaTlI6
_chemical_formula_sum   'Pa1 Tl1 I6'
_cell_volume   458.05862065
_cell_formula_units_Z   1
loop_
 _symmetry_equiv_pos_site_id
 _symmetry_equiv_pos_as_xyz
  1  'x, y, z'
loop_
 _atom_site_type_symbol
 _atom_site_label
 _atom_site_symmetry_multiplicity
 _atom_site_fract_x
 _atom_site_fract_y
 _atom_site_fract_z
 _atom_site_occupancy
  Pa  Pa0  1  0.579557  0.289576  0.869567  1
  Tl  Tl1  1  0.236821  0.619700  0.855669  1
  I  I2  1  0.455125  0.076888  0.104467  1
  I  I3  1  0.136178  0.203048  0.640430  1
  I  I4  1  0.705424  0.503062  0.635720  1
  I  I5  1  0.440713  0.935865  0.638508  1
  I  I6  1  0.722957  0.645912  0.101621  1
  I  I7  1  0.022224  0.375448  0.102516  1
