# generated using pymatgen
data_La8Zn7Pt8Au
_symmetry_space_group_name_H-M   'P 1'
_cell_length_a   4.14261400
_cell_length_b   7.56341003
_cell_length_c   16.86803600
_cell_angle_alpha   89.56996381
_cell_angle_beta   90.00000000
_cell_angle_gamma   90.00000000
_symmetry_Int_Tables_number   1
_chemical_formula_structural   La8Zn7Pt8Au
_chemical_formula_sum   'La8 Zn7 Pt8 Au1'
_cell_volume   528.49928058
_cell_formula_units_Z   1
loop_
 _symmetry_equiv_pos_site_id
 _symmetry_equiv_pos_as_xyz
  1  'x, y, z'
loop_
 _atom_site_type_symbol
 _atom_site_label
 _atom_site_symmetry_multiplicity
 _atom_site_fract_x
 _atom_site_fract_y
 _atom_site_fract_z
 _atom_site_occupancy
  La  La0  1  0.750000  0.330668  0.442614  1
  La  La1  1  0.250000  0.048725  0.716481  1
  La  La2  1  0.250000  0.549365  0.782629  1
  La  La3  1  0.250000  0.670993  0.559360  1
  La  La4  1  0.750000  0.834216  0.060313  1
  La  La5  1  0.250000  0.170867  0.940436  1
  La  La6  1  0.750000  0.442803  0.215208  1
  La  La7  1  0.750000  0.950017  0.283876  1
  Zn  Zn8  1  0.250000  0.998780  0.440224  1
  Zn  Zn9  1  0.750000  0.875270  0.849644  1
  Zn  Zn10  1  0.750000  0.999754  0.560787  1
  Zn  Zn11  1  0.250000  0.503039  0.059509  1
  Zn  Zn12  1  0.750000  0.376357  0.650010  1
  Zn  Zn13  1  0.750000  0.506501  0.936790  1
  Zn  Zn14  1  0.250000  0.621828  0.349985  1
  Pt  Pt15  1  0.750000  0.252340  0.814047  1
  Pt  Pt16  1  0.250000  0.251811  0.322164  1
  Pt  Pt17  1  0.250000  0.742362  0.933863  1
  Pt  Pt18  1  0.250000  0.238608  0.566611  1
  Pt  Pt19  1  0.250000  0.729306  0.186950  1
  Pt  Pt20  1  0.750000  0.761133  0.434640  1
  Pt  Pt21  1  0.750000  0.275414  0.056890  1
  Pt  Pt22  1  0.750000  0.752500  0.684763  1
  Au  Au23  1  0.250000  0.117342  0.152202  1
