# generated using pymatgen
data_Dy12CdInGa4
_symmetry_space_group_name_H-M   'P 1'
_cell_length_a   8.66203449
_cell_length_b   8.66203457
_cell_length_c   8.66203523
_cell_angle_alpha   112.15784558
_cell_angle_beta   112.16514190
_cell_angle_gamma   104.21511015
_symmetry_Int_Tables_number   1
_chemical_formula_structural   Dy12CdInGa4
_chemical_formula_sum   'Dy12 Cd1 In1 Ga4'
_cell_volume   497.18952773
_cell_formula_units_Z   1
loop_
 _symmetry_equiv_pos_site_id
 _symmetry_equiv_pos_as_xyz
  1  'x, y, z'
loop_
 _atom_site_type_symbol
 _atom_site_label
 _atom_site_symmetry_multiplicity
 _atom_site_fract_x
 _atom_site_fract_y
 _atom_site_fract_z
 _atom_site_occupancy
  Dy  Dy0  1  0.439176  0.237195  0.201982  1
  Dy  Dy1  1  0.560824  0.762805  0.798018  1
  Dy  Dy2  1  0.035213  0.237195  0.798018  1
  Dy  Dy3  1  0.964787  0.762805  0.201982  1
  Dy  Dy4  1  0.184524  0.279831  0.464353  1
  Dy  Dy5  1  0.815476  0.720169  0.535647  1
  Dy  Dy6  1  0.184524  0.720169  0.904693  1
  Dy  Dy7  1  0.815476  0.279831  0.095307  1
  Dy  Dy8  1  0.319669  0.615393  0.295723  1
  Dy  Dy9  1  0.680331  0.384607  0.704277  1
  Dy  Dy10  1  0.319669  0.023946  0.704277  1
  Dy  Dy11  1  0.680331  0.976054  0.295723  1
  Cd  Cd12  1  0.000000  0.000000  0.000000  1
  In  In13  1  0.500000  0.500000  0.000000  1
  Ga  Ga14  1  0.354536  0.000000  0.354536  1
  Ga  Ga15  1  0.645464  0.000000  0.645464  1
  Ga  Ga16  1  0.121087  0.621087  0.500000  1
  Ga  Ga17  1  0.878913  0.378913  0.500000  1
