# generated using pymatgen
data_Ti8Ga15Ir4PtRh2
_symmetry_space_group_name_H-M   'P 1'
_cell_length_a   8.70306712
_cell_length_b   8.68662318
_cell_length_c   8.70162401
_cell_angle_alpha   120.21309263
_cell_angle_beta   119.72357381
_cell_angle_gamma   90.06173702
_symmetry_Int_Tables_number   1
_chemical_formula_structural   Ti8Ga15Ir4PtRh2
_chemical_formula_sum   'Ti8 Ga15 Ir4 Pt1 Rh2'
_cell_volume   465.35267452
_cell_formula_units_Z   1
loop_
 _symmetry_equiv_pos_site_id
 _symmetry_equiv_pos_as_xyz
  1  'x, y, z'
loop_
 _atom_site_type_symbol
 _atom_site_label
 _atom_site_symmetry_multiplicity
 _atom_site_fract_x
 _atom_site_fract_y
 _atom_site_fract_z
 _atom_site_occupancy
  Ti  Ti0  1  0.792850  0.290640  0.074196  1
  Ti  Ti1  1  0.218069  0.289854  0.497770  1
  Ti  Ti2  1  0.207499  0.706682  0.500688  1
  Ti  Ti3  1  0.215994  0.718686  0.925008  1
  Ti  Ti4  1  0.791771  0.717788  0.503100  1
  Ti  Ti5  1  0.779297  0.282439  0.498272  1
  Ti  Ti6  1  0.384031  0.126689  0.751983  1
  Ti  Ti7  1  0.376759  0.629587  0.252918  1
  Ga  Ga8  1  0.995532  0.494817  0.499876  1
  Ga  Ga9  1  0.150687  0.349439  0.199704  1
  Ga  Ga10  1  0.150764  0.951370  0.801732  1
  Ga  Ga11  1  0.148927  0.353756  0.797135  1
  Ga  Ga12  1  0.555047  0.352739  0.203464  1
  Ga  Ga13  1  0.850829  0.649729  0.799400  1
  Ga  Ga14  1  0.850178  0.052531  0.199194  1
  Ga  Ga15  1  0.847125  0.648776  0.196691  1
  Ga  Ga16  1  0.453279  0.650358  0.802568  1
  Ga  Ga17  1  0.375707  0.122130  0.253352  1
  Ga  Ga18  1  0.866437  0.123213  0.748245  1
  Ga  Ga19  1  0.615715  0.872087  0.251605  1
  Ga  Ga20  1  0.619434  0.366819  0.746834  1
  Ga  Ga21  1  0.614560  0.876030  0.737739  1
  Ga  Ga22  1  0.140115  0.875514  0.258301  1
  Ir  Ir23  1  0.498571  0.002021  0.999623  1
  Ir  Ir24  1  0.496546  0.497051  0.000562  1
  Ir  Ir25  1  0.498266  0.499395  0.496609  1
  Ir  Ir26  1  0.002751  0.498892  0.001298  1
  Pt  Pt27  1  0.003910  0.001678  0.502447  1
  Rh  Rh28  1  0.999343  0.999511  0.999082  1
  Rh  Rh29  1  0.500010  0.999772  0.500605  1
