# generated using pymatgen
data_La4Tm6Sn7Au
_symmetry_space_group_name_H-M   'P 1'
_cell_length_a   7.98194400
_cell_length_b   8.45590100
_cell_length_c   15.64953600
_cell_angle_alpha   90.00000000
_cell_angle_beta   90.00000000
_cell_angle_gamma   90.00000000
_symmetry_Int_Tables_number   1
_chemical_formula_structural   La4Tm6Sn7Au
_chemical_formula_sum   'La8 Tm12 Sn14 Au2'
_cell_volume   1056.25804968
_cell_formula_units_Z   2
loop_
 _symmetry_equiv_pos_site_id
 _symmetry_equiv_pos_as_xyz
  1  'x, y, z'
loop_
 _atom_site_type_symbol
 _atom_site_label
 _atom_site_symmetry_multiplicity
 _atom_site_fract_x
 _atom_site_fract_y
 _atom_site_fract_z
 _atom_site_occupancy
  La  La0  1  0.507476  0.316264  0.904968  1
  La  La1  1  0.007476  0.183736  0.595032  1
  La  La2  1  0.490491  0.679470  0.405690  1
  La  La3  1  0.990491  0.820530  0.094310  1
  La  La4  1  0.490491  0.679470  0.094310  1
  La  La5  1  0.990491  0.820530  0.405690  1
  La  La6  1  0.507476  0.316264  0.595032  1
  La  La7  1  0.007476  0.183736  0.904968  1
  Tm  Tm8  1  0.342987  0.829970  0.867295  1
  Tm  Tm9  1  0.842987  0.670030  0.632705  1
  Tm  Tm10  1  0.655201  0.165298  0.375149  1
  Tm  Tm11  1  0.155201  0.334702  0.124851  1
  Tm  Tm12  1  0.655201  0.165298  0.124851  1
  Tm  Tm13  1  0.155201  0.334702  0.375149  1
  Tm  Tm14  1  0.342987  0.829970  0.632705  1
  Tm  Tm15  1  0.842987  0.670030  0.867295  1
  Tm  Tm16  1  0.193597  0.502274  0.750000  1
  Tm  Tm17  1  0.693597  0.997726  0.750000  1
  Tm  Tm18  1  0.820099  0.500000  0.250000  1
  Tm  Tm19  1  0.320099  0.000000  0.250000  1
  Sn  Sn20  1  0.317473  0.040217  0.038938  1
  Sn  Sn21  1  0.817473  0.459783  0.461062  1
  Sn  Sn22  1  0.684696  0.959416  0.543137  1
  Sn  Sn23  1  0.184696  0.540584  0.956863  1
  Sn  Sn24  1  0.684696  0.959416  0.956863  1
  Sn  Sn25  1  0.184696  0.540584  0.543137  1
  Sn  Sn26  1  0.317473  0.040217  0.461062  1
  Sn  Sn27  1  0.817473  0.459783  0.038938  1
  Sn  Sn28  1  0.457678  0.373821  0.250000  1
  Sn  Sn29  1  0.957678  0.126179  0.250000  1
  Sn  Sn30  1  0.304079  0.132737  0.750000  1
  Sn  Sn31  1  0.804079  0.367263  0.750000  1
  Sn  Sn32  1  0.682788  0.855877  0.250000  1
  Sn  Sn33  1  0.182788  0.644123  0.250000  1
  Au  Au34  1  0.545111  0.628589  0.750000  1
  Au  Au35  1  0.045111  0.871411  0.750000  1
