# generated using pymatgen
data_Tb2Ho4TcIr
_symmetry_space_group_name_H-M   'P 1'
_cell_length_a   6.33684100
_cell_length_b   7.34038200
_cell_length_c   9.15635400
_cell_angle_alpha   90.00000000
_cell_angle_beta   90.00000000
_cell_angle_gamma   90.00000000
_symmetry_Int_Tables_number   1
_chemical_formula_structural   Tb2Ho4TcIr
_chemical_formula_sum   'Tb4 Ho8 Tc2 Ir2'
_cell_volume   425.90628281
_cell_formula_units_Z   2
loop_
 _symmetry_equiv_pos_site_id
 _symmetry_equiv_pos_as_xyz
  1  'x, y, z'
loop_
 _atom_site_type_symbol
 _atom_site_label
 _atom_site_symmetry_multiplicity
 _atom_site_fract_x
 _atom_site_fract_y
 _atom_site_fract_z
 _atom_site_occupancy
  Tb  Tb0  1  0.873949  0.538348  0.250000  1
  Tb  Tb1  1  0.626051  0.038348  0.250000  1
  Tb  Tb2  1  0.132866  0.459863  0.750000  1
  Tb  Tb3  1  0.367134  0.959863  0.750000  1
  Ho  Ho4  1  0.329189  0.676662  0.065841  1
  Ho  Ho5  1  0.170811  0.176662  0.434159  1
  Ho  Ho6  1  0.668034  0.324050  0.561224  1
  Ho  Ho7  1  0.831966  0.824050  0.938776  1
  Ho  Ho8  1  0.668034  0.324050  0.938776  1
  Ho  Ho9  1  0.831966  0.824050  0.561224  1
  Ho  Ho10  1  0.329189  0.676662  0.434159  1
  Ho  Ho11  1  0.170811  0.176662  0.065841  1
  Tc  Tc12  1  0.036131  0.885930  0.250000  1
  Tc  Tc13  1  0.463869  0.385930  0.250000  1
  Ir  Ir14  1  0.953586  0.114432  0.750000  1
  Ir  Ir15  1  0.546414  0.614432  0.750000  1
