# generated using pymatgen
data_Dy17Tm3(IrPt5)2
_symmetry_space_group_name_H-M   'P 1'
_cell_length_a   11.01962701
_cell_length_b   11.02304501
_cell_length_c   6.40631600
_cell_angle_alpha   90.00000000
_cell_angle_beta   90.00000000
_cell_angle_gamma   89.99490535
_symmetry_Int_Tables_number   1
_chemical_formula_structural   Dy17Tm3(IrPt5)2
_chemical_formula_sum   'Dy17 Tm3 Ir2 Pt10'
_cell_volume   778.17420555
_cell_formula_units_Z   1
loop_
 _symmetry_equiv_pos_site_id
 _symmetry_equiv_pos_as_xyz
  1  'x, y, z'
loop_
 _atom_site_type_symbol
 _atom_site_label
 _atom_site_symmetry_multiplicity
 _atom_site_fract_x
 _atom_site_fract_y
 _atom_site_fract_z
 _atom_site_occupancy
  Dy  Dy0  1  0.291793  0.088473  0.377262  1
  Dy  Dy1  1  0.291808  0.911539  0.877206  1
  Dy  Dy2  1  0.708192  0.088461  0.877206  1
  Dy  Dy3  1  0.708207  0.911527  0.377262  1
  Dy  Dy4  1  0.588478  0.791991  0.877193  1
  Dy  Dy5  1  0.588598  0.207758  0.376912  1
  Dy  Dy6  1  0.411402  0.792242  0.376912  1
  Dy  Dy7  1  0.411522  0.208009  0.877193  1
  Dy  Dy8  1  0.205249  0.412183  0.623617  1
  Dy  Dy9  1  0.205520  0.587692  0.123317  1
  Dy  Dy10  1  0.794480  0.412308  0.123317  1
  Dy  Dy11  1  0.794751  0.587817  0.623617  1
  Dy  Dy12  1  0.912306  0.705834  0.123351  1
  Dy  Dy13  1  0.912281  0.294180  0.623246  1
  Dy  Dy14  1  0.087719  0.705820  0.623246  1
  Dy  Dy15  1  0.087694  0.294166  0.123351  1
  Dy  Dy16  1  0.500000  0.500000  0.500579  1
  Tm  Tm17  1  0.000000  0.000000  0.500592  1
  Tm  Tm18  1  0.000000  0.000000  0.000581  1
  Tm  Tm19  1  0.500000  0.500000  0.000599  1
  Ir  Ir20  1  0.000000  0.500000  0.878128  1
  Ir  Ir21  1  0.000000  0.500000  0.377934  1
  Pt  Pt22  1  0.847238  0.151511  0.249906  1
  Pt  Pt23  1  0.847253  0.848488  0.750076  1
  Pt  Pt24  1  0.152747  0.151512  0.750076  1
  Pt  Pt25  1  0.152762  0.848489  0.249906  1
  Pt  Pt26  1  0.652265  0.346568  0.751176  1
  Pt  Pt27  1  0.652182  0.653497  0.248718  1
  Pt  Pt28  1  0.347818  0.346503  0.248718  1
  Pt  Pt29  1  0.347735  0.653432  0.751176  1
  Pt  Pt30  1  0.500000  0.000000  0.118796  1
  Pt  Pt31  1  0.500000  0.000000  0.618832  1
