# generated using pymatgen
data_AcGa4Cu9
_symmetry_space_group_name_H-M   'P 1'
_cell_length_a   8.41983264
_cell_length_b   8.41984493
_cell_length_c   8.42033362
_cell_angle_alpha   120.44354069
_cell_angle_beta   120.44381693
_cell_angle_gamma   89.23975655
_symmetry_Int_Tables_number   1
_chemical_formula_structural   AcGa4Cu9
_chemical_formula_sum   'Ac2 Ga8 Cu18'
_cell_volume   419.21131491
_cell_formula_units_Z   2
loop_
 _symmetry_equiv_pos_site_id
 _symmetry_equiv_pos_as_xyz
  1  'x, y, z'
loop_
 _atom_site_type_symbol
 _atom_site_label
 _atom_site_symmetry_multiplicity
 _atom_site_fract_x
 _atom_site_fract_y
 _atom_site_fract_z
 _atom_site_occupancy
  Ac  Ac0  1  0.749997  0.750002  0.999999  1
  Ac  Ac1  1  0.250003  0.249998  0.000001  1
  Ga  Ga2  1  0.698834  0.560544  0.500003  1
  Ga  Ga3  1  0.939456  0.801166  0.499997  1
  Ga  Ga4  1  0.198828  0.698827  0.138287  1
  Ga  Ga5  1  0.560561  0.060559  0.861730  1
  Ga  Ga6  1  0.439439  0.939441  0.138270  1
  Ga  Ga7  1  0.801172  0.301173  0.861713  1
  Ga  Ga8  1  0.301166  0.439456  0.499997  1
  Ga  Ga9  1  0.060544  0.198834  0.500003  1
  Cu  Cu10  1  0.436476  0.706007  0.500000  1
  Cu  Cu11  1  0.062223  0.795965  0.858209  1
  Cu  Cu12  1  0.937777  0.204035  0.141791  1
  Cu  Cu13  1  0.294001  0.794002  0.730462  1
  Cu  Cu14  1  0.563524  0.293993  0.500000  1
  Cu  Cu15  1  0.795973  0.937752  0.733722  1
  Cu  Cu16  1  0.437752  0.295971  0.733720  1
  Cu  Cu17  1  0.206008  0.936476  0.500001  1
  Cu  Cu18  1  0.295968  0.562223  0.858211  1
  Cu  Cu19  1  0.705999  0.205998  0.269538  1
  Cu  Cu20  1  0.000000  0.500000  0.500000  1
  Cu  Cu21  1  0.204027  0.062248  0.266278  1
  Cu  Cu22  1  0.936457  0.436456  0.730438  1
  Cu  Cu23  1  0.704032  0.437777  0.141789  1
  Cu  Cu24  1  0.063543  0.563544  0.269562  1
  Cu  Cu25  1  0.562248  0.704029  0.266280  1
  Cu  Cu26  1  0.500000  0.000000  0.500000  1
  Cu  Cu27  1  0.793992  0.063524  0.499999  1
