# generated using pymatgen
data_Ce2AlInRh2
_symmetry_space_group_name_H-M   'P 1'
_cell_length_a   4.14341400
_cell_length_b   7.45996300
_cell_length_c   16.41402300
_cell_angle_alpha   90.00000000
_cell_angle_beta   90.00000000
_cell_angle_gamma   90.00000000
_symmetry_Int_Tables_number   1
_chemical_formula_structural   Ce2AlInRh2
_chemical_formula_sum   'Ce8 Al4 In4 Rh8'
_cell_volume   507.35277513
_cell_formula_units_Z   4
loop_
 _symmetry_equiv_pos_site_id
 _symmetry_equiv_pos_as_xyz
  1  'x, y, z'
loop_
 _atom_site_type_symbol
 _atom_site_label
 _atom_site_symmetry_multiplicity
 _atom_site_fract_x
 _atom_site_fract_y
 _atom_site_fract_z
 _atom_site_occupancy
  Ce  Ce0  1  0.250000  0.170660  0.558330  1
  Ce  Ce1  1  0.750000  0.829340  0.441670  1
  Ce  Ce2  1  0.250000  0.670660  0.941670  1
  Ce  Ce3  1  0.750000  0.329340  0.058330  1
  Ce  Ce4  1  0.250000  0.039319  0.786432  1
  Ce  Ce5  1  0.750000  0.960681  0.213568  1
  Ce  Ce6  1  0.250000  0.539319  0.713568  1
  Ce  Ce7  1  0.750000  0.460681  0.286432  1
  Al  Al8  1  0.250000  0.001002  0.061066  1
  Al  Al9  1  0.750000  0.998998  0.938934  1
  Al  Al10  1  0.250000  0.501002  0.438934  1
  Al  Al11  1  0.750000  0.498998  0.561066  1
  In  In12  1  0.250000  0.126593  0.347643  1
  In  In13  1  0.750000  0.873407  0.652357  1
  In  In14  1  0.250000  0.626593  0.152357  1
  In  In15  1  0.750000  0.373407  0.847643  1
  Rh  Rh16  1  0.750000  0.287524  0.435476  1
  Rh  Rh17  1  0.250000  0.712476  0.564524  1
  Rh  Rh18  1  0.750000  0.787524  0.064524  1
  Rh  Rh19  1  0.250000  0.212476  0.935476  1
  Rh  Rh20  1  0.750000  0.758516  0.823283  1
  Rh  Rh21  1  0.250000  0.241484  0.176717  1
  Rh  Rh22  1  0.750000  0.258516  0.676717  1
  Rh  Rh23  1  0.250000  0.741484  0.323283  1
