# generated using pymatgen
data_SnPt3Pb2
_symmetry_space_group_name_H-M   'P 1'
_cell_length_a   7.51666737
_cell_length_b   7.51666733
_cell_length_c   5.52500600
_cell_angle_alpha   90.00000000
_cell_angle_beta   90.00000000
_cell_angle_gamma   59.83730614
_symmetry_Int_Tables_number   1
_chemical_formula_structural   SnPt3Pb2
_chemical_formula_sum   'Sn2 Pt6 Pb4'
_cell_volume   269.89803525
_cell_formula_units_Z   2
loop_
 _symmetry_equiv_pos_site_id
 _symmetry_equiv_pos_as_xyz
  1  'x, y, z'
loop_
 _atom_site_type_symbol
 _atom_site_label
 _atom_site_symmetry_multiplicity
 _atom_site_fract_x
 _atom_site_fract_y
 _atom_site_fract_z
 _atom_site_occupancy
  Sn  Sn0  1  0.672798  0.327202  0.249999  1
  Sn  Sn1  1  0.327202  0.672798  0.750000  1
  Pt  Pt2  1  0.000000  0.000000  0.000000  1
  Pt  Pt3  1  0.345685  0.345685  0.000000  1
  Pt  Pt4  1  0.654315  0.654315  0.000000  1
  Pt  Pt5  1  0.000000  0.000000  0.500001  1
  Pt  Pt6  1  0.345685  0.345685  0.500001  1
  Pt  Pt7  1  0.654315  0.654315  0.500001  1
  Pb  Pb8  1  0.333380  0.005774  0.249999  1
  Pb  Pb9  1  0.994227  0.666621  0.249999  1
  Pb  Pb10  1  0.005774  0.333380  0.750000  1
  Pb  Pb11  1  0.666621  0.994227  0.750000  1
