# generated using pymatgen
data_La4TcHg
_symmetry_space_group_name_H-M   'P 1'
_cell_length_a   10.03216069
_cell_length_b   10.03156043
_cell_length_c   10.03156000
_cell_angle_alpha   60.21035492
_cell_angle_beta   59.99802384
_cell_angle_gamma   59.99802116
_symmetry_Int_Tables_number   1
_chemical_formula_structural   La4TcHg
_chemical_formula_sum   'La16 Tc4 Hg4'
_cell_volume   714.97210331
_cell_formula_units_Z   4
loop_
 _symmetry_equiv_pos_site_id
 _symmetry_equiv_pos_as_xyz
  1  'x, y, z'
loop_
 _atom_site_type_symbol
 _atom_site_label
 _atom_site_symmetry_multiplicity
 _atom_site_fract_x
 _atom_site_fract_y
 _atom_site_fract_z
 _atom_site_occupancy
  La  La0  1  0.596278  0.596393  0.596393  1
  La  La1  1  0.595805  0.596016  0.212375  1
  La  La2  1  0.595805  0.212375  0.596016  1
  La  La3  1  0.210935  0.596393  0.596393  1
  La  La4  1  0.059877  0.440123  0.440123  1
  La  La5  1  0.439244  0.060756  0.060756  1
  La  La6  1  0.440062  0.060178  0.439076  1
  La  La7  1  0.060684  0.439076  0.060178  1
  La  La8  1  0.440062  0.439076  0.060178  1
  La  La9  1  0.060684  0.060178  0.439076  1
  La  La10  1  0.191361  0.808639  0.808639  1
  La  La11  1  0.807476  0.192524  0.192524  1
  La  La12  1  0.808595  0.190871  0.807146  1
  La  La13  1  0.193387  0.807146  0.190871  1
  La  La14  1  0.808595  0.807146  0.190871  1
  La  La15  1  0.193387  0.190871  0.807146  1
  Tc  Tc16  1  0.382730  0.383107  0.383107  1
  Tc  Tc17  1  0.382399  0.383024  0.852178  1
  Tc  Tc18  1  0.382399  0.852178  0.383024  1
  Tc  Tc19  1  0.851056  0.383107  0.383107  1
  Hg  Hg20  1  0.830951  0.831581  0.831581  1
  Hg  Hg21  1  0.831170  0.831372  0.506288  1
  Hg  Hg22  1  0.831170  0.506288  0.831372  1
  Hg  Hg23  1  0.505888  0.831581  0.831581  1
