# generated using pymatgen
data_Pr3Sm5(Y3Sn4)4
_symmetry_space_group_name_H-M   'P 1'
_cell_length_a   8.11476926
_cell_length_b   8.29321049
_cell_length_c   15.64647864
_cell_angle_alpha   89.99160375
_cell_angle_beta   90.30567611
_cell_angle_gamma   89.58077439
_symmetry_Int_Tables_number   1
_chemical_formula_structural   Pr3Sm5(Y3Sn4)4
_chemical_formula_sum   'Pr3 Sm5 Y12 Sn16'
_cell_volume   1052.92554403
_cell_formula_units_Z   1
loop_
 _symmetry_equiv_pos_site_id
 _symmetry_equiv_pos_as_xyz
  1  'x, y, z'
loop_
 _atom_site_type_symbol
 _atom_site_label
 _atom_site_symmetry_multiplicity
 _atom_site_fract_x
 _atom_site_fract_y
 _atom_site_fract_z
 _atom_site_occupancy
  Pr  Pr0  1  0.985593  0.820705  0.403219  1
  Pr  Pr1  1  0.514454  0.321503  0.596274  1
  Pr  Pr2  1  0.014794  0.178747  0.903872  1
  Sm  Sm3  1  0.516500  0.322116  0.902549  1
  Sm  Sm4  1  0.015473  0.179351  0.597615  1
  Sm  Sm5  1  0.484808  0.678475  0.402561  1
  Sm  Sm6  1  0.983857  0.820345  0.097728  1
  Sm  Sm7  1  0.483862  0.678419  0.096877  1
  Y  Y8  1  0.362813  0.835393  0.877581  1
  Y  Y9  1  0.861100  0.663860  0.622454  1
  Y  Y10  1  0.638656  0.164134  0.376744  1
  Y  Y11  1  0.137905  0.336659  0.122138  1
  Y  Y12  1  0.637499  0.164320  0.122688  1
  Y  Y13  1  0.138915  0.336237  0.377220  1
  Y  Y14  1  0.361489  0.835569  0.622819  1
  Y  Y15  1  0.862688  0.663648  0.877974  1
  Y  Y16  1  0.196046  0.501754  0.750429  1
  Y  Y17  1  0.695293  0.998226  0.750173  1
  Y  Y18  1  0.803761  0.498581  0.249477  1
  Y  Y19  1  0.304631  0.001624  0.249383  1
  Sn  Sn20  1  0.301097  0.036850  0.042688  1
  Sn  Sn21  1  0.800872  0.460118  0.457679  1
  Sn  Sn22  1  0.698698  0.961673  0.542013  1
  Sn  Sn23  1  0.202731  0.540188  0.958738  1
  Sn  Sn24  1  0.698479  0.960054  0.959003  1
  Sn  Sn25  1  0.198194  0.540865  0.540979  1
  Sn  Sn26  1  0.302574  0.039475  0.458637  1
  Sn  Sn27  1  0.797888  0.461630  0.042042  1
  Sn  Sn28  1  0.561720  0.622043  0.750308  1
  Sn  Sn29  1  0.060984  0.876924  0.749744  1
  Sn  Sn30  1  0.438539  0.378580  0.249939  1
  Sn  Sn31  1  0.938973  0.123075  0.249695  1
  Sn  Sn32  1  0.324661  0.142960  0.750385  1
  Sn  Sn33  1  0.824198  0.357395  0.749356  1
  Sn  Sn34  1  0.673461  0.855743  0.249662  1
  Sn  Sn35  1  0.176793  0.642759  0.249358  1
