# generated using pymatgen
data_SmDy2Al7Cu2
_symmetry_space_group_name_H-M   'P 1'
_cell_length_a   9.11379665
_cell_length_b   9.11379724
_cell_length_c   9.11379708
_cell_angle_alpha   35.13990769
_cell_angle_beta   35.13990393
_cell_angle_gamma   35.13990089
_symmetry_Int_Tables_number   1
_chemical_formula_structural   SmDy2Al7Cu2
_chemical_formula_sum   'Sm1 Dy2 Al7 Cu2'
_cell_volume   223.97482332
_cell_formula_units_Z   1
loop_
 _symmetry_equiv_pos_site_id
 _symmetry_equiv_pos_as_xyz
  1  'x, y, z'
loop_
 _atom_site_type_symbol
 _atom_site_label
 _atom_site_symmetry_multiplicity
 _atom_site_fract_x
 _atom_site_fract_y
 _atom_site_fract_z
 _atom_site_occupancy
  Sm  Sm0  1  0.000000  0.000000  0.000000  1
  Dy  Dy1  1  0.857685  0.857685  0.857685  1
  Dy  Dy2  1  0.142315  0.142315  0.142315  1
  Al  Al3  1  0.418281  0.418281  0.926810  1
  Al  Al4  1  0.926810  0.418281  0.418281  1
  Al  Al5  1  0.418281  0.926810  0.418281  1
  Al  Al6  1  0.500000  0.500000  0.500000  1
  Al  Al7  1  0.581719  0.073190  0.581719  1
  Al  Al8  1  0.073190  0.581719  0.581719  1
  Al  Al9  1  0.581719  0.581719  0.073190  1
  Cu  Cu10  1  0.664776  0.664776  0.664776  1
  Cu  Cu11  1  0.335224  0.335224  0.335224  1
