# generated using pymatgen
data_TbY2Tm3(Co3P2)6
_symmetry_space_group_name_H-M   'P 1'
_cell_length_a   3.68756400
_cell_length_b   10.49153401
_cell_length_c   12.14912002
_cell_angle_alpha   90.00569375
_cell_angle_beta   90.00000000
_cell_angle_gamma   90.00000000
_symmetry_Int_Tables_number   1
_chemical_formula_structural   TbY2Tm3(Co3P2)6
_chemical_formula_sum   'Tb1 Y2 Tm3 Co18 P12'
_cell_volume   470.02762068
_cell_formula_units_Z   1
loop_
 _symmetry_equiv_pos_site_id
 _symmetry_equiv_pos_as_xyz
  1  'x, y, z'
loop_
 _atom_site_type_symbol
 _atom_site_label
 _atom_site_symmetry_multiplicity
 _atom_site_fract_x
 _atom_site_fract_y
 _atom_site_fract_z
 _atom_site_occupancy
  Tb  Tb0  1  0.500000  0.000018  0.477284  1
  Y  Y1  1  0.000000  0.500048  0.522102  1
  Y  Y2  1  0.000000  0.317515  0.794384  1
  Tm  Tm3  1  0.500000  0.817511  0.205718  1
  Tm  Tm4  1  0.500000  0.182446  0.205623  1
  Tm  Tm5  1  0.000000  0.682750  0.794384  1
  Co  Co6  1  0.500000  0.500179  0.158741  1
  Co  Co7  1  0.000000  0.999747  0.841521  1
  Co  Co8  1  0.500000  0.501397  0.703992  1
  Co  Co9  1  0.000000  0.999856  0.295563  1
  Co  Co10  1  0.000000  0.500593  0.986586  1
  Co  Co11  1  0.500000  0.999337  0.014595  1
  Co  Co12  1  0.500000  0.333346  0.995289  1
  Co  Co13  1  0.500000  0.667312  0.994765  1
  Co  Co14  1  0.000000  0.166236  0.006309  1
  Co  Co15  1  0.000000  0.833182  0.005681  1
  Co  Co16  1  0.500000  0.297294  0.429595  1
  Co  Co17  1  0.500000  0.702812  0.430125  1
  Co  Co18  1  0.000000  0.202567  0.568913  1
  Co  Co19  1  0.000000  0.797164  0.569773  1
  Co  Co20  1  0.500000  0.878403  0.710504  1
  Co  Co21  1  0.500000  0.120215  0.709733  1
  Co  Co22  1  0.000000  0.621326  0.289586  1
  Co  Co23  1  0.000000  0.378712  0.289419  1
  P  P24  1  0.500000  0.501207  0.882834  1
  P  P25  1  0.000000  0.999725  0.117938  1
  P  P26  1  0.500000  0.500018  0.343494  1
  P  P27  1  0.000000  0.999960  0.656468  1
  P  P28  1  0.500000  0.310554  0.615686  1
  P  P29  1  0.500000  0.689814  0.616972  1
  P  P30  1  0.000000  0.189453  0.382505  1
  P  P31  1  0.000000  0.810390  0.382862  1
  P  P32  1  0.500000  0.846846  0.892894  1
  P  P33  1  0.500000  0.151859  0.893621  1
  P  P34  1  0.000000  0.653453  0.107409  1
  P  P35  1  0.000000  0.346754  0.107132  1
