# generated using pymatgen
data_La5PrIr18
_symmetry_space_group_name_H-M   'P 1'
_cell_length_a   5.41639700
_cell_length_b   5.41638683
_cell_length_c   17.76074100
_cell_angle_alpha   90.00001746
_cell_angle_beta   89.99995949
_cell_angle_gamma   119.99925093
_symmetry_Int_Tables_number   1
_chemical_formula_structural   La5PrIr18
_chemical_formula_sum   'La5 Pr1 Ir18'
_cell_volume   451.24785801
_cell_formula_units_Z   1
loop_
 _symmetry_equiv_pos_site_id
 _symmetry_equiv_pos_as_xyz
  1  'x, y, z'
loop_
 _atom_site_type_symbol
 _atom_site_label
 _atom_site_symmetry_multiplicity
 _atom_site_fract_x
 _atom_site_fract_y
 _atom_site_fract_z
 _atom_site_occupancy
  La  La0  1  0.666668  0.333334  0.041234  1
  La  La1  1  0.666663  0.333329  0.458590  1
  La  La2  1  0.333334  0.666664  0.958793  1
  La  La3  1  0.333335  0.666667  0.749881  1
  La  La4  1  0.666670  0.333339  0.250150  1
  Pr  Pr5  1  0.333331  0.666666  0.540965  1
  Ir  Ir6  1  0.166146  0.332296  0.129080  1
  Ir  Ir7  1  0.833891  0.667781  0.628545  1
  Ir  Ir8  1  0.667702  0.833852  0.129080  1
  Ir  Ir9  1  0.166146  0.833854  0.129081  1
  Ir  Ir10  1  0.833889  0.166111  0.628543  1
  Ir  Ir11  1  0.332221  0.166110  0.628544  1
  Ir  Ir12  1  0.833867  0.667737  0.870961  1
  Ir  Ir13  1  0.833863  0.166137  0.870965  1
  Ir  Ir14  1  0.332266  0.166134  0.870962  1
  Ir  Ir15  1  0.667311  0.833656  0.371470  1
  Ir  Ir16  1  0.166347  0.833653  0.371471  1
  Ir  Ir17  1  0.166347  0.332692  0.371471  1
  Ir  Ir18  1  0.999999  0.999998  0.250377  1
  Ir  Ir19  1  0.000002  0.999988  0.749725  1
  Ir  Ir20  1  0.333335  0.666668  0.250119  1
  Ir  Ir21  1  0.666665  0.333342  0.749814  1
  Ir  Ir22  1  0.000004  0.999994  0.000012  1
  Ir  Ir23  1  0.999995  0.999996  0.500163  1
