# generated using pymatgen
data_Hf2Zr4Fe15Si7Ru
_symmetry_space_group_name_H-M   'P 1'
_cell_length_a   8.13428609
_cell_length_b   8.12394509
_cell_length_c   8.13428480
_cell_angle_alpha   59.79850835
_cell_angle_beta   59.69739069
_cell_angle_gamma   59.79850455
_symmetry_Int_Tables_number   1
_chemical_formula_structural   Hf2Zr4Fe15Si7Ru
_chemical_formula_sum   'Hf2 Zr4 Fe15 Si7 Ru1'
_cell_volume   378.06317599
_cell_formula_units_Z   1
loop_
 _symmetry_equiv_pos_site_id
 _symmetry_equiv_pos_as_xyz
  1  'x, y, z'
loop_
 _atom_site_type_symbol
 _atom_site_label
 _atom_site_symmetry_multiplicity
 _atom_site_fract_x
 _atom_site_fract_y
 _atom_site_fract_z
 _atom_site_occupancy
  Hf  Hf0  1  0.705223  0.296141  0.705223  1
  Hf  Hf1  1  0.292012  0.707676  0.292012  1
  Zr  Zr2  1  0.298430  0.702803  0.702828  1
  Zr  Zr3  1  0.702828  0.702803  0.298430  1
  Zr  Zr4  1  0.294372  0.294425  0.705226  1
  Zr  Zr5  1  0.705226  0.294425  0.294372  1
  Fe  Fe6  1  0.027794  0.324268  0.324971  1
  Fe  Fe7  1  0.122892  0.124547  0.634589  1
  Fe  Fe8  1  0.324292  0.027845  0.324292  1
  Fe  Fe9  1  0.323553  0.324327  0.323553  1
  Fe  Fe10  1  0.673449  0.673985  0.972601  1
  Fe  Fe11  1  0.878319  0.876385  0.364918  1
  Fe  Fe12  1  0.676098  0.675317  0.676098  1
  Fe  Fe13  1  0.674052  0.972506  0.674052  1
  Fe  Fe14  1  0.324971  0.324268  0.027794  1
  Fe  Fe15  1  0.876547  0.364715  0.876547  1
  Fe  Fe16  1  0.634589  0.124547  0.122892  1
  Fe  Fe17  1  0.124321  0.634926  0.124321  1
  Fe  Fe18  1  0.122914  0.121511  0.122914  1
  Fe  Fe19  1  0.972601  0.673985  0.673449  1
  Fe  Fe20  1  0.364918  0.876385  0.878319  1
  Si  Si21  1  0.000612  0.000383  0.495121  1
  Si  Si22  1  0.000432  0.495323  0.000432  1
  Si  Si23  1  0.004475  0.004555  0.004475  1
  Si  Si24  1  0.499708  0.999677  0.499708  1
  Si  Si25  1  0.999649  0.499681  0.499818  1
  Si  Si26  1  0.495121  0.000383  0.000612  1
  Si  Si27  1  0.499818  0.499681  0.999649  1
  Ru  Ru28  1  0.880785  0.882532  0.880785  1
