# generated using pymatgen
data_ErTm3MnB12Rh
_symmetry_space_group_name_H-M   'P 1'
_cell_length_a   3.58002500
_cell_length_b   9.05655856
_cell_length_c   11.42562204
_cell_angle_alpha   90.16957243
_cell_angle_beta   90.00000000
_cell_angle_gamma   90.00000000
_symmetry_Int_Tables_number   1
_chemical_formula_structural   ErTm3MnB12Rh
_chemical_formula_sum   'Er2 Tm6 Mn2 B24 Rh2'
_cell_volume   370.44796250
_cell_formula_units_Z   2
loop_
 _symmetry_equiv_pos_site_id
 _symmetry_equiv_pos_as_xyz
  1  'x, y, z'
loop_
 _atom_site_type_symbol
 _atom_site_label
 _atom_site_symmetry_multiplicity
 _atom_site_fract_x
 _atom_site_fract_y
 _atom_site_fract_z
 _atom_site_occupancy
  Er  Er0  1  0.500000  0.317595  0.410123  1
  Er  Er1  1  0.500000  0.682405  0.589877  1
  Tm  Tm2  1  0.500000  0.172126  0.917859  1
  Tm  Tm3  1  0.500000  0.827874  0.082141  1
  Tm  Tm4  1  0.500000  0.440111  0.126196  1
  Tm  Tm5  1  0.500000  0.559889  0.873804  1
  Tm  Tm6  1  0.500000  0.052122  0.629709  1
  Tm  Tm7  1  0.500000  0.947878  0.370291  1
  Mn  Mn8  1  0.500000  0.139456  0.180462  1
  Mn  Mn9  1  0.500000  0.860544  0.819538  1
  B  B10  1  0.000000  0.108004  0.470544  1
  B  B11  1  0.000000  0.891996  0.529456  1
  B  B12  1  0.000000  0.390747  0.970034  1
  B  B13  1  0.000000  0.609253  0.029966  1
  B  B14  1  0.000000  0.132109  0.313422  1
  B  B15  1  0.000000  0.867891  0.686578  1
  B  B16  1  0.000000  0.367556  0.817249  1
  B  B17  1  0.000000  0.632444  0.182751  1
  B  B18  1  0.000000  0.053643  0.067637  1
  B  B19  1  0.000000  0.946357  0.932363  1
  B  B20  1  0.000000  0.446173  0.566138  1
  B  B21  1  0.000000  0.553827  0.433862  1
  B  B22  1  0.000000  0.482054  0.286637  1
  B  B23  1  0.000000  0.517946  0.713363  1
  B  B24  1  0.000000  0.014798  0.788490  1
  B  B25  1  0.000000  0.985202  0.211510  1
  B  B26  1  0.000000  0.246237  0.081278  1
  B  B27  1  0.000000  0.753763  0.918722  1
  B  B28  1  0.000000  0.249491  0.578936  1
  B  B29  1  0.000000  0.750509  0.421064  1
  B  B30  1  0.000000  0.290964  0.233376  1
  B  B31  1  0.000000  0.709036  0.766624  1
  B  B32  1  0.000000  0.206847  0.735285  1
  B  B33  1  0.000000  0.793153  0.264715  1
  Rh  Rh34  1  0.500000  0.361283  0.678997  1
  Rh  Rh35  1  0.500000  0.638717  0.321003  1
