# generated using pymatgen
data_CaSi2TcIr
_symmetry_space_group_name_H-M   'P 1'
_cell_length_a   5.71534013
_cell_length_b   5.71534061
_cell_length_c   5.71534062
_cell_angle_alpha   136.62054467
_cell_angle_beta   136.62055527
_cell_angle_gamma   63.02240095
_symmetry_Int_Tables_number   1
_chemical_formula_structural   CaSi2TcIr
_chemical_formula_sum   'Ca1 Si2 Tc1 Ir1'
_cell_volume   86.95954931
_cell_formula_units_Z   1
loop_
 _symmetry_equiv_pos_site_id
 _symmetry_equiv_pos_as_xyz
  1  'x, y, z'
loop_
 _atom_site_type_symbol
 _atom_site_label
 _atom_site_symmetry_multiplicity
 _atom_site_fract_x
 _atom_site_fract_y
 _atom_site_fract_z
 _atom_site_occupancy
  Ca  Ca0  1  0.000000  0.000000  0.000000  1
  Si  Si1  1  0.631394  0.631394  0.000000  1
  Si  Si2  1  0.368606  0.368606  0.000000  1
  Tc  Tc3  1  0.750000  0.250000  0.500000  1
  Ir  Ir4  1  0.250000  0.750000  0.500000  1
