# generated using pymatgen
data_Dy4As6Ir5Ru2
_symmetry_space_group_name_H-M   'P 1'
_cell_length_a   7.27273547
_cell_length_b   7.27273437
_cell_length_c   7.27273488
_cell_angle_alpha   109.44165145
_cell_angle_beta   109.53036799
_cell_angle_gamma   109.44164855
_symmetry_Int_Tables_number   1
_chemical_formula_structural   Dy4As6Ir5Ru2
_chemical_formula_sum   'Dy4 As6 Ir5 Ru2'
_cell_volume   296.12228320
_cell_formula_units_Z   1
loop_
 _symmetry_equiv_pos_site_id
 _symmetry_equiv_pos_as_xyz
  1  'x, y, z'
loop_
 _atom_site_type_symbol
 _atom_site_label
 _atom_site_symmetry_multiplicity
 _atom_site_fract_x
 _atom_site_fract_y
 _atom_site_fract_z
 _atom_site_occupancy
  Dy  Dy0  1  0.000226  0.000451  0.500226  1
  Dy  Dy1  1  0.499774  0.999549  0.999774  1
  Dy  Dy2  1  0.000226  0.500000  0.999774  1
  Dy  Dy3  1  0.499774  0.500000  0.500226  1
  As  As4  1  0.679491  0.682320  0.997170  1
  As  As5  1  0.314850  0.317680  0.997170  1
  As  As6  1  0.002830  0.682320  0.685150  1
  As  As7  1  0.002830  0.317680  0.320509  1
  As  As8  1  0.684397  0.000000  0.684397  1
  As  As9  1  0.315603  0.000000  0.315603  1
  Ir  Ir10  1  0.749684  0.249611  0.500072  1
  Ir  Ir11  1  0.499928  0.249611  0.749539  1
  Ir  Ir12  1  0.499928  0.750389  0.250316  1
  Ir  Ir13  1  0.750000  0.500000  0.250000  1
  Ir  Ir14  1  0.250461  0.750389  0.500072  1
  Ru  Ru15  1  0.000000  0.000000  0.000000  1
  Ru  Ru16  1  0.250000  0.500000  0.750000  1
