# generated using pymatgen
data_Ca20Ge4Bi7Sb
_symmetry_space_group_name_H-M   'P 1'
_cell_length_a   8.12149478
_cell_length_b   9.58944887
_cell_length_c   12.96509767
_cell_angle_alpha   90.00017003
_cell_angle_beta   90.05829443
_cell_angle_gamma   90.04872044
_symmetry_Int_Tables_number   1
_chemical_formula_structural   Ca20Ge4Bi7Sb
_chemical_formula_sum   'Ca20 Ge4 Bi7 Sb1'
_cell_volume   1009.72946296
_cell_formula_units_Z   1
loop_
 _symmetry_equiv_pos_site_id
 _symmetry_equiv_pos_as_xyz
  1  'x, y, z'
loop_
 _atom_site_type_symbol
 _atom_site_label
 _atom_site_symmetry_multiplicity
 _atom_site_fract_x
 _atom_site_fract_y
 _atom_site_fract_z
 _atom_site_occupancy
  Ca  Ca0  1  0.329242  0.973046  0.077124  1
  Ca  Ca1  1  0.829388  0.026841  0.422777  1
  Ca  Ca2  1  0.670590  0.472942  0.922903  1
  Ca  Ca3  1  0.170811  0.526988  0.576568  1
  Ca  Ca4  1  0.670705  0.027126  0.922948  1
  Ca  Ca5  1  0.170817  0.973003  0.577093  1
  Ca  Ca6  1  0.330323  0.526808  0.078840  1
  Ca  Ca7  1  0.826728  0.473177  0.422312  1
  Ca  Ca8  1  0.672452  0.748097  0.217097  1
  Ca  Ca9  1  0.175344  0.251921  0.283889  1
  Ca  Ca10  1  0.326049  0.249950  0.783538  1
  Ca  Ca11  1  0.826121  0.750028  0.716237  1
  Ca  Ca12  1  0.150151  0.748145  0.306399  1
  Ca  Ca13  1  0.647360  0.251550  0.194458  1
  Ca  Ca14  1  0.851575  0.249993  0.693772  1
  Ca  Ca15  1  0.351509  0.749967  0.806140  1
  Ca  Ca16  1  0.553493  0.748299  0.499555  1
  Ca  Ca17  1  0.054311  0.250009  0.999365  1
  Ca  Ca18  1  0.445539  0.251933  0.498223  1
  Ca  Ca19  1  0.945695  0.750053  0.000876  1
  Ge  Ge20  1  0.558112  0.749825  0.992608  1
  Ge  Ge21  1  0.058219  0.250223  0.507489  1
  Ge  Ge22  1  0.441760  0.250230  0.007683  1
  Ge  Ge23  1  0.941575  0.749774  0.492166  1
  Bi  Bi24  1  0.945603  0.007074  0.169276  1
  Bi  Bi25  1  0.445721  0.993110  0.330864  1
  Bi  Bi26  1  0.054312  0.507015  0.830806  1
  Bi  Bi27  1  0.554302  0.493037  0.669100  1
  Bi  Bi28  1  0.054384  0.992945  0.830822  1
  Bi  Bi29  1  0.554269  0.007005  0.668954  1
  Bi  Bi30  1  0.945706  0.492927  0.169154  1
  Sb  Sb31  1  0.447835  0.506959  0.330962  1
