# generated using pymatgen
data_Sm3Y5(SiBr6)2
_symmetry_space_group_name_H-M   'P 1'
_cell_length_a   4.10043700
_cell_length_b   13.38514800
_cell_length_c   14.15404691
_cell_angle_alpha   89.82833149
_cell_angle_beta   90.00000000
_cell_angle_gamma   90.00000000
_symmetry_Int_Tables_number   1
_chemical_formula_structural   Sm3Y5(SiBr6)2
_chemical_formula_sum   'Sm3 Y5 Si2 Br12'
_cell_volume   776.84075619
_cell_formula_units_Z   1
loop_
 _symmetry_equiv_pos_site_id
 _symmetry_equiv_pos_as_xyz
  1  'x, y, z'
loop_
 _atom_site_type_symbol
 _atom_site_label
 _atom_site_symmetry_multiplicity
 _atom_site_fract_x
 _atom_site_fract_y
 _atom_site_fract_z
 _atom_site_occupancy
  Sm  Sm0  1  0.500000  0.119024  0.340398  1
  Sm  Sm1  1  0.000000  0.119712  0.580277  1
  Sm  Sm2  1  0.000000  0.879803  0.420287  1
  Y  Y3  1  0.500000  0.881440  0.659235  1
  Y  Y4  1  0.500000  0.617584  0.157660  1
  Y  Y5  1  0.500000  0.382812  0.841944  1
  Y  Y6  1  0.000000  0.617527  0.921636  1
  Y  Y7  1  0.000000  0.383766  0.077152  1
  Si  Si8  1  0.500000  0.999084  0.501217  1
  Si  Si9  1  0.500000  0.500738  0.999437  1
  Br  Br10  1  0.500000  0.249063  0.159941  1
  Br  Br11  1  0.500000  0.751996  0.837352  1
  Br  Br12  1  0.500000  0.739647  0.333859  1
  Br  Br13  1  0.500000  0.259352  0.667237  1
  Br  Br14  1  0.000000  0.257930  0.411877  1
  Br  Br15  1  0.000000  0.744862  0.592428  1
  Br  Br16  1  0.000000  0.752902  0.087687  1
  Br  Br17  1  0.000000  0.247405  0.911841  1
  Br  Br18  1  0.000000  0.001427  0.240488  1
  Br  Br19  1  0.000000  0.993844  0.758601  1
  Br  Br20  1  0.000000  0.501818  0.253993  1
  Br  Br21  1  0.000000  0.498263  0.745451  1
