# generated using pymatgen
data_Y5HgSe4
_symmetry_space_group_name_H-M   'P 1'
_cell_length_a   7.18017304
_cell_length_b   7.18017359
_cell_length_c   7.18017395
_cell_angle_alpha   99.62440612
_cell_angle_beta   99.62441282
_cell_angle_gamma   131.73010122
_symmetry_Int_Tables_number   1
_chemical_formula_structural   Y5HgSe4
_chemical_formula_sum   'Y5 Hg1 Se4'
_cell_volume   252.10699119
_cell_formula_units_Z   1
loop_
 _symmetry_equiv_pos_site_id
 _symmetry_equiv_pos_as_xyz
  1  'x, y, z'
loop_
 _atom_site_type_symbol
 _atom_site_label
 _atom_site_symmetry_multiplicity
 _atom_site_fract_x
 _atom_site_fract_y
 _atom_site_fract_z
 _atom_site_occupancy
  Y  Y0  1  0.399230  0.802513  0.201743  1
  Y  Y1  1  0.000000  0.000000  0.000000  1
  Y  Y2  1  0.600770  0.197487  0.798257  1
  Y  Y3  1  0.197487  0.399230  0.596716  1
  Y  Y4  1  0.802513  0.600770  0.403284  1
  Hg  Hg5  1  0.500000  0.500000  0.000000  1
  Se  Se6  1  0.099341  0.698122  0.797462  1
  Se  Se7  1  0.698122  0.900659  0.598781  1
  Se  Se8  1  0.301878  0.099341  0.401219  1
  Se  Se9  1  0.900659  0.301878  0.202538  1
