# generated using pymatgen
data_Pr4HgPd
_symmetry_space_group_name_H-M   'P 1'
_cell_length_a   10.06884923
_cell_length_b   10.06884851
_cell_length_c   10.06884800
_cell_angle_alpha   59.99999511
_cell_angle_beta   59.99999748
_cell_angle_gamma   59.99999785
_symmetry_Int_Tables_number   1
_chemical_formula_structural   Pr4HgPd
_chemical_formula_sum   'Pr16 Hg4 Pd4'
_cell_volume   721.81250279
_cell_formula_units_Z   4
loop_
 _symmetry_equiv_pos_site_id
 _symmetry_equiv_pos_as_xyz
  1  'x, y, z'
loop_
 _atom_site_type_symbol
 _atom_site_label
 _atom_site_symmetry_multiplicity
 _atom_site_fract_x
 _atom_site_fract_y
 _atom_site_fract_z
 _atom_site_occupancy
  Pr  Pr0  1  0.353419  0.353419  0.353419  1
  Pr  Pr1  1  0.353419  0.353419  0.939742  1
  Pr  Pr2  1  0.353419  0.939742  0.353419  1
  Pr  Pr3  1  0.939742  0.353419  0.353419  1
  Pr  Pr4  1  0.807274  0.192726  0.192726  1
  Pr  Pr5  1  0.192726  0.807274  0.807274  1
  Pr  Pr6  1  0.192726  0.807274  0.192726  1
  Pr  Pr7  1  0.807274  0.192726  0.807274  1
  Pr  Pr8  1  0.192726  0.192726  0.807274  1
  Pr  Pr9  1  0.807274  0.807274  0.192726  1
  Pr  Pr10  1  0.936093  0.563907  0.563907  1
  Pr  Pr11  1  0.563907  0.936093  0.936093  1
  Pr  Pr12  1  0.563907  0.936093  0.563907  1
  Pr  Pr13  1  0.936093  0.563907  0.936093  1
  Pr  Pr14  1  0.563907  0.563907  0.936093  1
  Pr  Pr15  1  0.936093  0.936093  0.563907  1
  Hg  Hg16  1  0.584376  0.584376  0.584376  1
  Hg  Hg17  1  0.584376  0.584376  0.246874  1
  Hg  Hg18  1  0.584376  0.246874  0.584376  1
  Hg  Hg19  1  0.246874  0.584376  0.584376  1
  Pd  Pd20  1  0.143970  0.143970  0.143970  1
  Pd  Pd21  1  0.143970  0.143970  0.568090  1
  Pd  Pd22  1  0.143970  0.568090  0.143970  1
  Pd  Pd23  1  0.568090  0.143970  0.143970  1
