# generated using pymatgen
data_CsPrNd2CBr6
_symmetry_space_group_name_H-M   'P 1'
_cell_length_a   9.10521472
_cell_length_b   9.13426019
_cell_length_c   9.81426802
_cell_angle_alpha   69.77492463
_cell_angle_beta   85.98106816
_cell_angle_gamma   89.36057161
_symmetry_Int_Tables_number   1
_chemical_formula_structural   CsPrNd2CBr6
_chemical_formula_sum   'Cs2 Pr2 Nd4 C2 Br12'
_cell_volume   763.96057534
_cell_formula_units_Z   2
loop_
 _symmetry_equiv_pos_site_id
 _symmetry_equiv_pos_as_xyz
  1  'x, y, z'
loop_
 _atom_site_type_symbol
 _atom_site_label
 _atom_site_symmetry_multiplicity
 _atom_site_fract_x
 _atom_site_fract_y
 _atom_site_fract_z
 _atom_site_occupancy
  Cs  Cs0  1  0.475457  0.349193  0.334352  1
  Cs  Cs1  1  0.524544  0.650807  0.665648  1
  Pr  Pr2  1  0.913675  0.736236  0.003952  1
  Pr  Pr3  1  0.086325  0.263764  0.996047  1
  Nd  Nd4  1  0.738366  0.086867  0.000721  1
  Nd  Nd5  1  0.261633  0.913133  0.999280  1
  Nd  Nd6  1  0.979170  0.877318  0.326057  1
  Nd  Nd7  1  0.020829  0.122682  0.673944  1
  C  C8  1  0.004797  0.028169  0.923444  1
  C  C9  1  0.995202  0.971831  0.076556  1
  Br  Br10  1  0.086167  0.188676  0.327915  1
  Br  Br11  1  0.913833  0.811324  0.672085  1
  Br  Br12  1  0.210104  0.591937  0.000574  1
  Br  Br13  1  0.789897  0.408063  0.999426  1
  Br  Br14  1  0.407156  0.200619  0.005473  1
  Br  Br15  1  0.592843  0.799382  0.994526  1
  Br  Br16  1  0.672441  0.995375  0.325395  1
  Br  Br17  1  0.327559  0.004625  0.674605  1
  Br  Br18  1  0.285803  0.763352  0.322522  1
  Br  Br19  1  0.714197  0.236648  0.677478  1
  Br  Br20  1  0.849712  0.582325  0.327618  1
  Br  Br21  1  0.150287  0.417675  0.672382  1
