# generated using pymatgen
data_Ba5Ga3F19
_symmetry_space_group_name_H-M   'P 1'
_cell_length_a   11.42871329
_cell_length_b   11.42871418
_cell_length_c   11.42871400
_cell_angle_alpha   96.61431363
_cell_angle_beta   96.61431415
_cell_angle_gamma   140.32061961
_symmetry_Int_Tables_number   1
_chemical_formula_structural   Ba5Ga3F19
_chemical_formula_sum   'Ba10 Ga6 F38'
_cell_volume   896.54673698
_cell_formula_units_Z   2
loop_
 _symmetry_equiv_pos_site_id
 _symmetry_equiv_pos_as_xyz
  1  'x, y, z'
loop_
 _atom_site_type_symbol
 _atom_site_label
 _atom_site_symmetry_multiplicity
 _atom_site_fract_x
 _atom_site_fract_y
 _atom_site_fract_z
 _atom_site_occupancy
  Ba  Ba0  1  0.755170  0.076337  0.831507  1
  Ba  Ba1  1  0.244830  0.923663  0.168493  1
  Ba  Ba2  1  0.923663  0.755170  0.678833  1
  Ba  Ba3  1  0.076337  0.244830  0.321167  1
  Ba  Ba4  1  0.281294  0.443990  0.725283  1
  Ba  Ba5  1  0.718706  0.556010  0.274717  1
  Ba  Ba6  1  0.556010  0.281294  0.837305  1
  Ba  Ba7  1  0.443990  0.718706  0.162695  1
  Ba  Ba8  1  0.750000  0.250000  0.500000  1
  Ba  Ba9  1  0.250000  0.750000  0.500000  1
  Ga  Ga10  1  0.322586  0.158977  0.481563  1
  Ga  Ga11  1  0.677414  0.841023  0.518437  1
  Ga  Ga12  1  0.841023  0.322586  0.163608  1
  Ga  Ga13  1  0.158977  0.677414  0.836392  1
  Ga  Ga14  1  0.247641  0.247641  0.000000  1
  Ga  Ga15  1  0.752359  0.752359  0.000000  1
  F  F16  1  0.696360  0.623878  0.838293  1
  F  F17  1  0.785585  0.858068  0.161707  1
  F  F18  1  0.858068  0.696360  0.072482  1
  F  F19  1  0.623878  0.785585  0.927518  1
  F  F20  1  0.303640  0.376122  0.161707  1
  F  F21  1  0.214415  0.141932  0.838293  1
  F  F22  1  0.141932  0.303640  0.927518  1
  F  F23  1  0.376122  0.214415  0.072482  1
  F  F24  1  0.577110  0.370860  0.606300  1
  F  F25  1  0.764560  0.970810  0.393700  1
  F  F26  1  0.970810  0.577110  0.206250  1
  F  F27  1  0.370860  0.764560  0.793750  1
  F  F28  1  0.422890  0.629140  0.393700  1
  F  F29  1  0.235440  0.029190  0.606300  1
  F  F30  1  0.029190  0.422890  0.793750  1
  F  F31  1  0.629140  0.235440  0.206250  1
  F  F32  1  0.922487  0.064318  0.648664  1
  F  F33  1  0.415654  0.273822  0.351336  1
  F  F34  1  0.273822  0.922487  0.858169  1
  F  F35  1  0.064318  0.415654  0.141831  1
  F  F36  1  0.077513  0.935682  0.351336  1
  F  F37  1  0.584346  0.726178  0.648664  1
  F  F38  1  0.726178  0.077513  0.141831  1
  F  F39  1  0.935682  0.584346  0.858169  1
  F  F40  1  0.255826  0.265079  0.520905  1
  F  F41  1  0.744174  0.734921  0.479095  1
  F  F42  1  0.734921  0.255826  0.990747  1
  F  F43  1  0.265079  0.744174  0.009253  1
  F  F44  1  0.614938  0.952299  0.567238  1
  F  F45  1  0.385062  0.047701  0.432762  1
  F  F46  1  0.047701  0.614938  0.662639  1
  F  F47  1  0.952299  0.385062  0.337361  1
  F  F48  1  0.115174  0.424120  0.539294  1
  F  F49  1  0.884826  0.575880  0.460706  1
  F  F50  1  0.575880  0.115174  0.691055  1
  F  F51  1  0.424120  0.884826  0.308945  1
  F  F52  1  0.000000  0.000000  0.000000  1
  F  F53  1  0.500000  0.500000  0.000000  1
