# generated using pymatgen
data_YTh(Cd2Pd)2
_symmetry_space_group_name_H-M   'P 1'
_cell_length_a   5.41480291
_cell_length_b   5.41480265
_cell_length_c   8.61488900
_cell_angle_alpha   90.00000000
_cell_angle_beta   90.00000000
_cell_angle_gamma   134.00817130
_symmetry_Int_Tables_number   1
_chemical_formula_structural   YTh(Cd2Pd)2
_chemical_formula_sum   'Y1 Th1 Cd4 Pd2'
_cell_volume   181.67252056
_cell_formula_units_Z   1
loop_
 _symmetry_equiv_pos_site_id
 _symmetry_equiv_pos_as_xyz
  1  'x, y, z'
loop_
 _atom_site_type_symbol
 _atom_site_label
 _atom_site_symmetry_multiplicity
 _atom_site_fract_x
 _atom_site_fract_y
 _atom_site_fract_z
 _atom_site_occupancy
  Y  Y0  1  0.933337  0.066663  0.750000  1
  Th  Th1  1  0.065419  0.934581  0.250000  1
  Cd  Cd2  1  0.642628  0.357372  0.552400  1
  Cd  Cd3  1  0.357774  0.642226  0.457471  1
  Cd  Cd4  1  0.642628  0.357372  0.947600  1
  Cd  Cd5  1  0.357774  0.642226  0.042529  1
  Pd  Pd6  1  0.225237  0.774763  0.750000  1
  Pd  Pd7  1  0.775204  0.224796  0.250000  1
