# generated using pymatgen
data_Dy4Tm4Ti11Si16Pt
_symmetry_space_group_name_H-M   'P 1'
_cell_length_a   7.03049293
_cell_length_b   7.03143330
_cell_length_c   12.82891410
_cell_angle_alpha   89.86182557
_cell_angle_beta   90.15692874
_cell_angle_gamma   89.75154687
_symmetry_Int_Tables_number   1
_chemical_formula_structural   Dy4Tm4Ti11Si16Pt
_chemical_formula_sum   'Dy4 Tm4 Ti11 Si16 Pt1'
_cell_volume   634.18000781
_cell_formula_units_Z   1
loop_
 _symmetry_equiv_pos_site_id
 _symmetry_equiv_pos_as_xyz
  1  'x, y, z'
loop_
 _atom_site_type_symbol
 _atom_site_label
 _atom_site_symmetry_multiplicity
 _atom_site_fract_x
 _atom_site_fract_y
 _atom_site_fract_z
 _atom_site_occupancy
  Dy  Dy0  1  0.842696  0.498252  0.285157  1
  Dy  Dy1  1  0.503889  0.158071  0.217473  1
  Dy  Dy2  1  0.498381  0.842342  0.714439  1
  Dy  Dy3  1  0.343784  0.001042  0.468967  1
  Tm  Tm4  1  0.997532  0.659451  0.032544  1
  Tm  Tm5  1  0.000940  0.343773  0.531585  1
  Tm  Tm6  1  0.659460  0.997213  0.966860  1
  Tm  Tm7  1  0.157636  0.502979  0.782398  1
  Ti  Ti8  1  0.344558  0.504927  0.376238  1
  Ti  Ti9  1  0.851014  0.994715  0.377152  1
  Ti  Ti10  1  0.006840  0.149654  0.124685  1
  Ti  Ti11  1  0.995290  0.851924  0.623801  1
  Ti  Ti12  1  0.505352  0.346033  0.624958  1
  Ti  Ti13  1  0.149175  0.006718  0.874620  1
  Ti  Ti14  1  0.824636  0.174411  0.748955  1
  Ti  Ti15  1  0.173746  0.824032  0.251176  1
  Ti  Ti16  1  0.326824  0.327227  0.999769  1
  Ti  Ti17  1  0.493480  0.649996  0.126408  1
  Ti  Ti18  1  0.649441  0.493526  0.872580  1
  Si  Si19  1  0.054331  0.712995  0.435904  1
  Si  Si20  1  0.952396  0.292774  0.934406  1
  Si  Si21  1  0.715437  0.057443  0.565068  1
  Si  Si22  1  0.208431  0.453196  0.184441  1
  Si  Si23  1  0.791952  0.549635  0.684676  1
  Si  Si24  1  0.451973  0.208745  0.815580  1
  Si  Si25  1  0.550157  0.789355  0.315094  1
  Si  Si26  1  0.292085  0.951506  0.064798  1
  Si  Si27  1  0.799090  0.866171  0.184345  1
  Si  Si28  1  0.288006  0.625881  0.568917  1
  Si  Si29  1  0.706021  0.368935  0.065817  1
  Si  Si30  1  0.628062  0.292295  0.432971  1
  Si  Si31  1  0.367925  0.705572  0.932689  1
  Si  Si32  1  0.131939  0.202462  0.316680  1
  Si  Si33  1  0.201458  0.134404  0.683436  1
  Si  Si34  1  0.866937  0.797623  0.815763  1
  Pt  Pt35  1  0.669122  0.664718  0.499650  1
