# generated using pymatgen
data_Tb2Dy2Zn4Ir3Rh
_symmetry_space_group_name_H-M   'P 1'
_cell_length_a   4.05268600
_cell_length_b   7.03115187
_cell_length_c   8.13480604
_cell_angle_alpha   90.05473892
_cell_angle_beta   90.00000000
_cell_angle_gamma   90.00000000
_symmetry_Int_Tables_number   1
_chemical_formula_structural   Tb2Dy2Zn4Ir3Rh
_chemical_formula_sum   'Tb2 Dy2 Zn4 Ir3 Rh1'
_cell_volume   231.80160498
_cell_formula_units_Z   1
loop_
 _symmetry_equiv_pos_site_id
 _symmetry_equiv_pos_as_xyz
  1  'x, y, z'
loop_
 _atom_site_type_symbol
 _atom_site_label
 _atom_site_symmetry_multiplicity
 _atom_site_fract_x
 _atom_site_fract_y
 _atom_site_fract_z
 _atom_site_occupancy
  Tb  Tb0  1  0.750000  0.460055  0.816787  1
  Tb  Tb1  1  0.750000  0.964397  0.682186  1
  Dy  Dy2  1  0.250000  0.536447  0.184160  1
  Dy  Dy3  1  0.250000  0.038159  0.317036  1
  Zn  Zn4  1  0.250000  0.136379  0.935119  1
  Zn  Zn5  1  0.750000  0.863405  0.064965  1
  Zn  Zn6  1  0.250000  0.637437  0.564392  1
  Zn  Zn7  1  0.750000  0.362937  0.434170  1
  Ir  Ir8  1  0.750000  0.743520  0.376952  1
  Ir  Ir9  1  0.250000  0.258625  0.624000  1
  Ir  Ir10  1  0.750000  0.242424  0.122372  1
  Rh  Rh11  1  0.250000  0.756216  0.877864  1
