# generated using pymatgen
data_PtS27
_symmetry_space_group_name_H-M   'P 1'
_cell_length_a   15.10488841
_cell_length_b   15.09782565
_cell_length_c   15.09960589
_cell_angle_alpha   118.66096002
_cell_angle_beta   118.73489350
_cell_angle_gamma   118.78675211
_symmetry_Int_Tables_number   1
_chemical_formula_structural   PtS27
_chemical_formula_sum   'Pt1 S27'
_cell_volume   1003.13623947
_cell_formula_units_Z   1
loop_
 _symmetry_equiv_pos_site_id
 _symmetry_equiv_pos_as_xyz
  1  'x, y, z'
loop_
 _atom_site_type_symbol
 _atom_site_label
 _atom_site_symmetry_multiplicity
 _atom_site_fract_x
 _atom_site_fract_y
 _atom_site_fract_z
 _atom_site_occupancy
  Pt  Pt0  1  0.938719  0.938926  0.939472  1
  S  S1  1  0.803641  0.521119  0.521145  1
  S  S2  1  0.523987  0.524191  0.806104  1
  S  S3  1  0.522310  0.804709  0.522541  1
  S  S4  1  0.246829  0.376070  0.635577  1
  S  S5  1  0.352904  0.951825  0.352507  1
  S  S6  1  0.352784  0.352587  0.951823  1
  S  S7  1  0.951692  0.352749  0.352559  1
  S  S8  1  0.126983  0.739155  0.255998  1
  S  S9  1  0.255078  0.126047  0.738404  1
  S  S10  1  0.738723  0.255648  0.126330  1
  S  S11  1  0.739053  0.126828  0.256074  1
  S  S12  1  0.255185  0.738398  0.125976  1
  S  S13  1  0.126540  0.255456  0.738804  1
  S  S14  1  0.347443  0.879221  0.529927  1
  S  S15  1  0.529709  0.347280  0.879102  1
  S  S16  1  0.879683  0.530204  0.347360  1
  S  S17  1  0.879596  0.347554  0.530218  1
  S  S18  1  0.529943  0.879470  0.347269  1
  S  S19  1  0.347300  0.529723  0.878983  1
  S  S20  1  0.245564  0.634574  0.375082  1
  S  S21  1  0.376333  0.247454  0.636101  1
  S  S22  1  0.634847  0.374761  0.245513  1
  S  S23  1  0.634419  0.245118  0.374651  1
  S  S24  1  0.375574  0.635616  0.246669  1
  S  S25  1  0.840089  0.982316  0.981988  1
  S  S26  1  0.985832  0.985631  0.845030  1
  S  S27  1  0.984537  0.842663  0.984089  1
