# generated using pymatgen
data_Y2Ge(BRh2)3
_symmetry_space_group_name_H-M   'P 1'
_cell_length_a   5.53682602
_cell_length_b   5.53672644
_cell_length_c   13.00205201
_cell_angle_alpha   90.00133205
_cell_angle_beta   89.99735665
_cell_angle_gamma   120.00059496
_symmetry_Int_Tables_number   1
_chemical_formula_structural   Y2Ge(BRh2)3
_chemical_formula_sum   'Y4 Ge2 B6 Rh12'
_cell_volume   345.18655313
_cell_formula_units_Z   2
loop_
 _symmetry_equiv_pos_site_id
 _symmetry_equiv_pos_as_xyz
  1  'x, y, z'
loop_
 _atom_site_type_symbol
 _atom_site_label
 _atom_site_symmetry_multiplicity
 _atom_site_fract_x
 _atom_site_fract_y
 _atom_site_fract_z
 _atom_site_occupancy
  Y  Y0  1  0.000024  0.000000  0.999974  1
  Y  Y1  1  0.999954  0.000000  0.499992  1
  Y  Y2  1  0.999867  0.000000  0.258317  1
  Y  Y3  1  0.000125  0.000000  0.741659  1
  Ge  Ge4  1  0.333291  0.666577  0.000015  1
  Ge  Ge5  1  0.666714  0.333423  0.000015  1
  B  B6  1  0.333301  0.666649  0.499993  1
  B  B7  1  0.666651  0.333351  0.499993  1
  B  B8  1  0.333326  0.666679  0.266321  1
  B  B9  1  0.666647  0.333321  0.266321  1
  B  B10  1  0.666672  0.333356  0.733686  1
  B  B11  1  0.333317  0.666644  0.733686  1
  Rh  Rh12  1  0.500024  0.000000  0.155800  1
  Rh  Rh13  1  0.499964  0.499964  0.155826  1
  Rh  Rh14  1  0.999999  0.500036  0.155826  1
  Rh  Rh15  1  0.499941  0.000000  0.844219  1
  Rh  Rh16  1  0.500006  0.500038  0.844197  1
  Rh  Rh17  1  0.999969  0.499962  0.844197  1
  Rh  Rh18  1  0.500022  0.000000  0.385205  1
  Rh  Rh19  1  0.499983  0.499982  0.385169  1
  Rh  Rh20  1  0.000000  0.500018  0.385169  1
  Rh  Rh21  1  0.500006  0.000000  0.614837  1
  Rh  Rh22  1  0.500000  0.499999  0.614793  1
  Rh  Rh23  1  0.999999  0.500001  0.614793  1
