# generated using pymatgen
data_Sm6Zn4Pt11Au2
_symmetry_space_group_name_H-M   'P 1'
_cell_length_a   8.34594839
_cell_length_b   8.34594732
_cell_length_c   8.34535200
_cell_angle_alpha   109.43003827
_cell_angle_beta   109.43002112
_cell_angle_gamma   109.54077686
_symmetry_Int_Tables_number   1
_chemical_formula_structural   Sm6Zn4Pt11Au2
_chemical_formula_sum   'Sm6 Zn4 Pt11 Au2'
_cell_volume   447.55088508
_cell_formula_units_Z   1
loop_
 _symmetry_equiv_pos_site_id
 _symmetry_equiv_pos_as_xyz
  1  'x, y, z'
loop_
 _atom_site_type_symbol
 _atom_site_label
 _atom_site_symmetry_multiplicity
 _atom_site_fract_x
 _atom_site_fract_y
 _atom_site_fract_z
 _atom_site_occupancy
  Sm  Sm0  1  0.702953  0.702953  0.011261  1
  Sm  Sm1  1  0.294836  0.993879  0.295004  1
  Sm  Sm2  1  0.993879  0.294836  0.295004  1
  Sm  Sm3  1  0.300690  0.300690  0.999806  1
  Sm  Sm4  1  0.704008  0.999367  0.697802  1
  Sm  Sm5  1  0.999367  0.704008  0.697802  1
  Zn  Zn6  1  0.000773  0.000773  0.500563  1
  Zn  Zn7  1  0.003450  0.499167  0.003359  1
  Zn  Zn8  1  0.499167  0.003450  0.003359  1
  Zn  Zn9  1  0.494935  0.494935  0.491552  1
  Pt  Pt10  1  0.326554  0.326554  0.653585  1
  Pt  Pt11  1  0.671702  0.999977  0.328120  1
  Pt  Pt12  1  0.999977  0.671702  0.328120  1
  Pt  Pt13  1  0.673267  0.327116  0.000660  1
  Pt  Pt14  1  0.329078  0.657393  0.328243  1
  Pt  Pt15  1  0.000597  0.328799  0.672049  1
  Pt  Pt16  1  0.327116  0.673267  0.000660  1
  Pt  Pt17  1  0.328799  0.000597  0.672049  1
  Pt  Pt18  1  0.657393  0.329078  0.328243  1
  Pt  Pt19  1  0.673381  0.673381  0.346911  1
  Pt  Pt20  1  0.996891  0.996891  0.997984  1
  Au  Au21  1  0.673432  0.347759  0.673932  1
  Au  Au22  1  0.347759  0.673432  0.673932  1
