# generated using pymatgen
data_Tb2LuAl3Si2Ni
_symmetry_space_group_name_H-M   'P 1'
_cell_length_a   6.87173600
_cell_length_b   6.85092042
_cell_length_c   4.14530700
_cell_angle_alpha   90.00000000
_cell_angle_beta   90.00000000
_cell_angle_gamma   120.10055922
_symmetry_Int_Tables_number   1
_chemical_formula_structural   Tb2LuAl3Si2Ni
_chemical_formula_sum   'Tb2 Lu1 Al3 Si2 Ni1'
_cell_volume   168.83471809
_cell_formula_units_Z   1
loop_
 _symmetry_equiv_pos_site_id
 _symmetry_equiv_pos_as_xyz
  1  'x, y, z'
loop_
 _atom_site_type_symbol
 _atom_site_label
 _atom_site_symmetry_multiplicity
 _atom_site_fract_x
 _atom_site_fract_y
 _atom_site_fract_z
 _atom_site_occupancy
  Tb  Tb0  1  0.998520  0.405665  0.000000  1
  Tb  Tb1  1  0.592854  0.594334  0.000000  1
  Lu  Lu2  1  0.404150  0.000000  0.000000  1
  Al  Al3  1  0.765500  0.000000  0.499999  1
  Al  Al4  1  0.233923  0.232923  0.499999  1
  Al  Al5  1  0.001000  0.767077  0.499999  1
  Si  Si6  1  0.662160  0.327580  0.499999  1
  Si  Si7  1  0.334580  0.672421  0.499999  1
  Ni  Ni8  1  0.007317  0.000000  0.000000  1
