# generated using pymatgen
data_Sr2Sm5P12Pd17
_symmetry_space_group_name_H-M   'P 1'
_cell_length_a   12.46198203
_cell_length_b   12.46198268
_cell_length_c   13.71787005
_cell_angle_alpha   67.99918285
_cell_angle_beta   67.99918230
_cell_angle_gamma   18.75242924
_symmetry_Int_Tables_number   1
_chemical_formula_structural   Sr2Sm5P12Pd17
_chemical_formula_sum   'Sr2 Sm5 P12 Pd17'
_cell_volume   633.59106165
_cell_formula_units_Z   1
loop_
 _symmetry_equiv_pos_site_id
 _symmetry_equiv_pos_as_xyz
  1  'x, y, z'
loop_
 _atom_site_type_symbol
 _atom_site_label
 _atom_site_symmetry_multiplicity
 _atom_site_fract_x
 _atom_site_fract_y
 _atom_site_fract_z
 _atom_site_occupancy
  Sr  Sr0  1  0.500216  0.500216  0.499965  1
  Sr  Sr1  1  0.366768  0.366768  0.000430  1
  Sm  Sm2  1  0.633615  0.633615  0.001036  1
  Sm  Sm3  1  0.233829  0.233829  0.313476  1
  Sm  Sm4  1  0.765256  0.765256  0.686865  1
  Sm  Sm5  1  0.418208  0.418208  0.259883  1
  Sm  Sm6  1  0.582064  0.582064  0.740563  1
  P  P7  1  0.061763  0.061763  0.924752  1
  P  P8  1  0.939477  0.939477  0.076676  1
  P  P9  1  0.887618  0.887618  0.824899  1
  P  P10  1  0.112793  0.112793  0.171858  1
  P  P11  1  0.188488  0.188488  0.621358  1
  P  P12  1  0.810824  0.810824  0.380629  1
  P  P13  1  0.362506  0.362506  0.582362  1
  P  P14  1  0.637168  0.637168  0.417600  1
  P  P15  1  0.012503  0.012503  0.676086  1
  P  P16  1  0.987807  0.987807  0.324381  1
  P  P17  1  0.231607  0.231607  0.881942  1
  P  P18  1  0.767082  0.767082  0.120044  1
  Pd  Pd19  1  0.838176  0.838176  0.196042  1
  Pd  Pd20  1  0.161270  0.161270  0.806531  1
  Pd  Pd21  1  0.026657  0.026657  0.124467  1
  Pd  Pd22  1  0.975588  0.975588  0.873743  1
  Pd  Pd23  1  0.888366  0.888366  0.454747  1
  Pd  Pd24  1  0.111863  0.111863  0.544269  1
  Pd  Pd25  1  0.501885  0.501885  0.000303  1
  Pd  Pd26  1  0.546946  0.546946  0.254633  1
  Pd  Pd27  1  0.452934  0.452934  0.743030  1
  Pd  Pd28  1  0.295982  0.295982  0.489306  1
  Pd  Pd29  1  0.703856  0.703856  0.510688  1
  Pd  Pd30  1  0.667278  0.667278  0.221569  1
  Pd  Pd31  1  0.331799  0.331799  0.777820  1
  Pd  Pd32  1  0.903488  0.903488  0.644541  1
  Pd  Pd33  1  0.096170  0.096170  0.354186  1
  Pd  Pd34  1  0.216805  0.216805  0.068259  1
  Pd  Pd35  1  0.781344  0.781344  0.931059  1
