# generated using pymatgen
data_La15TbCd4CoRu3
_symmetry_space_group_name_H-M   'P 1'
_cell_length_a   10.02737656
_cell_length_b   10.08387945
_cell_length_c   9.98607988
_cell_angle_alpha   59.67549653
_cell_angle_beta   60.25547932
_cell_angle_gamma   59.81343102
_symmetry_Int_Tables_number   1
_chemical_formula_structural   La15TbCd4CoRu3
_chemical_formula_sum   'La15 Tb1 Cd4 Co1 Ru3'
_cell_volume   712.57474123
_cell_formula_units_Z   1
loop_
 _symmetry_equiv_pos_site_id
 _symmetry_equiv_pos_as_xyz
  1  'x, y, z'
loop_
 _atom_site_type_symbol
 _atom_site_label
 _atom_site_symmetry_multiplicity
 _atom_site_fract_x
 _atom_site_fract_y
 _atom_site_fract_z
 _atom_site_occupancy
  La  La0  1  0.435341  0.439294  0.056813  1
  La  La1  1  0.593858  0.594849  0.599345  1
  La  La2  1  0.188650  0.811600  0.809573  1
  La  La3  1  0.060969  0.065118  0.434528  1
  La  La4  1  0.435341  0.068551  0.056813  1
  La  La5  1  0.812117  0.189899  0.808085  1
  La  La6  1  0.438879  0.061696  0.437728  1
  La  La7  1  0.593858  0.211948  0.599345  1
  La  La8  1  0.810704  0.807477  0.189848  1
  La  La9  1  0.210798  0.592526  0.604148  1
  La  La10  1  0.810704  0.191972  0.189848  1
  La  La11  1  0.060969  0.439385  0.434528  1
  La  La12  1  0.192750  0.807571  0.192107  1
  La  La13  1  0.599410  0.595106  0.210378  1
  La  La14  1  0.188650  0.190177  0.809573  1
  Tb  Tb15  1  0.062553  0.440135  0.057175  1
  Cd  Cd16  1  0.829344  0.829335  0.511984  1
  Cd  Cd17  1  0.830690  0.827554  0.829874  1
  Cd  Cd18  1  0.512290  0.829567  0.828574  1
  Cd  Cd19  1  0.830690  0.511879  0.829874  1
  Co  Co20  1  0.391209  0.386778  0.835236  1
  Ru  Ru21  1  0.386940  0.385268  0.390641  1
  Ru  Ru22  1  0.836343  0.385159  0.393339  1
  Ru  Ru23  1  0.386940  0.837151  0.390641  1
