# generated using pymatgen
data_Dy8CdNiHgOs
_symmetry_space_group_name_H-M   'P 1'
_cell_length_a   9.56795900
_cell_length_b   9.56795873
_cell_length_c   9.65615500
_cell_angle_alpha   59.69460025
_cell_angle_beta   59.69460118
_cell_angle_gamma   59.63025979
_symmetry_Int_Tables_number   1
_chemical_formula_structural   Dy8CdNiHgOs
_chemical_formula_sum   'Dy16 Cd2 Ni2 Hg2 Os2'
_cell_volume   620.42683279
_cell_formula_units_Z   2
loop_
 _symmetry_equiv_pos_site_id
 _symmetry_equiv_pos_as_xyz
  1  'x, y, z'
loop_
 _atom_site_type_symbol
 _atom_site_label
 _atom_site_symmetry_multiplicity
 _atom_site_fract_x
 _atom_site_fract_y
 _atom_site_fract_z
 _atom_site_occupancy
  Dy  Dy0  1  0.600854  0.600854  0.592747  1
  Dy  Dy1  1  0.600854  0.600854  0.205548  1
  Dy  Dy2  1  0.602910  0.202768  0.597162  1
  Dy  Dy3  1  0.202768  0.602910  0.597162  1
  Dy  Dy4  1  0.060471  0.435888  0.441342  1
  Dy  Dy5  1  0.435888  0.060471  0.062299  1
  Dy  Dy6  1  0.435888  0.060471  0.441342  1
  Dy  Dy7  1  0.060471  0.435888  0.062299  1
  Dy  Dy8  1  0.438332  0.438332  0.061668  1
  Dy  Dy9  1  0.058377  0.058377  0.441623  1
  Dy  Dy10  1  0.188657  0.805367  0.816493  1
  Dy  Dy11  1  0.805367  0.188657  0.189483  1
  Dy  Dy12  1  0.805367  0.188657  0.816493  1
  Dy  Dy13  1  0.188657  0.805367  0.189483  1
  Dy  Dy14  1  0.814935  0.814935  0.185065  1
  Dy  Dy15  1  0.191496  0.191496  0.808504  1
  Cd  Cd16  1  0.829729  0.507129  0.831571  1
  Cd  Cd17  1  0.507129  0.829729  0.831571  1
  Ni  Ni18  1  0.392734  0.826707  0.390280  1
  Ni  Ni19  1  0.826707  0.392734  0.390280  1
  Hg  Hg20  1  0.832523  0.832523  0.837726  1
  Hg  Hg21  1  0.832523  0.832523  0.497227  1
  Os  Os22  1  0.393681  0.393681  0.388357  1
  Os  Os23  1  0.393681  0.393681  0.824280  1
