# generated using pymatgen
data_YbEr(BC)4
_symmetry_space_group_name_H-M   'P 1'
_cell_length_a   5.34300700
_cell_length_b   5.34300700
_cell_length_c   3.56221800
_cell_angle_alpha   90.00000000
_cell_angle_beta   90.00000000
_cell_angle_gamma   90.00000000
_symmetry_Int_Tables_number   1
_chemical_formula_structural   YbEr(BC)4
_chemical_formula_sum   'Yb1 Er1 B4 C4'
_cell_volume   101.69321559
_cell_formula_units_Z   1
loop_
 _symmetry_equiv_pos_site_id
 _symmetry_equiv_pos_as_xyz
  1  'x, y, z'
loop_
 _atom_site_type_symbol
 _atom_site_label
 _atom_site_symmetry_multiplicity
 _atom_site_fract_x
 _atom_site_fract_y
 _atom_site_fract_z
 _atom_site_occupancy
  Yb  Yb0  1  0.500000  0.500000  0.000000  1
  Er  Er1  1  0.000000  0.000000  0.000000  1
  B  B2  1  0.137265  0.637404  0.500000  1
  B  B3  1  0.637404  0.862735  0.500000  1
  B  B4  1  0.862735  0.362596  0.500000  1
  B  B5  1  0.362596  0.137265  0.500000  1
  C  C6  1  0.839984  0.662700  0.500000  1
  C  C7  1  0.337300  0.839984  0.500000  1
  C  C8  1  0.662700  0.160016  0.500000  1
  C  C9  1  0.160016  0.337300  0.500000  1
