# generated using pymatgen
data_Zr2Cr7FeP4
_symmetry_space_group_name_H-M   'P 1'
_cell_length_a   6.91983082
_cell_length_b   6.91248187
_cell_length_c   3.77507200
_cell_angle_alpha   90.00000000
_cell_angle_beta   90.00000000
_cell_angle_gamma   90.08364726
_symmetry_Int_Tables_number   1
_chemical_formula_structural   Zr2Cr7FeP4
_chemical_formula_sum   'Zr2 Cr7 Fe1 P4'
_cell_volume   180.57360064
_cell_formula_units_Z   1
loop_
 _symmetry_equiv_pos_site_id
 _symmetry_equiv_pos_as_xyz
  1  'x, y, z'
loop_
 _atom_site_type_symbol
 _atom_site_label
 _atom_site_symmetry_multiplicity
 _atom_site_fract_x
 _atom_site_fract_y
 _atom_site_fract_z
 _atom_site_occupancy
  Zr  Zr0  1  0.498911  0.503964  0.000000  1
  Zr  Zr1  1  0.000747  0.001964  0.500000  1
  Cr  Cr2  1  0.587432  0.152280  0.500000  1
  Cr  Cr3  1  0.405090  0.845167  0.500000  1
  Cr  Cr4  1  0.090073  0.341530  0.000000  1
  Cr  Cr5  1  0.913842  0.646878  0.000000  1
  Cr  Cr6  1  0.153748  0.594426  0.500000  1
  Cr  Cr7  1  0.839710  0.408459  0.500000  1
  Cr  Cr8  1  0.350972  0.091548  0.000000  1
  Fe  Fe9  1  0.668727  0.904658  0.000000  1
  P  P10  1  0.710114  0.718729  0.500000  1
  P  P11  1  0.287118  0.290597  0.500000  1
  P  P12  1  0.210706  0.791878  0.000000  1
  P  P13  1  0.782810  0.207921  0.000000  1
