# generated using pymatgen
data_TbY3Al2(GaRh2)2
_symmetry_space_group_name_H-M   'P 1'
_cell_length_a   4.25922200
_cell_length_b   6.90877049
_cell_length_c   7.91001001
_cell_angle_alpha   89.84415420
_cell_angle_beta   90.00000000
_cell_angle_gamma   90.00000000
_symmetry_Int_Tables_number   1
_chemical_formula_structural   TbY3Al2(GaRh2)2
_chemical_formula_sum   'Tb1 Y3 Al2 Ga2 Rh4'
_cell_volume   232.75899259
_cell_formula_units_Z   1
loop_
 _symmetry_equiv_pos_site_id
 _symmetry_equiv_pos_as_xyz
  1  'x, y, z'
loop_
 _atom_site_type_symbol
 _atom_site_label
 _atom_site_symmetry_multiplicity
 _atom_site_fract_x
 _atom_site_fract_y
 _atom_site_fract_z
 _atom_site_occupancy
  Tb  Tb0  1  0.750000  0.966520  0.680578  1
  Y  Y1  1  0.250000  0.534487  0.186324  1
  Y  Y2  1  0.750000  0.465312  0.813905  1
  Y  Y3  1  0.250000  0.033442  0.318548  1
  Al  Al4  1  0.250000  0.139145  0.937797  1
  Al  Al5  1  0.750000  0.861152  0.062818  1
  Ga  Ga6  1  0.250000  0.646289  0.565108  1
  Ga  Ga7  1  0.750000  0.353621  0.434616  1
  Rh  Rh8  1  0.750000  0.735064  0.380120  1
  Rh  Rh9  1  0.250000  0.264790  0.620337  1
  Rh  Rh10  1  0.750000  0.232919  0.113785  1
  Rh  Rh11  1  0.250000  0.767259  0.886063  1
