# generated using pymatgen
data_HoEr5GaCoNi
_symmetry_space_group_name_H-M   'P 1'
_cell_length_a   8.21766853
_cell_length_b   8.22070172
_cell_length_c   8.22070143
_cell_angle_alpha   112.93969859
_cell_angle_beta   109.46234569
_cell_angle_gamma   106.09768806
_symmetry_Int_Tables_number   1
_chemical_formula_structural   HoEr5GaCoNi
_chemical_formula_sum   'Ho2 Er10 Ga2 Co2 Ni2'
_cell_volume   425.91129046
_cell_formula_units_Z   2
loop_
 _symmetry_equiv_pos_site_id
 _symmetry_equiv_pos_as_xyz
  1  'x, y, z'
loop_
 _atom_site_type_symbol
 _atom_site_label
 _atom_site_symmetry_multiplicity
 _atom_site_fract_x
 _atom_site_fract_y
 _atom_site_fract_z
 _atom_site_occupancy
  Ho  Ho0  1  0.042259  0.737815  0.304445  1
  Ho  Ho1  1  0.957741  0.262185  0.695555  1
  Er  Er2  1  0.566577  0.262229  0.304347  1
  Er  Er3  1  0.433423  0.737771  0.695653  1
  Er  Er4  1  0.669436  0.859413  0.189644  1
  Er  Er5  1  0.330564  0.520208  0.189975  1
  Er  Er6  1  0.330564  0.140587  0.810356  1
  Er  Er7  1  0.669436  0.479792  0.810025  1
  Er  Er8  1  0.180685  0.221158  0.401560  1
  Er  Er9  1  0.819315  0.220875  0.040474  1
  Er  Er10  1  0.180685  0.779125  0.959526  1
  Er  Er11  1  0.819315  0.778842  0.598440  1
  Ga  Ga12  1  0.000000  0.500000  0.500000  1
  Ga  Ga13  1  0.500000  0.000000  0.500000  1
  Co  Co14  1  0.662571  0.499906  0.162665  1
  Co  Co15  1  0.337429  0.500094  0.837335  1
  Ni  Ni16  1  0.880037  0.880165  0.999873  1
  Ni  Ni17  1  0.119963  0.119835  0.000127  1
