# generated using pymatgen
data_V16Ir3Pt13
_symmetry_space_group_name_H-M   'P 1'
_cell_length_a   8.60156865
_cell_length_b   8.60156905
_cell_length_c   6.66704947
_cell_angle_alpha   75.18549103
_cell_angle_beta   75.18548877
_cell_angle_gamma   78.40995445
_symmetry_Int_Tables_number   1
_chemical_formula_structural   V16Ir3Pt13
_chemical_formula_sum   'V16 Ir3 Pt13'
_cell_volume   456.15274234
_cell_formula_units_Z   1
loop_
 _symmetry_equiv_pos_site_id
 _symmetry_equiv_pos_as_xyz
  1  'x, y, z'
loop_
 _atom_site_type_symbol
 _atom_site_label
 _atom_site_symmetry_multiplicity
 _atom_site_fract_x
 _atom_site_fract_y
 _atom_site_fract_z
 _atom_site_occupancy
  V  V0  1  0.998319  0.252781  0.246647  1
  V  V1  1  0.252781  0.998319  0.246647  1
  V  V2  1  0.750359  0.501430  0.241366  1
  V  V3  1  0.501430  0.750359  0.241366  1
  V  V4  1  0.874751  0.129901  0.998802  1
  V  V5  1  0.129901  0.874751  0.998802  1
  V  V6  1  0.628082  0.379477  0.998018  1
  V  V7  1  0.379477  0.628082  0.998018  1
  V  V8  1  0.122370  0.375998  0.505210  1
  V  V9  1  0.375998  0.122370  0.505210  1
  V  V10  1  0.874271  0.624413  0.506653  1
  V  V11  1  0.624413  0.874271  0.506653  1
  V  V12  1  0.745573  0.996539  0.751204  1
  V  V13  1  0.996539  0.745573  0.751204  1
  V  V14  1  0.499089  0.246768  0.752095  1
  V  V15  1  0.246768  0.499089  0.752095  1
  Ir  Ir16  1  0.688091  0.688091  0.873412  1
  Ir  Ir17  1  0.938129  0.436665  0.875279  1
  Ir  Ir18  1  0.436665  0.938129  0.875279  1
  Pt  Pt19  1  0.312005  0.312005  0.126942  1
  Pt  Pt20  1  0.061570  0.061570  0.626049  1
  Pt  Pt21  1  0.813733  0.813733  0.124754  1
  Pt  Pt22  1  0.562352  0.562352  0.622428  1
  Pt  Pt23  1  0.436350  0.436350  0.376326  1
  Pt  Pt24  1  0.187099  0.187099  0.876294  1
  Pt  Pt25  1  0.938894  0.938894  0.373435  1
  Pt  Pt26  1  0.063165  0.562799  0.125756  1
  Pt  Pt27  1  0.562799  0.063165  0.125756  1
  Pt  Pt28  1  0.812006  0.311998  0.624052  1
  Pt  Pt29  1  0.311998  0.812006  0.624052  1
  Pt  Pt30  1  0.187669  0.687358  0.375098  1
  Pt  Pt31  1  0.687358  0.187669  0.375098  1
