# generated using pymatgen
data_Yb3LuSb3
_symmetry_space_group_name_H-M   'P 1'
_cell_length_a   8.14718252
_cell_length_b   8.12560022
_cell_length_c   8.06395295
_cell_angle_alpha   109.44304536
_cell_angle_beta   109.55190451
_cell_angle_gamma   109.78020493
_symmetry_Int_Tables_number   1
_chemical_formula_structural   Yb3LuSb3
_chemical_formula_sum   'Yb6 Lu2 Sb6'
_cell_volume   409.10359858
_cell_formula_units_Z   2
loop_
 _symmetry_equiv_pos_site_id
 _symmetry_equiv_pos_as_xyz
  1  'x, y, z'
loop_
 _atom_site_type_symbol
 _atom_site_label
 _atom_site_symmetry_multiplicity
 _atom_site_fract_x
 _atom_site_fract_y
 _atom_site_fract_z
 _atom_site_occupancy
  Yb  Yb0  1  0.003606  0.354191  0.499221  1
  Yb  Yb1  1  0.350629  0.494907  0.996205  1
  Yb  Yb2  1  0.004385  0.854971  0.500779  1
  Yb  Yb3  1  0.854424  0.498702  0.003795  1
  Yb  Yb4  1  0.499457  0.003963  0.857248  1
  Yb  Yb5  1  0.142209  0.146715  0.142752  1
  Lu  Lu6  1  0.498986  0.000131  0.353583  1
  Lu  Lu7  1  0.645403  0.646548  0.646417  1
  Sb  Sb8  1  0.862488  0.112757  0.736869  1
  Sb  Sb9  1  0.384279  0.253670  0.619619  1
  Sb  Sb10  1  0.122019  0.751845  0.880185  1
  Sb  Sb11  1  0.741834  0.871660  0.119815  1
  Sb  Sb12  1  0.264661  0.634051  0.380381  1
  Sb  Sb13  1  0.625619  0.375888  0.263131  1
