# generated using pymatgen
data_Pr(Hf5Bi6)3
_symmetry_space_group_name_H-M   'P 1'
_cell_length_a   10.86280300
_cell_length_b   10.86280300
_cell_length_c   7.66136600
_cell_angle_alpha   90.00000000
_cell_angle_beta   90.00000000
_cell_angle_gamma   90.00000000
_symmetry_Int_Tables_number   1
_chemical_formula_structural   Pr(Hf5Bi6)3
_chemical_formula_sum   'Pr1 Hf15 Bi18'
_cell_volume   904.04493454
_cell_formula_units_Z   1
loop_
 _symmetry_equiv_pos_site_id
 _symmetry_equiv_pos_as_xyz
  1  'x, y, z'
loop_
 _atom_site_type_symbol
 _atom_site_label
 _atom_site_symmetry_multiplicity
 _atom_site_fract_x
 _atom_site_fract_y
 _atom_site_fract_z
 _atom_site_occupancy
  Pr  Pr0  1  0.750000  0.750000  0.078064  1
  Hf  Hf1  1  0.001416  0.001416  0.000952  1
  Hf  Hf2  1  0.498584  0.001416  0.000952  1
  Hf  Hf3  1  0.001416  0.498584  0.000952  1
  Hf  Hf4  1  0.498584  0.498584  0.000952  1
  Hf  Hf5  1  0.750000  0.105256  0.152496  1
  Hf  Hf6  1  0.750000  0.394743  0.152496  1
  Hf  Hf7  1  0.105256  0.750000  0.152496  1
  Hf  Hf8  1  0.394743  0.750000  0.152496  1
  Hf  Hf9  1  0.250000  0.250000  0.432484  1
  Hf  Hf10  1  0.750000  0.750000  0.567186  1
  Hf  Hf11  1  0.604868  0.249999  0.845888  1
  Hf  Hf12  1  0.895133  0.250000  0.845888  1
  Hf  Hf13  1  0.249999  0.604868  0.845888  1
  Hf  Hf14  1  0.250000  0.895133  0.845888  1
  Hf  Hf15  1  0.250000  0.250000  0.922495  1
  Bi  Bi16  1  0.250000  0.016341  0.196668  1
  Bi  Bi17  1  0.016341  0.250000  0.196668  1
  Bi  Bi18  1  0.483658  0.249999  0.196668  1
  Bi  Bi19  1  0.249999  0.483658  0.196668  1
  Bi  Bi20  1  0.579508  0.579508  0.357063  1
  Bi  Bi21  1  0.920492  0.579508  0.357063  1
  Bi  Bi22  1  0.920492  0.920492  0.357063  1
  Bi  Bi23  1  0.579508  0.920492  0.357063  1
  Bi  Bi24  1  0.750000  0.250000  0.496958  1
  Bi  Bi25  1  0.250000  0.750000  0.496958  1
  Bi  Bi26  1  0.415594  0.084406  0.649600  1
  Bi  Bi27  1  0.084406  0.084406  0.649600  1
  Bi  Bi28  1  0.084406  0.415594  0.649600  1
  Bi  Bi29  1  0.415594  0.415594  0.649600  1
  Bi  Bi30  1  0.750000  0.509741  0.798798  1
  Bi  Bi31  1  0.509741  0.750000  0.798798  1
  Bi  Bi32  1  0.990259  0.750000  0.798798  1
  Bi  Bi33  1  0.750000  0.990259  0.798798  1
