# generated using pymatgen
data_RbBa3(TiH5)4
_symmetry_space_group_name_H-M   'P 1'
_cell_length_a   10.25114496
_cell_length_b   6.88060342
_cell_length_c   4.75144000
_cell_angle_alpha   90.10667078
_cell_angle_beta   90.19759007
_cell_angle_gamma   91.12851778
_symmetry_Int_Tables_number   1
_chemical_formula_structural   RbBa3(TiH5)4
_chemical_formula_sum   'Rb1 Ba3 Ti4 H20'
_cell_volume   335.07074635
_cell_formula_units_Z   1
loop_
 _symmetry_equiv_pos_site_id
 _symmetry_equiv_pos_as_xyz
  1  'x, y, z'
loop_
 _atom_site_type_symbol
 _atom_site_label
 _atom_site_symmetry_multiplicity
 _atom_site_fract_x
 _atom_site_fract_y
 _atom_site_fract_z
 _atom_site_occupancy
  Rb  Rb0  1  0.325781  0.909628  0.840560  1
  Ba  Ba1  1  0.666229  0.085817  0.332669  1
  Ba  Ba2  1  0.182067  0.411170  0.333621  1
  Ba  Ba3  1  0.826691  0.589253  0.833674  1
  Ti  Ti4  1  0.532367  0.578627  0.313155  1
  Ti  Ti5  1  0.014764  0.915844  0.315587  1
  Ti  Ti6  1  0.970667  0.089989  0.812562  1
  Ti  Ti7  1  0.481886  0.416049  0.811826  1
  H  H8  1  0.312736  0.315787  0.812732  1
  H  H9  1  0.809184  0.202195  0.819588  1
  H  H10  1  0.964450  0.651231  0.328055  1
  H  H11  1  0.483831  0.831894  0.322186  1
  H  H12  1  0.617942  0.407087  0.078663  1
  H  H13  1  0.100779  0.093712  0.087978  1
  H  H14  1  0.389010  0.551810  0.079622  1
  H  H15  1  0.871393  0.949761  0.075100  1
  H  H16  1  0.946245  0.165811  0.423677  1
  H  H17  1  0.456353  0.332948  0.414632  1
  H  H18  1  0.169964  0.795336  0.322626  1
  H  H19  1  0.697932  0.694010  0.321081  1
  H  H20  1  0.536142  0.159383  0.821775  1
  H  H21  1  0.030016  0.351125  0.823518  1
  H  H22  1  0.879282  0.914471  0.582273  1
  H  H23  1  0.399230  0.589662  0.575787  1
  H  H24  1  0.113581  0.056090  0.576020  1
  H  H25  1  0.627365  0.436354  0.573559  1
  H  H26  1  0.558533  0.659455  0.914829  1
  H  H27  1  0.035584  0.845500  0.920639  1
