# generated using pymatgen
data_Sr4HgGe3Au4
_symmetry_space_group_name_H-M   'P 1'
_cell_length_a   6.08244858
_cell_length_b   6.08244823
_cell_length_c   11.30681764
_cell_angle_alpha   86.69686455
_cell_angle_beta   86.69686557
_cell_angle_gamma   45.55383317
_symmetry_Int_Tables_number   1
_chemical_formula_structural   Sr4HgGe3Au4
_chemical_formula_sum   'Sr4 Hg1 Ge3 Au4'
_cell_volume   298.05077199
_cell_formula_units_Z   1
loop_
 _symmetry_equiv_pos_site_id
 _symmetry_equiv_pos_as_xyz
  1  'x, y, z'
loop_
 _atom_site_type_symbol
 _atom_site_label
 _atom_site_symmetry_multiplicity
 _atom_site_fract_x
 _atom_site_fract_y
 _atom_site_fract_z
 _atom_site_occupancy
  Sr  Sr0  1  0.685894  0.685894  0.683060  1
  Sr  Sr1  1  0.187627  0.187627  0.187103  1
  Sr  Sr2  1  0.395887  0.395887  0.899001  1
  Sr  Sr3  1  0.889425  0.889425  0.394132  1
  Hg  Hg4  1  0.683256  0.683256  0.986971  1
  Ge  Ge5  1  0.166709  0.166709  0.490086  1
  Ge  Ge6  1  0.986210  0.986210  0.663670  1
  Ge  Ge7  1  0.486018  0.486018  0.186579  1
  Au  Au8  1  0.388692  0.388692  0.602944  1
  Au  Au9  1  0.906905  0.906905  0.111339  1
  Au  Au10  1  0.095553  0.095553  0.873291  1
  Au  Au11  1  0.600222  0.600222  0.394228  1
