# generated using pymatgen
data_La(YNi4)7
_symmetry_space_group_name_H-M   'P 1'
_cell_length_a   4.88602600
_cell_length_b   4.88602631
_cell_length_c   24.10079000
_cell_angle_alpha   90.00000000
_cell_angle_beta   90.00000000
_cell_angle_gamma   119.99999789
_symmetry_Int_Tables_number   1
_chemical_formula_structural   La(YNi4)7
_chemical_formula_sum   'La1 Y7 Ni28'
_cell_volume   498.28004449
_cell_formula_units_Z   1
loop_
 _symmetry_equiv_pos_site_id
 _symmetry_equiv_pos_as_xyz
  1  'x, y, z'
loop_
 _atom_site_type_symbol
 _atom_site_label
 _atom_site_symmetry_multiplicity
 _atom_site_fract_x
 _atom_site_fract_y
 _atom_site_fract_z
 _atom_site_occupancy
  La  La0  1  0.333333  0.666667  0.030100  1
  Y  Y1  1  0.333333  0.666667  0.327248  1
  Y  Y2  1  0.666667  0.333333  0.824703  1
  Y  Y3  1  0.666667  0.333333  0.673162  1
  Y  Y4  1  0.333333  0.666667  0.176715  1
  Y  Y5  1  0.333333  0.666667  0.471130  1
  Y  Y6  1  0.666667  0.333333  0.968973  1
  Y  Y7  1  0.666667  0.333333  0.529284  1
  Ni  Ni8  1  0.832946  0.167054  0.414905  1
  Ni  Ni9  1  0.832946  0.665891  0.414905  1
  Ni  Ni10  1  0.334109  0.167054  0.414905  1
  Ni  Ni11  1  0.667161  0.833581  0.912080  1
  Ni  Ni12  1  0.167006  0.334011  0.585326  1
  Ni  Ni13  1  0.166419  0.833581  0.912080  1
  Ni  Ni14  1  0.166419  0.332839  0.912080  1
  Ni  Ni15  1  0.833127  0.166873  0.087401  1
  Ni  Ni16  1  0.000000  0.000000  0.998779  1
  Ni  Ni17  1  0.000000  0.000000  0.500125  1
  Ni  Ni18  1  0.000000  0.000000  0.169340  1
  Ni  Ni19  1  0.000000  0.000000  0.666883  1
  Ni  Ni20  1  0.000000  0.000000  0.830424  1
  Ni  Ni21  1  0.000000  0.000000  0.333266  1
  Ni  Ni22  1  0.333333  0.666667  0.831152  1
  Ni  Ni23  1  0.666667  0.333333  0.333535  1
  Ni  Ni24  1  0.666667  0.333333  0.169013  1
  Ni  Ni25  1  0.333333  0.666667  0.666584  1
  Ni  Ni26  1  0.833162  0.666326  0.251389  1
  Ni  Ni27  1  0.166927  0.833073  0.748760  1
  Ni  Ni28  1  0.666147  0.833073  0.748760  1
  Ni  Ni29  1  0.333674  0.166838  0.251389  1
  Ni  Ni30  1  0.833162  0.166838  0.251389  1
  Ni  Ni31  1  0.166927  0.333853  0.748760  1
  Ni  Ni32  1  0.833127  0.666254  0.087401  1
  Ni  Ni33  1  0.167006  0.832994  0.585326  1
  Ni  Ni34  1  0.665989  0.832994  0.585326  1
  Ni  Ni35  1  0.333746  0.166873  0.087401  1
