# generated using pymatgen
data_Sc54Ag17
_symmetry_space_group_name_H-M   'P 1'
_cell_length_a   12.76660970
_cell_length_b   12.76660890
_cell_length_c   12.76660900
_cell_angle_alpha   110.33706651
_cell_angle_beta   110.29720524
_cell_angle_gamma   107.79232412
_symmetry_Int_Tables_number   1
_chemical_formula_structural   Sc54Ag17
_chemical_formula_sum   'Sc54 Ag17'
_cell_volume   1600.75918415
_cell_formula_units_Z   1
loop_
 _symmetry_equiv_pos_site_id
 _symmetry_equiv_pos_as_xyz
  1  'x, y, z'
loop_
 _atom_site_type_symbol
 _atom_site_label
 _atom_site_symmetry_multiplicity
 _atom_site_fract_x
 _atom_site_fract_y
 _atom_site_fract_z
 _atom_site_occupancy
  Sc  Sc0  1  0.702864  0.087196  0.008807  1
  Sc  Sc1  1  0.921610  0.305943  0.008807  1
  Sc  Sc2  1  0.872247  0.559350  0.081246  1
  Sc  Sc3  1  0.521896  0.208999  0.081246  1
  Sc  Sc4  1  0.266632  0.163621  0.103009  1
  Sc  Sc5  1  0.939388  0.836379  0.103009  1
  Sc  Sc6  1  0.616507  0.500000  0.116507  1
  Sc  Sc7  1  0.000000  0.116559  0.116559  1
  Sc  Sc8  1  0.596775  0.037343  0.203155  1
  Sc  Sc9  1  0.165812  0.606380  0.203155  1
  Sc  Sc10  1  0.400798  0.589567  0.188769  1
  Sc  Sc11  1  0.599202  0.787971  0.188769  1
  Sc  Sc12  1  0.824651  0.391304  0.215955  1
  Sc  Sc13  1  0.384122  0.890528  0.274651  1
  Sc  Sc14  1  0.521896  0.440650  0.312897  1
  Sc  Sc15  1  0.872247  0.791001  0.312897  1
  Sc  Sc16  1  0.894146  0.211420  0.317275  1
  Sc  Sc17  1  0.105854  0.423129  0.317274  1
  Sc  Sc18  1  0.078390  0.087196  0.384333  1
  Sc  Sc19  1  0.297136  0.305942  0.384333  1
  Sc  Sc20  1  0.720414  0.331328  0.389087  1
  Sc  Sc21  1  0.057759  0.668672  0.389087  1
  Sc  Sc22  1  0.824651  0.608696  0.433348  1
  Sc  Sc23  1  0.403225  0.606380  0.440567  1
  Sc  Sc24  1  0.834188  0.037343  0.440567  1
  Sc  Sc25  1  0.384122  0.109471  0.493594  1
  Sc  Sc26  1  0.650576  0.150576  0.500000  1
  Sc  Sc27  1  0.349424  0.849424  0.500000  1
  Sc  Sc28  1  0.615878  0.890528  0.506406  1
  Sc  Sc29  1  0.596775  0.393620  0.559433  1
  Sc  Sc30  1  0.165812  0.962657  0.559433  1
  Sc  Sc31  1  0.175349  0.391304  0.566652  1
  Sc  Sc32  1  0.942241  0.331328  0.610913  1
  Sc  Sc33  1  0.279586  0.668672  0.610913  1
  Sc  Sc34  1  0.702864  0.694057  0.615667  1
  Sc  Sc35  1  0.921610  0.912804  0.615667  1
  Sc  Sc36  1  0.894146  0.576871  0.682725  1
  Sc  Sc37  1  0.105854  0.788580  0.682726  1
  Sc  Sc38  1  0.127754  0.208999  0.687103  1
  Sc  Sc39  1  0.478104  0.559350  0.687103  1
  Sc  Sc40  1  0.615878  0.109471  0.725349  1
  Sc  Sc41  1  0.175349  0.608696  0.784045  1
  Sc  Sc42  1  0.400798  0.212029  0.811231  1
  Sc  Sc43  1  0.599202  0.410433  0.811231  1
  Sc  Sc44  1  0.403225  0.962657  0.796845  1
  Sc  Sc45  1  0.834188  0.393620  0.796845  1
  Sc  Sc46  1  0.000000  0.883441  0.883441  1
  Sc  Sc47  1  0.383493  0.500000  0.883492  1
  Sc  Sc48  1  0.060612  0.163621  0.896990  1
  Sc  Sc49  1  0.733368  0.836378  0.896990  1
  Sc  Sc50  1  0.127754  0.440650  0.918754  1
  Sc  Sc51  1  0.478104  0.791001  0.918754  1
  Sc  Sc52  1  0.078390  0.694058  0.991193  1
  Sc  Sc53  1  0.297136  0.912804  0.991193  1
  Ag  Ag54  1  0.334998  0.334998  0.000000  1
  Ag  Ag55  1  0.665002  0.665002  0.000000  1
  Ag  Ag56  1  0.332454  0.709807  0.042262  1
  Ag  Ag57  1  0.212769  0.376694  0.163923  1
  Ag  Ag58  1  0.787231  0.951154  0.163923  1
  Ag  Ag59  1  0.191962  0.000000  0.191962  1
  Ag  Ag60  1  0.461596  0.163701  0.297894  1
  Ag  Ag61  1  0.134193  0.836298  0.297894  1
  Ag  Ag62  1  0.667546  0.709807  0.377353  1
  Ag  Ag63  1  0.000000  0.500000  0.500000  1
  Ag  Ag64  1  0.332454  0.290193  0.622647  1
  Ag  Ag65  1  0.865807  0.163701  0.702106  1
  Ag  Ag66  1  0.538405  0.836298  0.702106  1
  Ag  Ag67  1  0.808038  0.000000  0.808038  1
  Ag  Ag68  1  0.212769  0.048846  0.836077  1
  Ag  Ag69  1  0.787231  0.623306  0.836077  1
  Ag  Ag70  1  0.667546  0.290193  0.957737  1
