# generated using pymatgen
data_La12Ni3IrI12
_symmetry_space_group_name_H-M   'P 1'
_cell_length_a   10.97357198
_cell_length_b   10.93948100
_cell_length_c   10.93948164
_cell_angle_alpha   109.40800483
_cell_angle_beta   109.53435716
_cell_angle_gamma   109.53435850
_symmetry_Int_Tables_number   1
_chemical_formula_structural   La12Ni3IrI12
_chemical_formula_sum   'La12 Ni3 Ir1 I12'
_cell_volume   1010.13779271
_cell_formula_units_Z   1
loop_
 _symmetry_equiv_pos_site_id
 _symmetry_equiv_pos_as_xyz
  1  'x, y, z'
loop_
 _atom_site_type_symbol
 _atom_site_label
 _atom_site_symmetry_multiplicity
 _atom_site_fract_x
 _atom_site_fract_y
 _atom_site_fract_z
 _atom_site_occupancy
  La  La0  1  0.458261  0.479489  0.229229  1
  La  La1  1  0.750000  0.228191  0.271809  1
  La  La2  1  0.750000  0.022212  0.477788  1
  La  La3  1  0.227788  0.455576  0.477788  1
  La  La4  1  0.270969  0.749740  0.229229  1
  La  La5  1  0.041739  0.270771  0.020511  1
  La  La6  1  0.021809  0.043616  0.271809  1
  La  La7  1  0.478771  0.749740  0.020511  1
  La  La8  1  0.478191  0.228191  0.456384  1
  La  La9  1  0.021229  0.479489  0.750260  1
  La  La10  1  0.272212  0.022212  0.044424  1
  La  La11  1  0.229031  0.270771  0.750260  1
  Ni  Ni12  1  0.250000  0.249771  0.250229  1
  Ni  Ni13  1  0.500229  0.000459  0.250229  1
  Ni  Ni14  1  0.999771  0.249771  0.499541  1
  Ir  Ir15  1  0.250000  0.500000  0.000000  1
  I  I16  1  0.250000  0.760169  0.739831  1
  I  I17  1  0.520208  0.509903  0.759659  1
  I  I18  1  0.979792  0.740341  0.990097  1
  I  I19  1  0.739450  0.249757  0.759659  1
  I  I20  1  0.989831  0.979664  0.739831  1
  I  I21  1  0.250000  0.990050  0.509950  1
  I  I22  1  0.759950  0.519898  0.509950  1
  I  I23  1  0.510307  0.249757  0.990097  1
  I  I24  1  0.760550  0.740341  0.250243  1
  I  I25  1  0.740050  0.990050  0.980102  1
  I  I26  1  0.989693  0.509903  0.250243  1
  I  I27  1  0.510169  0.760169  0.520336  1
