# generated using pymatgen
data_Yb3SmErRu2
_symmetry_space_group_name_H-M   'P 1'
_cell_length_a   8.60306289
_cell_length_b   8.60306379
_cell_length_c   7.42346400
_cell_angle_alpha   83.10878061
_cell_angle_beta   83.10877318
_cell_angle_gamma   43.66239173
_symmetry_Int_Tables_number   1
_chemical_formula_structural   Yb3SmErRu2
_chemical_formula_sum   'Yb6 Sm2 Er2 Ru4'
_cell_volume   376.14909464
_cell_formula_units_Z   2
loop_
 _symmetry_equiv_pos_site_id
 _symmetry_equiv_pos_as_xyz
  1  'x, y, z'
loop_
 _atom_site_type_symbol
 _atom_site_label
 _atom_site_symmetry_multiplicity
 _atom_site_fract_x
 _atom_site_fract_y
 _atom_site_fract_z
 _atom_site_occupancy
  Yb  Yb0  1  0.201025  0.977550  0.582976  1
  Yb  Yb1  1  0.022450  0.798975  0.917024  1
  Yb  Yb2  1  0.202180  0.367480  0.317225  1
  Yb  Yb3  1  0.632520  0.797820  0.182775  1
  Yb  Yb4  1  0.804862  0.625731  0.677810  1
  Yb  Yb5  1  0.374269  0.195138  0.822190  1
  Sm  Sm6  1  0.969809  0.203309  0.078393  1
  Sm  Sm7  1  0.796691  0.030191  0.421607  1
  Er  Er8  1  0.558694  0.441306  0.750000  1
  Er  Er9  1  0.421091  0.578909  0.250000  1
  Ru  Ru10  1  0.185004  0.596782  0.573357  1
  Ru  Ru11  1  0.403218  0.814996  0.926643  1
  Ru  Ru12  1  0.813322  0.385136  0.419632  1
  Ru  Ru13  1  0.614864  0.186678  0.080368  1
