# generated using pymatgen
data_CsSn2(PO4)3
_symmetry_space_group_name_H-M   'P 1'
_cell_length_a   9.02129900
_cell_length_b   9.46107800
_cell_length_c   12.50370300
_cell_angle_alpha   90.00000000
_cell_angle_beta   90.00000000
_cell_angle_gamma   90.00000000
_symmetry_Int_Tables_number   1
_chemical_formula_structural   CsSn2(PO4)3
_chemical_formula_sum   'Cs4 Sn8 P12 O48'
_cell_volume   1067.20622430
_cell_formula_units_Z   4
loop_
 _symmetry_equiv_pos_site_id
 _symmetry_equiv_pos_as_xyz
  1  'x, y, z'
loop_
 _atom_site_type_symbol
 _atom_site_label
 _atom_site_symmetry_multiplicity
 _atom_site_fract_x
 _atom_site_fract_y
 _atom_site_fract_z
 _atom_site_occupancy
  Cs  Cs0  1  0.178430  0.837230  0.750000  1
  Cs  Cs1  1  0.178430  0.662770  0.250000  1
  Cs  Cs2  1  0.821570  0.337230  0.750000  1
  Cs  Cs3  1  0.821570  0.162770  0.250000  1
  Sn  Sn4  1  0.246809  0.034054  0.399724  1
  Sn  Sn5  1  0.246809  0.465946  0.600276  1
  Sn  Sn6  1  0.753191  0.534054  0.100276  1
  Sn  Sn7  1  0.753191  0.965946  0.899724  1
  Sn  Sn8  1  0.753191  0.965946  0.600276  1
  Sn  Sn9  1  0.753191  0.534054  0.399724  1
  Sn  Sn10  1  0.246809  0.465946  0.899724  1
  Sn  Sn11  1  0.246809  0.034054  0.100276  1
  P  P12  1  0.413546  0.357929  0.370389  1
  P  P13  1  0.413546  0.142071  0.629611  1
  P  P14  1  0.586454  0.857929  0.129611  1
  P  P15  1  0.586454  0.642071  0.870389  1
  P  P16  1  0.586454  0.642071  0.629611  1
  P  P17  1  0.586454  0.857929  0.370389  1
  P  P18  1  0.413546  0.142071  0.870389  1
  P  P19  1  0.413546  0.357929  0.129611  1
  P  P20  1  0.978698  0.250000  0.500000  1
  P  P21  1  0.021302  0.750000  0.000000  1
  P  P22  1  0.021302  0.750000  0.500000  1
  P  P23  1  0.978698  0.250000  0.000000  1
  O  O24  1  0.629580  0.592370  0.750000  1
  O  O25  1  0.629580  0.907630  0.250000  1
  O  O26  1  0.370420  0.092370  0.750000  1
  O  O27  1  0.370420  0.407630  0.250000  1
  O  O28  1  0.075227  0.178428  0.412811  1
  O  O29  1  0.075227  0.321572  0.587189  1
  O  O30  1  0.924773  0.678428  0.087189  1
  O  O31  1  0.924773  0.821572  0.912811  1
  O  O32  1  0.924773  0.821572  0.587189  1
  O  O33  1  0.924773  0.678428  0.412811  1
  O  O34  1  0.075227  0.321572  0.912811  1
  O  O35  1  0.075227  0.178428  0.087189  1
  O  O36  1  0.424778  0.894109  0.390391  1
  O  O37  1  0.424778  0.605891  0.609609  1
  O  O38  1  0.575222  0.394109  0.109609  1
  O  O39  1  0.575222  0.105891  0.890391  1
  O  O40  1  0.575222  0.105891  0.609609  1
  O  O41  1  0.601436  0.802697  0.625102  1
  O  O42  1  0.575222  0.394109  0.390391  1
  O  O43  1  0.424778  0.894109  0.109609  1
  O  O44  1  0.398564  0.197303  0.374898  1
  O  O45  1  0.398564  0.302697  0.625102  1
  O  O46  1  0.601436  0.697303  0.125102  1
  O  O47  1  0.601436  0.802697  0.874898  1
  O  O48  1  0.186926  0.997344  0.250000  1
  O  O49  1  0.186926  0.502656  0.750000  1
  O  O50  1  0.813074  0.497344  0.250000  1
  O  O51  1  0.813074  0.002656  0.750000  1
  O  O52  1  0.119206  0.860364  0.056476  1
  O  O53  1  0.119206  0.639636  0.943524  1
  O  O54  1  0.880794  0.360364  0.443524  1
  O  O55  1  0.880794  0.139636  0.556476  1
  O  O56  1  0.880794  0.139636  0.943524  1
  O  O57  1  0.880794  0.360364  0.056476  1
  O  O58  1  0.119206  0.639636  0.556476  1
  O  O59  1  0.119206  0.860364  0.443524  1
  O  O60  1  0.299820  0.057902  0.936100  1
  O  O61  1  0.299820  0.442098  0.063900  1
  O  O62  1  0.700180  0.557902  0.563900  1
  O  O63  1  0.700180  0.942098  0.436100  1
  O  O64  1  0.700180  0.942098  0.063900  1
  O  O65  1  0.700180  0.557902  0.936100  1
  O  O66  1  0.299820  0.442098  0.436100  1
  O  O67  1  0.299820  0.057902  0.563900  1
  O  O68  1  0.398564  0.197303  0.125102  1
  O  O69  1  0.398564  0.302697  0.874898  1
  O  O70  1  0.601436  0.697303  0.374898  1
  O  O71  1  0.424778  0.605891  0.890391  1
