# generated using pymatgen
data_Sr7CaAl12(O6F)4
_symmetry_space_group_name_H-M   'P 1'
_cell_length_a   7.26001165
_cell_length_b   10.64231455
_cell_length_c   10.59644970
_cell_angle_alpha   114.29618592
_cell_angle_beta   103.56727962
_cell_angle_gamma   103.25638736
_symmetry_Int_Tables_number   1
_chemical_formula_structural   Sr7CaAl12(O6F)4
_chemical_formula_sum   'Sr7 Ca1 Al12 O24 F4'
_cell_volume   674.54808711
_cell_formula_units_Z   1
loop_
 _symmetry_equiv_pos_site_id
 _symmetry_equiv_pos_as_xyz
  1  'x, y, z'
loop_
 _atom_site_type_symbol
 _atom_site_label
 _atom_site_symmetry_multiplicity
 _atom_site_fract_x
 _atom_site_fract_y
 _atom_site_fract_z
 _atom_site_occupancy
  Sr  Sr0  1  0.722175  0.999495  0.989128  1
  Sr  Sr1  1  0.274155  0.001681  0.005280  1
  Sr  Sr2  1  0.738778  0.407592  0.037383  1
  Sr  Sr3  1  0.330223  0.631420  0.592298  1
  Sr  Sr4  1  0.689645  0.965070  0.343406  1
  Sr  Sr5  1  0.258079  0.592632  0.963611  1
  Sr  Sr6  1  0.670350  0.368836  0.408855  1
  Ca  Ca7  1  0.314672  0.034960  0.653495  1
  Al  Al8  1  0.839375  0.684324  0.724958  1
  Al  Al9  1  0.157477  0.042621  0.319135  1
  Al  Al10  1  0.109458  0.272330  0.958596  1
  Al  Al11  1  0.161528  0.313913  0.275732  1
  Al  Al12  1  0.845676  0.958678  0.682362  1
  Al  Al13  1  0.890790  0.728021  0.041385  1
  Al  Al14  1  0.478750  0.543543  0.243114  1
  Al  Al15  1  0.937720  0.704415  0.459304  1
  Al  Al16  1  0.242928  0.763735  0.303732  1
  Al  Al17  1  0.519678  0.454611  0.757370  1
  Al  Al18  1  0.064750  0.296887  0.543952  1
  Al  Al19  1  0.753606  0.235060  0.698017  1
  O  O20  1  0.917586  0.911258  0.167500  1
  O  O21  1  0.002623  0.255629  0.090668  1
  O  O22  1  0.746831  0.829855  0.739244  1
  O  O23  1  0.085981  0.090983  0.830886  1
  O  O24  1  0.999257  0.741854  0.909211  1
  O  O25  1  0.258373  0.170548  0.262357  1
  O  O26  1  0.445954  0.709005  0.264696  1
  O  O27  1  0.736605  0.556347  0.293805  1
  O  O28  1  0.183492  0.746105  0.448791  1
  O  O29  1  0.545538  0.285526  0.732889  1
  O  O30  1  0.263884  0.446123  0.708630  1
  O  O31  1  0.819040  0.255960  0.555531  1
  O  O32  1  0.622153  0.522817  0.653112  1
  O  O33  1  0.100974  0.126541  0.479558  1
  O  O34  1  0.960992  0.344973  0.870925  1
  O  O35  1  0.377912  0.475995  0.348191  1
  O  O36  1  0.907512  0.876619  0.524536  1
  O  O37  1  0.035613  0.655347  0.131066  1
  O  O38  1  0.359062  0.408306  0.051004  1
  O  O39  1  0.952102  0.639230  0.589937  1
  O  O40  1  0.324039  0.953610  0.353995  1
  O  O41  1  0.641542  0.590814  0.949310  1
  O  O42  1  0.047568  0.358326  0.410204  1
  O  O43  1  0.672763  0.045336  0.649818  1
  F  F44  1  0.364610  0.874756  0.783608  1
  F  F45  1  0.465211  0.845283  0.046770  1
  F  F46  1  0.631241  0.129328  0.208377  1
  F  F47  1  0.531729  0.153704  0.944270  1
