# generated using pymatgen
data_Pr8Dy11YSi16
_symmetry_space_group_name_H-M   'P 1'
_cell_length_a   7.55410400
_cell_length_b   7.82664100
_cell_length_c   14.87964800
_cell_angle_alpha   90.00000000
_cell_angle_beta   90.00000000
_cell_angle_gamma   89.99877071
_symmetry_Int_Tables_number   1
_chemical_formula_structural   Pr8Dy11YSi16
_chemical_formula_sum   'Pr8 Dy11 Y1 Si16'
_cell_volume   879.73329857
_cell_formula_units_Z   1
loop_
 _symmetry_equiv_pos_site_id
 _symmetry_equiv_pos_as_xyz
  1  'x, y, z'
loop_
 _atom_site_type_symbol
 _atom_site_label
 _atom_site_symmetry_multiplicity
 _atom_site_fract_x
 _atom_site_fract_y
 _atom_site_fract_z
 _atom_site_occupancy
  Pr  Pr0  1  0.974674  0.819902  0.098071  1
  Pr  Pr1  1  0.474611  0.680016  0.401932  1
  Pr  Pr2  1  0.525371  0.319915  0.901894  1
  Pr  Pr3  1  0.025374  0.180091  0.598100  1
  Pr  Pr4  1  0.025374  0.180091  0.901900  1
  Pr  Pr5  1  0.525371  0.319915  0.598106  1
  Pr  Pr6  1  0.474611  0.680016  0.098068  1
  Pr  Pr7  1  0.974674  0.819902  0.401929  1
  Dy  Dy8  1  0.149074  0.510568  0.250000  1
  Dy  Dy9  1  0.850920  0.489390  0.750000  1
  Dy  Dy10  1  0.350928  0.010603  0.750000  1
  Dy  Dy11  1  0.681339  0.821324  0.876818  1
  Dy  Dy12  1  0.181343  0.678666  0.623182  1
  Dy  Dy13  1  0.818718  0.321417  0.123140  1
  Dy  Dy14  1  0.318586  0.178706  0.376864  1
  Dy  Dy15  1  0.318586  0.178706  0.123136  1
  Dy  Dy16  1  0.818718  0.321417  0.376860  1
  Dy  Dy17  1  0.181343  0.678666  0.876818  1
  Dy  Dy18  1  0.681339  0.821324  0.623182  1
  Y  Y19  1  0.649068  0.989401  0.250000  1
  Si  Si20  1  0.767318  0.620064  0.250000  1
  Si  Si21  1  0.267226  0.879828  0.250000  1
  Si  Si22  1  0.732698  0.120140  0.750000  1
  Si  Si23  1  0.232718  0.379864  0.750000  1
  Si  Si24  1  0.024007  0.110885  0.250000  1
  Si  Si25  1  0.523925  0.389184  0.250000  1
  Si  Si26  1  0.476057  0.610857  0.750000  1
  Si  Si27  1  0.976059  0.889125  0.750000  1
  Si  Si28  1  0.857150  0.530790  0.960041  1
  Si  Si29  1  0.357147  0.969209  0.539962  1
  Si  Si30  1  0.642843  0.030797  0.039938  1
  Si  Si31  1  0.142844  0.469211  0.460035  1
  Si  Si32  1  0.142844  0.469211  0.039965  1
  Si  Si33  1  0.642843  0.030797  0.460062  1
  Si  Si34  1  0.357147  0.969209  0.960038  1
  Si  Si35  1  0.857150  0.530790  0.539959  1
