# generated using pymatgen
data_CsBa7(NpSe6)2
_symmetry_space_group_name_H-M   'P 1'
_cell_length_a   9.17715873
_cell_length_b   9.17715801
_cell_length_c   9.07512296
_cell_angle_alpha   90.12147466
_cell_angle_beta   90.12147475
_cell_angle_gamma   88.55835805
_symmetry_Int_Tables_number   1
_chemical_formula_structural   CsBa7(NpSe6)2
_chemical_formula_sum   'Cs1 Ba7 Np2 Se12'
_cell_volume   764.06371741
_cell_formula_units_Z   1
loop_
 _symmetry_equiv_pos_site_id
 _symmetry_equiv_pos_as_xyz
  1  'x, y, z'
loop_
 _atom_site_type_symbol
 _atom_site_label
 _atom_site_symmetry_multiplicity
 _atom_site_fract_x
 _atom_site_fract_y
 _atom_site_fract_z
 _atom_site_occupancy
  Cs  Cs0  1  0.876576  0.623424  0.250000  1
  Ba  Ba1  1  0.249897  0.878396  0.621140  1
  Ba  Ba2  1  0.621604  0.250103  0.878860  1
  Ba  Ba3  1  0.747608  0.120137  0.374618  1
  Ba  Ba4  1  0.379863  0.752392  0.125382  1
  Ba  Ba5  1  0.125247  0.374753  0.750000  1
  Ba  Ba6  1  0.245023  0.254977  0.250000  1
  Ba  Ba7  1  0.750143  0.749857  0.750000  1
  Np  Np8  1  0.502106  0.498360  0.504954  1
  Np  Np9  1  0.001640  0.997894  0.995046  1
  Se  Se10  1  0.213352  0.561190  0.435147  1
  Se  Se11  1  0.423242  0.207513  0.563371  1
  Se  Se12  1  0.551494  0.413179  0.211207  1
  Se  Se13  1  0.922669  0.057315  0.699878  1
  Se  Se14  1  0.705217  0.935779  0.054155  1
  Se  Se15  1  0.070994  0.711700  0.907863  1
  Se  Se16  1  0.788300  0.429006  0.592137  1
  Se  Se17  1  0.564221  0.794783  0.445845  1
  Se  Se18  1  0.442685  0.577331  0.800122  1
  Se  Se19  1  0.086821  0.948506  0.288793  1
  Se  Se20  1  0.292487  0.076758  0.936629  1
  Se  Se21  1  0.938810  0.286648  0.064853  1
