# generated using pymatgen
data_Be9Nb2Mo
_symmetry_space_group_name_H-M   'P 1'
_cell_length_a   7.46204953
_cell_length_b   7.46204990
_cell_length_c   7.46204990
_cell_angle_alpha   35.16811371
_cell_angle_beta   35.16810790
_cell_angle_gamma   35.16810945
_symmetry_Int_Tables_number   1
_chemical_formula_structural   Be9Nb2Mo
_chemical_formula_sum   'Be9 Nb2 Mo1'
_cell_volume   123.11296299
_cell_formula_units_Z   1
loop_
 _symmetry_equiv_pos_site_id
 _symmetry_equiv_pos_as_xyz
  1  'x, y, z'
loop_
 _atom_site_type_symbol
 _atom_site_label
 _atom_site_symmetry_multiplicity
 _atom_site_fract_x
 _atom_site_fract_y
 _atom_site_fract_z
 _atom_site_occupancy
  Be  Be0  1  0.499697  0.499697  0.499697  1
  Be  Be1  1  0.333865  0.333865  0.333866  1
  Be  Be2  1  0.665420  0.665420  0.665419  1
  Be  Be3  1  0.078602  0.583302  0.583302  1
  Be  Be4  1  0.583302  0.583302  0.078602  1
  Be  Be5  1  0.583302  0.078602  0.583302  1
  Be  Be6  1  0.415531  0.924158  0.415531  1
  Be  Be7  1  0.924158  0.415531  0.415531  1
  Be  Be8  1  0.415531  0.415531  0.924158  1
  Nb  Nb9  1  0.001136  0.001136  0.001136  1
  Nb  Nb10  1  0.857646  0.857646  0.857646  1
  Mo  Mo11  1  0.141811  0.141811  0.141811  1
