# generated using pymatgen
data_Ca2MnFe3(AsO4)4
_symmetry_space_group_name_H-M   'P 1'
_cell_length_a   5.48511871
_cell_length_b   8.26427634
_cell_length_c   9.10462973
_cell_angle_alpha   89.98873947
_cell_angle_beta   89.89989205
_cell_angle_gamma   93.98945507
_symmetry_Int_Tables_number   1
_chemical_formula_structural   Ca2MnFe3(AsO4)4
_chemical_formula_sum   'Ca2 Mn1 Fe3 As4 O16'
_cell_volume   411.71703527
_cell_formula_units_Z   1
loop_
 _symmetry_equiv_pos_site_id
 _symmetry_equiv_pos_as_xyz
  1  'x, y, z'
loop_
 _atom_site_type_symbol
 _atom_site_label
 _atom_site_symmetry_multiplicity
 _atom_site_fract_x
 _atom_site_fract_y
 _atom_site_fract_z
 _atom_site_occupancy
  Ca  Ca0  1  0.998748  0.499522  0.500188  1
  Ca  Ca1  1  0.500897  0.000018  0.999752  1
  Mn  Mn2  1  0.405257  0.891788  0.636964  1
  Fe  Fe3  1  0.907245  0.391910  0.859393  1
  Fe  Fe4  1  0.593405  0.110138  0.357786  1
  Fe  Fe5  1  0.093793  0.607640  0.141038  1
  As  As6  1  0.464222  0.298546  0.699701  1
  As  As7  1  0.962130  0.794480  0.803154  1
  As  As8  1  0.537531  0.703544  0.297835  1
  As  As9  1  0.036539  0.204073  0.199482  1
  O  O10  1  0.461596  0.140597  0.573980  1
  O  O11  1  0.958831  0.634624  0.927449  1
  O  O12  1  0.542541  0.863957  0.421062  1
  O  O13  1  0.041565  0.363134  0.074819  1
  O  O14  1  0.672712  0.455125  0.656075  1
  O  O15  1  0.175343  0.948706  0.846705  1
  O  O16  1  0.326359  0.549870  0.345676  1
  O  O17  1  0.825933  0.048867  0.155376  1
  O  O18  1  0.580384  0.242032  0.867561  1
  O  O19  1  0.073665  0.736998  0.634388  1
  O  O20  1  0.420955  0.756683  0.129356  1
  O  O21  1  0.919926  0.258797  0.368157  1
  O  O22  1  0.172795  0.361916  0.708367  1
  O  O23  1  0.674963  0.863047  0.796350  1
  O  O24  1  0.826613  0.636400  0.291125  1
  O  O25  1  0.326051  0.137588  0.208259  1
