# generated using pymatgen
data_Sc12Re3Si12Ni
_symmetry_space_group_name_H-M   'P 1'
_cell_length_a   3.98234100
_cell_length_b   10.37075198
_cell_length_c   11.74244709
_cell_angle_alpha   89.41253032
_cell_angle_beta   90.00000000
_cell_angle_gamma   90.00000000
_symmetry_Int_Tables_number   1
_chemical_formula_structural   Sc12Re3Si12Ni
_chemical_formula_sum   'Sc12 Re3 Si12 Ni1'
_cell_volume   484.93605582
_cell_formula_units_Z   1
loop_
 _symmetry_equiv_pos_site_id
 _symmetry_equiv_pos_as_xyz
  1  'x, y, z'
loop_
 _atom_site_type_symbol
 _atom_site_label
 _atom_site_symmetry_multiplicity
 _atom_site_fract_x
 _atom_site_fract_y
 _atom_site_fract_z
 _atom_site_occupancy
  Sc  Sc0  1  0.250000  0.878869  0.016379  1
  Sc  Sc1  1  0.250000  0.622268  0.518106  1
  Sc  Sc2  1  0.750000  0.126394  0.980773  1
  Sc  Sc3  1  0.750000  0.376420  0.478680  1
  Sc  Sc4  1  0.250000  0.921629  0.608822  1
  Sc  Sc5  1  0.250000  0.577673  0.106313  1
  Sc  Sc6  1  0.750000  0.077344  0.395201  1
  Sc  Sc7  1  0.750000  0.424507  0.899672  1
  Sc  Sc8  1  0.250000  0.652179  0.798385  1
  Sc  Sc9  1  0.250000  0.837666  0.298061  1
  Sc  Sc10  1  0.750000  0.338048  0.202122  1
  Sc  Sc11  1  0.750000  0.165515  0.701978  1
  Re  Re12  1  0.250000  0.112166  0.176678  1
  Re  Re13  1  0.750000  0.610710  0.324068  1
  Re  Re14  1  0.750000  0.891365  0.820669  1
  Si  Si15  1  0.250000  0.022709  0.821253  1
  Si  Si16  1  0.250000  0.481275  0.323313  1
  Si  Si17  1  0.750000  0.981976  0.176858  1
  Si  Si18  1  0.750000  0.508600  0.676018  1
  Si  Si19  1  0.250000  0.258566  0.840650  1
  Si  Si20  1  0.250000  0.247610  0.346193  1
  Si  Si21  1  0.750000  0.747585  0.154170  1
  Si  Si22  1  0.750000  0.746318  0.657135  1
  Si  Si23  1  0.250000  0.194477  0.546708  1
  Si  Si24  1  0.250000  0.309612  0.043782  1
  Si  Si25  1  0.750000  0.806036  0.456789  1
  Si  Si26  1  0.750000  0.695313  0.954597  1
  Ni  Ni27  1  0.250000  0.387168  0.676632  1
