# generated using pymatgen
data_Mg2UZnAs6Ru7
_symmetry_space_group_name_H-M   'P 1'
_cell_length_a   7.06832495
_cell_length_b   7.13186607
_cell_length_c   6.95553286
_cell_angle_alpha   109.45589737
_cell_angle_beta   108.90401801
_cell_angle_gamma   109.91415279
_symmetry_Int_Tables_number   1
_chemical_formula_structural   Mg2UZnAs6Ru7
_chemical_formula_sum   'Mg2 U1 Zn1 As6 Ru7'
_cell_volume   270.36393255
_cell_formula_units_Z   1
loop_
 _symmetry_equiv_pos_site_id
 _symmetry_equiv_pos_as_xyz
  1  'x, y, z'
loop_
 _atom_site_type_symbol
 _atom_site_label
 _atom_site_symmetry_multiplicity
 _atom_site_fract_x
 _atom_site_fract_y
 _atom_site_fract_z
 _atom_site_occupancy
  Mg  Mg0  1  0.500000  0.000000  0.000000  1
  Mg  Mg1  1  0.500000  0.500000  0.500000  1
  U  U2  1  0.000000  0.000000  0.500000  1
  Zn  Zn3  1  0.000000  0.500000  0.000000  1
  As  As4  1  0.315389  0.000542  0.304264  1
  As  As5  1  0.000000  0.315685  0.304777  1
  As  As6  1  0.000000  0.684315  0.695223  1
  As  As7  1  0.315389  0.314846  0.011124  1
  As  As8  1  0.684611  0.685154  0.988876  1
  As  As9  1  0.684611  0.999458  0.695736  1
  Ru  Ru10  1  0.756021  0.506044  0.248258  1
  Ru  Ru11  1  0.502364  0.751182  0.251182  1
  Ru  Ru12  1  0.497636  0.248818  0.748818  1
  Ru  Ru13  1  0.756021  0.249977  0.507763  1
  Ru  Ru14  1  0.243979  0.750023  0.492237  1
  Ru  Ru15  1  0.243979  0.493956  0.751742  1
  Ru  Ru16  1  0.000000  0.000000  0.000000  1
