# generated using pymatgen
data_Ho2Si(Ni2P)6
_symmetry_space_group_name_H-M   'P 1'
_cell_length_a   9.02934000
_cell_length_b   9.02934016
_cell_length_c   3.66036500
_cell_angle_alpha   90.00000000
_cell_angle_beta   90.00000000
_cell_angle_gamma   119.99999943
_symmetry_Int_Tables_number   1
_chemical_formula_structural   Ho2Si(Ni2P)6
_chemical_formula_sum   'Ho2 Si1 Ni12 P6'
_cell_volume   258.44435411
_cell_formula_units_Z   1
loop_
 _symmetry_equiv_pos_site_id
 _symmetry_equiv_pos_as_xyz
  1  'x, y, z'
loop_
 _atom_site_type_symbol
 _atom_site_label
 _atom_site_symmetry_multiplicity
 _atom_site_fract_x
 _atom_site_fract_y
 _atom_site_fract_z
 _atom_site_occupancy
  Ho  Ho0  1  0.666667  0.333333  0.500000  1
  Ho  Ho1  1  0.333333  0.666667  0.000000  1
  Si  Si2  1  0.000000  0.000000  0.500000  1
  Ni  Ni3  1  0.617770  0.568914  0.000000  1
  Ni  Ni4  1  0.843152  0.717632  0.500000  1
  Ni  Ni5  1  0.951144  0.382230  0.000000  1
  Ni  Ni6  1  0.282368  0.125520  0.500000  1
  Ni  Ni7  1  0.120870  0.212989  0.000000  1
  Ni  Ni8  1  0.092119  0.879130  0.000000  1
  Ni  Ni9  1  0.787011  0.907881  0.000000  1
  Ni  Ni10  1  0.373091  0.434716  0.500000  1
  Ni  Ni11  1  0.565284  0.938375  0.500000  1
  Ni  Ni12  1  0.061625  0.626909  0.500000  1
  Ni  Ni13  1  0.874480  0.156848  0.500000  1
  Ni  Ni14  1  0.431086  0.048856  0.000000  1
  P  P15  1  0.705670  0.110526  0.000000  1
  P  P16  1  0.113389  0.406595  0.500000  1
  P  P17  1  0.593405  0.706794  0.500000  1
  P  P18  1  0.293206  0.886611  0.500000  1
  P  P19  1  0.889474  0.595144  0.000000  1
  P  P20  1  0.404856  0.294330  0.000000  1
