# generated using pymatgen
data_Ac6Tl9In
_symmetry_space_group_name_H-M   'P 1'
_cell_length_a   7.00203808
_cell_length_b   7.00203932
_cell_length_c   11.18663358
_cell_angle_alpha   89.92334150
_cell_angle_beta   89.92333981
_cell_angle_gamma   102.59059816
_symmetry_Int_Tables_number   1
_chemical_formula_structural   Ac6Tl9In
_chemical_formula_sum   'Ac6 Tl9 In1'
_cell_volume   535.27398042
_cell_formula_units_Z   1
loop_
 _symmetry_equiv_pos_site_id
 _symmetry_equiv_pos_as_xyz
  1  'x, y, z'
loop_
 _atom_site_type_symbol
 _atom_site_label
 _atom_site_symmetry_multiplicity
 _atom_site_fract_x
 _atom_site_fract_y
 _atom_site_fract_z
 _atom_site_occupancy
  Ac  Ac0  1  0.796072  0.203164  0.999657  1
  Ac  Ac1  1  0.203164  0.796072  0.999657  1
  Ac  Ac2  1  0.203701  0.796114  0.499328  1
  Ac  Ac3  1  0.796114  0.203701  0.499328  1
  Ac  Ac4  1  0.636095  0.636095  0.250420  1
  Ac  Ac5  1  0.364885  0.364885  0.750953  1
  Tl  Tl6  1  0.080858  0.496939  0.248559  1
  Tl  Tl7  1  0.921892  0.503094  0.750148  1
  Tl  Tl8  1  0.496939  0.080857  0.248559  1
  Tl  Tl9  1  0.503094  0.921892  0.750148  1
  Tl  Tl10  1  0.019685  0.019685  0.249245  1
  Tl  Tl11  1  0.981288  0.981288  0.748917  1
  Tl  Tl12  1  0.689112  0.689112  0.952200  1
  Tl  Tl13  1  0.692084  0.692084  0.548498  1
  Tl  Tl14  1  0.307883  0.307883  0.451709  1
  In  In15  1  0.307133  0.307133  0.052673  1
