# generated using pymatgen
data_LaEr5(AuO7)2
_symmetry_space_group_name_H-M   'P 1'
_cell_length_a   6.48827645
_cell_length_b   6.48827619
_cell_length_c   7.45905249
_cell_angle_alpha   89.94105541
_cell_angle_beta   90.05894389
_cell_angle_gamma   108.57883899
_symmetry_Int_Tables_number   1
_chemical_formula_structural   LaEr5(AuO7)2
_chemical_formula_sum   'La1 Er5 Au2 O14'
_cell_volume   297.64470769
_cell_formula_units_Z   1
loop_
 _symmetry_equiv_pos_site_id
 _symmetry_equiv_pos_as_xyz
  1  'x, y, z'
loop_
 _atom_site_type_symbol
 _atom_site_label
 _atom_site_symmetry_multiplicity
 _atom_site_fract_x
 _atom_site_fract_y
 _atom_site_fract_z
 _atom_site_occupancy
  La  La0  1  0.500143  0.500143  0.500000  1
  Er  Er1  1  0.001200  0.471382  0.754108  1
  Er  Er2  1  0.998747  0.528656  0.245738  1
  Er  Er3  1  0.528656  0.998747  0.754262  1
  Er  Er4  1  0.471382  0.001200  0.245892  1
  Er  Er5  1  0.499450  0.499450  0.000000  1
  Au  Au6  1  0.000048  0.000048  0.500000  1
  Au  Au7  1  0.999975  0.999975  0.000000  1
  O  O8  1  0.642632  0.357349  0.762098  1
  O  O9  1  0.357349  0.642632  0.237902  1
  O  O10  1  0.919831  0.080201  0.750302  1
  O  O11  1  0.080201  0.919831  0.249698  1
  O  O12  1  0.928915  0.670526  0.524491  1
  O  O13  1  0.083059  0.330297  0.024493  1
  O  O14  1  0.330297  0.083059  0.975507  1
  O  O15  1  0.670526  0.928915  0.475509  1
  O  O16  1  0.362840  0.637122  0.762864  1
  O  O17  1  0.637122  0.362840  0.237136  1
  O  O18  1  0.917223  0.669892  0.975391  1
  O  O19  1  0.071074  0.329440  0.475402  1
  O  O20  1  0.329440  0.071074  0.524598  1
  O  O21  1  0.669892  0.917223  0.024609  1
