# generated using pymatgen
data_TbPrErP4Pd7
_symmetry_space_group_name_H-M   'P 1'
_cell_length_a   7.96648284
_cell_length_b   7.96648381
_cell_length_c   9.52086991
_cell_angle_alpha   55.90420128
_cell_angle_beta   55.90419536
_cell_angle_gamma   29.27917222
_symmetry_Int_Tables_number   1
_chemical_formula_structural   TbPrErP4Pd7
_chemical_formula_sum   'Tb1 Pr1 Er1 P4 Pd7'
_cell_volume   240.85852409
_cell_formula_units_Z   1
loop_
 _symmetry_equiv_pos_site_id
 _symmetry_equiv_pos_as_xyz
  1  'x, y, z'
loop_
 _atom_site_type_symbol
 _atom_site_label
 _atom_site_symmetry_multiplicity
 _atom_site_fract_x
 _atom_site_fract_y
 _atom_site_fract_z
 _atom_site_occupancy
  Tb  Tb0  1  0.820637  0.820637  0.175700  1
  Pr  Pr1  1  0.499980  0.499980  0.500121  1
  Er  Er2  1  0.178845  0.178845  0.824850  1
  P  P3  1  0.393323  0.393323  0.316482  1
  P  P4  1  0.607512  0.607512  0.683738  1
  P  P5  1  0.836357  0.836357  0.760215  1
  P  P6  1  0.162424  0.162424  0.241306  1
  Pd  Pd7  1  0.669666  0.669666  0.073161  1
  Pd  Pd8  1  0.009831  0.009831  0.211945  1
  Pd  Pd9  1  0.990349  0.990349  0.787672  1
  Pd  Pd10  1  0.501457  0.501457  0.998724  1
  Pd  Pd11  1  0.195410  0.195410  0.470760  1
  Pd  Pd12  1  0.804353  0.804353  0.531637  1
  Pd  Pd13  1  0.329856  0.329856  0.923688  1
