# generated using pymatgen
data_LiLu5(P2Ir3)6
_symmetry_space_group_name_H-M   'P 1'
_cell_length_a   12.65851400
_cell_length_b   12.75629365
_cell_length_c   3.94455900
_cell_angle_alpha   90.00000000
_cell_angle_beta   90.00000000
_cell_angle_gamma   120.25585065
_symmetry_Int_Tables_number   1
_chemical_formula_structural   LiLu5(P2Ir3)6
_chemical_formula_sum   'Li1 Lu5 P12 Ir18'
_cell_volume   550.18769842
_cell_formula_units_Z   1
loop_
 _symmetry_equiv_pos_site_id
 _symmetry_equiv_pos_as_xyz
  1  'x, y, z'
loop_
 _atom_site_type_symbol
 _atom_site_label
 _atom_site_symmetry_multiplicity
 _atom_site_fract_x
 _atom_site_fract_y
 _atom_site_fract_z
 _atom_site_occupancy
  Li  Li0  1  0.000000  0.444833  0.500000  1
  Lu  Lu1  1  0.329648  0.663918  0.500000  1
  Lu  Lu2  1  0.670352  0.334270  0.500000  1
  Lu  Lu3  1  0.000000  0.809257  0.000000  1
  Lu  Lu4  1  0.186988  0.185974  0.000000  1
  Lu  Lu5  1  0.813012  0.998986  0.000000  1
  P  P6  1  0.000000  0.635373  0.500000  1
  P  P7  1  0.356747  0.355547  0.500000  1
  P  P8  1  0.643253  0.998800  0.500000  1
  P  P9  1  0.513924  0.687874  0.000000  1
  P  P10  1  0.309504  0.828355  0.000000  1
  P  P11  1  0.168178  0.485058  0.000000  1
  P  P12  1  0.486076  0.173952  0.000000  1
  P  P13  1  0.690496  0.518850  0.000000  1
  P  P14  1  0.831822  0.316881  0.000000  1
  P  P15  1  0.000000  0.178993  0.500000  1
  P  P16  1  0.822236  0.823591  0.500000  1
  P  P17  1  0.177764  0.001355  0.500000  1
  Ir  Ir18  1  0.504148  0.866085  0.000000  1
  Ir  Ir19  1  0.131788  0.642317  0.000000  1
  Ir  Ir20  1  0.358789  0.494237  0.000000  1
  Ir  Ir21  1  0.495852  0.361936  0.000000  1
  Ir  Ir22  1  0.868212  0.510528  0.000000  1
  Ir  Ir23  1  0.641211  0.135447  0.000000  1
  Ir  Ir24  1  0.536954  0.536859  0.500000  1
  Ir  Ir25  1  0.463046  0.999905  0.500000  1
  Ir  Ir26  1  0.000000  0.280602  0.000000  1
  Ir  Ir27  1  0.715762  0.718911  0.000000  1
  Ir  Ir28  1  0.284238  0.003149  0.000000  1
  Ir  Ir29  1  0.622037  0.804423  0.500000  1
  Ir  Ir30  1  0.196471  0.825317  0.500000  1
  Ir  Ir31  1  0.182025  0.373495  0.500000  1
  Ir  Ir32  1  0.377963  0.182387  0.500000  1
  Ir  Ir33  1  0.803529  0.628845  0.500000  1
  Ir  Ir34  1  0.817975  0.191470  0.500000  1
  Ir  Ir35  1  0.000000  0.002214  0.500000  1
