# generated using pymatgen
data_Tb5Dy(Er7Bi6)2
_symmetry_space_group_name_H-M   'P 1'
_cell_length_a   8.24559105
_cell_length_b   9.49128560
_cell_length_c   12.00250707
_cell_angle_alpha   89.98121632
_cell_angle_beta   90.01208401
_cell_angle_gamma   89.99931063
_symmetry_Int_Tables_number   1
_chemical_formula_structural   Tb5Dy(Er7Bi6)2
_chemical_formula_sum   'Tb5 Dy1 Er14 Bi12'
_cell_volume   939.33125027
_cell_formula_units_Z   1
loop_
 _symmetry_equiv_pos_site_id
 _symmetry_equiv_pos_as_xyz
  1  'x, y, z'
loop_
 _atom_site_type_symbol
 _atom_site_label
 _atom_site_symmetry_multiplicity
 _atom_site_fract_x
 _atom_site_fract_y
 _atom_site_fract_z
 _atom_site_occupancy
  Tb  Tb0  1  0.193348  0.563866  0.440945  1
  Tb  Tb1  1  0.312608  0.250043  0.218890  1
  Tb  Tb2  1  0.812646  0.249952  0.281099  1
  Tb  Tb3  1  0.687512  0.749854  0.781087  1
  Tb  Tb4  1  0.187521  0.750212  0.718972  1
  Dy  Dy5  1  0.693362  0.935965  0.059036  1
  Er  Er6  1  0.353146  0.750126  0.216129  1
  Er  Er7  1  0.852955  0.750113  0.283729  1
  Er  Er8  1  0.647377  0.249753  0.783931  1
  Er  Er9  1  0.147397  0.250214  0.716133  1
  Er  Er10  1  0.693293  0.564819  0.059075  1
  Er  Er11  1  0.193263  0.935273  0.440894  1
  Er  Er12  1  0.306864  0.065012  0.941072  1
  Er  Er13  1  0.806887  0.434938  0.558961  1
  Er  Er14  1  0.306403  0.435046  0.940863  1
  Er  Er15  1  0.806399  0.064906  0.559168  1
  Er  Er16  1  0.475550  0.249839  0.488542  1
  Er  Er17  1  0.975398  0.250168  0.011422  1
  Er  Er18  1  0.525218  0.750250  0.511714  1
  Er  Er19  1  0.025067  0.749799  0.988313  1
  Bi  Bi20  1  0.406552  0.749522  0.957971  1
  Bi  Bi21  1  0.906387  0.750595  0.542081  1
  Bi  Bi22  1  0.592619  0.251331  0.041561  1
  Bi  Bi23  1  0.092497  0.248309  0.458489  1
  Bi  Bi24  1  0.564949  0.994587  0.325761  1
  Bi  Bi25  1  0.064892  0.505443  0.174140  1
  Bi  Bi26  1  0.434785  0.494436  0.674540  1
  Bi  Bi27  1  0.934761  0.005592  0.825515  1
  Bi  Bi28  1  0.434758  0.005609  0.674299  1
  Bi  Bi29  1  0.934730  0.494411  0.825730  1
  Bi  Bi30  1  0.565490  0.505486  0.325505  1
  Bi  Bi31  1  0.065369  0.994532  0.174431  1
