# generated using pymatgen
data_LiScP
_symmetry_space_group_name_H-M   'P 1'
_cell_length_a   7.49875448
_cell_length_b   7.49875520
_cell_length_c   7.49875547
_cell_angle_alpha   151.09304539
_cell_angle_beta   151.09305608
_cell_angle_gamma   41.33924693
_symmetry_Int_Tables_number   1
_chemical_formula_structural   LiScP
_chemical_formula_sum   'Li2 Sc2 P2'
_cell_volume   98.31045402
_cell_formula_units_Z   2
loop_
 _symmetry_equiv_pos_site_id
 _symmetry_equiv_pos_as_xyz
  1  'x, y, z'
loop_
 _atom_site_type_symbol
 _atom_site_label
 _atom_site_symmetry_multiplicity
 _atom_site_fract_x
 _atom_site_fract_y
 _atom_site_fract_z
 _atom_site_occupancy
  Li  Li0  1  0.500001  0.000000  0.500001  1
  Li  Li1  1  0.000000  0.500001  0.500001  1
  Sc  Sc2  1  0.326221  0.326221  0.000000  1
  Sc  Sc3  1  0.673780  0.673780  0.000000  1
  P  P4  1  0.136522  0.136522  0.000000  1
  P  P5  1  0.863478  0.863478  0.000000  1
