# generated using pymatgen
data_Cs4Sn3PbSe9
_symmetry_space_group_name_H-M   'P 1'
_cell_length_a   9.21508973
_cell_length_b   9.21508965
_cell_length_c   9.21508914
_cell_angle_alpha   107.89885081
_cell_angle_beta   107.89885537
_cell_angle_gamma   107.89886219
_symmetry_Int_Tables_number   1
_chemical_formula_structural   Cs4Sn3PbSe9
_chemical_formula_sum   'Cs4 Sn3 Pb1 Se9'
_cell_volume   635.03825840
_cell_formula_units_Z   1
loop_
 _symmetry_equiv_pos_site_id
 _symmetry_equiv_pos_as_xyz
  1  'x, y, z'
loop_
 _atom_site_type_symbol
 _atom_site_label
 _atom_site_symmetry_multiplicity
 _atom_site_fract_x
 _atom_site_fract_y
 _atom_site_fract_z
 _atom_site_occupancy
  Cs  Cs0  1  0.613641  0.724967  0.187454  1
  Cs  Cs1  1  0.187454  0.613641  0.724967  1
  Cs  Cs2  1  0.724967  0.187454  0.613641  1
  Cs  Cs3  1  0.861952  0.861952  0.861952  1
  Sn  Sn4  1  0.202621  0.788076  0.332857  1
  Sn  Sn5  1  0.332857  0.202621  0.788076  1
  Sn  Sn6  1  0.788076  0.332857  0.202621  1
  Pb  Pb7  1  0.318300  0.318300  0.318300  1
  Se  Se8  1  0.916395  0.540415  0.085111  1
  Se  Se9  1  0.085111  0.916395  0.540415  1
  Se  Se10  1  0.540415  0.085111  0.916395  1
  Se  Se11  1  0.423284  0.707354  0.482127  1
  Se  Se12  1  0.482127  0.423284  0.707353  1
  Se  Se13  1  0.707354  0.482127  0.423284  1
  Se  Se14  1  0.307219  0.954646  0.183844  1
  Se  Se15  1  0.183844  0.307219  0.954646  1
  Se  Se16  1  0.954646  0.183844  0.307219  1
