# generated using pymatgen
data_Dy5Ho(Er2Si3)2
_symmetry_space_group_name_H-M   'P 1'
_cell_length_a   8.41572200
_cell_length_b   8.41292609
_cell_length_c   6.31526800
_cell_angle_alpha   90.00000000
_cell_angle_beta   90.00000000
_cell_angle_gamma   120.01098631
_symmetry_Int_Tables_number   1
_chemical_formula_structural   Dy5Ho(Er2Si3)2
_chemical_formula_sum   'Dy5 Ho1 Er4 Si6'
_cell_volume   387.17988091
_cell_formula_units_Z   1
loop_
 _symmetry_equiv_pos_site_id
 _symmetry_equiv_pos_as_xyz
  1  'x, y, z'
loop_
 _atom_site_type_symbol
 _atom_site_label
 _atom_site_symmetry_multiplicity
 _atom_site_fract_x
 _atom_site_fract_y
 _atom_site_fract_z
 _atom_site_occupancy
  Dy  Dy0  1  0.000116  0.757051  0.750000  1
  Dy  Dy1  1  0.000025  0.243014  0.250000  1
  Dy  Dy2  1  0.757012  0.756986  0.250000  1
  Dy  Dy3  1  0.756821  0.000000  0.750000  1
  Dy  Dy4  1  0.243065  0.242949  0.750000  1
  Ho  Ho5  1  0.243188  0.000000  0.250000  1
  Er  Er6  1  0.333303  0.666722  0.499975  1
  Er  Er7  1  0.666582  0.333278  0.000025  1
  Er  Er8  1  0.666582  0.333278  0.499975  1
  Er  Er9  1  0.333303  0.666722  0.000025  1
  Si  Si10  1  0.394816  0.000000  0.750000  1
  Si  Si11  1  0.394686  0.394488  0.250000  1
  Si  Si12  1  0.000198  0.605512  0.250000  1
  Si  Si13  1  0.000029  0.394788  0.750000  1
  Si  Si14  1  0.605240  0.605212  0.750000  1
  Si  Si15  1  0.605034  0.000000  0.250000  1
