# generated using pymatgen
data_InRuI18
_symmetry_space_group_name_H-M   'P 1'
_cell_length_a   10.13276025
_cell_length_b   10.13276038
_cell_length_c   10.13275908
_cell_angle_alpha   93.50660937
_cell_angle_beta   93.50660518
_cell_angle_gamma   93.50659829
_symmetry_Int_Tables_number   1
_chemical_formula_structural   InRuI18
_chemical_formula_sum   'In1 Ru1 I18'
_cell_volume   1034.26522168
_cell_formula_units_Z   1
loop_
 _symmetry_equiv_pos_site_id
 _symmetry_equiv_pos_as_xyz
  1  'x, y, z'
loop_
 _atom_site_type_symbol
 _atom_site_label
 _atom_site_symmetry_multiplicity
 _atom_site_fract_x
 _atom_site_fract_y
 _atom_site_fract_z
 _atom_site_occupancy
  In  In0  1  0.500000  0.500000  0.500000  1
  Ru  Ru1  1  0.000000  0.000000  0.000000  1
  I  I2  1  0.997944  0.733080  0.972301  1
  I  I3  1  0.972301  0.997944  0.733080  1
  I  I4  1  0.733080  0.972301  0.997944  1
  I  I5  1  0.002056  0.266920  0.027699  1
  I  I6  1  0.027699  0.002056  0.266920  1
  I  I7  1  0.266920  0.027699  0.002056  1
  I  I8  1  0.485842  0.792887  0.524085  1
  I  I9  1  0.524085  0.485842  0.792887  1
  I  I10  1  0.792887  0.524085  0.485842  1
  I  I11  1  0.514158  0.207113  0.475915  1
  I  I12  1  0.475915  0.514158  0.207113  1
  I  I13  1  0.207113  0.475915  0.514158  1
  I  I14  1  0.632954  0.105722  0.231874  1
  I  I15  1  0.231874  0.632954  0.105722  1
  I  I16  1  0.105722  0.231874  0.632954  1
  I  I17  1  0.367046  0.894278  0.768126  1
  I  I18  1  0.768126  0.367046  0.894278  1
  I  I19  1  0.894278  0.768126  0.367046  1
