# generated using pymatgen
data_Sm10SiBBr15
_symmetry_space_group_name_H-M   'P 1'
_cell_length_a   9.34920830
_cell_length_b   10.11685691
_cell_length_c   11.00452648
_cell_angle_alpha   91.01457756
_cell_angle_beta   114.61762688
_cell_angle_gamma   110.88341706
_symmetry_Int_Tables_number   1
_chemical_formula_structural   Sm10SiBBr15
_chemical_formula_sum   'Sm10 Si1 B1 Br15'
_cell_volume   867.00229800
_cell_formula_units_Z   1
loop_
 _symmetry_equiv_pos_site_id
 _symmetry_equiv_pos_as_xyz
  1  'x, y, z'
loop_
 _atom_site_type_symbol
 _atom_site_label
 _atom_site_symmetry_multiplicity
 _atom_site_fract_x
 _atom_site_fract_y
 _atom_site_fract_z
 _atom_site_occupancy
  Sm  Sm0  1  0.800549  0.408771  0.274359  1
  Sm  Sm1  1  0.186644  0.579620  0.716308  1
  Sm  Sm2  1  0.684373  0.743291  0.817323  1
  Sm  Sm3  1  0.326191  0.253300  0.176521  1
  Sm  Sm4  1  0.528002  0.696183  0.106135  1
  Sm  Sm5  1  0.474953  0.294260  0.905503  1
  Sm  Sm6  1  0.585750  0.041425  0.323223  1
  Sm  Sm7  1  0.409752  0.963849  0.662713  1
  Sm  Sm8  1  0.734322  0.085537  0.055497  1
  Sm  Sm9  1  0.268173  0.929134  0.954352  1
  Si  Si10  1  0.468880  0.825706  0.881235  1
  B  B11  1  0.533794  0.182270  0.124625  1
  Br  Br12  1  0.998986  0.001630  0.001483  1
  Br  Br13  1  0.636937  0.883453  0.582262  1
  Br  Br14  1  0.363399  0.117845  0.412959  1
  Br  Br15  1  0.880881  0.297335  0.525665  1
  Br  Br16  1  0.113134  0.698694  0.470224  1
  Br  Br17  1  0.293525  0.764328  0.181664  1
  Br  Br18  1  0.706314  0.237949  0.819355  1
  Br  Br19  1  0.059739  0.346729  0.229235  1
  Br  Br20  1  0.167231  0.059470  0.703764  1
  Br  Br21  1  0.832732  0.942695  0.297740  1
  Br  Br22  1  0.235191  0.408921  0.944044  1
  Br  Br23  1  0.764088  0.586287  0.054736  1
  Br  Br24  1  0.408596  0.462513  0.662027  1
  Br  Br25  1  0.593616  0.532366  0.343647  1
  Br  Br26  1  0.944247  0.656439  0.773402  1
