# generated using pymatgen
data_Sr2(YbAu2)3
_symmetry_space_group_name_H-M   'P 1'
_cell_length_a   16.36969700
_cell_length_b   16.36969685
_cell_length_c   4.21006900
_cell_angle_alpha   90.00000000
_cell_angle_beta   90.00000000
_cell_angle_gamma   165.10057905
_symmetry_Int_Tables_number   1
_chemical_formula_structural   Sr2(YbAu2)3
_chemical_formula_sum   'Sr2 Yb3 Au6'
_cell_volume   290.07577613
_cell_formula_units_Z   1
loop_
 _symmetry_equiv_pos_site_id
 _symmetry_equiv_pos_as_xyz
  1  'x, y, z'
loop_
 _atom_site_type_symbol
 _atom_site_label
 _atom_site_symmetry_multiplicity
 _atom_site_fract_x
 _atom_site_fract_y
 _atom_site_fract_z
 _atom_site_occupancy
  Sr  Sr0  1  0.999303  0.000697  0.000000  1
  Sr  Sr1  1  0.196689  0.803310  0.500000  1
  Yb  Yb2  1  0.614105  0.385895  0.000000  1
  Yb  Yb3  1  0.382170  0.617830  0.000000  1
  Yb  Yb4  1  0.803656  0.196343  0.500000  1
  Au  Au5  1  0.723592  0.276408  0.000000  1
  Au  Au6  1  0.287367  0.712633  0.000000  1
  Au  Au7  1  0.896095  0.103905  0.500000  1
  Au  Au8  1  0.542244  0.457755  0.500000  1
  Au  Au9  1  0.454659  0.545340  0.500000  1
  Au  Au10  1  0.100120  0.899880  0.500000  1
