# generated using pymatgen
data_Sr2LiAlAs4
_symmetry_space_group_name_H-M   'P 1'
_cell_length_a   4.10230300
_cell_length_b   4.14217086
_cell_length_c   21.53715200
_cell_angle_alpha   90.08777986
_cell_angle_beta   90.00000000
_cell_angle_gamma   90.00000000
_symmetry_Int_Tables_number   1
_chemical_formula_structural   Sr2LiAlAs4
_chemical_formula_sum   'Sr4 Li2 Al2 As8'
_cell_volume   365.96833257
_cell_formula_units_Z   2
loop_
 _symmetry_equiv_pos_site_id
 _symmetry_equiv_pos_as_xyz
  1  'x, y, z'
loop_
 _atom_site_type_symbol
 _atom_site_label
 _atom_site_symmetry_multiplicity
 _atom_site_fract_x
 _atom_site_fract_y
 _atom_site_fract_z
 _atom_site_occupancy
  Sr  Sr0  1  0.250000  0.774906  0.612772  1
  Sr  Sr1  1  0.750000  0.225094  0.387228  1
  Sr  Sr2  1  0.750000  0.277683  0.887199  1
  Sr  Sr3  1  0.250000  0.722317  0.112801  1
  Li  Li4  1  0.250000  0.273681  0.750235  1
  Li  Li5  1  0.750000  0.726319  0.249765  1
  Al  Al6  1  0.750000  0.773774  0.749876  1
  Al  Al7  1  0.250000  0.226226  0.250124  1
  As  As8  1  0.250000  0.196850  0.002402  1
  As  As9  1  0.750000  0.803150  0.997598  1
  As  As10  1  0.750000  0.697583  0.499956  1
  As  As11  1  0.250000  0.302417  0.500044  1
  As  As12  1  0.250000  0.726547  0.319747  1
  As  As13  1  0.750000  0.273453  0.680253  1
  As  As14  1  0.750000  0.225905  0.180159  1
  As  As15  1  0.250000  0.774095  0.819841  1
