# generated using pymatgen
data_Er8TcOsBr8
_symmetry_space_group_name_H-M   'P 1'
_cell_length_a   8.89257225
_cell_length_b   8.89257338
_cell_length_c   6.54735107
_cell_angle_alpha   89.50280622
_cell_angle_beta   89.50280010
_cell_angle_gamma   89.42045855
_symmetry_Int_Tables_number   1
_chemical_formula_structural   Er8TcOsBr8
_chemical_formula_sum   'Er8 Tc1 Os1 Br8'
_cell_volume   517.68537285
_cell_formula_units_Z   1
loop_
 _symmetry_equiv_pos_site_id
 _symmetry_equiv_pos_as_xyz
  1  'x, y, z'
loop_
 _atom_site_type_symbol
 _atom_site_label
 _atom_site_symmetry_multiplicity
 _atom_site_fract_x
 _atom_site_fract_y
 _atom_site_fract_z
 _atom_site_occupancy
  Er  Er0  1  0.248405  0.901324  0.011121  1
  Er  Er1  1  0.751254  0.098776  0.989957  1
  Er  Er2  1  0.098676  0.751595  0.488879  1
  Er  Er3  1  0.901224  0.248746  0.510043  1
  Er  Er4  1  0.752453  0.902966  0.508170  1
  Er  Er5  1  0.247678  0.097294  0.490726  1
  Er  Er6  1  0.097034  0.247547  0.991830  1
  Er  Er7  1  0.902706  0.752322  0.009274  1
  Tc  Tc8  1  0.994094  0.005906  0.250000  1
  Os  Os9  1  0.005769  0.994231  0.750000  1
  Br  Br10  1  0.421474  0.816350  0.404647  1
  Br  Br11  1  0.578685  0.183487  0.596402  1
  Br  Br12  1  0.183650  0.578526  0.095353  1
  Br  Br13  1  0.816513  0.421315  0.903598  1
  Br  Br14  1  0.417076  0.192776  0.097222  1
  Br  Br15  1  0.583193  0.807108  0.902068  1
  Br  Br16  1  0.807224  0.582924  0.402778  1
  Br  Br17  1  0.192892  0.416807  0.597932  1
