# generated using pymatgen
data_Lu2Co6Ni6As7
_symmetry_space_group_name_H-M   'P 1'
_cell_length_a   9.36591616
_cell_length_b   9.32139802
_cell_length_c   3.71261200
_cell_angle_alpha   90.00000000
_cell_angle_beta   90.00000000
_cell_angle_gamma   119.98039848
_symmetry_Int_Tables_number   1
_chemical_formula_structural   Lu2Co6Ni6As7
_chemical_formula_sum   'Lu2 Co6 Ni6 As7'
_cell_volume   280.75484626
_cell_formula_units_Z   1
loop_
 _symmetry_equiv_pos_site_id
 _symmetry_equiv_pos_as_xyz
  1  'x, y, z'
loop_
 _atom_site_type_symbol
 _atom_site_label
 _atom_site_symmetry_multiplicity
 _atom_site_fract_x
 _atom_site_fract_y
 _atom_site_fract_z
 _atom_site_occupancy
  Lu  Lu0  1  0.668402  0.335906  0.000000  1
  Lu  Lu1  1  0.997461  0.997706  0.500000  1
  Co  Co2  1  0.489130  0.944622  0.000000  1
  Co  Co3  1  0.054834  0.544416  0.000000  1
  Co  Co4  1  0.454392  0.508778  0.000000  1
  Co  Co5  1  0.714881  0.098464  0.500000  1
  Co  Co6  1  0.902867  0.616431  0.500000  1
  Co  Co7  1  0.771316  0.726412  0.000000  1
  Ni  Ni8  1  0.385891  0.285826  0.500000  1
  Ni  Ni9  1  0.273233  0.045106  0.000000  1
  Ni  Ni10  1  0.952756  0.227099  0.000000  1
  Ni  Ni11  1  0.549378  0.762609  0.500000  1
  Ni  Ni12  1  0.241712  0.784666  0.500000  1
  Ni  Ni13  1  0.210562  0.453706  0.500000  1
  As  As14  1  0.333074  0.665514  0.000000  1
  As  As15  1  0.451615  0.072811  0.500000  1
  As  As16  1  0.924521  0.374530  0.500000  1
  As  As17  1  0.629981  0.557294  0.500000  1
  As  As18  1  0.739420  0.954459  0.000000  1
  As  As19  1  0.041081  0.783644  0.000000  1
  As  As20  1  0.213493  0.260002  0.000000  1
