# generated using pymatgen
data_Ac4YPb4
_symmetry_space_group_name_H-M   'P 1'
_cell_length_a   8.80581200
_cell_length_b   8.90226300
_cell_length_c   17.04437200
_cell_angle_alpha   90.00000000
_cell_angle_beta   90.00000000
_cell_angle_gamma   90.00000000
_symmetry_Int_Tables_number   1
_chemical_formula_structural   Ac4YPb4
_chemical_formula_sum   'Ac16 Y4 Pb16'
_cell_volume   1336.13651848
_cell_formula_units_Z   4
loop_
 _symmetry_equiv_pos_site_id
 _symmetry_equiv_pos_as_xyz
  1  'x, y, z'
loop_
 _atom_site_type_symbol
 _atom_site_label
 _atom_site_symmetry_multiplicity
 _atom_site_fract_x
 _atom_site_fract_y
 _atom_site_fract_z
 _atom_site_occupancy
  Ac  Ac0  1  0.375811  0.844937  0.881030  1
  Ac  Ac1  1  0.875811  0.655063  0.618970  1
  Ac  Ac2  1  0.624189  0.155063  0.381030  1
  Ac  Ac3  1  0.124189  0.344937  0.118970  1
  Ac  Ac4  1  0.624189  0.155063  0.118970  1
  Ac  Ac5  1  0.124189  0.344937  0.381030  1
  Ac  Ac6  1  0.375811  0.844937  0.618970  1
  Ac  Ac7  1  0.875811  0.655063  0.881030  1
  Ac  Ac8  1  0.534661  0.322033  0.899676  1
  Ac  Ac9  1  0.034661  0.177967  0.600324  1
  Ac  Ac10  1  0.465339  0.677967  0.399676  1
  Ac  Ac11  1  0.965339  0.822033  0.100324  1
  Ac  Ac12  1  0.465339  0.677967  0.100324  1
  Ac  Ac13  1  0.965339  0.822033  0.399676  1
  Ac  Ac14  1  0.534661  0.322033  0.600324  1
  Ac  Ac15  1  0.034661  0.177967  0.899676  1
  Y  Y16  1  0.215049  0.501299  0.750000  1
  Y  Y17  1  0.715049  0.998701  0.750000  1
  Y  Y18  1  0.784951  0.498701  0.250000  1
  Y  Y19  1  0.284951  0.001299  0.250000  1
  Pb  Pb20  1  0.281900  0.028182  0.049274  1
  Pb  Pb21  1  0.781900  0.471818  0.450726  1
  Pb  Pb22  1  0.718100  0.971818  0.549274  1
  Pb  Pb23  1  0.218100  0.528182  0.950726  1
  Pb  Pb24  1  0.718100  0.971818  0.950726  1
  Pb  Pb25  1  0.218100  0.528182  0.549274  1
  Pb  Pb26  1  0.281900  0.028182  0.450726  1
  Pb  Pb27  1  0.781900  0.471818  0.049274  1
  Pb  Pb28  1  0.569713  0.622348  0.750000  1
  Pb  Pb29  1  0.069713  0.877652  0.750000  1
  Pb  Pb30  1  0.430287  0.377652  0.250000  1
  Pb  Pb31  1  0.930287  0.122348  0.250000  1
  Pb  Pb32  1  0.342104  0.154384  0.750000  1
  Pb  Pb33  1  0.842104  0.345616  0.750000  1
  Pb  Pb34  1  0.657896  0.845616  0.250000  1
  Pb  Pb35  1  0.157896  0.654384  0.250000  1
