# generated using pymatgen
data_Hf6AlP5Ru6
_symmetry_space_group_name_H-M   'P 1'
_cell_length_a   7.50410623
_cell_length_b   7.52150990
_cell_length_c   7.50410634
_cell_angle_alpha   128.53056583
_cell_angle_beta   119.81591562
_cell_angle_gamma   83.03226963
_symmetry_Int_Tables_number   1
_chemical_formula_structural   Hf6AlP5Ru6
_chemical_formula_sum   'Hf6 Al1 P5 Ru6'
_cell_volume   276.17296973
_cell_formula_units_Z   1
loop_
 _symmetry_equiv_pos_site_id
 _symmetry_equiv_pos_as_xyz
  1  'x, y, z'
loop_
 _atom_site_type_symbol
 _atom_site_label
 _atom_site_symmetry_multiplicity
 _atom_site_fract_x
 _atom_site_fract_y
 _atom_site_fract_z
 _atom_site_occupancy
  Hf  Hf0  1  0.468643  0.697503  0.728860  1
  Hf  Hf1  1  0.526638  0.253057  0.226419  1
  Hf  Hf2  1  0.747942  0.835899  0.587957  1
  Hf  Hf3  1  0.249672  0.818850  0.069177  1
  Hf  Hf4  1  0.050143  0.256603  0.706461  1
  Hf  Hf5  1  0.955311  0.665418  0.210108  1
  Al  Al6  1  0.269225  0.268608  0.499384  1
  P  P7  1  0.730833  0.230040  0.999208  1
  P  P8  1  0.330121  0.586110  0.249942  1
  P  P9  1  0.672242  0.920586  0.260135  1
  P  P10  1  0.160451  0.920586  0.748343  1
  P  P11  1  0.836168  0.586110  0.755989  1
  Ru  Ru12  1  0.517016  0.502131  0.019160  1
  Ru  Ru13  1  0.982971  0.502131  0.485115  1
  Ru  Ru14  1  0.096140  0.254248  0.099252  1
  Ru  Ru15  1  0.885961  0.003735  0.138207  1
  Ru  Ru16  1  0.365528  0.003735  0.617774  1
  Ru  Ru17  1  0.654996  0.254248  0.658109  1
