# generated using pymatgen
data_CaYb2NpN4
_symmetry_space_group_name_H-M   'P 1'
_cell_length_a   6.84707690
_cell_length_b   9.11133743
_cell_length_c   6.01115690
_cell_angle_alpha   29.10343552
_cell_angle_beta   55.28249963
_cell_angle_gamma   41.28041993
_symmetry_Int_Tables_number   1
_chemical_formula_structural   CaYb2NpN4
_chemical_formula_sum   'Ca1 Yb2 Np1 N4'
_cell_volume   115.82290521
_cell_formula_units_Z   1
loop_
 _symmetry_equiv_pos_site_id
 _symmetry_equiv_pos_as_xyz
  1  'x, y, z'
loop_
 _atom_site_type_symbol
 _atom_site_label
 _atom_site_symmetry_multiplicity
 _atom_site_fract_x
 _atom_site_fract_y
 _atom_site_fract_z
 _atom_site_occupancy
  Ca  Ca0  1  0.500000  0.000000  0.000000  1
  Yb  Yb1  1  0.250000  0.500000  0.000000  1
  Yb  Yb2  1  0.750000  0.500000  0.000000  1
  Np  Np3  1  0.000000  0.000000  0.000000  1
  N  N4  1  0.500000  0.500000  0.500000  1
  N  N5  1  0.201306  0.000000  0.597387  1
  N  N6  1  0.000000  0.500000  0.500000  1
  N  N7  1  0.798694  0.000000  0.402613  1
