# generated using pymatgen
data_Er5(OsO6)2
_symmetry_space_group_name_H-M   'P 1'
_cell_length_a   6.82335745
_cell_length_b   6.82335879
_cell_length_c   7.43416638
_cell_angle_alpha   74.01519116
_cell_angle_beta   74.01519159
_cell_angle_gamma   48.72775880
_symmetry_Int_Tables_number   1
_chemical_formula_structural   Er5(OsO6)2
_chemical_formula_sum   'Er5 Os2 O12'
_cell_volume   247.96777591
_cell_formula_units_Z   1
loop_
 _symmetry_equiv_pos_site_id
 _symmetry_equiv_pos_as_xyz
  1  'x, y, z'
loop_
 _atom_site_type_symbol
 _atom_site_label
 _atom_site_symmetry_multiplicity
 _atom_site_fract_x
 _atom_site_fract_y
 _atom_site_fract_z
 _atom_site_occupancy
  Er  Er0  1  0.699153  0.699153  0.641019  1
  Er  Er1  1  0.300847  0.300847  0.358981  1
  Er  Er2  1  0.688078  0.688078  0.172209  1
  Er  Er3  1  0.311922  0.311922  0.827791  1
  Er  Er4  1  0.000000  0.000000  0.500000  1
  Os  Os5  1  0.780162  0.219838  0.000000  1
  Os  Os6  1  0.219838  0.780162  0.000000  1
  O  O7  1  0.000914  0.000914  0.204788  1
  O  O8  1  0.999086  0.999086  0.795212  1
  O  O9  1  0.578209  0.086907  0.087198  1
  O  O10  1  0.421791  0.913093  0.912802  1
  O  O11  1  0.913093  0.421791  0.912802  1
  O  O12  1  0.086907  0.578209  0.087198  1
  O  O13  1  0.499072  0.499072  0.177292  1
  O  O14  1  0.500928  0.500928  0.822708  1
  O  O15  1  0.404197  0.901442  0.427278  1
  O  O16  1  0.595803  0.098558  0.572722  1
  O  O17  1  0.098558  0.595803  0.572722  1
  O  O18  1  0.901442  0.404197  0.427278  1
