# generated using pymatgen
data_Lu3Fe8CoP6
_symmetry_space_group_name_H-M   'P 1'
_cell_length_a   3.67390700
_cell_length_b   10.42423600
_cell_length_c   12.08346700
_cell_angle_alpha   90.00000000
_cell_angle_beta   90.00000000
_cell_angle_gamma   90.00000000
_symmetry_Int_Tables_number   1
_chemical_formula_structural   Lu3Fe8CoP6
_chemical_formula_sum   'Lu6 Fe16 Co2 P12'
_cell_volume   462.76867524
_cell_formula_units_Z   2
loop_
 _symmetry_equiv_pos_site_id
 _symmetry_equiv_pos_as_xyz
  1  'x, y, z'
loop_
 _atom_site_type_symbol
 _atom_site_label
 _atom_site_symmetry_multiplicity
 _atom_site_fract_x
 _atom_site_fract_y
 _atom_site_fract_z
 _atom_site_occupancy
  Lu  Lu0  1  0.000000  0.500000  0.526236  1
  Lu  Lu1  1  0.500000  0.000000  0.473764  1
  Lu  Lu2  1  0.500000  0.820454  0.207025  1
  Lu  Lu3  1  0.500000  0.179546  0.207025  1
  Lu  Lu4  1  0.000000  0.679546  0.792975  1
  Lu  Lu5  1  0.000000  0.320454  0.792975  1
  Fe  Fe6  1  0.500000  0.500000  0.153211  1
  Fe  Fe7  1  0.000000  0.000000  0.846789  1
  Fe  Fe8  1  0.000000  0.500000  0.988557  1
  Fe  Fe9  1  0.500000  0.000000  0.011443  1
  Fe  Fe10  1  0.500000  0.327677  0.996257  1
  Fe  Fe11  1  0.500000  0.672323  0.996257  1
  Fe  Fe12  1  0.000000  0.172323  0.003743  1
  Fe  Fe13  1  0.000000  0.827677  0.003743  1
  Fe  Fe14  1  0.500000  0.299150  0.430155  1
  Fe  Fe15  1  0.500000  0.700850  0.430155  1
  Fe  Fe16  1  0.000000  0.200850  0.569845  1
  Fe  Fe17  1  0.000000  0.799150  0.569845  1
  Fe  Fe18  1  0.500000  0.881581  0.708209  1
  Fe  Fe19  1  0.500000  0.118419  0.708209  1
  Fe  Fe20  1  0.000000  0.618419  0.291791  1
  Fe  Fe21  1  0.000000  0.381581  0.291791  1
  Co  Co22  1  0.500000  0.500000  0.699939  1
  Co  Co23  1  0.000000  0.000000  0.300061  1
  P  P24  1  0.500000  0.500000  0.882823  1
  P  P25  1  0.000000  0.000000  0.117177  1
  P  P26  1  0.500000  0.500000  0.342444  1
  P  P27  1  0.000000  0.000000  0.657556  1
  P  P28  1  0.500000  0.307940  0.615032  1
  P  P29  1  0.500000  0.692060  0.615032  1
  P  P30  1  0.000000  0.192060  0.384968  1
  P  P31  1  0.000000  0.807940  0.384968  1
  P  P32  1  0.500000  0.850212  0.887500  1
  P  P33  1  0.500000  0.149788  0.887500  1
  P  P34  1  0.000000  0.649788  0.112500  1
  P  P35  1  0.000000  0.350212  0.112500  1
