# generated using pymatgen
data_Tb8HgGeI12
_symmetry_space_group_name_H-M   'P 1'
_cell_length_a   4.25570700
_cell_length_b   14.18560765
_cell_length_c   14.97047484
_cell_angle_alpha   89.81382474
_cell_angle_beta   90.00000000
_cell_angle_gamma   90.00000000
_symmetry_Int_Tables_number   1
_chemical_formula_structural   Tb8HgGeI12
_chemical_formula_sum   'Tb8 Hg1 Ge1 I12'
_cell_volume   903.75964743
_cell_formula_units_Z   1
loop_
 _symmetry_equiv_pos_site_id
 _symmetry_equiv_pos_as_xyz
  1  'x, y, z'
loop_
 _atom_site_type_symbol
 _atom_site_label
 _atom_site_symmetry_multiplicity
 _atom_site_fract_x
 _atom_site_fract_y
 _atom_site_fract_z
 _atom_site_occupancy
  Tb  Tb0  1  0.500000  0.118649  0.341437  1
  Tb  Tb1  1  0.500000  0.881351  0.658563  1
  Tb  Tb2  1  0.500000  0.613282  0.151999  1
  Tb  Tb3  1  0.500000  0.386718  0.848001  1
  Tb  Tb4  1  0.000000  0.118709  0.579830  1
  Tb  Tb5  1  0.000000  0.881291  0.420170  1
  Tb  Tb6  1  0.000000  0.610697  0.925726  1
  Tb  Tb7  1  0.000000  0.389303  0.074274  1
  Hg  Hg8  1  0.500000  0.000000  0.500000  1
  Ge  Ge9  1  0.500000  0.500000  0.000000  1
  I  I10  1  0.500000  0.247817  0.161227  1
  I  I11  1  0.500000  0.752183  0.838773  1
  I  I12  1  0.500000  0.743006  0.334455  1
  I  I13  1  0.500000  0.256994  0.665545  1
  I  I14  1  0.000000  0.260623  0.413424  1
  I  I15  1  0.000000  0.739377  0.586576  1
  I  I16  1  0.000000  0.755717  0.085072  1
  I  I17  1  0.000000  0.244283  0.914928  1
  I  I18  1  0.000000  0.999521  0.238217  1
  I  I19  1  0.000000  0.000479  0.761783  1
  I  I20  1  0.000000  0.499128  0.256836  1
  I  I21  1  0.000000  0.500872  0.743164  1
