# generated using pymatgen
data_RbBa3(CrN2)4
_symmetry_space_group_name_H-M   'P 1'
_cell_length_a   6.50903397
_cell_length_b   6.50903413
_cell_length_c   7.87819617
_cell_angle_alpha   89.50451478
_cell_angle_beta   90.49548254
_cell_angle_gamma   126.41866167
_symmetry_Int_Tables_number   1
_chemical_formula_structural   RbBa3(CrN2)4
_chemical_formula_sum   'Rb1 Ba3 Cr4 N8'
_cell_volume   268.58005244
_cell_formula_units_Z   1
loop_
 _symmetry_equiv_pos_site_id
 _symmetry_equiv_pos_as_xyz
  1  'x, y, z'
loop_
 _atom_site_type_symbol
 _atom_site_label
 _atom_site_symmetry_multiplicity
 _atom_site_fract_x
 _atom_site_fract_y
 _atom_site_fract_z
 _atom_site_occupancy
  Rb  Rb0  1  0.840720  0.159280  0.561229  1
  Ba  Ba1  1  0.162568  0.837432  0.450549  1
  Ba  Ba2  1  0.661062  0.338938  0.064369  1
  Ba  Ba3  1  0.341113  0.658887  0.932869  1
  Cr  Cr4  1  0.546943  0.453057  0.634629  1
  Cr  Cr5  1  0.450164  0.549836  0.360585  1
  Cr  Cr6  1  0.954482  0.045518  0.137274  1
  Cr  Cr7  1  0.046924  0.953076  0.865857  1
  N  N8  1  0.893508  0.106492  0.920247  1
  N  N9  1  0.109996  0.890004  0.086752  1
  N  N10  1  0.603724  0.396276  0.414838  1
  N  N11  1  0.393287  0.606713  0.580953  1
  N  N12  1  0.337921  0.162571  0.752234  1
  N  N13  1  0.163060  0.342900  0.242690  1
  N  N14  1  0.657100  0.836940  0.242690  1
  N  N15  1  0.837429  0.662079  0.752234  1
