# generated using pymatgen
data_Nd20NiIr4Pt7
_symmetry_space_group_name_H-M   'P 1'
_cell_length_a   11.47901488
_cell_length_b   11.47901492
_cell_length_c   6.53765300
_cell_angle_alpha   89.97762378
_cell_angle_beta   89.97762378
_cell_angle_gamma   89.91037154
_symmetry_Int_Tables_number   1
_chemical_formula_structural   Nd20NiIr4Pt7
_chemical_formula_sum   'Nd20 Ni1 Ir4 Pt7'
_cell_volume   861.45085660
_cell_formula_units_Z   1
loop_
 _symmetry_equiv_pos_site_id
 _symmetry_equiv_pos_as_xyz
  1  'x, y, z'
loop_
 _atom_site_type_symbol
 _atom_site_label
 _atom_site_symmetry_multiplicity
 _atom_site_fract_x
 _atom_site_fract_y
 _atom_site_fract_z
 _atom_site_occupancy
  Nd  Nd0  1  0.088661  0.294591  0.127346  1
  Nd  Nd1  1  0.795081  0.410785  0.127407  1
  Nd  Nd2  1  0.203927  0.590612  0.127910  1
  Nd  Nd3  1  0.911013  0.704525  0.127532  1
  Nd  Nd4  1  0.409394  0.796075  0.372089  1
  Nd  Nd5  1  0.589208  0.204915  0.372597  1
  Nd  Nd6  1  0.295478  0.088989  0.372463  1
  Nd  Nd7  1  0.705405  0.911333  0.372653  1
  Nd  Nd8  1  0.410673  0.204508  0.872651  1
  Nd  Nd9  1  0.705646  0.089400  0.872694  1
  Nd  Nd10  1  0.294327  0.910029  0.875901  1
  Nd  Nd11  1  0.589325  0.796402  0.871789  1
  Nd  Nd12  1  0.089967  0.705674  0.624102  1
  Nd  Nd13  1  0.910603  0.294348  0.627304  1
  Nd  Nd14  1  0.203596  0.410666  0.628217  1
  Nd  Nd15  1  0.795486  0.589333  0.627352  1
  Nd  Nd16  1  0.003113  0.996447  0.003401  1
  Nd  Nd17  1  0.499887  0.501061  0.000066  1
  Nd  Nd18  1  0.498941  0.500114  0.499945  1
  Nd  Nd19  1  0.003552  0.996886  0.496586  1
  Ni  Ni20  1  0.152101  0.847939  0.249994  1
  Ir  Ir21  1  0.999775  0.500180  0.387584  1
  Ir  Ir22  1  0.499820  0.000225  0.112415  1
  Ir  Ir23  1  0.500086  0.000102  0.612615  1
  Ir  Ir24  1  0.999897  0.499912  0.887384  1
  Pt  Pt25  1  0.345473  0.346901  0.249213  1
  Pt  Pt26  1  0.653097  0.654526  0.250788  1
  Pt  Pt27  1  0.846967  0.153031  0.250000  1
  Pt  Pt28  1  0.345747  0.654252  0.750001  1
  Pt  Pt29  1  0.153451  0.152878  0.749933  1
  Pt  Pt30  1  0.847120  0.846547  0.750066  1
  Pt  Pt31  1  0.653191  0.346809  0.750000  1
