# generated using pymatgen
data_YTh(Si2Ni)2
_symmetry_space_group_name_H-M   'P 1'
_cell_length_a   8.42381681
_cell_length_b   8.42381794
_cell_length_c   4.06001400
_cell_angle_alpha   90.00000000
_cell_angle_beta   90.00000000
_cell_angle_gamma   151.90383085
_symmetry_Int_Tables_number   1
_chemical_formula_structural   YTh(Si2Ni)2
_chemical_formula_sum   'Y1 Th1 Si4 Ni2'
_cell_volume   135.68220493
_cell_formula_units_Z   1
loop_
 _symmetry_equiv_pos_site_id
 _symmetry_equiv_pos_as_xyz
  1  'x, y, z'
loop_
 _atom_site_type_symbol
 _atom_site_label
 _atom_site_symmetry_multiplicity
 _atom_site_fract_x
 _atom_site_fract_y
 _atom_site_fract_z
 _atom_site_occupancy
  Y  Y0  1  0.604549  0.395451  0.250000  1
  Th  Th1  1  0.394139  0.605861  0.750000  1
  Si  Si2  1  0.962887  0.037113  0.250000  1
  Si  Si3  1  0.041769  0.958231  0.750000  1
  Si  Si4  1  0.247831  0.752169  0.250000  1
  Si  Si5  1  0.747769  0.252231  0.750000  1
  Ni  Ni6  1  0.820756  0.179244  0.250000  1
  Ni  Ni7  1  0.180299  0.819701  0.750000  1
