# generated using pymatgen
data_Ti17Si16W3
_symmetry_space_group_name_H-M   'P 1'
_cell_length_a   6.66805450
_cell_length_b   6.66805450
_cell_length_c   12.18849769
_cell_angle_alpha   89.97261658
_cell_angle_beta   89.97261658
_cell_angle_gamma   90.03498569
_symmetry_Int_Tables_number   1
_chemical_formula_structural   Ti17Si16W3
_chemical_formula_sum   'Ti17 Si16 W3'
_cell_volume   541.93634889
_cell_formula_units_Z   1
loop_
 _symmetry_equiv_pos_site_id
 _symmetry_equiv_pos_as_xyz
  1  'x, y, z'
loop_
 _atom_site_type_symbol
 _atom_site_label
 _atom_site_symmetry_multiplicity
 _atom_site_fract_x
 _atom_site_fract_y
 _atom_site_fract_z
 _atom_site_occupancy
  Ti  Ti0  1  0.497433  0.842857  0.029280  1
  Ti  Ti1  1  0.005130  0.850859  0.121752  1
  Ti  Ti2  1  0.494789  0.350142  0.128735  1
  Ti  Ti3  1  0.002271  0.341487  0.221328  1
  Ti  Ti4  1  0.658514  0.997729  0.278672  1
  Ti  Ti5  1  0.649859  0.505212  0.371265  1
  Ti  Ti6  1  0.149141  0.994869  0.378248  1
  Ti  Ti7  1  0.157143  0.502568  0.470721  1
  Ti  Ti8  1  0.502097  0.158227  0.529215  1
  Ti  Ti9  1  0.994961  0.149038  0.621777  1
  Ti  Ti10  1  0.504247  0.649803  0.627996  1
  Ti  Ti11  1  0.997348  0.656881  0.720504  1
  Ti  Ti12  1  0.670650  0.329351  0.750000  1
  Ti  Ti13  1  0.343120  0.002652  0.779497  1
  Ti  Ti14  1  0.350198  0.495754  0.872005  1
  Ti  Ti15  1  0.850962  0.005038  0.878224  1
  Ti  Ti16  1  0.841773  0.497904  0.970786  1
  Si  Si17  1  0.197948  0.543909  0.063520  1
  Si  Si18  1  0.793944  0.141463  0.077139  1
  Si  Si19  1  0.705903  0.641321  0.172061  1
  Si  Si20  1  0.302449  0.043519  0.186455  1
  Si  Si21  1  0.956482  0.697551  0.313545  1
  Si  Si22  1  0.358680  0.294096  0.327939  1
  Si  Si23  1  0.858537  0.206056  0.422861  1
  Si  Si24  1  0.456091  0.802051  0.436480  1
  Si  Si25  1  0.801454  0.455885  0.564592  1
  Si  Si26  1  0.205905  0.858841  0.577834  1
  Si  Si27  1  0.294548  0.357909  0.673410  1
  Si  Si28  1  0.697557  0.956173  0.686437  1
  Si  Si29  1  0.043828  0.302443  0.813563  1
  Si  Si30  1  0.642092  0.705451  0.826590  1
  Si  Si31  1  0.141159  0.794095  0.922166  1
  Si  Si32  1  0.544115  0.198545  0.935408  1
  W  W33  1  0.171882  0.171008  0.000572  1
  W  W34  1  0.328804  0.671197  0.250000  1
  W  W35  1  0.828992  0.828118  0.499428  1
