# generated using pymatgen
data_Nd5RuPt2
_symmetry_space_group_name_H-M   'P 1'
_cell_length_a   11.34312100
_cell_length_b   11.34312100
_cell_length_c   6.61895500
_cell_angle_alpha   90.00000000
_cell_angle_beta   90.00000000
_cell_angle_gamma   90.00000000
_symmetry_Int_Tables_number   1
_chemical_formula_structural   Nd5RuPt2
_chemical_formula_sum   'Nd20 Ru4 Pt8'
_cell_volume   851.63707203
_cell_formula_units_Z   4
loop_
 _symmetry_equiv_pos_site_id
 _symmetry_equiv_pos_as_xyz
  1  'x, y, z'
loop_
 _atom_site_type_symbol
 _atom_site_label
 _atom_site_symmetry_multiplicity
 _atom_site_fract_x
 _atom_site_fract_y
 _atom_site_fract_z
 _atom_site_occupancy
  Nd  Nd0  1  0.296618  0.087557  0.374525  1
  Nd  Nd1  1  0.296618  0.912443  0.874525  1
  Nd  Nd2  1  0.703382  0.087557  0.874525  1
  Nd  Nd3  1  0.703382  0.912443  0.374525  1
  Nd  Nd4  1  0.587557  0.796618  0.874525  1
  Nd  Nd5  1  0.587557  0.203382  0.374525  1
  Nd  Nd6  1  0.412443  0.796618  0.374525  1
  Nd  Nd7  1  0.412443  0.203382  0.874525  1
  Nd  Nd8  1  0.203382  0.412443  0.625475  1
  Nd  Nd9  1  0.203382  0.587557  0.125475  1
  Nd  Nd10  1  0.796618  0.412443  0.125475  1
  Nd  Nd11  1  0.796618  0.587557  0.625475  1
  Nd  Nd12  1  0.912443  0.703382  0.125475  1
  Nd  Nd13  1  0.912443  0.296618  0.625475  1
  Nd  Nd14  1  0.087557  0.703382  0.625475  1
  Nd  Nd15  1  0.087557  0.296618  0.125475  1
  Nd  Nd16  1  0.000000  0.000000  0.500000  1
  Nd  Nd17  1  0.000000  0.000000  0.000000  1
  Nd  Nd18  1  0.500000  0.500000  0.000000  1
  Nd  Nd19  1  0.500000  0.500000  0.500000  1
  Ru  Ru20  1  0.500000  0.000000  0.121796  1
  Ru  Ru21  1  0.500000  0.000000  0.621796  1
  Ru  Ru22  1  0.000000  0.500000  0.878204  1
  Ru  Ru23  1  0.000000  0.500000  0.378204  1
  Pt  Pt24  1  0.846329  0.153671  0.250000  1
  Pt  Pt25  1  0.846329  0.846329  0.750000  1
  Pt  Pt26  1  0.153671  0.153671  0.750000  1
  Pt  Pt27  1  0.153671  0.846329  0.250000  1
  Pt  Pt28  1  0.653671  0.346329  0.750000  1
  Pt  Pt29  1  0.653671  0.653671  0.250000  1
  Pt  Pt30  1  0.346329  0.346329  0.250000  1
  Pt  Pt31  1  0.346329  0.653671  0.750000  1
