# generated using pymatgen
data_Ho8Re13B12
_symmetry_space_group_name_H-M   'P 1'
_cell_length_a   7.78456455
_cell_length_b   7.78456432
_cell_length_c   7.78456423
_cell_angle_alpha   86.48764898
_cell_angle_beta   86.48764600
_cell_angle_gamma   86.48765518
_symmetry_Int_Tables_number   1
_chemical_formula_structural   Ho8Re13B12
_chemical_formula_sum   'Ho8 Re13 B12'
_cell_volume   469.18598467
_cell_formula_units_Z   1
loop_
 _symmetry_equiv_pos_site_id
 _symmetry_equiv_pos_as_xyz
  1  'x, y, z'
loop_
 _atom_site_type_symbol
 _atom_site_label
 _atom_site_symmetry_multiplicity
 _atom_site_fract_x
 _atom_site_fract_y
 _atom_site_fract_z
 _atom_site_occupancy
  Ho  Ho0  1  0.641535  0.641535  0.641535  1
  Ho  Ho1  1  0.358465  0.358465  0.358465  1
  Ho  Ho2  1  0.188560  0.188560  0.687079  1
  Ho  Ho3  1  0.687079  0.188560  0.188560  1
  Ho  Ho4  1  0.188560  0.687079  0.188560  1
  Ho  Ho5  1  0.811440  0.811440  0.312921  1
  Ho  Ho6  1  0.312921  0.811440  0.811440  1
  Ho  Ho7  1  0.811440  0.312921  0.811440  1
  Re  Re8  1  0.000000  0.000000  0.000000  1
  Re  Re9  1  0.596998  0.063381  0.596998  1
  Re  Re10  1  0.596998  0.596998  0.063381  1
  Re  Re11  1  0.063381  0.596998  0.596998  1
  Re  Re12  1  0.403002  0.936619  0.403002  1
  Re  Re13  1  0.403002  0.403002  0.936619  1
  Re  Re14  1  0.936619  0.403002  0.403002  1
  Re  Re15  1  0.923148  0.923148  0.670701  1
  Re  Re16  1  0.670701  0.923148  0.923148  1
  Re  Re17  1  0.923148  0.670701  0.923148  1
  Re  Re18  1  0.076852  0.076852  0.329299  1
  Re  Re19  1  0.329299  0.076852  0.076852  1
  Re  Re20  1  0.076852  0.329299  0.076852  1
  B  B21  1  0.152466  0.847534  0.500000  1
  B  B22  1  0.500000  0.152466  0.847534  1
  B  B23  1  0.847534  0.500000  0.152466  1
  B  B24  1  0.500000  0.847534  0.152466  1
  B  B25  1  0.152466  0.500000  0.847534  1
  B  B26  1  0.847534  0.152466  0.500000  1
  B  B27  1  0.670942  0.500000  0.329058  1
  B  B28  1  0.329058  0.670942  0.500000  1
  B  B29  1  0.500000  0.329058  0.670942  1
  B  B30  1  0.329058  0.500000  0.670942  1
  B  B31  1  0.670942  0.329058  0.500000  1
  B  B32  1  0.500000  0.670942  0.329058  1
