# generated using pymatgen
data_Lu8B24OsW3
_symmetry_space_group_name_H-M   'P 1'
_cell_length_a   3.55238600
_cell_length_b   9.17391048
_cell_length_c   11.54821613
_cell_angle_alpha   89.91570048
_cell_angle_beta   90.00000000
_cell_angle_gamma   90.00000000
_symmetry_Int_Tables_number   1
_chemical_formula_structural   Lu8B24OsW3
_chemical_formula_sum   'Lu8 B24 Os1 W3'
_cell_volume   376.34753939
_cell_formula_units_Z   1
loop_
 _symmetry_equiv_pos_site_id
 _symmetry_equiv_pos_as_xyz
  1  'x, y, z'
loop_
 _atom_site_type_symbol
 _atom_site_label
 _atom_site_symmetry_multiplicity
 _atom_site_fract_x
 _atom_site_fract_y
 _atom_site_fract_z
 _atom_site_occupancy
  Lu  Lu0  1  0.000000  0.320730  0.413138  1
  Lu  Lu1  1  0.000000  0.678849  0.586021  1
  Lu  Lu2  1  0.000000  0.820777  0.085765  1
  Lu  Lu3  1  0.000000  0.178436  0.913365  1
  Lu  Lu4  1  0.000000  0.944248  0.373308  1
  Lu  Lu5  1  0.000000  0.054473  0.629385  1
  Lu  Lu6  1  0.000000  0.445603  0.126454  1
  Lu  Lu7  1  0.000000  0.558384  0.871573  1
  B  B8  1  0.500000  0.550805  0.435561  1
  B  B9  1  0.500000  0.448383  0.564978  1
  B  B10  1  0.500000  0.049935  0.062754  1
  B  B11  1  0.500000  0.945236  0.932485  1
  B  B12  1  0.500000  0.752316  0.423276  1
  B  B13  1  0.500000  0.247082  0.577910  1
  B  B14  1  0.500000  0.253530  0.076508  1
  B  B15  1  0.500000  0.750915  0.919095  1
  B  B16  1  0.500000  0.796009  0.264219  1
  B  B17  1  0.500000  0.203110  0.737780  1
  B  B18  1  0.500000  0.295474  0.235990  1
  B  B19  1  0.500000  0.708591  0.765288  1
  B  B20  1  0.500000  0.632071  0.181857  1
  B  B21  1  0.500000  0.369217  0.818736  1
  B  B22  1  0.500000  0.130704  0.317447  1
  B  B23  1  0.500000  0.868808  0.685556  1
  B  B24  1  0.500000  0.977345  0.212488  1
  B  B25  1  0.500000  0.016686  0.788148  1
  B  B26  1  0.500000  0.477738  0.286810  1
  B  B27  1  0.500000  0.523546  0.712885  1
  B  B28  1  0.500000  0.603268  0.027018  1
  B  B29  1  0.500000  0.400553  0.971568  1
  B  B30  1  0.500000  0.100642  0.472537  1
  B  B31  1  0.500000  0.897799  0.530009  1
  Os  Os32  1  0.000000  0.860907  0.820730  1
  W  W33  1  0.000000  0.639130  0.320478  1
  W  W34  1  0.000000  0.360179  0.680844  1
  W  W35  1  0.000000  0.138521  0.178037  1
