# generated using pymatgen
data_Th3Al2AgPd3
_symmetry_space_group_name_H-M   'P 1'
_cell_length_a   7.21437446
_cell_length_b   7.21437419
_cell_length_c   4.26709800
_cell_angle_alpha   90.00000000
_cell_angle_beta   90.00000000
_cell_angle_gamma   117.92173644
_symmetry_Int_Tables_number   1
_chemical_formula_structural   Th3Al2AgPd3
_chemical_formula_sum   'Th3 Al2 Ag1 Pd3'
_cell_volume   196.23650233
_cell_formula_units_Z   1
loop_
 _symmetry_equiv_pos_site_id
 _symmetry_equiv_pos_as_xyz
  1  'x, y, z'
loop_
 _atom_site_type_symbol
 _atom_site_label
 _atom_site_symmetry_multiplicity
 _atom_site_fract_x
 _atom_site_fract_y
 _atom_site_fract_z
 _atom_site_occupancy
  Th  Th0  1  0.420268  0.420268  0.500000  1
  Th  Th1  1  0.583153  0.993511  0.500000  1
  Th  Th2  1  0.993511  0.583153  0.500000  1
  Al  Al3  1  0.231990  0.000618  0.000000  1
  Al  Al4  1  0.000618  0.231990  0.000000  1
  Ag  Ag5  1  0.762226  0.762226  0.000000  1
  Pd  Pd6  1  0.664389  0.313114  0.000000  1
  Pd  Pd7  1  0.313114  0.664389  0.000000  1
  Pd  Pd8  1  0.030731  0.030731  0.500000  1
