# generated using pymatgen
data_Dy8Lu12Si15Sb
_symmetry_space_group_name_H-M   'P 1'
_cell_length_a   7.38764942
_cell_length_b   7.59378596
_cell_length_c   14.41418989
_cell_angle_alpha   90.07803535
_cell_angle_beta   87.29016914
_cell_angle_gamma   90.11255218
_symmetry_Int_Tables_number   1
_chemical_formula_structural   Dy8Lu12Si15Sb
_chemical_formula_sum   'Dy8 Lu12 Si15 Sb1'
_cell_volume   807.73289709
_cell_formula_units_Z   1
loop_
 _symmetry_equiv_pos_site_id
 _symmetry_equiv_pos_as_xyz
  1  'x, y, z'
loop_
 _atom_site_type_symbol
 _atom_site_label
 _atom_site_symmetry_multiplicity
 _atom_site_fract_x
 _atom_site_fract_y
 _atom_site_fract_z
 _atom_site_occupancy
  Dy  Dy0  1  0.017385  0.180055  0.098157  1
  Dy  Dy1  1  0.982570  0.821001  0.901912  1
  Dy  Dy2  1  0.483090  0.679122  0.902024  1
  Dy  Dy3  1  0.998474  0.826220  0.599152  1
  Dy  Dy4  1  0.517643  0.320696  0.099003  1
  Dy  Dy5  1  0.997896  0.175146  0.399988  1
  Dy  Dy6  1  0.507185  0.316547  0.398672  1
  Dy  Dy7  1  0.511544  0.684996  0.601435  1
  Lu  Lu8  1  0.167591  0.504453  0.752554  1
  Lu  Lu9  1  0.831023  0.494527  0.252955  1
  Lu  Lu10  1  0.330898  0.007513  0.252290  1
  Lu  Lu11  1  0.671441  0.993481  0.749390  1
  Lu  Lu12  1  0.353678  0.155483  0.625798  1
  Lu  Lu13  1  0.650901  0.830622  0.377120  1
  Lu  Lu14  1  0.146975  0.679790  0.371977  1
  Lu  Lu15  1  0.670390  0.822269  0.122609  1
  Lu  Lu16  1  0.837145  0.329186  0.623503  1
  Lu  Lu17  1  0.328006  0.176359  0.876910  1
  Lu  Lu18  1  0.828064  0.322585  0.876786  1
  Lu  Lu19  1  0.171086  0.678083  0.123296  1
  Si  Si20  1  0.041082  0.114057  0.751406  1
  Si  Si21  1  0.956587  0.890536  0.246307  1
  Si  Si22  1  0.457933  0.611504  0.247970  1
  Si  Si23  1  0.538703  0.388642  0.752233  1
  Si  Si24  1  0.290844  0.865905  0.753435  1
  Si  Si25  1  0.711532  0.128920  0.246568  1
  Si  Si26  1  0.210752  0.372015  0.247852  1
  Si  Si27  1  0.791733  0.630531  0.752324  1
  Si  Si28  1  0.802267  0.537229  0.457280  1
  Si  Si29  1  0.308371  0.965290  0.457382  1
  Si  Si30  1  0.848424  0.530874  0.040241  1
  Si  Si31  1  0.692893  0.034859  0.541928  1
  Si  Si32  1  0.150524  0.469306  0.960370  1
  Si  Si33  1  0.650688  0.030738  0.959730  1
  Si  Si34  1  0.348340  0.970530  0.040949  1
  Sb  Sb35  1  0.196341  0.460928  0.538492  1
