# generated using pymatgen
data_Hf16Ir8CN3
_symmetry_space_group_name_H-M   'P 1'
_cell_length_a   8.71965069
_cell_length_b   8.73725598
_cell_length_c   8.71966200
_cell_angle_alpha   60.06496145
_cell_angle_beta   59.99945450
_cell_angle_gamma   60.06538661
_symmetry_Int_Tables_number   1
_chemical_formula_structural   Hf16Ir8CN3
_chemical_formula_sum   'Hf16 Ir8 C1 N3'
_cell_volume   470.20162985
_cell_formula_units_Z   1
loop_
 _symmetry_equiv_pos_site_id
 _symmetry_equiv_pos_as_xyz
  1  'x, y, z'
loop_
 _atom_site_type_symbol
 _atom_site_label
 _atom_site_symmetry_multiplicity
 _atom_site_fract_x
 _atom_site_fract_y
 _atom_site_fract_z
 _atom_site_occupancy
  Hf  Hf0  1  0.125002  0.624998  0.625000  1
  Hf  Hf1  1  0.624998  0.125002  0.625001  1
  Hf  Hf2  1  0.625000  0.624998  0.125002  1
  Hf  Hf3  1  0.624999  0.624999  0.625000  1
  Hf  Hf4  1  0.815897  0.814785  0.184659  1
  Hf  Hf5  1  0.184437  0.184407  0.815585  1
  Hf  Hf6  1  0.815561  0.184423  0.815569  1
  Hf  Hf7  1  0.184681  0.814754  0.184682  1
  Hf  Hf8  1  0.184645  0.814801  0.815910  1
  Hf  Hf9  1  0.815593  0.184391  0.184428  1
  Hf  Hf10  1  0.434117  0.435220  0.065333  1
  Hf  Hf11  1  0.065555  0.065583  0.434424  1
  Hf  Hf12  1  0.434450  0.065566  0.434440  1
  Hf  Hf13  1  0.065307  0.435250  0.065309  1
  Hf  Hf14  1  0.065346  0.435207  0.434099  1
  Hf  Hf15  1  0.434417  0.065595  0.065565  1
  Ir  Ir16  1  0.765634  0.409810  0.412284  1
  Ir  Ir17  1  0.411281  0.766155  0.411275  1
  Ir  Ir18  1  0.412284  0.409801  0.765639  1
  Ir  Ir19  1  0.412268  0.409822  0.412273  1
  Ir  Ir20  1  0.484354  0.840200  0.837717  1
  Ir  Ir21  1  0.838724  0.483836  0.838726  1
  Ir  Ir22  1  0.837717  0.840207  0.484354  1
  Ir  Ir23  1  0.837734  0.840187  0.837727  1
  C  C24  1  0.125001  0.624998  0.125000  1
  N  N25  1  0.625001  0.125000  0.124999  1
  N  N26  1  0.125000  0.125001  0.625000  1
  N  N27  1  0.124999  0.125001  0.125000  1
