# generated using pymatgen
data_Na2Ga3SiPt4
_symmetry_space_group_name_H-M   'P 1'
_cell_length_a   4.16495700
_cell_length_b   4.16495700
_cell_length_c   10.60474500
_cell_angle_alpha   90.00000000
_cell_angle_beta   90.00000000
_cell_angle_gamma   90.00000000
_symmetry_Int_Tables_number   1
_chemical_formula_structural   Na2Ga3SiPt4
_chemical_formula_sum   'Na2 Ga3 Si1 Pt4'
_cell_volume   183.95909909
_cell_formula_units_Z   1
loop_
 _symmetry_equiv_pos_site_id
 _symmetry_equiv_pos_as_xyz
  1  'x, y, z'
loop_
 _atom_site_type_symbol
 _atom_site_label
 _atom_site_symmetry_multiplicity
 _atom_site_fract_x
 _atom_site_fract_y
 _atom_site_fract_z
 _atom_site_occupancy
  Na  Na0  1  0.000000  0.500000  0.247072  1
  Na  Na1  1  0.500000  0.000000  0.752728  1
  Ga  Ga2  1  0.000000  0.000000  0.494294  1
  Ga  Ga3  1  0.500000  0.500000  0.494294  1
  Ga  Ga4  1  0.000000  0.500000  0.867576  1
  Si  Si5  1  0.500000  0.000000  0.131567  1
  Pt  Pt6  1  0.000000  0.000000  0.013472  1
  Pt  Pt7  1  0.500000  0.500000  0.013472  1
  Pt  Pt8  1  0.000000  0.500000  0.632342  1
  Pt  Pt9  1  0.500000  0.000000  0.353185  1
