# generated using pymatgen
data_InGa6Mo5O18
_symmetry_space_group_name_H-M   'P 1'
_cell_length_a   5.81752400
_cell_length_b   5.81752351
_cell_length_c   12.09916500
_cell_angle_alpha   90.00000000
_cell_angle_beta   90.00000000
_cell_angle_gamma   120.00000281
_symmetry_Int_Tables_number   1
_chemical_formula_structural   InGa6Mo5O18
_chemical_formula_sum   'In1 Ga6 Mo5 O18'
_cell_volume   354.61928441
_cell_formula_units_Z   1
loop_
 _symmetry_equiv_pos_site_id
 _symmetry_equiv_pos_as_xyz
  1  'x, y, z'
loop_
 _atom_site_type_symbol
 _atom_site_label
 _atom_site_symmetry_multiplicity
 _atom_site_fract_x
 _atom_site_fract_y
 _atom_site_fract_z
 _atom_site_occupancy
  In  In0  1  0.000000  0.000000  0.481626  1
  Ga  Ga1  1  0.665640  0.665640  0.728288  1
  Ga  Ga2  1  0.000000  0.334360  0.728288  1
  Ga  Ga3  1  0.333612  0.333612  0.227418  1
  Ga  Ga4  1  0.000000  0.666388  0.227418  1
  Ga  Ga5  1  0.334360  0.000000  0.728288  1
  Ga  Ga6  1  0.666388  0.000000  0.227418  1
  Mo  Mo7  1  0.666667  0.333333  0.977302  1
  Mo  Mo8  1  0.333333  0.666667  0.476773  1
  Mo  Mo9  1  0.666667  0.333333  0.476773  1
  Mo  Mo10  1  0.333333  0.666667  0.977302  1
  Mo  Mo11  1  0.000000  0.000000  0.978773  1
  O  O12  1  0.669271  0.669271  0.892946  1
  O  O13  1  0.000000  0.330729  0.892946  1
  O  O14  1  0.335338  0.335338  0.391961  1
  O  O15  1  0.000000  0.664662  0.391961  1
  O  O16  1  0.330729  0.000000  0.892946  1
  O  O17  1  0.664662  0.000000  0.391961  1
  O  O18  1  0.658687  0.658687  0.563677  1
  O  O19  1  0.000000  0.341313  0.563677  1
  O  O20  1  0.334778  0.334778  0.062198  1
  O  O21  1  0.000000  0.665222  0.062198  1
  O  O22  1  0.341313  0.000000  0.563677  1
  O  O23  1  0.665222  0.000000  0.062198  1
  O  O24  1  0.000000  0.000000  0.722405  1
  O  O25  1  0.000000  0.000000  0.226480  1
  O  O26  1  0.666667  0.333333  0.730479  1
  O  O27  1  0.333333  0.666667  0.226958  1
  O  O28  1  0.666667  0.333333  0.226958  1
  O  O29  1  0.333333  0.666667  0.730479  1
