# generated using pymatgen
data_SmCr4Bi3F28
_symmetry_space_group_name_H-M   'P 1'
_cell_length_a   5.61297536
_cell_length_b   9.03069700
_cell_length_c   11.92291410
_cell_angle_alpha   62.32996057
_cell_angle_beta   90.05047051
_cell_angle_gamma   89.83311342
_symmetry_Int_Tables_number   1
_chemical_formula_structural   SmCr4Bi3F28
_chemical_formula_sum   'Sm1 Cr4 Bi3 F28'
_cell_volume   535.24071581
_cell_formula_units_Z   1
loop_
 _symmetry_equiv_pos_site_id
 _symmetry_equiv_pos_as_xyz
  1  'x, y, z'
loop_
 _atom_site_type_symbol
 _atom_site_label
 _atom_site_symmetry_multiplicity
 _atom_site_fract_x
 _atom_site_fract_y
 _atom_site_fract_z
 _atom_site_occupancy
  Sm  Sm0  1  0.732904  0.805837  0.264299  1
  Cr  Cr1  1  0.758464  0.272744  0.957687  1
  Cr  Cr2  1  0.257847  0.725432  0.541954  1
  Cr  Cr3  1  0.241871  0.726249  0.043545  1
  Cr  Cr4  1  0.742704  0.275462  0.456595  1
  Bi  Bi5  1  0.776250  0.811682  0.762242  1
  Bi  Bi6  1  0.274600  0.187028  0.738017  1
  Bi  Bi7  1  0.225602  0.182831  0.237604  1
  F  F8  1  0.426092  0.709669  0.924039  1
  F  F9  1  0.925555  0.291688  0.577488  1
  F  F10  1  0.575075  0.291234  0.077058  1
  F  F11  1  0.067663  0.711791  0.420808  1
  F  F12  1  0.457037  0.281771  0.543260  1
  F  F13  1  0.956668  0.720070  0.956703  1
  F  F14  1  0.538967  0.719079  0.454703  1
  F  F15  1  0.044707  0.279974  0.042880  1
  F  F16  1  0.768363  0.501670  0.864166  1
  F  F17  1  0.267036  0.497831  0.634244  1
  F  F18  1  0.229694  0.499965  0.136915  1
  F  F19  1  0.733900  0.506320  0.363825  1
  F  F20  1  0.757410  0.042283  0.048917  1
  F  F21  1  0.256250  0.957144  0.452686  1
  F  F22  1  0.241758  0.957977  0.952979  1
  F  F23  1  0.743288  0.043997  0.547250  1
  F  F24  1  0.979576  0.729382  0.631980  1
  F  F25  1  0.479038  0.270331  0.867266  1
  F  F26  1  0.019788  0.270844  0.367886  1
  F  F27  1  0.517047  0.730186  0.135008  1
  F  F28  1  0.052986  0.747022  0.164920  1
  F  F29  1  0.560601  0.258830  0.334490  1
  F  F30  1  0.940552  0.254885  0.834717  1
  F  F31  1  0.441131  0.743737  0.663815  1
  F  F32  1  0.401018  0.970554  0.224720  1
  F  F33  1  0.903809  0.026582  0.274721  1
  F  F34  1  0.602347  0.028722  0.776835  1
  F  F35  1  0.102403  0.969195  0.723777  1
