# generated using pymatgen
data_Th3Al2GaPtRh2
_symmetry_space_group_name_H-M   'P 1'
_cell_length_a   7.33981000
_cell_length_b   7.28041639
_cell_length_c   4.09524200
_cell_angle_alpha   90.00000000
_cell_angle_beta   90.00000000
_cell_angle_gamma   120.27024238
_symmetry_Int_Tables_number   1
_chemical_formula_structural   Th3Al2GaPtRh2
_chemical_formula_sum   'Th3 Al2 Ga1 Pt1 Rh2'
_cell_volume   189.00014651
_cell_formula_units_Z   1
loop_
 _symmetry_equiv_pos_site_id
 _symmetry_equiv_pos_as_xyz
  1  'x, y, z'
loop_
 _atom_site_type_symbol
 _atom_site_label
 _atom_site_symmetry_multiplicity
 _atom_site_fract_x
 _atom_site_fract_y
 _atom_site_fract_z
 _atom_site_occupancy
  Th  Th0  1  0.998257  0.417718  0.500000  1
  Th  Th1  1  0.580539  0.582282  0.500000  1
  Th  Th2  1  0.423238  0.000000  0.500000  1
  Al  Al3  1  0.000830  0.765032  0.000000  1
  Al  Al4  1  0.235798  0.234968  0.000000  1
  Ga  Ga5  1  0.760193  0.000000  0.000000  1
  Pt  Pt6  1  0.010371  0.000000  0.500000  1
  Rh  Rh7  1  0.326502  0.662232  0.000000  1
  Rh  Rh8  1  0.664272  0.337768  0.000000  1
