# generated using pymatgen
data_Ce2Zr3InF22
_symmetry_space_group_name_H-M   'P 1'
_cell_length_a   8.44122892
_cell_length_b   8.44122907
_cell_length_c   8.47837322
_cell_angle_alpha   124.61412580
_cell_angle_beta   106.34952413
_cell_angle_gamma   98.43682119
_symmetry_Int_Tables_number   1
_chemical_formula_structural   Ce2Zr3InF22
_chemical_formula_sum   'Ce2 Zr3 In1 F22'
_cell_volume   439.65519235
_cell_formula_units_Z   1
loop_
 _symmetry_equiv_pos_site_id
 _symmetry_equiv_pos_as_xyz
  1  'x, y, z'
loop_
 _atom_site_type_symbol
 _atom_site_label
 _atom_site_symmetry_multiplicity
 _atom_site_fract_x
 _atom_site_fract_y
 _atom_site_fract_z
 _atom_site_occupancy
  Ce  Ce0  1  0.749191  0.247094  0.494652  1
  Ce  Ce1  1  0.247558  0.745462  0.494652  1
  Zr  Zr2  1  0.321995  0.366791  0.688786  1
  Zr  Zr3  1  0.179286  0.866619  0.045905  1
  Zr  Zr4  1  0.815373  0.136089  0.951462  1
  In  In5  1  0.682077  0.638367  0.320444  1
  F  F6  1  0.706620  0.911517  0.347824  1
  F  F7  1  0.293156  0.096769  0.652156  1
  F  F8  1  0.555386  0.359001  0.652156  1
  F  F9  1  0.944899  0.601038  0.808789  1
  F  F10  1  0.436308  0.641203  0.347824  1
  F  F11  1  0.058015  0.394899  0.188086  1
  F  F12  1  0.793186  0.130070  0.188086  1
  F  F13  1  0.207751  0.863890  0.808789  1
  F  F14  1  0.496952  0.497290  0.994243  1
  F  F15  1  0.001163  0.001990  0.003153  1
  F  F16  1  0.782349  0.877938  0.660286  1
  F  F17  1  0.220636  0.129954  0.350590  1
  F  F18  1  0.280051  0.630747  0.910798  1
  F  F19  1  0.718756  0.366460  0.085215  1
  F  F20  1  0.966544  0.737234  0.422121  1
  F  F21  1  0.046382  0.262991  0.583181  1
  F  F22  1  0.320191  0.536799  0.583181  1
  F  F23  1  0.174245  0.759003  0.212734  1
  F  F24  1  0.684888  0.455577  0.422121  1
  F  F25  1  0.823812  0.245517  0.785015  1
  F  F26  1  0.539498  0.961203  0.785015  1
  F  F27  1  0.453731  0.038488  0.212734  1
