# generated using pymatgen
data_Y3TmFeOs7
_symmetry_space_group_name_H-M   'P 1'
_cell_length_a   5.29240820
_cell_length_b   5.29216200
_cell_length_c   8.79472790
_cell_angle_alpha   89.93811076
_cell_angle_beta   89.93859656
_cell_angle_gamma   60.77945866
_symmetry_Int_Tables_number   1
_chemical_formula_structural   Y3TmFeOs7
_chemical_formula_sum   'Y3 Tm1 Fe1 Os7'
_cell_volume   214.97945436
_cell_formula_units_Z   1
loop_
 _symmetry_equiv_pos_site_id
 _symmetry_equiv_pos_as_xyz
  1  'x, y, z'
loop_
 _atom_site_type_symbol
 _atom_site_label
 _atom_site_symmetry_multiplicity
 _atom_site_fract_x
 _atom_site_fract_y
 _atom_site_fract_z
 _atom_site_occupancy
  Y  Y0  1  0.667360  0.667899  0.434261  1
  Y  Y1  1  0.667400  0.667608  0.066055  1
  Y  Y2  1  0.330808  0.331319  0.935654  1
  Tm  Tm3  1  0.330662  0.331522  0.563995  1
  Fe  Fe4  1  0.168075  0.168344  0.250917  1
  Os  Os5  1  0.998738  0.999494  0.498322  1
  Os  Os6  1  0.998424  0.998959  0.002211  1
  Os  Os7  1  0.826922  0.344778  0.748829  1
  Os  Os8  1  0.347303  0.825511  0.748822  1
  Os  Os9  1  0.831416  0.831370  0.748952  1
  Os  Os10  1  0.177687  0.655327  0.250986  1
  Os  Os11  1  0.655208  0.177868  0.250994  1
