# generated using pymatgen
data_Sc4Al5Re2Mo
_symmetry_space_group_name_H-M   'P 1'
_cell_length_a   5.35746000
_cell_length_b   5.36774520
_cell_length_c   8.61830500
_cell_angle_alpha   90.00000000
_cell_angle_beta   90.00000000
_cell_angle_gamma   119.93663572
_symmetry_Int_Tables_number   1
_chemical_formula_structural   Sc4Al5Re2Mo
_chemical_formula_sum   'Sc4 Al5 Re2 Mo1'
_cell_volume   214.77328724
_cell_formula_units_Z   1
loop_
 _symmetry_equiv_pos_site_id
 _symmetry_equiv_pos_as_xyz
  1  'x, y, z'
loop_
 _atom_site_type_symbol
 _atom_site_label
 _atom_site_symmetry_multiplicity
 _atom_site_fract_x
 _atom_site_fract_y
 _atom_site_fract_z
 _atom_site_occupancy
  Sc  Sc0  1  0.668030  0.336058  0.053137  1
  Sc  Sc1  1  0.668030  0.336058  0.446863  1
  Sc  Sc2  1  0.332975  0.665952  0.553375  1
  Sc  Sc3  1  0.332975  0.665952  0.946624  1
  Al  Al4  1  0.151576  0.808200  0.250000  1
  Al  Al5  1  0.656624  0.808200  0.250000  1
  Al  Al6  1  0.334293  0.170321  0.750000  1
  Al  Al7  1  0.836027  0.170321  0.750000  1
  Al  Al8  1  0.837957  0.675914  0.750000  1
  Re  Re9  1  0.010673  0.021345  0.006624  1
  Re  Re10  1  0.010673  0.021345  0.493376  1
  Mo  Mo11  1  0.160167  0.320333  0.250000  1
