# generated using pymatgen
data_Tm2ZnNiRu
_symmetry_space_group_name_H-M   'P 1'
_cell_length_a   5.33471174
_cell_length_b   5.33471066
_cell_length_c   5.33471060
_cell_angle_alpha   135.11119061
_cell_angle_beta   116.69408637
_cell_angle_gamma   80.92631462
_symmetry_Int_Tables_number   1
_chemical_formula_structural   Tm2ZnNiRu
_chemical_formula_sum   'Tm2 Zn1 Ni1 Ru1'
_cell_volume   92.56970130
_cell_formula_units_Z   1
loop_
 _symmetry_equiv_pos_site_id
 _symmetry_equiv_pos_as_xyz
  1  'x, y, z'
loop_
 _atom_site_type_symbol
 _atom_site_label
 _atom_site_symmetry_multiplicity
 _atom_site_fract_x
 _atom_site_fract_y
 _atom_site_fract_z
 _atom_site_occupancy
  Tm  Tm0  1  0.699820  0.205343  0.494478  1
  Tm  Tm1  1  0.289135  0.794657  0.494478  1
  Zn  Zn2  1  0.995293  0.000000  0.995293  1
  Ni  Ni3  1  0.732885  0.500000  0.232885  1
  Ru  Ru4  1  0.282869  0.500000  0.782869  1
