# generated using pymatgen
data_Ho4Fe7Ni13P12
_symmetry_space_group_name_H-M   'P 1'
_cell_length_a   3.69667200
_cell_length_b   10.28935738
_cell_length_c   11.85748455
_cell_angle_alpha   89.76184290
_cell_angle_beta   90.00000000
_cell_angle_gamma   90.00000000
_symmetry_Int_Tables_number   1
_chemical_formula_structural   Ho4Fe7Ni13P12
_chemical_formula_sum   'Ho4 Fe7 Ni13 P12'
_cell_volume   451.01188368
_cell_formula_units_Z   1
loop_
 _symmetry_equiv_pos_site_id
 _symmetry_equiv_pos_as_xyz
  1  'x, y, z'
loop_
 _atom_site_type_symbol
 _atom_site_label
 _atom_site_symmetry_multiplicity
 _atom_site_fract_x
 _atom_site_fract_y
 _atom_site_fract_z
 _atom_site_occupancy
  Ho  Ho0  1  0.250000  0.574936  0.704918  1
  Ho  Ho1  1  0.250000  0.923104  0.205036  1
  Ho  Ho2  1  0.750000  0.422247  0.294614  1
  Ho  Ho3  1  0.750000  0.078793  0.795545  1
  Fe  Fe4  1  0.250000  0.628662  0.201736  1
  Fe  Fe5  1  0.750000  0.127678  0.298285  1
  Fe  Fe6  1  0.750000  0.372978  0.798937  1
  Fe  Fe7  1  0.250000  0.462543  0.932147  1
  Fe  Fe8  1  0.250000  0.036740  0.432492  1
  Fe  Fe9  1  0.750000  0.539825  0.067759  1
  Fe  Fe10  1  0.750000  0.960606  0.569681  1
  Ni  Ni11  1  0.250000  0.712312  0.993789  1
  Ni  Ni12  1  0.250000  0.783133  0.496823  1
  Ni  Ni13  1  0.750000  0.288591  0.006652  1
  Ni  Ni14  1  0.750000  0.211648  0.508252  1
  Ni  Ni15  1  0.250000  0.407404  0.483976  1
  Ni  Ni16  1  0.250000  0.092519  0.985388  1
  Ni  Ni17  1  0.750000  0.588415  0.513658  1
  Ni  Ni18  1  0.750000  0.908467  0.013947  1
  Ni  Ni19  1  0.250000  0.229190  0.170051  1
  Ni  Ni20  1  0.250000  0.272595  0.671484  1
  Ni  Ni21  1  0.750000  0.771984  0.823834  1
  Ni  Ni22  1  0.750000  0.728498  0.329891  1
  Ni  Ni23  1  0.250000  0.873819  0.703430  1
  P  P24  1  0.250000  0.435576  0.113853  1
  P  P25  1  0.250000  0.070277  0.611809  1
  P  P26  1  0.750000  0.567511  0.886250  1
  P  P27  1  0.750000  0.933721  0.386908  1
  P  P28  1  0.250000  0.270187  0.863586  1
  P  P29  1  0.250000  0.229795  0.362837  1
  P  P30  1  0.750000  0.731303  0.137810  1
  P  P31  1  0.750000  0.764313  0.630995  1
  P  P32  1  0.250000  0.605394  0.388832  1
  P  P33  1  0.250000  0.895351  0.894031  1
  P  P34  1  0.750000  0.393242  0.610380  1
  P  P35  1  0.750000  0.106644  0.110380  1
