# generated using pymatgen
data_LaLu6Sn23Os6
_symmetry_space_group_name_H-M   'P 1'
_cell_length_a   9.81317700
_cell_length_b   9.81317725
_cell_length_c   10.09158600
_cell_angle_alpha   90.00000000
_cell_angle_beta   90.00000000
_cell_angle_gamma   120.00000926
_symmetry_Int_Tables_number   1
_chemical_formula_structural   LaLu6Sn23Os6
_chemical_formula_sum   'La1 Lu6 Sn23 Os6'
_cell_volume   841.60690984
_cell_formula_units_Z   1
loop_
 _symmetry_equiv_pos_site_id
 _symmetry_equiv_pos_as_xyz
  1  'x, y, z'
loop_
 _atom_site_type_symbol
 _atom_site_label
 _atom_site_symmetry_multiplicity
 _atom_site_fract_x
 _atom_site_fract_y
 _atom_site_fract_z
 _atom_site_occupancy
  La  La0  1  0.000000  0.000000  0.000000  1
  Lu  Lu1  1  0.489073  0.510927  0.299799  1
  Lu  Lu2  1  0.510927  0.489073  0.700201  1
  Lu  Lu3  1  0.489073  0.978145  0.299799  1
  Lu  Lu4  1  0.510927  0.021855  0.700201  1
  Lu  Lu5  1  0.021855  0.510927  0.299799  1
  Lu  Lu6  1  0.978145  0.489073  0.700201  1
  Sn  Sn7  1  0.351320  0.000000  0.000000  1
  Sn  Sn8  1  0.648680  0.000000  0.000000  1
  Sn  Sn9  1  0.000000  0.351320  0.000000  1
  Sn  Sn10  1  0.000000  0.648680  0.000000  1
  Sn  Sn11  1  0.648680  0.648680  0.000000  1
  Sn  Sn12  1  0.351320  0.351320  0.000000  1
  Sn  Sn13  1  0.333333  0.666667  0.830572  1
  Sn  Sn14  1  0.666667  0.333333  0.169428  1
  Sn  Sn15  1  0.000000  0.000000  0.500000  1
  Sn  Sn16  1  0.777513  0.222487  0.466097  1
  Sn  Sn17  1  0.222487  0.777513  0.533903  1
  Sn  Sn18  1  0.777513  0.555027  0.466097  1
  Sn  Sn19  1  0.222487  0.444973  0.533903  1
  Sn  Sn20  1  0.444973  0.222487  0.466097  1
  Sn  Sn21  1  0.555027  0.777513  0.533903  1
  Sn  Sn22  1  0.333333  0.666667  0.138908  1
  Sn  Sn23  1  0.666667  0.333333  0.861092  1
  Sn  Sn24  1  0.119636  0.880364  0.280644  1
  Sn  Sn25  1  0.880364  0.119636  0.719356  1
  Sn  Sn26  1  0.119636  0.239274  0.280644  1
  Sn  Sn27  1  0.880364  0.760726  0.719356  1
  Sn  Sn28  1  0.760726  0.880364  0.280644  1
  Sn  Sn29  1  0.239274  0.119636  0.719356  1
  Os  Os30  1  0.827920  0.172080  0.204471  1
  Os  Os31  1  0.172080  0.827920  0.795529  1
  Os  Os32  1  0.827920  0.655840  0.204471  1
  Os  Os33  1  0.172080  0.344160  0.795529  1
  Os  Os34  1  0.344160  0.172080  0.204471  1
  Os  Os35  1  0.655840  0.827920  0.795529  1
