# generated using pymatgen
data_DyGaCo3B
_symmetry_space_group_name_H-M   'P 1'
_cell_length_a   5.16891900
_cell_length_b   5.16892900
_cell_length_c   6.65467700
_cell_angle_alpha   90.00000000
_cell_angle_beta   90.00000000
_cell_angle_gamma   119.99992960
_symmetry_Int_Tables_number   1
_chemical_formula_structural   DyGaCo3B
_chemical_formula_sum   'Dy2 Ga2 Co6 B2'
_cell_volume   153.97783678
_cell_formula_units_Z   2
loop_
 _symmetry_equiv_pos_site_id
 _symmetry_equiv_pos_as_xyz
  1  'x, y, z'
loop_
 _atom_site_type_symbol
 _atom_site_label
 _atom_site_symmetry_multiplicity
 _atom_site_fract_x
 _atom_site_fract_y
 _atom_site_fract_z
 _atom_site_occupancy
  Dy  Dy0  1  0.999990  0.000000  0.000000  1
  Dy  Dy1  1  0.999982  0.000000  0.500000  1
  Ga  Ga2  1  0.333288  0.666609  0.000000  1
  Ga  Ga3  1  0.666679  0.333391  0.000000  1
  Co  Co4  1  0.499988  0.000000  0.294636  1
  Co  Co5  1  0.499981  0.500001  0.294686  1
  Co  Co6  1  0.999980  0.499999  0.294686  1
  Co  Co7  1  0.499988  0.000000  0.705364  1
  Co  Co8  1  0.499981  0.500001  0.705314  1
  Co  Co9  1  0.999980  0.499999  0.705314  1
  B  B10  1  0.333316  0.666669  0.500000  1
  B  B11  1  0.666647  0.333331  0.500000  1
