# generated using pymatgen
data_Zr2V12P7
_symmetry_space_group_name_H-M   'P 1'
_cell_length_a   9.99844100
_cell_length_b   9.99844097
_cell_length_c   3.28697600
_cell_angle_alpha   90.00000000
_cell_angle_beta   90.00000000
_cell_angle_gamma   120.00001003
_symmetry_Int_Tables_number   1
_chemical_formula_structural   Zr2V12P7
_chemical_formula_sum   'Zr2 V12 P7'
_cell_volume   284.57169183
_cell_formula_units_Z   1
loop_
 _symmetry_equiv_pos_site_id
 _symmetry_equiv_pos_as_xyz
  1  'x, y, z'
loop_
 _atom_site_type_symbol
 _atom_site_label
 _atom_site_symmetry_multiplicity
 _atom_site_fract_x
 _atom_site_fract_y
 _atom_site_fract_z
 _atom_site_occupancy
  Zr  Zr0  1  0.333333  0.666667  0.000000  1
  Zr  Zr1  1  0.666667  0.333333  0.500000  1
  V  V2  1  0.435096  0.049208  0.000000  1
  V  V3  1  0.950792  0.385889  0.000000  1
  V  V4  1  0.614111  0.564904  0.000000  1
  V  V5  1  0.387215  0.431869  0.500000  1
  V  V6  1  0.568131  0.955346  0.500000  1
  V  V7  1  0.044654  0.612785  0.500000  1
  V  V8  1  0.166119  0.276748  0.000000  1
  V  V9  1  0.723252  0.889371  0.000000  1
  V  V10  1  0.110629  0.833881  0.000000  1
  V  V11  1  0.212180  0.082543  0.500000  1
  V  V12  1  0.917457  0.129636  0.500000  1
  V  V13  1  0.870364  0.787820  0.500000  1
  P  P14  1  0.135969  0.428093  0.500000  1
  P  P15  1  0.571907  0.707875  0.500000  1
  P  P16  1  0.292125  0.864031  0.500000  1
  P  P17  1  0.000000  0.000000  0.000000  1
  P  P18  1  0.417090  0.276771  0.000000  1
  P  P19  1  0.723229  0.140320  0.000000  1
  P  P20  1  0.859680  0.582910  0.000000  1
