# generated using pymatgen
data_BaSr3LiV(WO6)2
_symmetry_space_group_name_H-M   'P 1'
_cell_length_a   5.65493565
_cell_length_b   5.68190991
_cell_length_c   9.89938800
_cell_angle_alpha   72.70102704
_cell_angle_beta   90.17589171
_cell_angle_gamma   119.81039158
_symmetry_Int_Tables_number   1
_chemical_formula_structural   BaSr3LiV(WO6)2
_chemical_formula_sum   'Ba1 Sr3 Li1 V1 W2 O12'
_cell_volume   259.44851589
_cell_formula_units_Z   1
loop_
 _symmetry_equiv_pos_site_id
 _symmetry_equiv_pos_as_xyz
  1  'x, y, z'
loop_
 _atom_site_type_symbol
 _atom_site_label
 _atom_site_symmetry_multiplicity
 _atom_site_fract_x
 _atom_site_fract_y
 _atom_site_fract_z
 _atom_site_occupancy
  Ba  Ba0  1  0.376994  0.753771  0.869271  1
  Sr  Sr1  1  0.628059  0.254773  0.118954  1
  Sr  Sr2  1  0.122521  0.245409  0.629955  1
  Sr  Sr3  1  0.871393  0.744093  0.382475  1
  Li  Li4  1  0.750408  0.500781  0.748697  1
  V  V5  1  0.249800  0.499659  0.250563  1
  W  W6  1  0.000462  0.000787  0.000509  1
  W  W7  1  0.499575  0.999333  0.499295  1
  O  O8  1  0.116462  0.233555  0.128345  1
  O  O9  1  0.624227  0.248854  0.611375  1
  O  O10  1  0.379379  0.251154  0.372184  1
  O  O11  1  0.876052  0.235938  0.884879  1
  O  O12  1  0.629401  0.748395  0.129472  1
  O  O13  1  0.138585  0.765375  0.612456  1
  O  O14  1  0.381463  0.762365  0.373798  1
  O  O15  1  0.877781  0.755471  0.886558  1
  O  O16  1  0.119034  0.748651  0.129603  1
  O  O17  1  0.626457  0.764786  0.613293  1
  O  O18  1  0.872344  0.251442  0.372583  1
  O  O19  1  0.359600  0.235408  0.885734  1
