# generated using pymatgen
data_Cs2CaTaNb5Br18
_symmetry_space_group_name_H-M   'P 1'
_cell_length_a   10.95518086
_cell_length_b   10.94961230
_cell_length_c   10.96000247
_cell_angle_alpha   55.08942678
_cell_angle_beta   55.03536303
_cell_angle_gamma   55.07577027
_symmetry_Int_Tables_number   1
_chemical_formula_structural   Cs2CaTaNb5Br18
_chemical_formula_sum   'Cs2 Ca1 Ta1 Nb5 Br18'
_cell_volume   822.96361651
_cell_formula_units_Z   1
loop_
 _symmetry_equiv_pos_site_id
 _symmetry_equiv_pos_as_xyz
  1  'x, y, z'
loop_
 _atom_site_type_symbol
 _atom_site_label
 _atom_site_symmetry_multiplicity
 _atom_site_fract_x
 _atom_site_fract_y
 _atom_site_fract_z
 _atom_site_occupancy
  Cs  Cs0  1  0.722819  0.722857  0.722768  1
  Cs  Cs1  1  0.277166  0.277134  0.277388  1
  Ca  Ca2  1  0.000437  0.999789  0.000071  1
  Ta  Ta3  1  0.578706  0.359589  0.691611  1
  Nb  Nb4  1  0.359234  0.692223  0.579012  1
  Nb  Nb5  1  0.692315  0.578907  0.359279  1
  Nb  Nb6  1  0.640810  0.307671  0.421093  1
  Nb  Nb7  1  0.420711  0.641307  0.307051  1
  Nb  Nb8  1  0.307753  0.421009  0.640800  1
  Br  Br9  1  0.908300  0.361406  0.228917  1
  Br  Br10  1  0.832715  0.422391  0.565308  1
  Br  Br11  1  0.770179  0.092931  0.639552  1
  Br  Br12  1  0.091654  0.638679  0.770962  1
  Br  Br13  1  0.684948  0.170159  0.958921  1
  Br  Br14  1  0.229208  0.907942  0.361490  1
  Br  Br15  1  0.436045  0.166045  0.576712  1
  Br  Br16  1  0.638513  0.770750  0.092067  1
  Br  Br17  1  0.576723  0.436125  0.166301  1
  Br  Br18  1  0.039806  0.314255  0.830870  1
  Br  Br19  1  0.563902  0.834060  0.423191  1
  Br  Br20  1  0.362984  0.229263  0.907585  1
  Br  Br21  1  0.960183  0.685647  0.169262  1
  Br  Br22  1  0.166308  0.576725  0.436116  1
  Br  Br23  1  0.830797  0.039825  0.314350  1
  Br  Br24  1  0.424301  0.562333  0.833779  1
  Br  Br25  1  0.169146  0.960145  0.685792  1
  Br  Br26  1  0.314336  0.830834  0.039753  1
