# generated using pymatgen
data_Er6Sc4Bi5Pb
_symmetry_space_group_name_H-M   'P 1'
_cell_length_a   8.94771600
_cell_length_b   8.94981675
_cell_length_c   6.18164700
_cell_angle_alpha   90.00000000
_cell_angle_beta   90.00000000
_cell_angle_gamma   119.99223566
_symmetry_Int_Tables_number   1
_chemical_formula_structural   Er6Sc4Bi5Pb
_chemical_formula_sum   'Er6 Sc4 Bi5 Pb1'
_cell_volume   428.74112218
_cell_formula_units_Z   1
loop_
 _symmetry_equiv_pos_site_id
 _symmetry_equiv_pos_as_xyz
  1  'x, y, z'
loop_
 _atom_site_type_symbol
 _atom_site_label
 _atom_site_symmetry_multiplicity
 _atom_site_fract_x
 _atom_site_fract_y
 _atom_site_fract_z
 _atom_site_occupancy
  Er  Er0  1  0.239415  0.000000  0.250000  1
  Er  Er1  1  0.241304  0.237504  0.750000  1
  Er  Er2  1  0.003800  0.762496  0.750000  1
  Er  Er3  1  0.998631  0.239487  0.250000  1
  Er  Er4  1  0.759143  0.760513  0.250000  1
  Er  Er5  1  0.758332  0.000000  0.750000  1
  Sc  Sc6  1  0.333517  0.667650  0.999531  1
  Sc  Sc7  1  0.665868  0.332350  0.500469  1
  Sc  Sc8  1  0.665868  0.332350  0.999531  1
  Sc  Sc9  1  0.333517  0.667650  0.500469  1
  Bi  Bi10  1  0.602874  0.000000  0.250000  1
  Bi  Bi11  1  0.605731  0.604991  0.750000  1
  Bi  Bi12  1  0.000740  0.395009  0.750000  1
  Bi  Bi13  1  0.999088  0.604295  0.250000  1
  Bi  Bi14  1  0.394794  0.395705  0.250000  1
  Pb  Pb15  1  0.397378  0.000000  0.750000  1
