# generated using pymatgen
data_Y5Ho5(InSb2)2
_symmetry_space_group_name_H-M   'P 1'
_cell_length_a   8.97443012
_cell_length_b   8.96585374
_cell_length_c   6.45288000
_cell_angle_alpha   90.00005631
_cell_angle_beta   90.00000001
_cell_angle_gamma   120.00791078
_symmetry_Int_Tables_number   1
_chemical_formula_structural   Y5Ho5(InSb2)2
_chemical_formula_sum   'Y5 Ho5 In2 Sb4'
_cell_volume   449.62259283
_cell_formula_units_Z   1
loop_
 _symmetry_equiv_pos_site_id
 _symmetry_equiv_pos_as_xyz
  1  'x, y, z'
loop_
 _atom_site_type_symbol
 _atom_site_label
 _atom_site_symmetry_multiplicity
 _atom_site_fract_x
 _atom_site_fract_y
 _atom_site_fract_z
 _atom_site_occupancy
  Y  Y0  1  0.758266  0.998640  0.750000  1
  Y  Y1  1  0.758468  0.759739  0.250000  1
  Y  Y2  1  0.001990  0.242197  0.250000  1
  Y  Y3  1  0.002052  0.759672  0.750001  1
  Y  Y4  1  0.240868  0.237411  0.750002  1
  Ho  Ho5  1  0.334747  0.667396  0.000023  1
  Ho  Ho6  1  0.663332  0.331656  0.499960  1
  Ho  Ho7  1  0.663329  0.331653  0.000040  1
  Ho  Ho8  1  0.334746  0.667395  0.499975  1
  Ho  Ho9  1  0.241014  0.003513  0.249999  1
  In  In10  1  0.395250  0.998203  0.750001  1
  In  In11  1  0.395134  0.396673  0.250001  1
  Sb  Sb12  1  0.999615  0.607578  0.250000  1
  Sb  Sb13  1  0.999265  0.392170  0.750000  1
  Sb  Sb14  1  0.606080  0.605809  0.749999  1
  Sb  Sb15  1  0.605843  0.000295  0.250000  1
