# generated using pymatgen
data_HoEr3Tc2(B8Ru)2
_symmetry_space_group_name_H-M   'P 1'
_cell_length_a   3.56477600
_cell_length_b   5.94744684
_cell_length_c   11.50375018
_cell_angle_alpha   90.17451305
_cell_angle_beta   90.00000000
_cell_angle_gamma   90.00000000
_symmetry_Int_Tables_number   1
_chemical_formula_structural   HoEr3Tc2(B8Ru)2
_chemical_formula_sum   'Ho1 Er3 Tc2 B16 Ru2'
_cell_volume   243.89350854
_cell_formula_units_Z   1
loop_
 _symmetry_equiv_pos_site_id
 _symmetry_equiv_pos_as_xyz
  1  'x, y, z'
loop_
 _atom_site_type_symbol
 _atom_site_label
 _atom_site_symmetry_multiplicity
 _atom_site_fract_x
 _atom_site_fract_y
 _atom_site_fract_z
 _atom_site_occupancy
  Ho  Ho0  1  0.000000  0.628851  0.351390  1
  Er  Er1  1  0.000000  0.371097  0.648565  1
  Er  Er2  1  0.000000  0.129207  0.150863  1
  Er  Er3  1  0.000000  0.870855  0.849138  1
  Tc  Tc4  1  0.000000  0.633514  0.088391  1
  Tc  Tc5  1  0.000000  0.366473  0.911470  1
  B  B6  1  0.500000  0.790412  0.185410  1
  B  B7  1  0.500000  0.209618  0.814493  1
  B  B8  1  0.500000  0.290127  0.314897  1
  B  B9  1  0.500000  0.709612  0.685102  1
  B  B10  1  0.500000  0.865351  0.031022  1
  B  B11  1  0.500000  0.134664  0.968971  1
  B  B12  1  0.500000  0.364220  0.469505  1
  B  B13  1  0.500000  0.635633  0.530683  1
  B  B14  1  0.500000  0.887622  0.452941  1
  B  B15  1  0.500000  0.112695  0.547198  1
  B  B16  1  0.500000  0.387057  0.047388  1
  B  B17  1  0.500000  0.612917  0.952598  1
  B  B18  1  0.500000  0.977140  0.307979  1
  B  B19  1  0.500000  0.023040  0.692020  1
  B  B20  1  0.500000  0.478298  0.192882  1
  B  B21  1  0.500000  0.521619  0.806956  1
  Ru  Ru22  1  0.000000  0.140942  0.407640  1
  Ru  Ru23  1  0.000000  0.859038  0.592498  1
