# generated using pymatgen
data_Pr5NdTi2(Co4P3)4
_symmetry_space_group_name_H-M   'P 1'
_cell_length_a   3.77593300
_cell_length_b   10.78050910
_cell_length_c   12.52381612
_cell_angle_alpha   89.98421170
_cell_angle_beta   90.00000000
_cell_angle_gamma   90.00000000
_symmetry_Int_Tables_number   1
_chemical_formula_structural   Pr5NdTi2(Co4P3)4
_chemical_formula_sum   'Pr5 Nd1 Ti2 Co16 P12'
_cell_volume   509.80045197
_cell_formula_units_Z   1
loop_
 _symmetry_equiv_pos_site_id
 _symmetry_equiv_pos_as_xyz
  1  'x, y, z'
loop_
 _atom_site_type_symbol
 _atom_site_label
 _atom_site_symmetry_multiplicity
 _atom_site_fract_x
 _atom_site_fract_y
 _atom_site_fract_z
 _atom_site_occupancy
  Pr  Pr0  1  0.000000  0.499912  0.524769  1
  Pr  Pr1  1  0.500000  0.000072  0.475133  1
  Pr  Pr2  1  0.500000  0.180171  0.205152  1
  Pr  Pr3  1  0.000000  0.680491  0.794976  1
  Pr  Pr4  1  0.000000  0.319664  0.795127  1
  Nd  Nd5  1  0.500000  0.819341  0.204530  1
  Ti  Ti6  1  0.500000  0.500332  0.151101  1
  Ti  Ti7  1  0.000000  0.999799  0.848919  1
  Co  Co8  1  0.500000  0.500128  0.704606  1
  Co  Co9  1  0.000000  0.998924  0.295121  1
  Co  Co10  1  0.000000  0.500384  0.989105  1
  Co  Co11  1  0.500000  0.999561  0.011575  1
  Co  Co12  1  0.500000  0.332421  0.995327  1
  Co  Co13  1  0.500000  0.667914  0.995426  1
  Co  Co14  1  0.000000  0.167268  0.005115  1
  Co  Co15  1  0.000000  0.832239  0.005317  1
  Co  Co16  1  0.500000  0.296115  0.431635  1
  Co  Co17  1  0.500000  0.704057  0.430844  1
  Co  Co18  1  0.000000  0.203772  0.568402  1
  Co  Co19  1  0.000000  0.796260  0.567961  1
  Co  Co20  1  0.500000  0.881074  0.706491  1
  Co  Co21  1  0.500000  0.118967  0.706713  1
  Co  Co22  1  0.000000  0.619523  0.292745  1
  Co  Co23  1  0.000000  0.381200  0.293494  1
  P  P24  1  0.500000  0.500188  0.888479  1
  P  P25  1  0.000000  0.999272  0.112285  1
  P  P26  1  0.500000  0.500141  0.347636  1
  P  P27  1  0.000000  0.999970  0.652300  1
  P  P28  1  0.500000  0.304748  0.613700  1
  P  P29  1  0.500000  0.695488  0.613319  1
  P  P30  1  0.000000  0.195173  0.386397  1
  P  P31  1  0.000000  0.805091  0.385218  1
  P  P32  1  0.500000  0.844972  0.895290  1
  P  P33  1  0.500000  0.154816  0.895583  1
  P  P34  1  0.000000  0.655542  0.105370  1
  P  P35  1  0.000000  0.345011  0.104839  1
