# generated using pymatgen
data_Er4ReOs6W
_symmetry_space_group_name_H-M   'P 1'
_cell_length_a   5.22667369
_cell_length_b   5.22667337
_cell_length_c   8.93386600
_cell_angle_alpha   90.00000000
_cell_angle_beta   90.00000000
_cell_angle_gamma   116.18491478
_symmetry_Int_Tables_number   1
_chemical_formula_structural   Er4ReOs6W
_chemical_formula_sum   'Er4 Re1 Os6 W1'
_cell_volume   219.01000037
_cell_formula_units_Z   1
loop_
 _symmetry_equiv_pos_site_id
 _symmetry_equiv_pos_as_xyz
  1  'x, y, z'
loop_
 _atom_site_type_symbol
 _atom_site_label
 _atom_site_symmetry_multiplicity
 _atom_site_fract_x
 _atom_site_fract_y
 _atom_site_fract_z
 _atom_site_occupancy
  Er  Er0  1  0.328698  0.671302  0.436848  1
  Er  Er1  1  0.667195  0.332805  0.565242  1
  Er  Er2  1  0.667195  0.332805  0.934758  1
  Er  Er3  1  0.328698  0.671302  0.063152  1
  Re  Re4  1  0.173900  0.826100  0.750000  1
  Os  Os5  1  0.996474  0.003526  0.502203  1
  Os  Os6  1  0.996474  0.003526  0.997797  1
  Os  Os7  1  0.825871  0.650791  0.250000  1
  Os  Os8  1  0.349209  0.174129  0.250000  1
  Os  Os9  1  0.171462  0.341400  0.750000  1
  Os  Os10  1  0.658600  0.828538  0.750000  1
  W  W11  1  0.836221  0.163779  0.250000  1
