# generated using pymatgen
data_Gd6TmRhO12
_symmetry_space_group_name_H-M   'P 1'
_cell_length_a   6.71577110
_cell_length_b   6.71577139
_cell_length_c   6.71577052
_cell_angle_alpha   94.36331850
_cell_angle_beta   94.36333684
_cell_angle_gamma   94.36334033
_symmetry_Int_Tables_number   1
_chemical_formula_structural   Gd6TmRhO12
_chemical_formula_sum   'Gd6 Tm1 Rh1 O12'
_cell_volume   300.11592949
_cell_formula_units_Z   1
loop_
 _symmetry_equiv_pos_site_id
 _symmetry_equiv_pos_as_xyz
  1  'x, y, z'
loop_
 _atom_site_type_symbol
 _atom_site_label
 _atom_site_symmetry_multiplicity
 _atom_site_fract_x
 _atom_site_fract_y
 _atom_site_fract_z
 _atom_site_occupancy
  Gd  Gd0  1  0.569447  0.082790  0.262805  1
  Gd  Gd1  1  0.082790  0.262805  0.569447  1
  Gd  Gd2  1  0.737195  0.430553  0.917210  1
  Gd  Gd3  1  0.262805  0.569447  0.082790  1
  Gd  Gd4  1  0.917210  0.737195  0.430553  1
  Gd  Gd5  1  0.430553  0.917210  0.737195  1
  Tm  Tm6  1  0.000000  0.000000  0.000000  1
  Rh  Rh7  1  0.500000  0.500000  0.500000  1
  O  O8  1  0.685811  0.085545  0.933788  1
  O  O9  1  0.914455  0.066212  0.314189  1
  O  O10  1  0.413740  0.198978  0.542999  1
  O  O11  1  0.066212  0.314189  0.914455  1
  O  O12  1  0.542999  0.413740  0.198978  1
  O  O13  1  0.801022  0.457001  0.586260  1
  O  O14  1  0.198978  0.542999  0.413740  1
  O  O15  1  0.457001  0.586260  0.801022  1
  O  O16  1  0.933788  0.685811  0.085545  1
  O  O17  1  0.586260  0.801022  0.457001  1
  O  O18  1  0.085545  0.933788  0.685811  1
  O  O19  1  0.314189  0.914455  0.066212  1
