# generated using pymatgen
data_K2Tl4Se3
_symmetry_space_group_name_H-M   'P 1'
_cell_length_a   4.43434900
_cell_length_b   11.91772997
_cell_length_c   13.98467865
_cell_angle_alpha   121.76606463
_cell_angle_beta   90.00000000
_cell_angle_gamma   100.72177033
_symmetry_Int_Tables_number   1
_chemical_formula_structural   K2Tl4Se3
_chemical_formula_sum   'K4 Tl8 Se6'
_cell_volume   613.11922951
_cell_formula_units_Z   2
loop_
 _symmetry_equiv_pos_site_id
 _symmetry_equiv_pos_as_xyz
  1  'x, y, z'
loop_
 _atom_site_type_symbol
 _atom_site_label
 _atom_site_symmetry_multiplicity
 _atom_site_fract_x
 _atom_site_fract_y
 _atom_site_fract_z
 _atom_site_occupancy
  K  K0  1  0.293604  0.587208  0.151216  1
  K  K1  1  0.179510  0.359020  0.376178  1
  K  K2  1  0.820490  0.640979  0.623822  1
  K  K3  1  0.706396  0.412793  0.848784  1
  Tl  Tl4  1  0.632332  0.264663  0.090204  1
  Tl  Tl5  1  0.008598  0.017194  0.127835  1
  Tl  Tl6  1  0.962027  0.924052  0.326464  1
  Tl  Tl7  1  0.383462  0.766923  0.437874  1
  Tl  Tl8  1  0.616538  0.233077  0.562126  1
  Tl  Tl9  1  0.037973  0.075947  0.673536  1
  Tl  Tl10  1  0.991402  0.982805  0.872165  1
  Tl  Tl11  1  0.367669  0.735338  0.909797  1
  Se  Se12  1  0.137054  0.274107  0.938459  1
  Se  Se13  1  0.551890  0.103779  0.308958  1
  Se  Se14  1  0.774028  0.548056  0.335023  1
  Se  Se15  1  0.225972  0.451944  0.664977  1
  Se  Se16  1  0.448110  0.896221  0.691042  1
  Se  Se17  1  0.862947  0.725893  0.061540  1
