# generated using pymatgen
data_NaLa6IrBr12
_symmetry_space_group_name_H-M   'P 1'
_cell_length_a   9.55048538
_cell_length_b   9.91243242
_cell_length_c   9.86619027
_cell_angle_alpha   107.67230151
_cell_angle_beta   107.25724209
_cell_angle_gamma   107.22239077
_symmetry_Int_Tables_number   1
_chemical_formula_structural   NaLa6IrBr12
_chemical_formula_sum   'Na1 La6 Ir1 Br12'
_cell_volume   769.55462880
_cell_formula_units_Z   1
loop_
 _symmetry_equiv_pos_site_id
 _symmetry_equiv_pos_as_xyz
  1  'x, y, z'
loop_
 _atom_site_type_symbol
 _atom_site_label
 _atom_site_symmetry_multiplicity
 _atom_site_fract_x
 _atom_site_fract_y
 _atom_site_fract_z
 _atom_site_occupancy
  Na  Na0  1  0.500000  0.500000  0.500000  1
  La  La1  1  0.122353  0.330731  0.032415  1
  La  La2  1  0.303987  0.029030  0.107433  1
  La  La3  1  0.030921  0.120123  0.330159  1
  La  La4  1  0.969080  0.879877  0.669842  1
  La  La5  1  0.696013  0.970971  0.892567  1
  La  La6  1  0.877647  0.669269  0.967585  1
  Ir  Ir7  1  0.000000  0.000000  0.000000  1
  Br  Br8  1  0.214140  0.685681  0.071705  1
  Br  Br9  1  0.460099  0.372209  0.163404  1
  Br  Br10  1  0.680624  0.069664  0.211977  1
  Br  Br11  1  0.929994  0.789412  0.314738  1
  Br  Br12  1  0.159449  0.453269  0.369712  1
  Br  Br13  1  0.373428  0.162286  0.453807  1
  Br  Br14  1  0.626572  0.837714  0.546194  1
  Br  Br15  1  0.840552  0.546731  0.630288  1
  Br  Br16  1  0.070007  0.210588  0.685263  1
  Br  Br17  1  0.319377  0.930337  0.788023  1
  Br  Br18  1  0.539901  0.627791  0.836597  1
  Br  Br19  1  0.785860  0.314319  0.928295  1
