# generated using pymatgen
data_Ca2HoGa9Pd2
_symmetry_space_group_name_H-M   'P 1'
_cell_length_a   8.21416642
_cell_length_b   8.21416588
_cell_length_c   8.21416557
_cell_angle_alpha   149.36308151
_cell_angle_beta   108.25953106
_cell_angle_gamma   79.99491586
_symmetry_Int_Tables_number   1
_chemical_formula_structural   Ca2HoGa9Pd2
_chemical_formula_sum   'Ca2 Ho1 Ga9 Pd2'
_cell_volume   262.89864759
_cell_formula_units_Z   1
loop_
 _symmetry_equiv_pos_site_id
 _symmetry_equiv_pos_as_xyz
  1  'x, y, z'
loop_
 _atom_site_type_symbol
 _atom_site_label
 _atom_site_symmetry_multiplicity
 _atom_site_fract_x
 _atom_site_fract_y
 _atom_site_fract_z
 _atom_site_occupancy
  Ca  Ca0  1  0.500116  0.500116  0.000000  1
  Ca  Ca1  1  0.201192  0.201192  0.000000  1
  Ho  Ho2  1  0.798372  0.798372  0.000000  1
  Ga  Ga3  1  0.644498  0.362361  0.282137  1
  Ga  Ga4  1  0.358634  0.638824  0.719810  1
  Ga  Ga5  1  0.080224  0.362361  0.717863  1
  Ga  Ga6  1  0.919014  0.638824  0.280190  1
  Ga  Ga7  1  0.522187  0.156062  0.366124  1
  Ga  Ga8  1  0.479658  0.843608  0.636050  1
  Ga  Ga9  1  0.789938  0.156062  0.633876  1
  Ga  Ga10  1  0.207558  0.843608  0.363950  1
  Ga  Ga11  1  0.999354  0.499354  0.500000  1
  Pd  Pd12  1  0.180302  0.999628  0.180674  1
  Pd  Pd13  1  0.818953  0.999628  0.819326  1
