# generated using pymatgen
data_Gd3In(HgPb)2
_symmetry_space_group_name_H-M   'P 1'
_cell_length_a   8.60386122
_cell_length_b   8.60386042
_cell_length_c   8.57487300
_cell_angle_alpha   59.83963784
_cell_angle_beta   59.83964092
_cell_angle_gamma   89.91644981
_symmetry_Int_Tables_number   1
_chemical_formula_structural   Gd3In(HgPb)2
_chemical_formula_sum   'Gd6 In2 Hg4 Pb4'
_cell_volume   446.99443306
_cell_formula_units_Z   2
loop_
 _symmetry_equiv_pos_site_id
 _symmetry_equiv_pos_as_xyz
  1  'x, y, z'
loop_
 _atom_site_type_symbol
 _atom_site_label
 _atom_site_symmetry_multiplicity
 _atom_site_fract_x
 _atom_site_fract_y
 _atom_site_fract_z
 _atom_site_occupancy
  Gd  Gd0  1  0.658096  0.157968  0.187992  1
  Gd  Gd1  1  0.345989  0.846040  0.812052  1
  Gd  Gd2  1  0.162879  0.345974  0.500008  1
  Gd  Gd3  1  0.846015  0.662942  0.499981  1
  Gd  Gd4  1  0.751903  0.751896  0.000000  1
  Gd  Gd5  1  0.251830  0.251824  0.000010  1
  In  In6  1  0.316063  0.816113  0.214802  1
  In  In7  1  0.030752  0.530752  0.785305  1
  Hg  Hg8  1  0.503844  0.503785  0.999802  1
  Hg  Hg9  1  0.003423  0.003433  0.000179  1
  Hg  Hg10  1  0.811204  0.020712  0.500189  1
  Hg  Hg11  1  0.521019  0.311484  0.499759  1
  Pb  Pb12  1  0.677431  0.177327  0.791799  1
  Pb  Pb13  1  0.969111  0.469260  0.208155  1
  Pb  Pb14  1  0.174608  0.975732  0.500110  1
  Pb  Pb15  1  0.475831  0.674757  0.499858  1
