# generated using pymatgen
data_Mn5Al6Ru12W
_symmetry_space_group_name_H-M   'P 1'
_cell_length_a   4.25266500
_cell_length_b   6.01060400
_cell_length_c   12.73514900
_cell_angle_alpha   90.00000450
_cell_angle_beta   89.99716813
_cell_angle_gamma   90.00000000
_symmetry_Int_Tables_number   1
_chemical_formula_structural   Mn5Al6Ru12W
_chemical_formula_sum   'Mn5 Al6 Ru12 W1'
_cell_volume   325.52422918
_cell_formula_units_Z   1
loop_
 _symmetry_equiv_pos_site_id
 _symmetry_equiv_pos_as_xyz
  1  'x, y, z'
loop_
 _atom_site_type_symbol
 _atom_site_label
 _atom_site_symmetry_multiplicity
 _atom_site_fract_x
 _atom_site_fract_y
 _atom_site_fract_z
 _atom_site_occupancy
  Mn  Mn0  1  0.499849  0.499999  0.169514  1
  Mn  Mn1  1  0.999823  0.000000  0.335072  1
  Mn  Mn2  1  0.500002  0.499997  0.499984  1
  Mn  Mn3  1  0.000173  0.000000  0.664922  1
  Mn  Mn4  1  0.500149  0.500000  0.830519  1
  Al  Al5  1  0.999998  0.500000  0.999996  1
  Al  Al6  1  0.499881  0.000001  0.169224  1
  Al  Al7  1  0.999829  0.499999  0.334950  1
  Al  Al8  1  0.499998  0.000001  0.499996  1
  Al  Al9  1  0.000168  0.500000  0.665049  1
  Al  Al10  1  0.500115  0.000001  0.830776  1
  Ru  Ru11  1  0.499998  0.253938  0.000001  1
  Ru  Ru12  1  0.499997  0.746063  0.000001  1
  Ru  Ru13  1  0.999885  0.252624  0.167540  1
  Ru  Ru14  1  0.999884  0.747375  0.167540  1
  Ru  Ru15  1  0.499845  0.250784  0.333243  1
  Ru  Ru16  1  0.499844  0.749217  0.333243  1
  Ru  Ru17  1  0.999997  0.249043  0.499984  1
  Ru  Ru18  1  0.999997  0.750958  0.499984  1
  Ru  Ru19  1  0.500168  0.250834  0.666754  1
  Ru  Ru20  1  0.500168  0.749168  0.666754  1
  Ru  Ru21  1  0.000111  0.252646  0.832476  1
  Ru  Ru22  1  0.000111  0.747354  0.832476  1
  W  W23  1  0.999998  0.999999  0.000004  1
