# generated using pymatgen
data_ZrNb2(AlRu2)3
_symmetry_space_group_name_H-M   'P 1'
_cell_length_a   4.40983900
_cell_length_b   6.26371000
_cell_length_c   13.21103000
_cell_angle_alpha   90.00000000
_cell_angle_beta   90.00035973
_cell_angle_gamma   90.00000000
_symmetry_Int_Tables_number   1
_chemical_formula_structural   ZrNb2(AlRu2)3
_chemical_formula_sum   'Zr2 Nb4 Al6 Ru12'
_cell_volume   364.91444502
_cell_formula_units_Z   2
loop_
 _symmetry_equiv_pos_site_id
 _symmetry_equiv_pos_as_xyz
  1  'x, y, z'
loop_
 _atom_site_type_symbol
 _atom_site_label
 _atom_site_symmetry_multiplicity
 _atom_site_fract_x
 _atom_site_fract_y
 _atom_site_fract_z
 _atom_site_occupancy
  Zr  Zr0  1  0.000086  0.000000  0.666160  1
  Zr  Zr1  1  0.500087  0.500000  0.833824  1
  Nb  Nb2  1  0.999998  0.000000  0.000213  1
  Nb  Nb3  1  0.499916  0.500000  0.166695  1
  Nb  Nb4  1  0.999916  0.000000  0.333314  1
  Nb  Nb5  1  0.499997  0.500000  0.499788  1
  Al  Al6  1  0.000004  0.500000  0.001396  1
  Al  Al7  1  0.499911  0.000000  0.167550  1
  Al  Al8  1  0.999911  0.500000  0.332448  1
  Al  Al9  1  0.500003  0.000000  0.498605  1
  Al  Al10  1  0.000081  0.500000  0.665802  1
  Al  Al11  1  0.500089  0.000000  0.834199  1
  Ru  Ru12  1  0.499997  0.246407  0.004551  1
  Ru  Ru13  1  0.499997  0.753592  0.004551  1
  Ru  Ru14  1  0.999913  0.250538  0.167705  1
  Ru  Ru15  1  0.999913  0.749461  0.167705  1
  Ru  Ru16  1  0.499920  0.249459  0.332302  1
  Ru  Ru17  1  0.499920  0.750541  0.332302  1
  Ru  Ru18  1  0.999995  0.253595  0.495446  1
  Ru  Ru19  1  0.999995  0.746403  0.495446  1
  Ru  Ru20  1  0.500088  0.253195  0.662910  1
  Ru  Ru21  1  0.500088  0.746805  0.662910  1
  Ru  Ru22  1  0.000089  0.246808  0.837091  1
  Ru  Ru23  1  0.000089  0.753191  0.837091  1
