# generated using pymatgen
data_NaNi2Bi5
_symmetry_space_group_name_H-M   'P 1'
_cell_length_a   9.03468800
_cell_length_b   4.07527100
_cell_length_c   11.75837600
_cell_angle_alpha   90.00000000
_cell_angle_beta   90.00000000
_cell_angle_gamma   90.00000000
_symmetry_Int_Tables_number   1
_chemical_formula_structural   NaNi2Bi5
_chemical_formula_sum   'Na2 Ni4 Bi10'
_cell_volume   432.92931779
_cell_formula_units_Z   2
loop_
 _symmetry_equiv_pos_site_id
 _symmetry_equiv_pos_as_xyz
  1  'x, y, z'
loop_
 _atom_site_type_symbol
 _atom_site_label
 _atom_site_symmetry_multiplicity
 _atom_site_fract_x
 _atom_site_fract_y
 _atom_site_fract_z
 _atom_site_occupancy
  Na  Na0  1  0.402403  0.250002  0.593414  1
  Na  Na1  1  0.097598  0.750001  0.093412  1
  Ni  Ni2  1  0.073323  0.250002  0.519128  1
  Ni  Ni3  1  0.426677  0.750001  0.019127  1
  Ni  Ni4  1  0.594080  0.250002  0.983206  1
  Ni  Ni5  1  0.905921  0.750001  0.483205  1
  Bi  Bi6  1  0.868268  0.250002  0.899627  1
  Bi  Bi7  1  0.631732  0.750001  0.399626  1
  Bi  Bi8  1  0.398689  0.250002  0.167973  1
  Bi  Bi9  1  0.101310  0.750001  0.667973  1
  Bi  Bi10  1  0.920995  0.250002  0.323154  1
  Bi  Bi11  1  0.579007  0.750001  0.823154  1
  Bi  Bi12  1  0.294475  0.250002  0.903567  1
  Bi  Bi13  1  0.205524  0.750001  0.403567  1
  Bi  Bi14  1  0.793422  0.250002  0.609935  1
  Bi  Bi15  1  0.706577  0.750001  0.109936  1
