# generated using pymatgen
data_LiSm2Be2(PPd5)4
_symmetry_space_group_name_H-M   'P 1'
_cell_length_a   8.62822801
_cell_length_b   8.57267787
_cell_length_c   8.57267697
_cell_angle_alpha   60.42917697
_cell_angle_beta   59.78541580
_cell_angle_gamma   59.78541614
_symmetry_Int_Tables_number   1
_chemical_formula_structural   LiSm2Be2(PPd5)4
_chemical_formula_sum   'Li1 Sm2 Be2 P4 Pd20'
_cell_volume   448.33526151
_cell_formula_units_Z   1
loop_
 _symmetry_equiv_pos_site_id
 _symmetry_equiv_pos_as_xyz
  1  'x, y, z'
loop_
 _atom_site_type_symbol
 _atom_site_label
 _atom_site_symmetry_multiplicity
 _atom_site_fract_x
 _atom_site_fract_y
 _atom_site_fract_z
 _atom_site_occupancy
  Li  Li0  1  0.000000  0.000000  0.000000  1
  Sm  Sm1  1  0.250000  0.250000  0.250000  1
  Sm  Sm2  1  0.750000  0.750000  0.750000  1
  Be  Be3  1  0.733898  0.266102  0.266102  1
  Be  Be4  1  0.266102  0.733898  0.733898  1
  P  P5  1  0.264174  0.735826  0.264174  1
  P  P6  1  0.735826  0.264174  0.735826  1
  P  P7  1  0.264174  0.264174  0.735826  1
  P  P8  1  0.735826  0.735826  0.264174  1
  Pd  Pd9  1  0.388470  0.383538  0.383538  1
  Pd  Pd10  1  0.611530  0.616462  0.616462  1
  Pd  Pd11  1  0.383538  0.388470  0.844453  1
  Pd  Pd12  1  0.383538  0.844453  0.388470  1
  Pd  Pd13  1  0.616462  0.611530  0.155547  1
  Pd  Pd14  1  0.616462  0.155547  0.611530  1
  Pd  Pd15  1  0.844453  0.383538  0.383538  1
  Pd  Pd16  1  0.155547  0.616462  0.616462  1
  Pd  Pd17  1  0.342284  0.000000  0.000000  1
  Pd  Pd18  1  0.657716  0.000000  0.000000  1
  Pd  Pd19  1  0.000000  0.342284  0.657716  1
  Pd  Pd20  1  0.000000  0.657716  0.342284  1
  Pd  Pd21  1  0.997403  0.341355  0.002597  1
  Pd  Pd22  1  0.658645  0.002597  0.341355  1
  Pd  Pd23  1  0.002597  0.658645  0.997403  1
  Pd  Pd24  1  0.341355  0.997403  0.658645  1
  Pd  Pd25  1  0.997403  0.002597  0.341355  1
  Pd  Pd26  1  0.002597  0.997403  0.658645  1
  Pd  Pd27  1  0.658645  0.341355  0.002597  1
  Pd  Pd28  1  0.341355  0.658645  0.997403  1
