# generated using pymatgen
data_Tm2MnCo16
_symmetry_space_group_name_H-M   'P 1'
_cell_length_a   6.25838798
_cell_length_b   6.25838787
_cell_length_c   6.25838741
_cell_angle_alpha   82.96996530
_cell_angle_beta   82.96995409
_cell_angle_gamma   82.96997013
_symmetry_Int_Tables_number   1
_chemical_formula_structural   Tm2MnCo16
_chemical_formula_sum   'Tm2 Mn1 Co16'
_cell_volume   240.01330405
_cell_formula_units_Z   1
loop_
 _symmetry_equiv_pos_site_id
 _symmetry_equiv_pos_as_xyz
  1  'x, y, z'
loop_
 _atom_site_type_symbol
 _atom_site_label
 _atom_site_symmetry_multiplicity
 _atom_site_fract_x
 _atom_site_fract_y
 _atom_site_fract_z
 _atom_site_occupancy
  Tm  Tm0  1  0.656310  0.656310  0.656310  1
  Tm  Tm1  1  0.346529  0.346529  0.346529  1
  Mn  Mn2  1  0.097429  0.097429  0.097429  1
  Co  Co3  1  0.290382  0.709471  0.998662  1
  Co  Co4  1  0.709471  0.998662  0.290382  1
  Co  Co5  1  0.998662  0.290382  0.709471  1
  Co  Co6  1  0.290382  0.998662  0.709471  1
  Co  Co7  1  0.998662  0.709471  0.290382  1
  Co  Co8  1  0.709471  0.290382  0.998662  1
  Co  Co9  1  0.997421  0.997421  0.504730  1
  Co  Co10  1  0.997421  0.504730  0.997421  1
  Co  Co11  1  0.504730  0.997421  0.997421  1
  Co  Co12  1  0.349928  0.349928  0.847683  1
  Co  Co13  1  0.349928  0.847683  0.349928  1
  Co  Co14  1  0.847683  0.349928  0.349928  1
  Co  Co15  1  0.652259  0.652259  0.152637  1
  Co  Co16  1  0.652259  0.152637  0.652259  1
  Co  Co17  1  0.152637  0.652259  0.652259  1
  Co  Co18  1  0.898433  0.898433  0.898433  1
