# generated using pymatgen
data_Lu10In8AgIr3
_symmetry_space_group_name_H-M   'P 1'
_cell_length_a   3.53864700
_cell_length_b   8.05724302
_cell_length_c   18.08180222
_cell_angle_alpha   89.88487549
_cell_angle_beta   90.00000000
_cell_angle_gamma   90.00000000
_symmetry_Int_Tables_number   1
_chemical_formula_structural   Lu10In8AgIr3
_chemical_formula_sum   'Lu10 In8 Ag1 Ir3'
_cell_volume   515.54258224
_cell_formula_units_Z   1
loop_
 _symmetry_equiv_pos_site_id
 _symmetry_equiv_pos_as_xyz
  1  'x, y, z'
loop_
 _atom_site_type_symbol
 _atom_site_label
 _atom_site_symmetry_multiplicity
 _atom_site_fract_x
 _atom_site_fract_y
 _atom_site_fract_z
 _atom_site_occupancy
  Lu  Lu0  1  0.000000  0.878491  0.078764  1
  Lu  Lu1  1  0.000000  0.738510  0.283646  1
  Lu  Lu2  1  0.000000  0.741493  0.776590  1
  Lu  Lu3  1  0.000000  0.382770  0.416090  1
  Lu  Lu4  1  0.000000  0.114824  0.910585  1
  Lu  Lu5  1  0.000000  0.243964  0.723208  1
  Lu  Lu6  1  0.000000  0.498370  0.998987  1
  Lu  Lu7  1  0.000000  0.281301  0.221709  1
  Lu  Lu8  1  0.000000  0.617066  0.588713  1
  Lu  Lu9  1  0.000000  0.000347  0.500665  1
  In  In10  1  0.500000  0.205918  0.064899  1
  In  In11  1  0.500000  0.427656  0.851557  1
  In  In12  1  0.500000  0.581490  0.147695  1
  In  In13  1  0.500000  0.078415  0.352104  1
  In  In14  1  0.500000  0.930289  0.648215  1
  In  In15  1  0.500000  0.790179  0.930503  1
  In  In16  1  0.500000  0.706373  0.435325  1
  In  In17  1  0.500000  0.292773  0.567843  1
  Ag  Ag18  1  0.500000  0.977531  0.198032  1
  Ir  Ir19  1  0.500000  0.017447  0.802643  1
  Ir  Ir20  1  0.500000  0.519166  0.696655  1
  Ir  Ir21  1  0.500000  0.475628  0.305570  1
