# generated using pymatgen
data_YHo(SiPd)2
_symmetry_space_group_name_H-M   'P 1'
_cell_length_a   4.33753800
_cell_length_b   7.49465900
_cell_length_c   13.90123700
_cell_angle_alpha   90.00000000
_cell_angle_beta   90.00000000
_cell_angle_gamma   90.00000000
_symmetry_Int_Tables_number   1
_chemical_formula_structural   YHo(SiPd)2
_chemical_formula_sum   'Y4 Ho4 Si8 Pd8'
_cell_volume   451.90653096
_cell_formula_units_Z   4
loop_
 _symmetry_equiv_pos_site_id
 _symmetry_equiv_pos_as_xyz
  1  'x, y, z'
loop_
 _atom_site_type_symbol
 _atom_site_label
 _atom_site_symmetry_multiplicity
 _atom_site_fract_x
 _atom_site_fract_y
 _atom_site_fract_z
 _atom_site_occupancy
  Y  Y0  1  0.500000  0.709552  0.000000  1
  Y  Y1  1  0.000000  0.290448  0.500000  1
  Y  Y2  1  0.500000  0.700861  0.500000  1
  Y  Y3  1  0.000000  0.299139  0.000000  1
  Ho  Ho4  1  0.500000  0.789568  0.748878  1
  Ho  Ho5  1  0.000000  0.210432  0.751122  1
  Ho  Ho6  1  0.500000  0.789568  0.251122  1
  Ho  Ho7  1  0.000000  0.210432  0.248878  1
  Si  Si8  1  0.500000  0.408982  0.645182  1
  Si  Si9  1  0.000000  0.591018  0.854818  1
  Si  Si10  1  0.500000  0.408982  0.354818  1
  Si  Si11  1  0.000000  0.591018  0.145182  1
  Si  Si12  1  0.500000  0.089954  0.094012  1
  Si  Si13  1  0.000000  0.910046  0.405988  1
  Si  Si14  1  0.500000  0.089954  0.905988  1
  Si  Si15  1  0.000000  0.910046  0.594012  1
  Pd  Pd16  1  0.500000  0.076153  0.609624  1
  Pd  Pd17  1  0.000000  0.923847  0.890376  1
  Pd  Pd18  1  0.500000  0.076153  0.390376  1
  Pd  Pd19  1  0.000000  0.923847  0.109624  1
  Pd  Pd20  1  0.500000  0.420324  0.157014  1
  Pd  Pd21  1  0.000000  0.579676  0.342986  1
  Pd  Pd22  1  0.500000  0.420324  0.842986  1
  Pd  Pd23  1  0.000000  0.579676  0.657014  1
