# generated using pymatgen
data_LaNd3(Sn3Pd2)4
_symmetry_space_group_name_H-M   'P 1'
_cell_length_a   6.15695800
_cell_length_b   6.38321821
_cell_length_c   14.07976347
_cell_angle_alpha   89.97046182
_cell_angle_beta   90.00000000
_cell_angle_gamma   90.00000000
_symmetry_Int_Tables_number   1
_chemical_formula_structural   LaNd3(Sn3Pd2)4
_chemical_formula_sum   'La1 Nd3 Sn12 Pd8'
_cell_volume   553.35161709
_cell_formula_units_Z   1
loop_
 _symmetry_equiv_pos_site_id
 _symmetry_equiv_pos_as_xyz
  1  'x, y, z'
loop_
 _atom_site_type_symbol
 _atom_site_label
 _atom_site_symmetry_multiplicity
 _atom_site_fract_x
 _atom_site_fract_y
 _atom_site_fract_z
 _atom_site_occupancy
  La  La0  1  0.250000  0.514589  0.799719  1
  Nd  Nd1  1  0.750000  0.485387  0.200433  1
  Nd  Nd2  1  0.750000  0.985461  0.799672  1
  Nd  Nd3  1  0.250000  0.014761  0.200583  1
  Sn  Sn4  1  0.250000  0.019102  0.694842  1
  Sn  Sn5  1  0.750000  0.980887  0.304745  1
  Sn  Sn6  1  0.750000  0.481085  0.694732  1
  Sn  Sn7  1  0.250000  0.518998  0.304928  1
  Sn  Sn8  1  0.250000  0.893641  0.438080  1
  Sn  Sn9  1  0.750000  0.106189  0.561951  1
  Sn  Sn10  1  0.750000  0.606480  0.438044  1
  Sn  Sn11  1  0.250000  0.393540  0.561564  1
  Sn  Sn12  1  0.500499  0.750476  0.996311  1
  Sn  Sn13  1  0.999687  0.249614  0.004201  1
  Sn  Sn14  1  0.500313  0.249614  0.004201  1
  Sn  Sn15  1  0.999501  0.750476  0.996311  1
  Pd  Pd16  1  0.250000  0.014226  0.882881  1
  Pd  Pd17  1  0.750000  0.985660  0.117039  1
  Pd  Pd18  1  0.750000  0.485506  0.882811  1
  Pd  Pd19  1  0.250000  0.514444  0.117269  1
  Pd  Pd20  1  0.500163  0.749972  0.592788  1
  Pd  Pd21  1  0.999907  0.249961  0.407053  1
  Pd  Pd22  1  0.500093  0.249961  0.407053  1
  Pd  Pd23  1  0.999837  0.749972  0.592788  1
