# generated using pymatgen
data_Eu2CuH6
_symmetry_space_group_name_H-M   'P 1'
_cell_length_a   7.10179993
_cell_length_b   7.10179850
_cell_length_c   5.27945900
_cell_angle_alpha   90.00000000
_cell_angle_beta   90.00000000
_cell_angle_gamma   136.41616230
_symmetry_Int_Tables_number   1
_chemical_formula_structural   Eu2CuH6
_chemical_formula_sum   'Eu4 Cu2 H12'
_cell_volume   183.57227012
_cell_formula_units_Z   2
loop_
 _symmetry_equiv_pos_site_id
 _symmetry_equiv_pos_as_xyz
  1  'x, y, z'
loop_
 _atom_site_type_symbol
 _atom_site_label
 _atom_site_symmetry_multiplicity
 _atom_site_fract_x
 _atom_site_fract_y
 _atom_site_fract_z
 _atom_site_occupancy
  Eu  Eu0  1  0.144039  0.855961  0.500000  1
  Eu  Eu1  1  0.644039  0.355961  0.000000  1
  Eu  Eu2  1  0.855961  0.144039  0.500000  1
  Eu  Eu3  1  0.355961  0.644039  0.000000  1
  Cu  Cu4  1  0.500000  0.500000  0.500000  1
  Cu  Cu5  1  0.000000  0.000000  0.000000  1
  H  H6  1  0.999940  0.499940  0.750000  1
  H  H7  1  0.500060  0.000060  0.250000  1
  H  H8  1  0.000060  0.500060  0.250000  1
  H  H9  1  0.499940  0.999940  0.750000  1
  H  H10  1  0.374223  0.625777  0.500000  1
  H  H11  1  0.874223  0.125777  0.000000  1
  H  H12  1  0.625777  0.374223  0.500000  1
  H  H13  1  0.125777  0.874223  0.000000  1
  H  H14  1  0.251007  0.251007  0.749169  1
  H  H15  1  0.748993  0.748993  0.250831  1
  H  H16  1  0.248993  0.248993  0.249169  1
  H  H17  1  0.751007  0.751007  0.750831  1
