# generated using pymatgen
data_Dy2B8IrPt
_symmetry_space_group_name_H-M   'P 1'
_cell_length_a   7.03006014
_cell_length_b   7.03006607
_cell_length_c   7.03006537
_cell_angle_alpha   111.60565913
_cell_angle_beta   111.81106228
_cell_angle_gamma   105.08410758
_symmetry_Int_Tables_number   1
_chemical_formula_structural   Dy2B8IrPt
_chemical_formula_sum   'Dy4 B16 Ir2 Pt2'
_cell_volume   266.29299825
_cell_formula_units_Z   2
loop_
 _symmetry_equiv_pos_site_id
 _symmetry_equiv_pos_as_xyz
  1  'x, y, z'
loop_
 _atom_site_type_symbol
 _atom_site_label
 _atom_site_symmetry_multiplicity
 _atom_site_fract_x
 _atom_site_fract_y
 _atom_site_fract_z
 _atom_site_occupancy
  Dy  Dy0  1  0.787962  0.787962  0.000000  1
  Dy  Dy1  1  0.212038  0.212038  0.000000  1
  Dy  Dy2  1  0.757415  0.257415  0.500000  1
  Dy  Dy3  1  0.242585  0.742585  0.500000  1
  B  B4  1  0.260933  0.106499  0.367433  1
  B  B5  1  0.739067  0.893501  0.632567  1
  B  B6  1  0.260933  0.893500  0.154434  1
  B  B7  1  0.739067  0.106500  0.845566  1
  B  B8  1  0.107391  0.733472  0.840863  1
  B  B9  1  0.892609  0.266528  0.159137  1
  B  B10  1  0.107390  0.266527  0.373918  1
  B  B11  1  0.892610  0.733473  0.626082  1
  B  B12  1  0.108534  0.110811  0.524089  1
  B  B13  1  0.586722  0.584445  0.475911  1
  B  B14  1  0.108535  0.584446  0.997723  1
  B  B15  1  0.586722  0.110811  0.002277  1
  B  B16  1  0.891466  0.889189  0.475911  1
  B  B17  1  0.413278  0.415555  0.524089  1
  B  B18  1  0.891465  0.415554  0.002277  1
  B  B19  1  0.413278  0.889189  0.997723  1
  Ir  Ir20  1  0.260966  0.500000  0.760966  1
  Ir  Ir21  1  0.739034  0.500000  0.239034  1
  Pt  Pt22  1  0.500000  0.745763  0.245762  1
  Pt  Pt23  1  0.500000  0.254237  0.754238  1
