# generated using pymatgen
data_YEr2Lu(Co3Si5)2
_symmetry_space_group_name_H-M   'P 1'
_cell_length_a   7.80996758
_cell_length_b   7.80679933
_cell_length_c   5.47529907
_cell_angle_alpha   70.83528919
_cell_angle_beta   70.78814773
_cell_angle_gamma   93.42162240
_symmetry_Int_Tables_number   1
_chemical_formula_structural   YEr2Lu(Co3Si5)2
_chemical_formula_sum   'Y1 Er2 Lu1 Co6 Si10'
_cell_volume   292.46007746
_cell_formula_units_Z   1
loop_
 _symmetry_equiv_pos_site_id
 _symmetry_equiv_pos_as_xyz
  1  'x, y, z'
loop_
 _atom_site_type_symbol
 _atom_site_label
 _atom_site_symmetry_multiplicity
 _atom_site_fract_x
 _atom_site_fract_y
 _atom_site_fract_z
 _atom_site_occupancy
  Y  Y0  1  0.869521  0.596989  0.263600  1
  Er  Er1  1  0.129984  0.403614  0.736010  1
  Er  Er2  1  0.596329  0.869656  0.764009  1
  Lu  Lu3  1  0.404190  0.129920  0.235021  1
  Co  Co4  1  0.997363  0.003518  0.749794  1
  Co  Co5  1  0.538922  0.261225  0.626819  1
  Co  Co6  1  0.262883  0.539953  0.125502  1
  Co  Co7  1  0.460219  0.738377  0.374124  1
  Co  Co8  1  0.003805  0.997662  0.249560  1
  Co  Co9  1  0.736675  0.459165  0.875792  1
  Si  Si10  1  0.770771  0.227482  0.250602  1
  Si  Si11  1  0.229045  0.772388  0.748870  1
  Si  Si12  1  0.510057  0.487135  0.251193  1
  Si  Si13  1  0.488006  0.510821  0.750417  1
  Si  Si14  1  0.214601  0.787259  0.250071  1
  Si  Si15  1  0.786150  0.213515  0.749643  1
  Si  Si16  1  0.736948  0.935485  0.165569  1
  Si  Si17  1  0.934390  0.737802  0.665570  1
  Si  Si18  1  0.262837  0.066108  0.833807  1
  Si  Si19  1  0.067303  0.261926  0.334029  1
