# generated using pymatgen
data_CeThCo2(NiAs2)2
_symmetry_space_group_name_H-M   'P 1'
_cell_length_a   4.19700800
_cell_length_b   4.19700800
_cell_length_c   9.30071400
_cell_angle_alpha   90.00000000
_cell_angle_beta   90.00000000
_cell_angle_gamma   90.00000000
_symmetry_Int_Tables_number   1
_chemical_formula_structural   CeThCo2(NiAs2)2
_chemical_formula_sum   'Ce1 Th1 Co2 Ni2 As4'
_cell_volume   163.83092524
_cell_formula_units_Z   1
loop_
 _symmetry_equiv_pos_site_id
 _symmetry_equiv_pos_as_xyz
  1  'x, y, z'
loop_
 _atom_site_type_symbol
 _atom_site_label
 _atom_site_symmetry_multiplicity
 _atom_site_fract_x
 _atom_site_fract_y
 _atom_site_fract_z
 _atom_site_occupancy
  Ce  Ce0  1  0.000000  0.500000  0.248826  1
  Th  Th1  1  0.500000  0.000000  0.751463  1
  Co  Co2  1  0.000000  0.500000  0.613974  1
  Co  Co3  1  0.500000  0.000000  0.386245  1
  Ni  Ni4  1  0.000000  0.000000  0.999772  1
  Ni  Ni5  1  0.500000  0.500000  0.999772  1
  As  As6  1  0.000000  0.000000  0.498532  1
  As  As7  1  0.500000  0.500000  0.498532  1
  As  As8  1  0.000000  0.500000  0.867752  1
  As  As9  1  0.500000  0.000000  0.135131  1
