# generated using pymatgen
data_U4Mn5Si2Ni
_symmetry_space_group_name_H-M   'P 1'
_cell_length_a   5.12338985
_cell_length_b   5.12000997
_cell_length_c   7.73949400
_cell_angle_alpha   90.00000000
_cell_angle_beta   90.00000000
_cell_angle_gamma   61.44959206
_symmetry_Int_Tables_number   1
_chemical_formula_structural   U4Mn5Si2Ni
_chemical_formula_sum   'U4 Mn5 Si2 Ni1'
_cell_volume   178.33295647
_cell_formula_units_Z   1
loop_
 _symmetry_equiv_pos_site_id
 _symmetry_equiv_pos_as_xyz
  1  'x, y, z'
loop_
 _atom_site_type_symbol
 _atom_site_label
 _atom_site_symmetry_multiplicity
 _atom_site_fract_x
 _atom_site_fract_y
 _atom_site_fract_z
 _atom_site_occupancy
  U  U0  1  0.338007  0.337386  0.575082  1
  U  U1  1  0.664217  0.664875  0.424456  1
  U  U2  1  0.664217  0.664875  0.075544  1
  U  U3  1  0.338007  0.337386  0.924918  1
  Mn  Mn4  1  0.836657  0.337210  0.750000  1
  Mn  Mn5  1  0.337402  0.835633  0.750000  1
  Mn  Mn6  1  0.830265  0.830148  0.750000  1
  Mn  Mn7  1  0.168581  0.659527  0.250000  1
  Mn  Mn8  1  0.659312  0.168864  0.250000  1
  Si  Si9  1  0.999358  0.999397  0.499794  1
  Si  Si10  1  0.999358  0.999397  0.000206  1
  Ni  Ni11  1  0.164618  0.165300  0.250000  1
