# generated using pymatgen
data_CsPrMnTe3
_symmetry_space_group_name_H-M   'P 1'
_cell_length_a   8.91770364
_cell_length_b   8.91770356
_cell_length_c   12.18382900
_cell_angle_alpha   90.00000000
_cell_angle_beta   90.00000000
_cell_angle_gamma   150.00981922
_symmetry_Int_Tables_number   1
_chemical_formula_structural   CsPrMnTe3
_chemical_formula_sum   'Cs2 Pr2 Mn2 Te6'
_cell_volume   484.31835330
_cell_formula_units_Z   2
loop_
 _symmetry_equiv_pos_site_id
 _symmetry_equiv_pos_as_xyz
  1  'x, y, z'
loop_
 _atom_site_type_symbol
 _atom_site_label
 _atom_site_symmetry_multiplicity
 _atom_site_fract_x
 _atom_site_fract_y
 _atom_site_fract_z
 _atom_site_occupancy
  Cs  Cs0  1  0.741475  0.258526  0.250000  1
  Cs  Cs1  1  0.258526  0.741475  0.750000  1
  Pr  Pr2  1  0.000000  0.000000  0.000000  1
  Pr  Pr3  1  0.000000  0.000000  0.500000  1
  Mn  Mn4  1  0.463234  0.536767  0.250000  1
  Mn  Mn5  1  0.536767  0.463234  0.750000  1
  Te  Te6  1  0.377800  0.622201  0.064599  1
  Te  Te7  1  0.058074  0.941927  0.250000  1
  Te  Te8  1  0.377800  0.622201  0.435401  1
  Te  Te9  1  0.622201  0.377800  0.564599  1
  Te  Te10  1  0.941927  0.058074  0.750000  1
  Te  Te11  1  0.622201  0.377800  0.935401  1
