# generated using pymatgen
data_Er7Tm3InPb5
_symmetry_space_group_name_H-M   'P 1'
_cell_length_a   6.59073400
_cell_length_b   8.95271098
_cell_length_c   8.96493325
_cell_angle_alpha   120.07062732
_cell_angle_beta   89.99722110
_cell_angle_gamma   89.99832366
_symmetry_Int_Tables_number   1
_chemical_formula_structural   Er7Tm3InPb5
_chemical_formula_sum   'Er7 Tm3 In1 Pb5'
_cell_volume   457.77968594
_cell_formula_units_Z   1
loop_
 _symmetry_equiv_pos_site_id
 _symmetry_equiv_pos_as_xyz
  1  'x, y, z'
loop_
 _atom_site_type_symbol
 _atom_site_label
 _atom_site_symmetry_multiplicity
 _atom_site_fract_x
 _atom_site_fract_y
 _atom_site_fract_z
 _atom_site_occupancy
  Er  Er0  1  0.501863  0.336292  0.669994  1
  Er  Er1  1  0.750096  0.238248  0.000431  1
  Er  Er2  1  0.750086  0.762355  0.766885  1
  Er  Er3  1  0.750079  0.995689  0.233300  1
  Er  Er4  1  0.249936  0.763297  0.999441  1
  Er  Er5  1  0.249921  0.236591  0.236182  1
  Er  Er6  1  0.249918  0.999803  0.763636  1
  Tm  Tm7  1  0.501969  0.666241  0.330050  1
  Tm  Tm8  1  0.998049  0.666261  0.330092  1
  Tm  Tm9  1  0.998080  0.336357  0.670065  1
  In  In10  1  0.750177  0.602836  0.999810  1
  Pb  Pb11  1  0.750252  0.394106  0.394421  1
  Pb  Pb12  1  0.750215  0.999153  0.605349  1
  Pb  Pb13  1  0.249777  0.396169  0.000281  1
  Pb  Pb14  1  0.249779  0.605310  0.603709  1
  Pb  Pb15  1  0.249803  0.001293  0.396354  1
