# generated using pymatgen
data_Y5HoCoTc
_symmetry_space_group_name_H-M   'P 1'
_cell_length_a   6.34809796
_cell_length_b   7.23385200
_cell_length_c   9.26898108
_cell_angle_alpha   90.00000000
_cell_angle_beta   89.80747745
_cell_angle_gamma   90.00000000
_symmetry_Int_Tables_number   1
_chemical_formula_structural   Y5HoCoTc
_chemical_formula_sum   'Y10 Ho2 Co2 Tc2'
_cell_volume   425.64034153
_cell_formula_units_Z   2
loop_
 _symmetry_equiv_pos_site_id
 _symmetry_equiv_pos_as_xyz
  1  'x, y, z'
loop_
 _atom_site_type_symbol
 _atom_site_label
 _atom_site_symmetry_multiplicity
 _atom_site_fract_x
 _atom_site_fract_y
 _atom_site_fract_z
 _atom_site_occupancy
  Y  Y0  1  0.668193  0.173370  0.063857  1
  Y  Y1  1  0.370719  0.547173  0.250124  1
  Y  Y2  1  0.142938  0.040778  0.250194  1
  Y  Y3  1  0.823890  0.681903  0.433246  1
  Y  Y4  1  0.323890  0.818097  0.933246  1
  Y  Y5  1  0.168193  0.326630  0.563857  1
  Y  Y6  1  0.667732  0.173239  0.436396  1
  Y  Y7  1  0.167732  0.326761  0.936396  1
  Y  Y8  1  0.870719  0.952827  0.750124  1
  Y  Y9  1  0.642938  0.459222  0.750194  1
  Ho  Ho10  1  0.323566  0.818895  0.567352  1
  Ho  Ho11  1  0.823566  0.681105  0.067352  1
  Co  Co12  1  0.540688  0.884913  0.249666  1
  Co  Co13  1  0.040688  0.615087  0.749666  1
  Tc  Tc14  1  0.962275  0.391949  0.249165  1
  Tc  Tc15  1  0.462275  0.108051  0.749165  1
