# generated using pymatgen
data_Ca3MgSn(GeO4)3
_symmetry_space_group_name_H-M   'P 1'
_cell_length_a   10.90446365
_cell_length_b   10.90446441
_cell_length_c   10.90446500
_cell_angle_alpha   109.47121801
_cell_angle_beta   109.47121943
_cell_angle_gamma   109.47122305
_symmetry_Int_Tables_number   1
_chemical_formula_structural   Ca3MgSn(GeO4)3
_chemical_formula_sum   'Ca12 Mg4 Sn4 Ge12 O48'
_cell_volume   998.13923764
_cell_formula_units_Z   4
loop_
 _symmetry_equiv_pos_site_id
 _symmetry_equiv_pos_as_xyz
  1  'x, y, z'
loop_
 _atom_site_type_symbol
 _atom_site_label
 _atom_site_symmetry_multiplicity
 _atom_site_fract_x
 _atom_site_fract_y
 _atom_site_fract_z
 _atom_site_occupancy
  Ca  Ca0  1  0.250000  0.880369  0.630369  1
  Ca  Ca1  1  0.750000  0.619631  0.869631  1
  Ca  Ca2  1  0.619631  0.869631  0.750000  1
  Ca  Ca3  1  0.880369  0.630369  0.250000  1
  Ca  Ca4  1  0.630369  0.250000  0.880369  1
  Ca  Ca5  1  0.869631  0.750000  0.619631  1
  Ca  Ca6  1  0.750000  0.119631  0.369631  1
  Ca  Ca7  1  0.250000  0.380369  0.130369  1
  Ca  Ca8  1  0.380369  0.130369  0.250000  1
  Ca  Ca9  1  0.119631  0.369631  0.750000  1
  Ca  Ca10  1  0.369631  0.750000  0.119631  1
  Ca  Ca11  1  0.130369  0.250000  0.380369  1
  Mg  Mg12  1  0.500000  0.500000  0.500000  1
  Mg  Mg13  1  0.000000  0.000000  0.500000  1
  Mg  Mg14  1  0.000000  0.500000  0.000000  1
  Mg  Mg15  1  0.500000  0.000000  0.000000  1
  Sn  Sn16  1  0.500000  0.000000  0.500000  1
  Sn  Sn17  1  0.000000  0.500000  0.500000  1
  Sn  Sn18  1  0.500000  0.500000  0.000000  1
  Sn  Sn19  1  0.000000  0.000000  0.000000  1
  Ge  Ge20  1  0.127308  0.750000  0.877308  1
  Ge  Ge21  1  0.872692  0.250000  0.122692  1
  Ge  Ge22  1  0.622692  0.372692  0.250000  1
  Ge  Ge23  1  0.750000  0.877308  0.127308  1
  Ge  Ge24  1  0.877308  0.127308  0.750000  1
  Ge  Ge25  1  0.250000  0.622692  0.372692  1
  Ge  Ge26  1  0.750000  0.377308  0.627308  1
  Ge  Ge27  1  0.250000  0.122692  0.872692  1
  Ge  Ge28  1  0.122692  0.872692  0.250000  1
  Ge  Ge29  1  0.377308  0.627308  0.750000  1
  Ge  Ge30  1  0.627308  0.750000  0.377308  1
  Ge  Ge31  1  0.372692  0.250000  0.622692  1
  O  O32  1  0.408239  0.808893  0.790349  1
  O  O33  1  0.882110  0.400653  0.091761  1
  O  O34  1  0.099347  0.981457  0.691107  1
  O  O35  1  0.518543  0.617890  0.709651  1
  O  O36  1  0.685329  0.080862  0.705060  1
  O  O37  1  0.617890  0.709651  0.518543  1
  O  O38  1  0.624198  0.419138  0.104467  1
  O  O39  1  0.709651  0.518543  0.617890  1
  O  O40  1  0.814671  0.519731  0.395533  1
  O  O41  1  0.980269  0.794940  0.875802  1
  O  O42  1  0.794940  0.875802  0.980269  1
  O  O43  1  0.705060  0.685329  0.080862  1
  O  O44  1  0.419138  0.104467  0.624198  1
  O  O45  1  0.395533  0.814671  0.519731  1
  O  O46  1  0.080862  0.705060  0.685329  1
  O  O47  1  0.104467  0.624198  0.419138  1
  O  O48  1  0.519731  0.395533  0.814671  1
  O  O49  1  0.091761  0.882110  0.400653  1
  O  O50  1  0.981457  0.691107  0.099347  1
  O  O51  1  0.185329  0.480269  0.604467  1
  O  O52  1  0.691107  0.099347  0.981457  1
  O  O53  1  0.790349  0.408239  0.808893  1
  O  O54  1  0.400653  0.091761  0.882110  1
  O  O55  1  0.875802  0.980269  0.794940  1
  O  O56  1  0.591761  0.191107  0.209651  1
  O  O57  1  0.117890  0.599347  0.908239  1
  O  O58  1  0.900653  0.018543  0.308893  1
  O  O59  1  0.481457  0.382110  0.290349  1
  O  O60  1  0.314671  0.919138  0.294940  1
  O  O61  1  0.382110  0.290349  0.481457  1
  O  O62  1  0.375802  0.580862  0.895533  1
  O  O63  1  0.290349  0.481457  0.382110  1
  O  O64  1  0.124198  0.019731  0.205060  1
  O  O65  1  0.599347  0.908239  0.117890  1
  O  O66  1  0.209651  0.591761  0.191107  1
  O  O67  1  0.191107  0.209651  0.591761  1
  O  O68  1  0.308893  0.900653  0.018543  1
  O  O69  1  0.018543  0.308893  0.900653  1
  O  O70  1  0.908239  0.117890  0.599347  1
  O  O71  1  0.480269  0.604467  0.185329  1
  O  O72  1  0.895533  0.375802  0.580862  1
  O  O73  1  0.919138  0.294940  0.314671  1
  O  O74  1  0.604467  0.185329  0.480269  1
  O  O75  1  0.580862  0.895533  0.375802  1
  O  O76  1  0.294940  0.314671  0.919138  1
  O  O77  1  0.205060  0.124198  0.019731  1
  O  O78  1  0.019731  0.205060  0.124198  1
  O  O79  1  0.808893  0.790349  0.408239  1
