# generated using pymatgen
data_HfSi2MoRh2
_symmetry_space_group_name_H-M   'P 1'
_cell_length_a   3.87847800
_cell_length_b   6.34562782
_cell_length_c   7.33307794
_cell_angle_alpha   91.21588519
_cell_angle_beta   90.00000000
_cell_angle_gamma   90.00000000
_symmetry_Int_Tables_number   1
_chemical_formula_structural   HfSi2MoRh2
_chemical_formula_sum   'Hf2 Si4 Mo2 Rh4'
_cell_volume   180.43651571
_cell_formula_units_Z   2
loop_
 _symmetry_equiv_pos_site_id
 _symmetry_equiv_pos_as_xyz
  1  'x, y, z'
loop_
 _atom_site_type_symbol
 _atom_site_label
 _atom_site_symmetry_multiplicity
 _atom_site_fract_x
 _atom_site_fract_y
 _atom_site_fract_z
 _atom_site_occupancy
  Hf  Hf0  1  0.250000  0.028462  0.312917  1
  Hf  Hf1  1  0.750000  0.971538  0.687083  1
  Si  Si2  1  0.250000  0.747452  0.888327  1
  Si  Si3  1  0.750000  0.252548  0.111673  1
  Si  Si4  1  0.250000  0.286158  0.631169  1
  Si  Si5  1  0.750000  0.713842  0.368831  1
  Mo  Mo6  1  0.250000  0.526450  0.173159  1
  Mo  Mo7  1  0.750000  0.473550  0.826841  1
  Rh  Rh8  1  0.750000  0.855683  0.063149  1
  Rh  Rh9  1  0.250000  0.144317  0.936851  1
  Rh  Rh10  1  0.750000  0.344069  0.441229  1
  Rh  Rh11  1  0.250000  0.655931  0.558771  1
