# generated using pymatgen
data_LiEr2Pd2Pt3
_symmetry_space_group_name_H-M   'P 1'
_cell_length_a   5.89531037
_cell_length_b   5.75178080
_cell_length_c   5.74142719
_cell_angle_alpha   61.71947120
_cell_angle_beta   59.22665263
_cell_angle_gamma   59.17038940
_symmetry_Int_Tables_number   1
_chemical_formula_structural   LiEr2Pd2Pt3
_chemical_formula_sum   'Li1 Er2 Pd2 Pt3'
_cell_volume   137.60235892
_cell_formula_units_Z   1
loop_
 _symmetry_equiv_pos_site_id
 _symmetry_equiv_pos_as_xyz
  1  'x, y, z'
loop_
 _atom_site_type_symbol
 _atom_site_label
 _atom_site_symmetry_multiplicity
 _atom_site_fract_x
 _atom_site_fract_y
 _atom_site_fract_z
 _atom_site_occupancy
  Li  Li0  1  0.000000  0.000000  0.000000  1
  Er  Er1  1  0.000000  0.500000  0.500000  1
  Er  Er2  1  0.500000  0.000000  0.000000  1
  Pd  Pd3  1  0.500000  0.500000  0.500000  1
  Pd  Pd4  1  0.500000  0.500000  0.000000  1
  Pt  Pt5  1  0.000000  0.000000  0.500000  1
  Pt  Pt6  1  0.500000  0.000000  0.500000  1
  Pt  Pt7  1  0.000000  0.500000  0.000000  1
