# generated using pymatgen
data_Li2TbDyB28
_symmetry_space_group_name_H-M   'P 1'
_cell_length_a   7.26249217
_cell_length_b   7.26249572
_cell_length_c   7.26249980
_cell_angle_alpha   132.29491798
_cell_angle_beta   110.86901474
_cell_angle_gamma   88.32788916
_symmetry_Int_Tables_number   1
_chemical_formula_structural   Li2TbDyB28
_chemical_formula_sum   'Li2 Tb1 Dy1 B28'
_cell_volume   252.16910567
_cell_formula_units_Z   1
loop_
 _symmetry_equiv_pos_site_id
 _symmetry_equiv_pos_as_xyz
  1  'x, y, z'
loop_
 _atom_site_type_symbol
 _atom_site_label
 _atom_site_symmetry_multiplicity
 _atom_site_fract_x
 _atom_site_fract_y
 _atom_site_fract_z
 _atom_site_occupancy
  Li  Li0  1  0.999989  0.999979  0.499968  1
  Li  Li1  1  0.999989  0.500021  0.000010  1
  Tb  Tb2  1  0.379934  0.750000  0.629934  1
  Dy  Dy3  1  0.620805  0.250000  0.370805  1
  B  B4  1  0.638429  0.665894  0.972535  1
  B  B5  1  0.361649  0.334099  0.027550  1
  B  B6  1  0.193451  0.165901  0.027549  1
  B  B7  1  0.806641  0.834106  0.972535  1
  B  B8  1  0.778135  0.149591  0.628544  1
  B  B9  1  0.221720  0.850559  0.371160  1
  B  B10  1  0.020601  0.649440  0.371161  1
  B  B11  1  0.978953  0.350410  0.628544  1
  B  B12  1  0.915858  0.089083  0.826775  1
  B  B13  1  0.083966  0.910919  0.173047  1
  B  B14  1  0.762127  0.589081  0.173047  1
  B  B15  1  0.237693  0.410917  0.826775  1
  B  B16  1  0.398623  0.400113  0.681364  1
  B  B17  1  0.601481  0.282984  0.001880  1
  B  B18  1  0.218896  0.900398  0.001880  1
  B  B19  1  0.781251  0.782740  0.681364  1
  B  B20  1  0.601482  0.599600  0.318498  1
  B  B21  1  0.398624  0.717259  0.998510  1
  B  B22  1  0.781251  0.099888  0.998511  1
  B  B23  1  0.218896  0.217016  0.318498  1
  B  B24  1  0.033408  0.829894  0.703299  1
  B  B25  1  0.966429  0.669752  0.796287  1
  B  B26  1  0.626536  0.329859  0.796288  1
  B  B27  1  0.373405  0.169889  0.703298  1
  B  B28  1  0.966429  0.170141  0.296676  1
  B  B29  1  0.033408  0.330111  0.203516  1
  B  B30  1  0.373405  0.670107  0.203515  1
  B  B31  1  0.626536  0.830248  0.296676  1
