# generated using pymatgen
data_SmY2Cd3Pb2Au
_symmetry_space_group_name_H-M   'P 1'
_cell_length_a   7.63792856
_cell_length_b   7.63792782
_cell_length_c   4.58890200
_cell_angle_alpha   90.00000000
_cell_angle_beta   90.00000000
_cell_angle_gamma   120.41280900
_symmetry_Int_Tables_number   1
_chemical_formula_structural   SmY2Cd3Pb2Au
_chemical_formula_sum   'Sm1 Y2 Cd3 Pb2 Au1'
_cell_volume   230.87076089
_cell_formula_units_Z   1
loop_
 _symmetry_equiv_pos_site_id
 _symmetry_equiv_pos_as_xyz
  1  'x, y, z'
loop_
 _atom_site_type_symbol
 _atom_site_label
 _atom_site_symmetry_multiplicity
 _atom_site_fract_x
 _atom_site_fract_y
 _atom_site_fract_z
 _atom_site_occupancy
  Sm  Sm0  1  0.405147  0.405147  0.000000  1
  Y  Y1  1  0.598155  0.000590  0.000000  1
  Y  Y2  1  0.000590  0.598155  0.000000  1
  Cd  Cd3  1  0.234462  0.999791  0.500000  1
  Cd  Cd4  1  0.999791  0.234462  0.500000  1
  Cd  Cd5  1  0.764054  0.764054  0.500000  1
  Pb  Pb6  1  0.332049  0.668943  0.500000  1
  Pb  Pb7  1  0.668943  0.332049  0.500000  1
  Au  Au8  1  0.996809  0.996809  0.000000  1
