# generated using pymatgen
data_AsH2F5
_symmetry_space_group_name_H-M   'P 1'
_cell_length_a   4.32590632
_cell_length_b   4.16399894
_cell_length_c   6.35344223
_cell_angle_alpha   93.49933339
_cell_angle_beta   90.38579477
_cell_angle_gamma   112.96719054
_symmetry_Int_Tables_number   1
_chemical_formula_structural   AsH2F5
_chemical_formula_sum   'As1 H2 F5'
_cell_volume   105.11816733
_cell_formula_units_Z   1
loop_
 _symmetry_equiv_pos_site_id
 _symmetry_equiv_pos_as_xyz
  1  'x, y, z'
loop_
 _atom_site_type_symbol
 _atom_site_label
 _atom_site_symmetry_multiplicity
 _atom_site_fract_x
 _atom_site_fract_y
 _atom_site_fract_z
 _atom_site_occupancy
  As  As0  1  0.953779  0.615833  0.494333  1
  H  H1  1  0.483329  0.296912  0.998715  1
  H  H2  1  0.531886  0.821001  0.016761  1
  F  F3  1  0.643889  0.657839  0.051183  1
  F  F4  1  0.375847  0.039198  0.960200  1
  F  F5  1  0.060001  0.391333  0.692674  1
  F  F6  1  0.372948  0.925361  0.474833  1
  F  F7  1  0.998088  0.334194  0.287553  1
