# generated using pymatgen
data_KRb2Al4P2O8F9
_symmetry_space_group_name_H-M   'P 1'
_cell_length_a   14.02641100
_cell_length_b   6.82581404
_cell_length_c   7.38640100
_cell_angle_alpha   73.89110812
_cell_angle_beta   90.00000000
_cell_angle_gamma   90.00000000
_symmetry_Int_Tables_number   1
_chemical_formula_structural   KRb2Al4P2O8F9
_chemical_formula_sum   'K2 Rb4 Al8 P4 O16 F18'
_cell_volume   679.41949861
_cell_formula_units_Z   2
loop_
 _symmetry_equiv_pos_site_id
 _symmetry_equiv_pos_as_xyz
  1  'x, y, z'
loop_
 _atom_site_type_symbol
 _atom_site_label
 _atom_site_symmetry_multiplicity
 _atom_site_fract_x
 _atom_site_fract_y
 _atom_site_fract_z
 _atom_site_occupancy
  K  K0  1  0.750000  0.078961  0.460325  1
  K  K1  1  0.250000  0.921039  0.539675  1
  Rb  Rb2  1  0.504595  0.810477  0.796266  1
  Rb  Rb3  1  0.495405  0.189523  0.203734  1
  Rb  Rb4  1  0.004595  0.189523  0.203734  1
  Rb  Rb5  1  0.995405  0.810477  0.796266  1
  Al  Al6  1  0.377290  0.328885  0.681532  1
  Al  Al7  1  0.250000  0.973576  0.052824  1
  Al  Al8  1  0.250000  0.484544  0.038742  1
  Al  Al9  1  0.877290  0.671115  0.318468  1
  Al  Al10  1  0.622710  0.671115  0.318468  1
  Al  Al11  1  0.122710  0.328885  0.681532  1
  Al  Al12  1  0.750000  0.026424  0.947176  1
  Al  Al13  1  0.750000  0.515456  0.961258  1
  P  P14  1  0.102901  0.652676  0.286196  1
  P  P15  1  0.897099  0.347324  0.713804  1
  P  P16  1  0.397099  0.652676  0.286196  1
  P  P17  1  0.602901  0.347324  0.713804  1
  O  O18  1  0.845632  0.137788  0.776222  1
  O  O19  1  0.106630  0.577506  0.503034  1
  O  O20  1  0.650845  0.499455  0.804870  1
  O  O21  1  0.893370  0.422494  0.496966  1
  O  O22  1  0.001237  0.318222  0.784584  1
  O  O23  1  0.606630  0.422494  0.496966  1
  O  O24  1  0.345632  0.862212  0.223778  1
  O  O25  1  0.150845  0.500545  0.195130  1
  O  O26  1  0.654368  0.137788  0.776222  1
  O  O27  1  0.154368  0.862212  0.223778  1
  O  O28  1  0.349155  0.500545  0.195130  1
  O  O29  1  0.393370  0.577506  0.503034  1
  O  O30  1  0.498763  0.318222  0.784584  1
  O  O31  1  0.849155  0.499455  0.804870  1
  O  O32  1  0.998763  0.681778  0.215416  1
  O  O33  1  0.501237  0.681778  0.215416  1
  F  F34  1  0.250000  0.204970  0.132912  1
  F  F35  1  0.094647  0.155527  0.546971  1
  F  F36  1  0.750000  0.795030  0.867088  1
  F  F37  1  0.155974  0.092879  0.881062  1
  F  F38  1  0.250000  0.323609  0.612062  1
  F  F39  1  0.344026  0.092879  0.881062  1
  F  F40  1  0.250000  0.766983  0.933904  1
  F  F41  1  0.660875  0.526564  0.146192  1
  F  F42  1  0.750000  0.233017  0.066096  1
  F  F43  1  0.750000  0.676391  0.387938  1
  F  F44  1  0.160875  0.473436  0.853808  1
  F  F45  1  0.405353  0.155527  0.546971  1
  F  F46  1  0.905353  0.844473  0.453029  1
  F  F47  1  0.839125  0.526564  0.146192  1
  F  F48  1  0.339125  0.473436  0.853808  1
  F  F49  1  0.594647  0.844473  0.453029  1
  F  F50  1  0.844026  0.907121  0.118938  1
  F  F51  1  0.655974  0.907121  0.118938  1
