# generated using pymatgen
data_Tm2GaRe2Os
_symmetry_space_group_name_H-M   'P 1'
_cell_length_a   5.34339709
_cell_length_b   5.36537744
_cell_length_c   8.83211900
_cell_angle_alpha   90.00000000
_cell_angle_beta   90.00000000
_cell_angle_gamma   120.13618221
_symmetry_Int_Tables_number   1
_chemical_formula_structural   Tm2GaRe2Os
_chemical_formula_sum   'Tm4 Ga2 Re4 Os2'
_cell_volume   218.98565622
_cell_formula_units_Z   2
loop_
 _symmetry_equiv_pos_site_id
 _symmetry_equiv_pos_as_xyz
  1  'x, y, z'
loop_
 _atom_site_type_symbol
 _atom_site_label
 _atom_site_symmetry_multiplicity
 _atom_site_fract_x
 _atom_site_fract_y
 _atom_site_fract_z
 _atom_site_occupancy
  Tm  Tm0  1  0.671303  0.335652  0.064824  1
  Tm  Tm1  1  0.671303  0.335652  0.435177  1
  Tm  Tm2  1  0.343658  0.671829  0.555779  1
  Tm  Tm3  1  0.343658  0.671829  0.944222  1
  Ga  Ga4  1  0.809101  0.160563  0.750000  1
  Ga  Ga5  1  0.809103  0.648537  0.750000  1
  Re  Re6  1  0.170576  0.339849  0.250000  1
  Re  Re7  1  0.170576  0.830728  0.250000  1
  Re  Re8  1  0.655819  0.827909  0.250000  1
  Re  Re9  1  0.312965  0.156481  0.750000  1
  Os  Os10  1  0.020971  0.010485  0.994824  1
  Os  Os11  1  0.020971  0.010485  0.505176  1
