# generated using pymatgen
data_Er3Tm2OsPt2
_symmetry_space_group_name_H-M   'P 1'
_cell_length_a   10.93979600
_cell_length_b   10.93798300
_cell_length_c   6.30516400
_cell_angle_alpha   90.00000000
_cell_angle_beta   90.00000000
_cell_angle_gamma   90.00000000
_symmetry_Int_Tables_number   1
_chemical_formula_structural   Er3Tm2OsPt2
_chemical_formula_sum   'Er12 Tm8 Os4 Pt8'
_cell_volume   754.47152747
_cell_formula_units_Z   4
loop_
 _symmetry_equiv_pos_site_id
 _symmetry_equiv_pos_as_xyz
  1  'x, y, z'
loop_
 _atom_site_type_symbol
 _atom_site_label
 _atom_site_symmetry_multiplicity
 _atom_site_fract_x
 _atom_site_fract_y
 _atom_site_fract_z
 _atom_site_occupancy
  Er  Er0  1  0.296905  0.085788  0.370481  1
  Er  Er1  1  0.296905  0.914212  0.870481  1
  Er  Er2  1  0.703095  0.085788  0.870481  1
  Er  Er3  1  0.703095  0.914212  0.370481  1
  Er  Er4  1  0.585613  0.797149  0.870512  1
  Er  Er5  1  0.585613  0.202851  0.370512  1
  Er  Er6  1  0.414387  0.797149  0.370512  1
  Er  Er7  1  0.414387  0.202851  0.870512  1
  Er  Er8  1  0.202556  0.414481  0.629374  1
  Er  Er9  1  0.202556  0.585519  0.129374  1
  Er  Er10  1  0.797444  0.414481  0.129374  1
  Er  Er11  1  0.797444  0.585519  0.629374  1
  Tm  Tm12  1  0.914945  0.702439  0.128854  1
  Tm  Tm13  1  0.914945  0.297561  0.628854  1
  Tm  Tm14  1  0.085055  0.702439  0.628854  1
  Tm  Tm15  1  0.085055  0.297561  0.128854  1
  Tm  Tm16  1  0.000000  0.000000  0.500577  1
  Tm  Tm17  1  0.000000  0.000000  0.000577  1
  Tm  Tm18  1  0.500000  0.500000  0.999937  1
  Tm  Tm19  1  0.500000  0.500000  0.499937  1
  Os  Os20  1  0.500000  0.000000  0.123552  1
  Os  Os21  1  0.500000  0.000000  0.623552  1
  Os  Os22  1  0.000000  0.500000  0.876569  1
  Os  Os23  1  0.000000  0.500000  0.376569  1
  Pt  Pt24  1  0.847955  0.153010  0.250712  1
  Pt  Pt25  1  0.847955  0.846990  0.750712  1
  Pt  Pt26  1  0.152045  0.153010  0.750712  1
  Pt  Pt27  1  0.152045  0.846990  0.250712  1
  Pt  Pt28  1  0.653068  0.347413  0.749751  1
  Pt  Pt29  1  0.653068  0.652587  0.249751  1
  Pt  Pt30  1  0.346932  0.347413  0.249751  1
  Pt  Pt31  1  0.346932  0.652587  0.749751  1
