# generated using pymatgen
data_Lu5Tl3P
_symmetry_space_group_name_H-M   'P 1'
_cell_length_a   8.93344900
_cell_length_b   8.93344844
_cell_length_c   6.70291200
_cell_angle_alpha   90.00000000
_cell_angle_beta   90.00000000
_cell_angle_gamma   119.99999095
_symmetry_Int_Tables_number   1
_chemical_formula_structural   Lu5Tl3P
_chemical_formula_sum   'Lu10 Tl6 P2'
_cell_volume   463.26819648
_cell_formula_units_Z   2
loop_
 _symmetry_equiv_pos_site_id
 _symmetry_equiv_pos_as_xyz
  1  'x, y, z'
loop_
 _atom_site_type_symbol
 _atom_site_label
 _atom_site_symmetry_multiplicity
 _atom_site_fract_x
 _atom_site_fract_y
 _atom_site_fract_z
 _atom_site_occupancy
  Lu  Lu0  1  0.666667  0.333333  0.000000  1
  Lu  Lu1  1  0.333333  0.666667  0.000000  1
  Lu  Lu2  1  0.333333  0.666667  0.500000  1
  Lu  Lu3  1  0.666667  0.333333  0.500000  1
  Lu  Lu4  1  0.762211  0.762211  0.750000  1
  Lu  Lu5  1  0.237789  0.000000  0.750000  1
  Lu  Lu6  1  0.000000  0.237789  0.750000  1
  Lu  Lu7  1  0.237789  0.237789  0.250000  1
  Lu  Lu8  1  0.762211  0.000000  0.250000  1
  Lu  Lu9  1  0.000000  0.762211  0.250000  1
  Tl  Tl10  1  0.401647  0.401647  0.750000  1
  Tl  Tl11  1  0.598353  0.000000  0.750000  1
  Tl  Tl12  1  0.000000  0.598353  0.750000  1
  Tl  Tl13  1  0.598353  0.598353  0.250000  1
  Tl  Tl14  1  0.401647  0.000000  0.250000  1
  Tl  Tl15  1  0.000000  0.401647  0.250000  1
  P  P16  1  0.000000  0.000000  0.000000  1
  P  P17  1  0.000000  0.000000  0.500000  1
