# generated using pymatgen
data_Dy11HoOs3Ru
_symmetry_space_group_name_H-M   'P 1'
_cell_length_a   6.32024503
_cell_length_b   7.36702306
_cell_length_c   9.10772381
_cell_angle_alpha   90.00139116
_cell_angle_beta   90.04853173
_cell_angle_gamma   89.97891534
_symmetry_Int_Tables_number   1
_chemical_formula_structural   Dy11HoOs3Ru
_chemical_formula_sum   'Dy11 Ho1 Os3 Ru1'
_cell_volume   424.06810700
_cell_formula_units_Z   1
loop_
 _symmetry_equiv_pos_site_id
 _symmetry_equiv_pos_as_xyz
  1  'x, y, z'
loop_
 _atom_site_type_symbol
 _atom_site_label
 _atom_site_symmetry_multiplicity
 _atom_site_fract_x
 _atom_site_fract_y
 _atom_site_fract_z
 _atom_site_occupancy
  Dy  Dy0  1  0.329623  0.675996  0.064473  1
  Dy  Dy1  1  0.169326  0.175657  0.436746  1
  Dy  Dy2  1  0.668689  0.324190  0.563414  1
  Dy  Dy3  1  0.832426  0.825410  0.937504  1
  Dy  Dy4  1  0.668692  0.324110  0.936754  1
  Dy  Dy5  1  0.832268  0.825197  0.562639  1
  Dy  Dy6  1  0.329714  0.675932  0.435534  1
  Dy  Dy7  1  0.868419  0.538577  0.249907  1
  Dy  Dy8  1  0.631257  0.039252  0.249837  1
  Dy  Dy9  1  0.133217  0.460400  0.750149  1
  Dy  Dy10  1  0.368373  0.959358  0.750171  1
  Ho  Ho11  1  0.169257  0.175563  0.062946  1
  Os  Os12  1  0.039433  0.884117  0.249837  1
  Os  Os13  1  0.460280  0.383868  0.249798  1
  Os  Os14  1  0.961107  0.116379  0.750332  1
  Ru  Ru15  1  0.537915  0.615995  0.749960  1
