# generated using pymatgen
data_TmLuWO6
_symmetry_space_group_name_H-M   'P 1'
_cell_length_a   5.31922300
_cell_length_b   7.60401241
_cell_length_c   11.31110760
_cell_angle_alpha   75.29353613
_cell_angle_beta   90.00000000
_cell_angle_gamma   90.00000000
_symmetry_Int_Tables_number   1
_chemical_formula_structural   TmLuWO6
_chemical_formula_sum   'Tm4 Lu4 W4 O24'
_cell_volume   442.51704214
_cell_formula_units_Z   4
loop_
 _symmetry_equiv_pos_site_id
 _symmetry_equiv_pos_as_xyz
  1  'x, y, z'
loop_
 _atom_site_type_symbol
 _atom_site_label
 _atom_site_symmetry_multiplicity
 _atom_site_fract_x
 _atom_site_fract_y
 _atom_site_fract_z
 _atom_site_occupancy
  Tm  Tm0  1  0.259353  0.000000  0.750000  1
  Tm  Tm1  1  0.740647  0.000000  0.250000  1
  Tm  Tm2  1  0.314949  0.500000  0.750000  1
  Tm  Tm3  1  0.685051  0.500000  0.250000  1
  Lu  Lu4  1  0.183261  0.794646  0.079036  1
  Lu  Lu5  1  0.183261  0.205354  0.420964  1
  Lu  Lu6  1  0.816739  0.205354  0.920964  1
  Lu  Lu7  1  0.816739  0.794646  0.579036  1
  W  W8  1  0.743700  0.723225  0.885776  1
  W  W9  1  0.256300  0.723225  0.385776  1
  W  W10  1  0.743700  0.276775  0.614224  1
  W  W11  1  0.256300  0.276775  0.114224  1
  O  O12  1  0.539519  0.153422  0.068415  1
  O  O13  1  0.043273  0.057925  0.104121  1
  O  O14  1  0.021609  0.710784  0.770188  1
  O  O15  1  0.460481  0.153422  0.568415  1
  O  O16  1  0.361898  0.486592  0.385410  1
  O  O17  1  0.956727  0.057925  0.604121  1
  O  O18  1  0.541391  0.792894  0.724947  1
  O  O19  1  0.458609  0.792894  0.224947  1
  O  O20  1  0.148042  0.633734  0.550628  1
  O  O21  1  0.043273  0.942075  0.395879  1
  O  O22  1  0.460481  0.846578  0.931585  1
  O  O23  1  0.458609  0.207106  0.275053  1
  O  O24  1  0.851958  0.366266  0.449372  1
  O  O25  1  0.638102  0.486592  0.885410  1
  O  O26  1  0.361898  0.513408  0.114590  1
  O  O27  1  0.956727  0.942075  0.895879  1
  O  O28  1  0.539519  0.846578  0.431585  1
  O  O29  1  0.978391  0.289216  0.229812  1
  O  O30  1  0.541391  0.207106  0.775053  1
  O  O31  1  0.851958  0.633734  0.050628  1
  O  O32  1  0.021609  0.289216  0.729812  1
  O  O33  1  0.148042  0.366266  0.949372  1
  O  O34  1  0.978391  0.710784  0.270188  1
  O  O35  1  0.638102  0.513408  0.614590  1
