# generated using pymatgen
data_AcHo7(IrO6)4
_symmetry_space_group_name_H-M   'P 1'
_cell_length_a   5.31049418
_cell_length_b   9.18850808
_cell_length_c   9.91116500
_cell_angle_alpha   90.55758289
_cell_angle_beta   89.94803939
_cell_angle_gamma   89.68424124
_symmetry_Int_Tables_number   1
_chemical_formula_structural   AcHo7(IrO6)4
_chemical_formula_sum   'Ac1 Ho7 Ir4 O24'
_cell_volume   483.58997011
_cell_formula_units_Z   1
loop_
 _symmetry_equiv_pos_site_id
 _symmetry_equiv_pos_as_xyz
  1  'x, y, z'
loop_
 _atom_site_type_symbol
 _atom_site_label
 _atom_site_symmetry_multiplicity
 _atom_site_fract_x
 _atom_site_fract_y
 _atom_site_fract_z
 _atom_site_occupancy
  Ac  Ac0  1  0.969463  0.777560  0.859821  1
  Ho  Ho1  1  0.517572  0.100566  0.966675  1
  Ho  Ho2  1  0.021385  0.393895  0.038211  1
  Ho  Ho3  1  0.475663  0.600944  0.533196  1
  Ho  Ho4  1  0.982839  0.903253  0.460361  1
  Ho  Ho5  1  0.543082  0.222777  0.368721  1
  Ho  Ho6  1  0.043530  0.282551  0.626942  1
  Ho  Ho7  1  0.464018  0.716122  0.136272  1
  Ir  Ir8  1  0.461349  0.003277  0.639798  1
  Ir  Ir9  1  0.957943  0.504817  0.353904  1
  Ir  Ir10  1  0.538743  0.486961  0.854794  1
  Ir  Ir11  1  0.044189  0.005681  0.150197  1
  O  O12  1  0.324848  0.138925  0.184138  1
  O  O13  1  0.830210  0.363818  0.817482  1
  O  O14  1  0.668402  0.632836  0.320049  1
  O  O15  1  0.179248  0.872743  0.662559  1
  O  O16  1  0.738535  0.120037  0.565676  1
  O  O17  1  0.237737  0.388768  0.432055  1
  O  O18  1  0.273819  0.602124  0.944675  1
  O  O19  1  0.764106  0.886266  0.078616  1
  O  O20  1  0.654993  0.637068  0.735211  1
  O  O21  1  0.188291  0.857498  0.265005  1
  O  O22  1  0.304795  0.143861  0.760613  1
  O  O23  1  0.816173  0.356381  0.237315  1
  O  O24  1  0.652536  0.954904  0.795186  1
  O  O25  1  0.164455  0.554043  0.203966  1
  O  O26  1  0.325392  0.443396  0.703140  1
  O  O27  1  0.836750  0.060296  0.299520  1
  O  O28  1  0.255786  0.094685  0.495136  1
  O  O29  1  0.752307  0.413458  0.498906  1
  O  O30  1  0.742615  0.576045  0.003371  1
  O  O31  1  0.264054  0.912739  0.010718  1
  O  O32  1  0.080804  0.658762  0.473160  1
  O  O33  1  0.595639  0.844751  0.525961  1
  O  O34  1  0.915557  0.153384  0.026260  1
  O  O35  1  0.413173  0.334807  0.972389  1
