# generated using pymatgen
data_Tb3Y5(Ti3Si4)4
_symmetry_space_group_name_H-M   'P 1'
_cell_length_a   7.06572572
_cell_length_b   7.06694967
_cell_length_c   12.97997646
_cell_angle_alpha   89.98058534
_cell_angle_beta   90.02364897
_cell_angle_gamma   89.90232165
_symmetry_Int_Tables_number   1
_chemical_formula_structural   Tb3Y5(Ti3Si4)4
_chemical_formula_sum   'Tb3 Y5 Ti12 Si16'
_cell_volume   648.12979202
_cell_formula_units_Z   1
loop_
 _symmetry_equiv_pos_site_id
 _symmetry_equiv_pos_as_xyz
  1  'x, y, z'
loop_
 _atom_site_type_symbol
 _atom_site_label
 _atom_site_symmetry_multiplicity
 _atom_site_fract_x
 _atom_site_fract_y
 _atom_site_fract_z
 _atom_site_occupancy
  Tb  Tb0  1  0.659990  0.997470  0.966613  1
  Tb  Tb1  1  0.002426  0.340058  0.533417  1
  Tb  Tb2  1  0.997414  0.660049  0.033398  1
  Y  Y3  1  0.340384  0.002078  0.466642  1
  Y  Y4  1  0.498099  0.840505  0.716534  1
  Y  Y5  1  0.501791  0.159621  0.216682  1
  Y  Y6  1  0.840370  0.498065  0.283418  1
  Y  Y7  1  0.159709  0.501910  0.783320  1
  Ti  Ti8  1  0.326889  0.326785  0.999978  1
  Ti  Ti9  1  0.173215  0.826658  0.249963  1
  Ti  Ti10  1  0.826584  0.173209  0.749947  1
  Ti  Ti11  1  0.673147  0.673025  0.500031  1
  Ti  Ti12  1  0.152686  0.008966  0.876644  1
  Ti  Ti13  1  0.490788  0.652200  0.126707  1
  Ti  Ti14  1  0.508885  0.348077  0.626509  1
  Ti  Ti15  1  0.651968  0.490782  0.873377  1
  Ti  Ti16  1  0.347957  0.508983  0.373573  1
  Ti  Ti17  1  0.847719  0.991040  0.376768  1
  Ti  Ti18  1  0.009168  0.152656  0.123371  1
  Ti  Ti19  1  0.990885  0.847488  0.623296  1
  Si  Si20  1  0.202761  0.129627  0.684945  1
  Si  Si21  1  0.370553  0.702145  0.934678  1
  Si  Si22  1  0.629343  0.297676  0.434666  1
  Si  Si23  1  0.702151  0.370497  0.065334  1
  Si  Si24  1  0.297928  0.629814  0.565277  1
  Si  Si25  1  0.797386  0.870621  0.185146  1
  Si  Si26  1  0.129594  0.202413  0.315104  1
  Si  Si27  1  0.870537  0.797467  0.814850  1
  Si  Si28  1  0.290276  0.952960  0.064860  1
  Si  Si29  1  0.547240  0.790715  0.314806  1
  Si  Si30  1  0.452719  0.209367  0.814706  1
  Si  Si31  1  0.790558  0.547351  0.685257  1
  Si  Si32  1  0.209396  0.452532  0.185234  1
  Si  Si33  1  0.709332  0.047015  0.564753  1
  Si  Si34  1  0.952933  0.290235  0.935103  1
  Si  Si35  1  0.047218  0.709941  0.435093  1
