# generated using pymatgen
data_Ce2MoWC3
_symmetry_space_group_name_H-M   'P 1'
_cell_length_a   6.34053845
_cell_length_b   6.34053898
_cell_length_c   5.79082848
_cell_angle_alpha   65.83549107
_cell_angle_beta   65.83549064
_cell_angle_gamma   30.55645830
_symmetry_Int_Tables_number   1
_chemical_formula_structural   Ce2MoWC3
_chemical_formula_sum   'Ce2 Mo1 W1 C3'
_cell_volume   107.17016959
_cell_formula_units_Z   1
loop_
 _symmetry_equiv_pos_site_id
 _symmetry_equiv_pos_as_xyz
  1  'x, y, z'
loop_
 _atom_site_type_symbol
 _atom_site_label
 _atom_site_symmetry_multiplicity
 _atom_site_fract_x
 _atom_site_fract_y
 _atom_site_fract_z
 _atom_site_occupancy
  Ce  Ce0  1  0.395537  0.395537  0.806323  1
  Ce  Ce1  1  0.604135  0.604135  0.196951  1
  Mo  Mo2  1  0.842358  0.842358  0.322883  1
  W  W3  1  0.158893  0.158893  0.674234  1
  C  C4  1  0.000805  0.000805  0.997764  1
  C  C5  1  0.251080  0.251080  0.261593  1
  C  C6  1  0.747193  0.747193  0.740253  1
