# generated using pymatgen
data_Y2Ho2(Al8Pt3)3
_symmetry_space_group_name_H-M   'P 1'
_cell_length_a   7.52287077
_cell_length_b   7.54709927
_cell_length_c   13.17391552
_cell_angle_alpha   84.58780075
_cell_angle_beta   79.14136489
_cell_angle_gamma   59.97795449
_symmetry_Int_Tables_number   1
_chemical_formula_structural   Y2Ho2(Al8Pt3)3
_chemical_formula_sum   'Y2 Ho2 Al24 Pt9'
_cell_volume   636.01321374
_cell_formula_units_Z   1
loop_
 _symmetry_equiv_pos_site_id
 _symmetry_equiv_pos_as_xyz
  1  'x, y, z'
loop_
 _atom_site_type_symbol
 _atom_site_label
 _atom_site_symmetry_multiplicity
 _atom_site_fract_x
 _atom_site_fract_y
 _atom_site_fract_z
 _atom_site_occupancy
  Y  Y0  1  0.393393  0.168688  0.807931  1
  Y  Y1  1  0.606607  0.831312  0.192069  1
  Ho  Ho2  1  0.734218  0.498518  0.807493  1
  Ho  Ho3  1  0.265782  0.501482  0.192507  1
  Al  Al4  1  0.684684  0.833621  0.944420  1
  Al  Al5  1  0.315316  0.166379  0.055580  1
  Al  Al6  1  0.146580  0.832428  0.561191  1
  Al  Al7  1  0.853420  0.167572  0.438809  1
  Al  Al8  1  0.479464  0.166677  0.558447  1
  Al  Al9  1  0.520536  0.833323  0.441553  1
  Al  Al10  1  0.217186  0.165311  0.329727  1
  Al  Al11  1  0.782814  0.834689  0.670273  1
  Al  Al12  1  0.437749  0.506278  0.670325  1
  Al  Al13  1  0.562251  0.493722  0.329675  1
  Al  Al14  1  0.109331  0.160247  0.669354  1
  Al  Al15  1  0.890669  0.839753  0.330646  1
  Al  Al16  1  0.353107  0.499640  0.944700  1
  Al  Al17  1  0.646893  0.500360  0.055300  1
  Al  Al18  1  0.015333  0.167652  0.952861  1
  Al  Al19  1  0.984667  0.832348  0.047139  1
  Al  Al20  1  0.186805  0.499213  0.441381  1
  Al  Al21  1  0.813195  0.500787  0.558619  1
  Al  Al22  1  0.734054  0.164037  0.183422  1
  Al  Al23  1  0.265946  0.835963  0.816578  1
  Al  Al24  1  0.061552  0.631518  0.815405  1
  Al  Al25  1  0.938448  0.368482  0.184595  1
  Al  Al26  1  0.855357  0.041728  0.815860  1
  Al  Al27  1  0.144643  0.958272  0.184140  1
  Pt  Pt28  1  0.119669  0.492188  0.638788  1
  Pt  Pt29  1  0.880331  0.507812  0.361212  1
  Pt  Pt30  1  0.657179  0.171333  0.999821  1
  Pt  Pt31  1  0.342821  0.828667  0.000179  1
  Pt  Pt32  1  0.538085  0.166897  0.361225  1
  Pt  Pt33  1  0.461915  0.833103  0.638775  1
  Pt  Pt34  1  0.778829  0.175001  0.637148  1
  Pt  Pt35  1  0.221171  0.824999  0.362852  1
  Pt  Pt36  1  0.000000  0.500000  0.000000  1
