# generated using pymatgen
data_La8Zn7In(IrRh3)2
_symmetry_space_group_name_H-M   'P 1'
_cell_length_a   4.06930900
_cell_length_b   7.54405633
_cell_length_c   16.77337583
_cell_angle_alpha   89.98401025
_cell_angle_beta   90.00000000
_cell_angle_gamma   90.00000000
_symmetry_Int_Tables_number   1
_chemical_formula_structural   La8Zn7In(IrRh3)2
_chemical_formula_sum   'La8 Zn7 In1 Ir2 Rh6'
_cell_volume   514.92746027
_cell_formula_units_Z   1
loop_
 _symmetry_equiv_pos_site_id
 _symmetry_equiv_pos_as_xyz
  1  'x, y, z'
loop_
 _atom_site_type_symbol
 _atom_site_label
 _atom_site_symmetry_multiplicity
 _atom_site_fract_x
 _atom_site_fract_y
 _atom_site_fract_z
 _atom_site_occupancy
  La  La0  1  0.750000  0.327899  0.441439  1
  La  La1  1  0.250000  0.048628  0.717006  1
  La  La2  1  0.250000  0.546409  0.781762  1
  La  La3  1  0.250000  0.672849  0.560524  1
  La  La4  1  0.750000  0.818881  0.056653  1
  La  La5  1  0.250000  0.173413  0.937278  1
  La  La6  1  0.750000  0.458911  0.219845  1
  La  La7  1  0.750000  0.947203  0.289669  1
  Zn  Zn8  1  0.250000  0.999911  0.442988  1
  Zn  Zn9  1  0.750000  0.872972  0.849697  1
  Zn  Zn10  1  0.750000  0.001793  0.559957  1
  Zn  Zn11  1  0.250000  0.500122  0.058286  1
  Zn  Zn12  1  0.750000  0.371625  0.649653  1
  Zn  Zn13  1  0.750000  0.502152  0.936872  1
  Zn  Zn14  1  0.250000  0.622901  0.353398  1
  In  In15  1  0.250000  0.122439  0.150925  1
  Ir  Ir16  1  0.750000  0.255345  0.812868  1
  Ir  Ir17  1  0.250000  0.245354  0.315476  1
  Rh  Rh18  1  0.250000  0.741322  0.932503  1
  Rh  Rh19  1  0.250000  0.242310  0.566266  1
  Rh  Rh20  1  0.250000  0.744058  0.184524  1
  Rh  Rh21  1  0.750000  0.758128  0.436432  1
  Rh  Rh22  1  0.750000  0.269351  0.061428  1
  Rh  Rh23  1  0.750000  0.756029  0.684546  1
