# generated using pymatgen
data_Th2Zn4SnAu
_symmetry_space_group_name_H-M   'P 1'
_cell_length_a   8.57146947
_cell_length_b   8.57146877
_cell_length_c   9.14642654
_cell_angle_alpha   90.50713180
_cell_angle_beta   89.49286956
_cell_angle_gamma   149.33765511
_symmetry_Int_Tables_number   1
_chemical_formula_structural   Th2Zn4SnAu
_chemical_formula_sum   'Th4 Zn8 Sn2 Au2'
_cell_volume   342.68483232
_cell_formula_units_Z   2
loop_
 _symmetry_equiv_pos_site_id
 _symmetry_equiv_pos_as_xyz
  1  'x, y, z'
loop_
 _atom_site_type_symbol
 _atom_site_label
 _atom_site_symmetry_multiplicity
 _atom_site_fract_x
 _atom_site_fract_y
 _atom_site_fract_z
 _atom_site_occupancy
  Th  Th0  1  0.205333  0.794667  0.249204  1
  Th  Th1  1  0.794667  0.205333  0.750796  1
  Th  Th2  1  0.000000  0.000000  0.500000  1
  Th  Th3  1  0.000000  0.000000  0.000000  1
  Zn  Zn4  1  0.812434  0.187566  0.094683  1
  Zn  Zn5  1  0.187566  0.812434  0.905317  1
  Zn  Zn6  1  0.662156  0.337844  0.479688  1
  Zn  Zn7  1  0.337844  0.662156  0.520312  1
  Zn  Zn8  1  0.654410  0.345590  0.017360  1
  Zn  Zn9  1  0.345590  0.654410  0.982640  1
  Zn  Zn10  1  0.396362  0.603638  0.247324  1
  Zn  Zn11  1  0.603638  0.396362  0.752676  1
  Sn  Sn12  1  0.556126  0.443874  0.251431  1
  Sn  Sn13  1  0.443874  0.556126  0.748569  1
  Au  Au14  1  0.824550  0.175450  0.381813  1
  Au  Au15  1  0.175450  0.824550  0.618187  1
