# generated using pymatgen
data_Tm4(Ga8Pd3)3
_symmetry_space_group_name_H-M   'P 1'
_cell_length_a   7.48442396
_cell_length_b   7.55517204
_cell_length_c   13.40903425
_cell_angle_alpha   84.84544624
_cell_angle_beta   79.73980719
_cell_angle_gamma   60.29596168
_symmetry_Int_Tables_number   1
_chemical_formula_structural   Tm4(Ga8Pd3)3
_chemical_formula_sum   'Tm4 Ga24 Pd9'
_cell_volume   648.06221123
_cell_formula_units_Z   1
loop_
 _symmetry_equiv_pos_site_id
 _symmetry_equiv_pos_as_xyz
  1  'x, y, z'
loop_
 _atom_site_type_symbol
 _atom_site_label
 _atom_site_symmetry_multiplicity
 _atom_site_fract_x
 _atom_site_fract_y
 _atom_site_fract_z
 _atom_site_occupancy
  Tm  Tm0  1  0.394311  0.168696  0.810892  1
  Tm  Tm1  1  0.605689  0.831304  0.189108  1
  Tm  Tm2  1  0.732273  0.497219  0.810940  1
  Tm  Tm3  1  0.267727  0.502781  0.189060  1
  Ga  Ga4  1  0.685585  0.833649  0.938686  1
  Ga  Ga5  1  0.314415  0.166351  0.061314  1
  Ga  Ga6  1  0.144577  0.835157  0.558555  1
  Ga  Ga7  1  0.855423  0.164843  0.441445  1
  Ga  Ga8  1  0.478244  0.167026  0.556354  1
  Ga  Ga9  1  0.521756  0.832974  0.443646  1
  Ga  Ga10  1  0.220639  0.165144  0.324322  1
  Ga  Ga11  1  0.779361  0.834856  0.675678  1
  Ga  Ga12  1  0.436424  0.504118  0.675217  1
  Ga  Ga13  1  0.563576  0.495882  0.324783  1
  Ga  Ga14  1  0.106952  0.162438  0.674557  1
  Ga  Ga15  1  0.893048  0.837562  0.325443  1
  Ga  Ga16  1  0.357657  0.497992  0.939232  1
  Ga  Ga17  1  0.642343  0.502008  0.060768  1
  Ga  Ga18  1  0.019645  0.168993  0.944053  1
  Ga  Ga19  1  0.980355  0.831007  0.055947  1
  Ga  Ga20  1  0.187073  0.499977  0.443174  1
  Ga  Ga21  1  0.812927  0.500023  0.556826  1
  Ga  Ga22  1  0.733392  0.163778  0.182202  1
  Ga  Ga23  1  0.266608  0.836222  0.817798  1
  Ga  Ga24  1  0.060707  0.629541  0.816913  1
  Ga  Ga25  1  0.939293  0.370459  0.183087  1
  Ga  Ga26  1  0.855152  0.041196  0.816963  1
  Ga  Ga27  1  0.144848  0.958804  0.183037  1
  Pd  Pd28  1  0.116817  0.495506  0.639244  1
  Pd  Pd29  1  0.883183  0.504494  0.360756  1
  Pd  Pd30  1  0.660100  0.169484  0.999042  1
  Pd  Pd31  1  0.339900  0.830516  0.000958  1
  Pd  Pd32  1  0.541644  0.167047  0.360117  1
  Pd  Pd33  1  0.458356  0.832952  0.639883  1
  Pd  Pd34  1  0.777894  0.172954  0.638452  1
  Pd  Pd35  1  0.222106  0.827046  0.361548  1
  Pd  Pd36  1  0.000000  0.500000  0.000000  1
