# generated using pymatgen
data_Dy16Al4Co3Ru
_symmetry_space_group_name_H-M   'P 1'
_cell_length_a   9.44191597
_cell_length_b   9.44191592
_cell_length_c   9.44462048
_cell_angle_alpha   60.00946825
_cell_angle_beta   60.00946012
_cell_angle_gamma   59.99999862
_symmetry_Int_Tables_number   1
_chemical_formula_structural   Dy16Al4Co3Ru
_chemical_formula_sum   'Dy16 Al4 Co3 Ru1'
_cell_volume   595.45902227
_cell_formula_units_Z   1
loop_
 _symmetry_equiv_pos_site_id
 _symmetry_equiv_pos_as_xyz
  1  'x, y, z'
loop_
 _atom_site_type_symbol
 _atom_site_label
 _atom_site_symmetry_multiplicity
 _atom_site_fract_x
 _atom_site_fract_y
 _atom_site_fract_z
 _atom_site_occupancy
  Dy  Dy0  1  0.147403  0.550576  0.154615  1
  Dy  Dy1  1  0.694741  0.308142  0.688975  1
  Dy  Dy2  1  0.691397  0.309436  0.307770  1
  Dy  Dy3  1  0.936504  0.563103  0.563891  1
  Dy  Dy4  1  0.550576  0.147403  0.154615  1
  Dy  Dy5  1  0.151477  0.151477  0.545570  1
  Dy  Dy6  1  0.936504  0.936504  0.563891  1
  Dy  Dy7  1  0.309436  0.691397  0.307770  1
  Dy  Dy8  1  0.560792  0.940864  0.937550  1
  Dy  Dy9  1  0.563103  0.936504  0.563891  1
  Dy  Dy10  1  0.691397  0.691397  0.307770  1
  Dy  Dy11  1  0.560792  0.560792  0.937550  1
  Dy  Dy12  1  0.940864  0.560792  0.937550  1
  Dy  Dy13  1  0.308142  0.694741  0.688975  1
  Dy  Dy14  1  0.147403  0.147403  0.154615  1
  Dy  Dy15  1  0.308142  0.308142  0.688975  1
  Al  Al16  1  0.923670  0.231342  0.921320  1
  Al  Al17  1  0.923670  0.923670  0.921320  1
  Al  Al18  1  0.923103  0.923103  0.230691  1
  Al  Al19  1  0.231342  0.923670  0.921320  1
  Co  Co20  1  0.359879  0.921226  0.359018  1
  Co  Co21  1  0.921226  0.359879  0.359018  1
  Co  Co22  1  0.359879  0.359879  0.359018  1
  Ru  Ru23  1  0.358560  0.358560  0.924322  1
