# generated using pymatgen
data_Sc4Co3NiRu4
_symmetry_space_group_name_H-M   'P 1'
_cell_length_a   4.96060295
_cell_length_b   4.98828570
_cell_length_c   8.40019300
_cell_angle_alpha   90.00000000
_cell_angle_beta   90.00000000
_cell_angle_gamma   120.24822909
_symmetry_Int_Tables_number   1
_chemical_formula_structural   Sc4Co3NiRu4
_chemical_formula_sum   'Sc4 Co3 Ni1 Ru4'
_cell_volume   179.56179117
_cell_formula_units_Z   1
loop_
 _symmetry_equiv_pos_site_id
 _symmetry_equiv_pos_as_xyz
  1  'x, y, z'
loop_
 _atom_site_type_symbol
 _atom_site_label
 _atom_site_symmetry_multiplicity
 _atom_site_fract_x
 _atom_site_fract_y
 _atom_site_fract_z
 _atom_site_occupancy
  Sc  Sc0  1  0.331112  0.665876  0.433739  1
  Sc  Sc1  1  0.665401  0.334561  0.567821  1
  Sc  Sc2  1  0.665401  0.334561  0.932179  1
  Sc  Sc3  1  0.331112  0.665876  0.066261  1
  Co  Co4  1  0.170646  0.337886  0.750000  1
  Co  Co5  1  0.173793  0.829667  0.750000  1
  Co  Co6  1  0.343092  0.166472  0.250000  1
  Ni  Ni7  1  0.831827  0.661862  0.250000  1
  Ru  Ru8  1  0.652679  0.826187  0.750000  1
  Ru  Ru9  1  0.005194  0.004496  0.998901  1
  Ru  Ru10  1  0.824547  0.168058  0.250000  1
  Ru  Ru11  1  0.005194  0.004496  0.501099  1
