# generated using pymatgen
data_Er7Tm9Cd4(NiIr)2
_symmetry_space_group_name_H-M   'P 1'
_cell_length_a   9.49506399
_cell_length_b   9.49431285
_cell_length_c   9.54120615
_cell_angle_alpha   59.70952359
_cell_angle_beta   59.71362415
_cell_angle_gamma   59.48365611
_symmetry_Int_Tables_number   1
_chemical_formula_structural   Er7Tm9Cd4(NiIr)2
_chemical_formula_sum   'Er7 Tm9 Cd4 Ni2 Ir2'
_cell_volume   603.16192441
_cell_formula_units_Z   1
loop_
 _symmetry_equiv_pos_site_id
 _symmetry_equiv_pos_as_xyz
  1  'x, y, z'
loop_
 _atom_site_type_symbol
 _atom_site_label
 _atom_site_symmetry_multiplicity
 _atom_site_fract_x
 _atom_site_fract_y
 _atom_site_fract_z
 _atom_site_occupancy
  Er  Er0  1  0.811750  0.811381  0.187051  1
  Er  Er1  1  0.937308  0.561822  0.566413  1
  Er  Er2  1  0.560684  0.938017  0.936309  1
  Er  Er3  1  0.561795  0.937316  0.566367  1
  Er  Er4  1  0.938009  0.560735  0.936219  1
  Er  Er5  1  0.565990  0.566218  0.935100  1
  Er  Er6  1  0.940335  0.940446  0.560119  1
  Tm  Tm7  1  0.349146  0.349038  0.343563  1
  Tm  Tm8  1  0.351565  0.351306  0.954270  1
  Tm  Tm9  1  0.353982  0.952284  0.348379  1
  Tm  Tm10  1  0.952217  0.354108  0.348320  1
  Tm  Tm11  1  0.807959  0.187895  0.189891  1
  Tm  Tm12  1  0.186317  0.810118  0.813088  1
  Tm  Tm13  1  0.187778  0.808075  0.189878  1
  Tm  Tm14  1  0.809984  0.186404  0.813154  1
  Tm  Tm15  1  0.188697  0.188815  0.810174  1
  Cd  Cd16  1  0.579121  0.579065  0.582816  1
  Cd  Cd17  1  0.579480  0.579460  0.256943  1
  Cd  Cd18  1  0.579651  0.255898  0.581578  1
  Cd  Cd19  1  0.255685  0.579732  0.581632  1
  Ni  Ni20  1  0.141904  0.575108  0.141376  1
  Ni  Ni21  1  0.575418  0.141207  0.141769  1
  Ir  Ir22  1  0.143205  0.143339  0.142172  1
  Ir  Ir23  1  0.142019  0.142215  0.573417  1
