# generated using pymatgen
data_La10Ga3SiIr2
_symmetry_space_group_name_H-M   'P 1'
_cell_length_a   8.30113483
_cell_length_b   9.09539388
_cell_length_c   12.52598800
_cell_angle_alpha   90.16987063
_cell_angle_beta   90.40543639
_cell_angle_gamma   89.85686896
_symmetry_Int_Tables_number   1
_chemical_formula_structural   La10Ga3SiIr2
_chemical_formula_sum   'La20 Ga6 Si2 Ir4'
_cell_volume   945.70754916
_cell_formula_units_Z   2
loop_
 _symmetry_equiv_pos_site_id
 _symmetry_equiv_pos_as_xyz
  1  'x, y, z'
loop_
 _atom_site_type_symbol
 _atom_site_label
 _atom_site_symmetry_multiplicity
 _atom_site_fract_x
 _atom_site_fract_y
 _atom_site_fract_z
 _atom_site_occupancy
  La  La0  1  0.669969  0.747818  0.714401  1
  La  La1  1  0.330031  0.252182  0.285599  1
  La  La2  1  0.175694  0.253835  0.788433  1
  La  La3  1  0.824306  0.746165  0.211567  1
  La  La4  1  0.147475  0.748173  0.803766  1
  La  La5  1  0.852525  0.251827  0.196234  1
  La  La6  1  0.637930  0.253293  0.699370  1
  La  La7  1  0.362070  0.746707  0.300630  1
  La  La8  1  0.542321  0.745317  0.999129  1
  La  La9  1  0.457679  0.254683  0.000871  1
  La  La10  1  0.043854  0.249765  0.500239  1
  La  La11  1  0.956146  0.750235  0.499761  1
  La  La12  1  0.817335  0.463342  0.925284  1
  La  La13  1  0.182665  0.536658  0.074716  1
  La  La14  1  0.323318  0.536556  0.578592  1
  La  La15  1  0.178619  0.964108  0.076436  1
  La  La16  1  0.676682  0.463444  0.421408  1
  La  La17  1  0.821381  0.035892  0.923564  1
  La  La18  1  0.678591  0.036323  0.423532  1
  La  La19  1  0.321409  0.963677  0.576468  1
  Ga  Ga20  1  0.940732  0.009748  0.669604  1
  Ga  Ga21  1  0.059268  0.990252  0.330396  1
  Ga  Ga22  1  0.441140  0.991567  0.828653  1
  Ga  Ga23  1  0.060234  0.509498  0.329362  1
  Ga  Ga24  1  0.558860  0.008433  0.171347  1
  Ga  Ga25  1  0.939766  0.490502  0.670638  1
  Si  Si26  1  0.557763  0.493185  0.172373  1
  Si  Si27  1  0.442237  0.506815  0.827627  1
  Ir  Ir28  1  0.925918  0.749236  0.986545  1
  Ir  Ir29  1  0.074082  0.250764  0.013455  1
  Ir  Ir30  1  0.424498  0.250684  0.513515  1
  Ir  Ir31  1  0.575502  0.749316  0.486485  1
