# generated using pymatgen
data_HoEr11In2Fe2Ru
_symmetry_space_group_name_H-M   'P 1'
_cell_length_a   8.29950863
_cell_length_b   8.29951810
_cell_length_c   8.29912106
_cell_angle_alpha   108.69627256
_cell_angle_beta   108.69528259
_cell_angle_gamma   111.03556039
_symmetry_Int_Tables_number   1
_chemical_formula_structural   HoEr11In2Fe2Ru
_chemical_formula_sum   'Ho1 Er11 In2 Fe2 Ru1'
_cell_volume   439.80592831
_cell_formula_units_Z   1
loop_
 _symmetry_equiv_pos_site_id
 _symmetry_equiv_pos_as_xyz
  1  'x, y, z'
loop_
 _atom_site_type_symbol
 _atom_site_label
 _atom_site_symmetry_multiplicity
 _atom_site_fract_x
 _atom_site_fract_y
 _atom_site_fract_z
 _atom_site_occupancy
  Ho  Ho0  1  0.693344  0.306654  0.000000  1
  Er  Er1  1  0.431900  0.193352  0.238629  1
  Er  Er2  1  0.568042  0.806574  0.761387  1
  Er  Er3  1  0.954815  0.193339  0.761395  1
  Er  Er4  1  0.193259  0.954716  0.761370  1
  Er  Er5  1  0.045274  0.806741  0.238640  1
  Er  Er6  1  0.806662  0.045191  0.238608  1
  Er  Er7  1  0.193419  0.431950  0.238616  1
  Er  Er8  1  0.806651  0.568100  0.761366  1
  Er  Er9  1  0.306718  0.306770  0.613489  1
  Er  Er10  1  0.693241  0.693287  0.386514  1
  Er  Er11  1  0.306778  0.693241  0.999997  1
  In  In12  1  0.499990  0.999988  0.499980  1
  In  In13  1  0.000001  0.500002  0.500013  1
  Fe  Fe14  1  0.385703  0.385791  0.999998  1
  Fe  Fe15  1  0.614209  0.614302  0.999999  1
  Ru  Ru16  1  0.999995  0.000003  0.999999  1
