# generated using pymatgen
data_Cs12V3WS16
_symmetry_space_group_name_H-M   'P 1'
_cell_length_a   9.91086005
_cell_length_b   11.75184800
_cell_length_c   9.98953904
_cell_angle_alpha   90.00005306
_cell_angle_beta   89.98905737
_cell_angle_gamma   90.00001553
_symmetry_Int_Tables_number   1
_chemical_formula_structural   Cs12V3WS16
_chemical_formula_sum   'Cs12 V3 W1 S16'
_cell_volume   1163.49078981
_cell_formula_units_Z   1
loop_
 _symmetry_equiv_pos_site_id
 _symmetry_equiv_pos_as_xyz
  1  'x, y, z'
loop_
 _atom_site_type_symbol
 _atom_site_label
 _atom_site_symmetry_multiplicity
 _atom_site_fract_x
 _atom_site_fract_y
 _atom_site_fract_z
 _atom_site_occupancy
  Cs  Cs0  1  0.042624  0.545966  0.287487  1
  Cs  Cs1  1  0.459652  0.461491  0.795953  1
  Cs  Cs2  1  0.548001  0.956033  0.206684  1
  Cs  Cs3  1  0.949342  0.037578  0.712606  1
  Cs  Cs4  1  0.949342  0.462422  0.712606  1
  Cs  Cs5  1  0.548001  0.543967  0.206684  1
  Cs  Cs6  1  0.459652  0.038509  0.795953  1
  Cs  Cs7  1  0.042624  0.954034  0.287487  1
  Cs  Cs8  1  0.145374  0.250000  0.082569  1
  Cs  Cs9  1  0.352386  0.749999  0.585503  1
  Cs  Cs10  1  0.651509  0.250000  0.412875  1
  Cs  Cs11  1  0.852089  0.749999  0.916050  1
  V  V12  1  0.277474  0.750000  0.017353  1
  V  V13  1  0.722179  0.250000  0.982468  1
  V  V14  1  0.776768  0.750000  0.482584  1
  W  W15  1  0.223595  0.250001  0.517181  1
  S  S16  1  0.210543  0.250000  0.740180  1
  S  S17  1  0.289708  0.749999  0.235040  1
  S  S18  1  0.710233  0.250000  0.764239  1
  S  S19  1  0.789656  0.749999  0.264969  1
  S  S20  1  0.015299  0.250000  0.430709  1
  S  S21  1  0.481031  0.749999  0.934571  1
  S  S22  1  0.518288  0.250000  0.065840  1
  S  S23  1  0.980177  0.749999  0.565532  1
  S  S24  1  0.330642  0.092353  0.452976  1
  S  S25  1  0.172140  0.902940  0.953668  1
  S  S26  1  0.828014  0.402637  0.046329  1
  S  S27  1  0.671430  0.596852  0.545461  1
  S  S28  1  0.671430  0.903147  0.545461  1
  S  S29  1  0.828014  0.097364  0.046330  1
  S  S30  1  0.172140  0.597060  0.953668  1
  S  S31  1  0.330641  0.407647  0.452977  1
