# generated using pymatgen
data_YbTmZrSc(Ga3Ir)6
_symmetry_space_group_name_H-M   'P 1'
_cell_length_a   7.52546900
_cell_length_b   7.53277807
_cell_length_c   9.46958500
_cell_angle_alpha   90.00000000
_cell_angle_beta   90.00000000
_cell_angle_gamma   119.84035859
_symmetry_Int_Tables_number   1
_chemical_formula_structural   YbTmZrSc(Ga3Ir)6
_chemical_formula_sum   'Yb1 Tm1 Zr1 Sc1 Ga18 Ir6'
_cell_volume   465.63616677
_cell_formula_units_Z   1
loop_
 _symmetry_equiv_pos_site_id
 _symmetry_equiv_pos_as_xyz
  1  'x, y, z'
loop_
 _atom_site_type_symbol
 _atom_site_label
 _atom_site_symmetry_multiplicity
 _atom_site_fract_x
 _atom_site_fract_y
 _atom_site_fract_z
 _atom_site_occupancy
  Yb  Yb0  1  0.996361  0.668701  0.750000  1
  Tm  Tm1  1  0.668574  0.997525  0.750000  1
  Zr  Zr2  1  0.000614  0.330982  0.250000  1
  Sc  Sc3  1  0.329554  0.999387  0.250000  1
  Ga  Ga4  1  0.127039  0.127875  0.750000  1
  Ga  Ga5  1  0.877872  0.877150  0.250000  1
  Ga  Ga6  1  0.000775  0.336220  0.577291  1
  Ga  Ga7  1  0.004241  0.665720  0.415044  1
  Ga  Ga8  1  0.004241  0.665720  0.084956  1
  Ga  Ga9  1  0.333077  0.999111  0.923115  1
  Ga  Ga10  1  0.000775  0.336220  0.922709  1
  Ga  Ga11  1  0.665232  0.004327  0.086503  1
  Ga  Ga12  1  0.665232  0.004327  0.413497  1
  Ga  Ga13  1  0.333077  0.999111  0.576885  1
  Ga  Ga14  1  0.328971  0.328205  0.074048  1
  Ga  Ga15  1  0.668667  0.667264  0.938992  1
  Ga  Ga16  1  0.668667  0.667264  0.561008  1
  Ga  Ga17  1  0.328971  0.328205  0.425952  1
  Ga  Ga18  1  0.340074  0.547237  0.750000  1
  Ga  Ga19  1  0.660714  0.448055  0.250000  1
  Ga  Ga20  1  0.545240  0.336929  0.750000  1
  Ga  Ga21  1  0.448447  0.660477  0.250000  1
  Ir  Ir22  1  0.672061  0.328308  0.498283  1
  Ir  Ir23  1  0.329885  0.672233  0.498153  1
  Ir  Ir24  1  0.329885  0.672233  0.001847  1
  Ir  Ir25  1  0.672061  0.328308  0.001717  1
  Ir  Ir26  1  0.999847  0.001454  0.497866  1
  Ir  Ir27  1  0.999847  0.001454  0.002134  1
