# generated using pymatgen
data_Tb5Sm3(AsI6)2
_symmetry_space_group_name_H-M   'P 1'
_cell_length_a   4.29068100
_cell_length_b   14.05602139
_cell_length_c   14.82757352
_cell_angle_alpha   89.93316054
_cell_angle_beta   90.00000000
_cell_angle_gamma   90.00000000
_symmetry_Int_Tables_number   1
_chemical_formula_structural   Tb5Sm3(AsI6)2
_chemical_formula_sum   'Tb5 Sm3 As2 I12'
_cell_volume   894.24892599
_cell_formula_units_Z   1
loop_
 _symmetry_equiv_pos_site_id
 _symmetry_equiv_pos_as_xyz
  1  'x, y, z'
loop_
 _atom_site_type_symbol
 _atom_site_label
 _atom_site_symmetry_multiplicity
 _atom_site_fract_x
 _atom_site_fract_y
 _atom_site_fract_z
 _atom_site_occupancy
  Tb  Tb0  1  0.500000  0.115043  0.347538  1
  Tb  Tb1  1  0.500000  0.884994  0.652520  1
  Tb  Tb2  1  0.500000  0.615035  0.152437  1
  Tb  Tb3  1  0.500000  0.385047  0.847422  1
  Tb  Tb4  1  0.000000  0.389499  0.073784  1
  Sm  Sm5  1  0.000000  0.111255  0.574306  1
  Sm  Sm6  1  0.000000  0.888802  0.425616  1
  Sm  Sm7  1  0.000000  0.610159  0.926323  1
  As  As8  1  0.500000  0.000013  0.499973  1
  As  As9  1  0.500000  0.497679  0.001472  1
  I  I10  1  0.500000  0.246718  0.160709  1
  I  I11  1  0.500000  0.756166  0.837756  1
  I  I12  1  0.500000  0.742863  0.337066  1
  I  I13  1  0.500000  0.256922  0.663057  1
  I  I14  1  0.000000  0.258648  0.411855  1
  I  I15  1  0.000000  0.741441  0.587987  1
  I  I16  1  0.000000  0.758446  0.087888  1
  I  I17  1  0.000000  0.242697  0.914287  1
  I  I18  1  0.000000  0.002691  0.239991  1
  I  I19  1  0.000000  0.997722  0.759890  1
  I  I20  1  0.000000  0.500393  0.257798  1
  I  I21  1  0.000000  0.497764  0.740324  1
