# generated using pymatgen
data_Tm12Co6Sn
_symmetry_space_group_name_H-M   'P 1'
_cell_length_a   8.27222439
_cell_length_b   8.27222489
_cell_length_c   8.27222400
_cell_angle_alpha   109.47121846
_cell_angle_beta   109.47121967
_cell_angle_gamma   109.47122732
_symmetry_Int_Tables_number   1
_chemical_formula_structural   Tm12Co6Sn
_chemical_formula_sum   'Tm12 Co6 Sn1'
_cell_volume   435.75764525
_cell_formula_units_Z   1
loop_
 _symmetry_equiv_pos_site_id
 _symmetry_equiv_pos_as_xyz
  1  'x, y, z'
loop_
 _atom_site_type_symbol
 _atom_site_label
 _atom_site_symmetry_multiplicity
 _atom_site_fract_x
 _atom_site_fract_y
 _atom_site_fract_z
 _atom_site_occupancy
  Tm  Tm0  1  0.303562  0.497023  0.193460  1
  Tm  Tm1  1  0.806540  0.696438  0.502977  1
  Tm  Tm2  1  0.110101  0.806540  0.303562  1
  Tm  Tm3  1  0.806540  0.303562  0.110101  1
  Tm  Tm4  1  0.889899  0.193460  0.696438  1
  Tm  Tm5  1  0.193460  0.303562  0.497023  1
  Tm  Tm6  1  0.497023  0.193460  0.303562  1
  Tm  Tm7  1  0.502977  0.806540  0.696438  1
  Tm  Tm8  1  0.193460  0.696438  0.889899  1
  Tm  Tm9  1  0.303562  0.110101  0.806540  1
  Tm  Tm10  1  0.696438  0.889899  0.193460  1
  Tm  Tm11  1  0.696438  0.502977  0.806540  1
  Co  Co12  1  0.614497  0.500000  0.114497  1
  Co  Co13  1  0.114497  0.614497  0.500000  1
  Co  Co14  1  0.500000  0.885503  0.385503  1
  Co  Co15  1  0.885503  0.385503  0.500000  1
  Co  Co16  1  0.500000  0.114497  0.614497  1
  Co  Co17  1  0.385503  0.500000  0.885503  1
  Sn  Sn18  1  0.000000  0.000000  0.000000  1
