# generated using pymatgen
data_Dy10HgPPb6
_symmetry_space_group_name_H-M   'P 1'
_cell_length_a   9.23026304
_cell_length_b   9.23023800
_cell_length_c   6.77020000
_cell_angle_alpha   89.99965889
_cell_angle_beta   89.99934507
_cell_angle_gamma   119.99973992
_symmetry_Int_Tables_number   1
_chemical_formula_structural   Dy10HgPPb6
_chemical_formula_sum   'Dy10 Hg1 P1 Pb6'
_cell_volume   499.52846983
_cell_formula_units_Z   1
loop_
 _symmetry_equiv_pos_site_id
 _symmetry_equiv_pos_as_xyz
  1  'x, y, z'
loop_
 _atom_site_type_symbol
 _atom_site_label
 _atom_site_symmetry_multiplicity
 _atom_site_fract_x
 _atom_site_fract_y
 _atom_site_fract_z
 _atom_site_occupancy
  Dy  Dy0  1  0.255182  0.000006  0.222353  1
  Dy  Dy1  1  0.744818  0.999994  0.777647  1
  Dy  Dy2  1  0.000006  0.255181  0.222354  1
  Dy  Dy3  1  0.999994  0.744819  0.777646  1
  Dy  Dy4  1  0.744821  0.744822  0.222354  1
  Dy  Dy5  1  0.255179  0.255178  0.777646  1
  Dy  Dy6  1  0.333333  0.666665  0.000000  1
  Dy  Dy7  1  0.666667  0.333335  0.000000  1
  Dy  Dy8  1  0.666670  0.333330  0.500000  1
  Dy  Dy9  1  0.333330  0.666670  0.500000  1
  Hg  Hg10  1  0.000000  0.000000  0.500000  1
  P  P11  1  0.000000  0.000000  0.000000  1
  Pb  Pb12  1  0.608274  0.000003  0.250227  1
  Pb  Pb13  1  0.391726  0.999997  0.749773  1
  Pb  Pb14  1  0.000000  0.608273  0.250228  1
  Pb  Pb15  1  0.000000  0.391727  0.749772  1
  Pb  Pb16  1  0.391731  0.391730  0.250231  1
  Pb  Pb17  1  0.608269  0.608270  0.749769  1
