# generated using pymatgen
data_Tb2Gd2Ho2CoBr10
_symmetry_space_group_name_H-M   'P 1'
_cell_length_a   7.41911084
_cell_length_b   9.26006944
_cell_length_c   9.28261100
_cell_angle_alpha   107.25284697
_cell_angle_beta   96.30453737
_cell_angle_gamma   105.78851782
_symmetry_Int_Tables_number   1
_chemical_formula_structural   Tb2Gd2Ho2CoBr10
_chemical_formula_sum   'Tb2 Gd2 Ho2 Co1 Br10'
_cell_volume   573.32560650
_cell_formula_units_Z   1
loop_
 _symmetry_equiv_pos_site_id
 _symmetry_equiv_pos_as_xyz
  1  'x, y, z'
loop_
 _atom_site_type_symbol
 _atom_site_label
 _atom_site_symmetry_multiplicity
 _atom_site_fract_x
 _atom_site_fract_y
 _atom_site_fract_z
 _atom_site_occupancy
  Tb  Tb0  1  0.353166  0.131268  0.674608  1
  Tb  Tb1  1  0.646834  0.868732  0.325392  1
  Gd  Gd2  1  0.878732  0.952431  0.734010  1
  Gd  Gd3  1  0.121268  0.047569  0.265990  1
  Ho  Ho4  1  0.030731  0.709100  0.410136  1
  Ho  Ho5  1  0.969269  0.290900  0.589864  1
  Co  Co6  1  0.000000  0.000000  0.500000  1
  Br  Br7  1  0.452881  0.822165  0.584088  1
  Br  Br8  1  0.547119  0.177835  0.415912  1
  Br  Br9  1  0.916633  0.626899  0.668868  1
  Br  Br10  1  0.083367  0.373101  0.331132  1
  Br  Br11  1  0.248262  0.081971  0.952503  1
  Br  Br12  1  0.751738  0.918029  0.047497  1
  Br  Br13  1  0.342174  0.447641  0.769046  1
  Br  Br14  1  0.657826  0.552359  0.230954  1
  Br  Br15  1  0.780017  0.251707  0.837768  1
  Br  Br16  1  0.219983  0.748293  0.162232  1
