# generated using pymatgen
data_Pr3Ho3(AuO7)2
_symmetry_space_group_name_H-M   'P 1'
_cell_length_a   6.49917060
_cell_length_b   6.51448867
_cell_length_c   7.63978900
_cell_angle_alpha   106.95675006
_cell_angle_beta   89.86290443
_cell_angle_gamma   99.04885185
_symmetry_Int_Tables_number   1
_chemical_formula_structural   Pr3Ho3(AuO7)2
_chemical_formula_sum   'Pr3 Ho3 Au2 O14'
_cell_volume   305.22258997
_cell_formula_units_Z   1
loop_
 _symmetry_equiv_pos_site_id
 _symmetry_equiv_pos_as_xyz
  1  'x, y, z'
loop_
 _atom_site_type_symbol
 _atom_site_label
 _atom_site_symmetry_multiplicity
 _atom_site_fract_x
 _atom_site_fract_y
 _atom_site_fract_z
 _atom_site_occupancy
  Pr  Pr0  1  0.735354  0.463343  0.113797  1
  Pr  Pr1  1  0.744839  0.480288  0.622075  1
  Pr  Pr2  1  0.252523  0.519837  0.381561  1
  Ho  Ho3  1  0.462556  0.002452  0.252042  1
  Ho  Ho4  1  0.534273  0.995558  0.747132  1
  Ho  Ho5  1  0.267057  0.536727  0.883719  1
  Au  Au6  1  0.001938  0.002531  0.502128  1
  Au  Au7  1  0.003820  0.999639  0.998222  1
  O  O8  1  0.439386  0.651647  0.157912  1
  O  O9  1  0.538500  0.345375  0.833301  1
  O  O10  1  0.299415  0.935625  0.961310  1
  O  O11  1  0.703992  0.057677  0.037593  1
  O  O12  1  0.297085  0.936000  0.507428  1
  O  O13  1  0.705222  0.063857  0.492578  1
  O  O14  1  0.546293  0.354046  0.342420  1
  O  O15  1  0.446615  0.645416  0.666549  1
  O  O16  1  0.940180  0.668853  0.939087  1
  O  O17  1  0.078248  0.328776  0.049531  1
  O  O18  1  0.078336  0.333353  0.615124  1
  O  O19  1  0.923641  0.672926  0.395001  1
  O  O20  1  0.890104  0.921221  0.730646  1
  O  O21  1  0.110620  0.084851  0.270845  1
