# generated using pymatgen
data_Yb2Fe(CN)2
_symmetry_space_group_name_H-M   'P 1'
_cell_length_a   6.52147816
_cell_length_b   6.52147816
_cell_length_c   6.52147868
_cell_angle_alpha   135.90546645
_cell_angle_beta   112.11571146
_cell_angle_gamma   84.56760983
_symmetry_Int_Tables_number   1
_chemical_formula_structural   Yb2Fe(CN)2
_chemical_formula_sum   'Yb4 Fe2 C4 N4'
_cell_volume   172.02711248
_cell_formula_units_Z   2
loop_
 _symmetry_equiv_pos_site_id
 _symmetry_equiv_pos_as_xyz
  1  'x, y, z'
loop_
 _atom_site_type_symbol
 _atom_site_label
 _atom_site_symmetry_multiplicity
 _atom_site_fract_x
 _atom_site_fract_y
 _atom_site_fract_z
 _atom_site_occupancy
  Yb  Yb0  1  0.195007  0.351094  0.843912  1
  Yb  Yb1  1  0.804993  0.648906  0.156088  1
  Yb  Yb2  1  0.507181  0.851094  0.656088  1
  Yb  Yb3  1  0.492819  0.148906  0.343912  1
  Fe  Fe4  1  0.000000  0.250000  0.250000  1
  Fe  Fe5  1  0.000000  0.750000  0.750000  1
  C  C6  1  0.909085  0.076309  0.832776  1
  C  C7  1  0.090915  0.923691  0.167224  1
  C  C8  1  0.243532  0.576309  0.667224  1
  C  C9  1  0.756468  0.423691  0.332776  1
  N  N10  1  0.794492  0.128242  0.666251  1
  N  N11  1  0.205508  0.871758  0.333749  1
  N  N12  1  0.461992  0.628242  0.833749  1
  N  N13  1  0.538008  0.371758  0.166251  1
