# generated using pymatgen
data_Pr4Zr3PdF28
_symmetry_space_group_name_H-M   'P 1'
_cell_length_a   5.82489497
_cell_length_b   9.34224436
_cell_length_c   12.55672444
_cell_angle_alpha   62.10785568
_cell_angle_beta   89.96237419
_cell_angle_gamma   89.93231918
_symmetry_Int_Tables_number   1
_chemical_formula_structural   Pr4Zr3PdF28
_chemical_formula_sum   'Pr4 Zr3 Pd1 F28'
_cell_volume   603.92639277
_cell_formula_units_Z   1
loop_
 _symmetry_equiv_pos_site_id
 _symmetry_equiv_pos_as_xyz
  1  'x, y, z'
loop_
 _atom_site_type_symbol
 _atom_site_label
 _atom_site_symmetry_multiplicity
 _atom_site_fract_x
 _atom_site_fract_y
 _atom_site_fract_z
 _atom_site_occupancy
  Pr  Pr0  1  0.757833  0.815067  0.763894  1
  Pr  Pr1  1  0.257714  0.187744  0.730978  1
  Pr  Pr2  1  0.240696  0.187232  0.240015  1
  Pr  Pr3  1  0.742665  0.809145  0.266897  1
  Zr  Zr4  1  0.754327  0.273264  0.957653  1
  Zr  Zr5  1  0.254648  0.725556  0.543042  1
  Zr  Zr6  1  0.245364  0.725915  0.042919  1
  Pd  Pd7  1  0.741860  0.273685  0.456629  1
  F  F8  1  0.453259  0.710154  0.918467  1
  F  F9  1  0.931148  0.291852  0.578173  1
  F  F10  1  0.544001  0.287924  0.082111  1
  F  F11  1  0.049542  0.711177  0.417757  1
  F  F12  1  0.460852  0.282507  0.539022  1
  F  F13  1  0.952521  0.720363  0.953920  1
  F  F14  1  0.548342  0.717220  0.456236  1
  F  F15  1  0.044501  0.278525  0.048670  1
  F  F16  1  0.772544  0.519487  0.861328  1
  F  F17  1  0.267318  0.479261  0.637618  1
  F  F18  1  0.225554  0.480067  0.140469  1
  F  F19  1  0.733361  0.509650  0.362455  1
  F  F20  1  0.760314  0.027368  0.056858  1
  F  F21  1  0.262394  0.971210  0.446100  1
  F  F22  1  0.238225  0.971510  0.941606  1
  F  F23  1  0.742068  0.037569  0.547272  1
  F  F24  1  0.974189  0.731946  0.638048  1
  F  F25  1  0.478664  0.268552  0.858793  1
  F  F26  1  0.017913  0.271364  0.369347  1
  F  F27  1  0.524008  0.730104  0.139598  1
  F  F28  1  0.049541  0.746557  0.170368  1
  F  F29  1  0.556361  0.259947  0.331753  1
  F  F30  1  0.956515  0.254536  0.830358  1
  F  F31  1  0.453598  0.744456  0.670518  1
  F  F32  1  0.414148  0.968400  0.234278  1
  F  F33  1  0.914544  0.030626  0.269148  1
  F  F34  1  0.588050  0.034114  0.768176  1
  F  F35  1  0.091415  0.965947  0.729525  1
