# generated using pymatgen
data_La2Tb3TcPb2
_symmetry_space_group_name_H-M   'P 1'
_cell_length_a   8.29251700
_cell_length_b   9.41003300
_cell_length_c   12.46387900
_cell_angle_alpha   90.00000000
_cell_angle_beta   90.00000000
_cell_angle_gamma   90.00000000
_symmetry_Int_Tables_number   1
_chemical_formula_structural   La2Tb3TcPb2
_chemical_formula_sum   'La8 Tb12 Tc4 Pb8'
_cell_volume   972.59210790
_cell_formula_units_Z   4
loop_
 _symmetry_equiv_pos_site_id
 _symmetry_equiv_pos_as_xyz
  1  'x, y, z'
loop_
 _atom_site_type_symbol
 _atom_site_label
 _atom_site_symmetry_multiplicity
 _atom_site_fract_x
 _atom_site_fract_y
 _atom_site_fract_z
 _atom_site_occupancy
  La  La0  1  0.852090  0.750000  0.795792  1
  La  La1  1  0.147910  0.250000  0.204208  1
  La  La2  1  0.352090  0.250000  0.704208  1
  La  La3  1  0.647910  0.750000  0.295792  1
  La  La4  1  0.385070  0.750000  0.690933  1
  La  La5  1  0.614930  0.250000  0.309067  1
  La  La6  1  0.885070  0.250000  0.809067  1
  La  La7  1  0.114930  0.750000  0.190933  1
  Tb  Tb8  1  0.951475  0.750000  0.505342  1
  Tb  Tb9  1  0.048525  0.250000  0.494658  1
  Tb  Tb10  1  0.451475  0.250000  0.994658  1
  Tb  Tb11  1  0.548525  0.750000  0.005342  1
  Tb  Tb12  1  0.680671  0.029908  0.567983  1
  Tb  Tb13  1  0.319329  0.970092  0.432017  1
  Tb  Tb14  1  0.180671  0.970092  0.932017  1
  Tb  Tb15  1  0.319329  0.529908  0.432017  1
  Tb  Tb16  1  0.819329  0.029908  0.067983  1
  Tb  Tb17  1  0.680671  0.470092  0.567983  1
  Tb  Tb18  1  0.819329  0.470092  0.067983  1
  Tb  Tb19  1  0.180671  0.529908  0.932017  1
  Tc  Tc20  1  0.569602  0.750000  0.513033  1
  Tc  Tc21  1  0.430398  0.250000  0.486967  1
  Tc  Tc22  1  0.069602  0.250000  0.986967  1
  Tc  Tc23  1  0.930398  0.750000  0.013033  1
  Pb  Pb24  1  0.574599  0.492943  0.834715  1
  Pb  Pb25  1  0.425401  0.507057  0.165285  1
  Pb  Pb26  1  0.074599  0.507057  0.665285  1
  Pb  Pb27  1  0.425401  0.992943  0.165285  1
  Pb  Pb28  1  0.925401  0.492943  0.334715  1
  Pb  Pb29  1  0.574599  0.007057  0.834715  1
  Pb  Pb30  1  0.925401  0.007057  0.334715  1
  Pb  Pb31  1  0.074599  0.992943  0.665285  1
