# generated using pymatgen
data_CsSmTm9(C2I9)2
_symmetry_space_group_name_H-M   'P 1'
_cell_length_a   11.34530253
_cell_length_b   11.37259781
_cell_length_c   11.40923905
_cell_angle_alpha   113.27063627
_cell_angle_beta   86.89358122
_cell_angle_gamma   119.82120011
_symmetry_Int_Tables_number   1
_chemical_formula_structural   CsSmTm9(C2I9)2
_chemical_formula_sum   'Cs1 Sm1 Tm9 C4 I18'
_cell_volume   1154.40870377
_cell_formula_units_Z   1
loop_
 _symmetry_equiv_pos_site_id
 _symmetry_equiv_pos_as_xyz
  1  'x, y, z'
loop_
 _atom_site_type_symbol
 _atom_site_label
 _atom_site_symmetry_multiplicity
 _atom_site_fract_x
 _atom_site_fract_y
 _atom_site_fract_z
 _atom_site_occupancy
  Cs  Cs0  1  0.499888  0.999822  0.500306  1
  Sm  Sm1  1  0.892109  0.056344  0.999514  1
  Tm  Tm2  1  0.681391  0.726043  0.713566  1
  Tm  Tm3  1  0.276498  0.351565  0.016678  1
  Tm  Tm4  1  0.093632  0.387134  0.289314  1
  Tm  Tm5  1  0.966247  0.038638  0.323093  1
  Tm  Tm6  1  0.906723  0.610774  0.709355  1
  Tm  Tm7  1  0.101998  0.945716  0.000489  1
  Tm  Tm8  1  0.034767  0.960886  0.676959  1
  Tm  Tm9  1  0.320840  0.274735  0.287519  1
  Tm  Tm10  1  0.724331  0.647808  0.983201  1
  C  C11  1  0.155733  0.221730  0.122392  1
  C  C12  1  0.847841  0.776253  0.877505  1
  C  C13  1  0.924674  0.853265  0.800412  1
  C  C14  1  0.078888  0.144685  0.199467  1
  I  I15  1  0.450893  0.530720  0.832436  1
  I  I16  1  0.382340  0.040822  0.157831  1
  I  I17  1  0.779052  0.855965  0.501796  1
  I  I18  1  0.838561  0.318272  0.159292  1
  I  I19  1  0.550174  0.469912  0.167531  1
  I  I20  1  0.221574  0.143883  0.498749  1
  I  I21  1  0.315599  0.096334  0.830597  1
  I  I22  1  0.682087  0.900725  0.172592  1
  I  I23  1  0.974576  0.757266  0.168836  1
  I  I24  1  0.934581  0.298125  0.499582  1
  I  I25  1  0.029318  0.245687  0.828040  1
  I  I26  1  0.066155  0.702180  0.500320  1
  I  I27  1  0.259758  0.619839  0.182674  1
  I  I28  1  0.739928  0.379030  0.817027  1
  I  I29  1  0.643419  0.436962  0.502155  1
  I  I30  1  0.161060  0.691300  0.847270  1
  I  I31  1  0.609466  0.954808  0.835964  1
  I  I32  1  0.355898  0.562769  0.497538  1
