# generated using pymatgen
data_Ag(P2Au)3
_symmetry_space_group_name_H-M   'P 1'
_cell_length_a   8.00514710
_cell_length_b   7.92995835
_cell_length_c   4.76113324
_cell_angle_alpha   81.93603186
_cell_angle_beta   85.38938211
_cell_angle_gamma   136.44207631
_symmetry_Int_Tables_number   1
_chemical_formula_structural   Ag(P2Au)3
_chemical_formula_sum   'Ag1 P6 Au3'
_cell_volume   198.73427698
_cell_formula_units_Z   1
loop_
 _symmetry_equiv_pos_site_id
 _symmetry_equiv_pos_as_xyz
  1  'x, y, z'
loop_
 _atom_site_type_symbol
 _atom_site_label
 _atom_site_symmetry_multiplicity
 _atom_site_fract_x
 _atom_site_fract_y
 _atom_site_fract_z
 _atom_site_occupancy
  Ag  Ag0  1  0.000000  0.500000  0.500000  1
  P  P1  1  0.680987  0.683879  0.531068  1
  P  P2  1  0.319013  0.316121  0.468932  1
  P  P3  1  0.212963  0.453802  0.175907  1
  P  P4  1  0.550395  0.789755  0.815611  1
  P  P5  1  0.449605  0.210245  0.184389  1
  P  P6  1  0.787037  0.546198  0.824093  1
  Au  Au7  1  0.108456  0.892452  0.999989  1
  Au  Au8  1  0.891544  0.107548  0.000011  1
  Au  Au9  1  0.500000  0.000000  0.500000  1
