# generated using pymatgen
data_Sr3U(Si5Pt3)2
_symmetry_space_group_name_H-M   'P 1'
_cell_length_a   8.33650828
_cell_length_b   8.34044109
_cell_length_c   8.34043981
_cell_angle_alpha   137.40079214
_cell_angle_beta   104.86589748
_cell_angle_gamma   90.42746115
_symmetry_Int_Tables_number   1
_chemical_formula_structural   Sr3U(Si5Pt3)2
_chemical_formula_sum   'Sr3 U1 Si10 Pt6'
_cell_volume   361.90043546
_cell_formula_units_Z   1
loop_
 _symmetry_equiv_pos_site_id
 _symmetry_equiv_pos_as_xyz
  1  'x, y, z'
loop_
 _atom_site_type_symbol
 _atom_site_label
 _atom_site_symmetry_multiplicity
 _atom_site_fract_x
 _atom_site_fract_y
 _atom_site_fract_z
 _atom_site_occupancy
  Sr  Sr0  1  0.360737  0.626922  0.733815  1
  Sr  Sr1  1  0.106701  0.871848  0.234853  1
  Sr  Sr2  1  0.895288  0.129733  0.765555  1
  U  U3  1  0.640510  0.369881  0.270628  1
  Si  Si4  1  0.468255  0.116022  0.352234  1
  Si  Si5  1  0.537103  0.888769  0.648332  1
  Si  Si6  1  0.758389  0.607494  0.150894  1
  Si  Si7  1  0.237666  0.386836  0.850830  1
  Si  Si8  1  0.272226  0.518489  0.247076  1
  Si  Si9  1  0.730139  0.478979  0.746334  1
  Si  Si10  1  0.730139  0.983804  0.251159  1
  Si  Si11  1  0.272226  0.025150  0.753737  1
  Si  Si12  1  0.994977  0.247682  0.246857  1
  Si  Si13  1  0.994977  0.748120  0.747295  1
  Pt  Pt14  1  0.502019  0.251987  0.753589  1
  Pt  Pt15  1  0.502019  0.748429  0.250032  1
  Pt  Pt16  1  0.249516  0.136526  0.112990  1
  Pt  Pt17  1  0.746038  0.862103  0.883936  1
  Pt  Pt18  1  0.024755  0.635729  0.389024  1
  Pt  Pt19  1  0.976319  0.365493  0.610826  1
