# generated using pymatgen
data_LaDy2RuO7
_symmetry_space_group_name_H-M   'P 1'
_cell_length_a   6.47901301
_cell_length_b   6.47901232
_cell_length_c   7.53136400
_cell_angle_alpha   90.00000000
_cell_angle_beta   90.00000000
_cell_angle_gamma   110.08416521
_symmetry_Int_Tables_number   1
_chemical_formula_structural   LaDy2RuO7
_chemical_formula_sum   'La2 Dy4 Ru2 O14'
_cell_volume   296.92337140
_cell_formula_units_Z   2
loop_
 _symmetry_equiv_pos_site_id
 _symmetry_equiv_pos_as_xyz
  1  'x, y, z'
loop_
 _atom_site_type_symbol
 _atom_site_label
 _atom_site_symmetry_multiplicity
 _atom_site_fract_x
 _atom_site_fract_y
 _atom_site_fract_z
 _atom_site_occupancy
  La  La0  1  0.000000  0.000000  0.500000  1
  La  La1  1  0.000000  0.000000  0.000000  1
  Dy  Dy2  1  0.479154  0.925710  0.750000  1
  Dy  Dy3  1  0.520846  0.074290  0.250000  1
  Dy  Dy4  1  0.925710  0.479154  0.750000  1
  Dy  Dy5  1  0.074290  0.520846  0.250000  1
  Ru  Ru6  1  0.500000  0.500000  0.500000  1
  Ru  Ru7  1  0.500000  0.500000  0.000000  1
  O  O8  1  0.590604  0.590604  0.750000  1
  O  O9  1  0.409396  0.409396  0.250000  1
  O  O10  1  0.834305  0.115399  0.750000  1
  O  O11  1  0.165695  0.884601  0.250000  1
  O  O12  1  0.115399  0.834305  0.750000  1
  O  O13  1  0.884601  0.165695  0.250000  1
  O  O14  1  0.444227  0.183525  0.961787  1
  O  O15  1  0.555773  0.816475  0.461787  1
  O  O16  1  0.183525  0.444227  0.961787  1
  O  O17  1  0.816475  0.555773  0.461787  1
  O  O18  1  0.444227  0.183525  0.538213  1
  O  O19  1  0.555773  0.816475  0.038213  1
  O  O20  1  0.816475  0.555773  0.038213  1
  O  O21  1  0.183525  0.444227  0.538213  1
