# generated using pymatgen
data_Tb5Y(CrC3)4
_symmetry_space_group_name_H-M   'P 1'
_cell_length_a   8.14944251
_cell_length_b   8.15422319
_cell_length_c   5.03959500
_cell_angle_alpha   90.00101911
_cell_angle_beta   90.00016852
_cell_angle_gamma   119.94007646
_symmetry_Int_Tables_number   1
_chemical_formula_structural   Tb5Y(CrC3)4
_chemical_formula_sum   'Tb5 Y1 Cr4 C12'
_cell_volume   290.20085413
_cell_formula_units_Z   1
loop_
 _symmetry_equiv_pos_site_id
 _symmetry_equiv_pos_as_xyz
  1  'x, y, z'
loop_
 _atom_site_type_symbol
 _atom_site_label
 _atom_site_symmetry_multiplicity
 _atom_site_fract_x
 _atom_site_fract_y
 _atom_site_fract_z
 _atom_site_occupancy
  Tb  Tb0  1  0.934068  0.620509  0.249903  1
  Tb  Tb1  1  0.686438  0.065765  0.249921  1
  Tb  Tb2  1  0.313904  0.934196  0.750052  1
  Tb  Tb3  1  0.065981  0.379488  0.750039  1
  Tb  Tb4  1  0.379768  0.313608  0.249931  1
  Y  Y5  1  0.620351  0.686606  0.750067  1
  Cr  Cr6  1  0.000115  0.999975  0.500092  1
  Cr  Cr7  1  0.000363  0.000082  0.999891  1
  Cr  Cr8  1  0.666406  0.333582  0.749978  1
  Cr  Cr9  1  0.333405  0.666351  0.249953  1
  C  C10  1  0.963422  0.775090  0.750044  1
  C  C11  1  0.188315  0.963392  0.249970  1
  C  C12  1  0.775474  0.812073  0.249997  1
  C  C13  1  0.224464  0.187732  0.750092  1
  C  C14  1  0.810962  0.036264  0.750050  1
  C  C15  1  0.036678  0.224919  0.249961  1
  C  C16  1  0.863812  0.580169  0.749982  1
  C  C17  1  0.284391  0.864013  0.250029  1
  C  C18  1  0.580366  0.715181  0.250024  1
  C  C19  1  0.419652  0.284656  0.749998  1
  C  C20  1  0.135863  0.419941  0.250020  1
  C  C21  1  0.715803  0.136408  0.750007  1
