# generated using pymatgen
data_Zr3Ga2(Cu2Si)2
_symmetry_space_group_name_H-M   'P 1'
_cell_length_a   7.64879982
_cell_length_b   7.64880058
_cell_length_c   7.64879946
_cell_angle_alpha   149.39781177
_cell_angle_beta   130.49948452
_cell_angle_gamma   59.32525419
_symmetry_Int_Tables_number   1
_chemical_formula_structural   Zr3Ga2(Cu2Si)2
_chemical_formula_sum   'Zr3 Ga2 Cu4 Si2'
_cell_volume   171.84136936
_cell_formula_units_Z   1
loop_
 _symmetry_equiv_pos_site_id
 _symmetry_equiv_pos_as_xyz
  1  'x, y, z'
loop_
 _atom_site_type_symbol
 _atom_site_label
 _atom_site_symmetry_multiplicity
 _atom_site_fract_x
 _atom_site_fract_y
 _atom_site_fract_z
 _atom_site_occupancy
  Zr  Zr0  1  0.875320  0.875320  0.000000  1
  Zr  Zr1  1  0.124680  0.124680  0.000000  1
  Zr  Zr2  1  0.500000  0.000000  0.500000  1
  Ga  Ga3  1  0.284609  0.784609  0.500000  1
  Ga  Ga4  1  0.715391  0.215391  0.500000  1
  Cu  Cu5  1  0.528184  0.334162  0.194021  1
  Cu  Cu6  1  0.859860  0.665838  0.194021  1
  Cu  Cu7  1  0.140140  0.334161  0.805979  1
  Cu  Cu8  1  0.471816  0.665838  0.805979  1
  Si  Si9  1  0.810359  0.500000  0.310359  1
  Si  Si10  1  0.189641  0.500000  0.689641  1
