# generated using pymatgen
data_Ni3Au(BrO3)8
_symmetry_space_group_name_H-M   'P 1'
_cell_length_a   5.76735839
_cell_length_b   10.70210030
_cell_length_c   10.62886986
_cell_angle_alpha   120.39384590
_cell_angle_beta   91.60058135
_cell_angle_gamma   87.30707780
_symmetry_Int_Tables_number   1
_chemical_formula_structural   Ni3Au(BrO3)8
_chemical_formula_sum   'Ni3 Au1 Br8 O24'
_cell_volume   565.25117073
_cell_formula_units_Z   1
loop_
 _symmetry_equiv_pos_site_id
 _symmetry_equiv_pos_as_xyz
  1  'x, y, z'
loop_
 _atom_site_type_symbol
 _atom_site_label
 _atom_site_symmetry_multiplicity
 _atom_site_fract_x
 _atom_site_fract_y
 _atom_site_fract_z
 _atom_site_occupancy
  Ni  Ni0  1  0.640146  0.235279  0.490409  1
  Ni  Ni1  1  0.137008  0.261444  0.004043  1
  Ni  Ni2  1  0.642209  0.741083  0.994923  1
  Au  Au3  1  0.137186  0.763082  0.505667  1
  Br  Br4  1  0.255369  0.411740  0.345189  1
  Br  Br5  1  0.737821  0.567849  0.655675  1
  Br  Br6  1  0.254139  0.916775  0.853562  1
  Br  Br7  1  0.769671  0.086664  0.148678  1
  Br  Br8  1  0.781479  0.097145  0.691743  1
  Br  Br9  1  0.318943  0.932810  0.312394  1
  Br  Br10  1  0.285011  0.412923  0.814106  1
  Br  Br11  1  0.788508  0.590009  0.184325  1
  O  O12  1  0.424108  0.888949  0.968688  1
  O  O13  1  0.945153  0.116894  0.041818  1
  O  O14  1  0.371115  0.795635  0.685132  1
  O  O15  1  0.870045  0.197894  0.320629  1
  O  O16  1  0.361805  0.293925  0.176881  1
  O  O17  1  0.854045  0.686546  0.821990  1
  O  O18  1  0.928783  0.233478  0.828997  1
  O  O19  1  0.453158  0.781999  0.172707  1
  O  O20  1  0.912982  0.938438  0.667928  1
  O  O21  1  0.446347  0.079501  0.324263  1
  O  O22  1  0.344455  0.076796  0.878962  1
  O  O23  1  0.863196  0.918717  0.111882  1
  O  O24  1  0.428678  0.272274  0.671317  1
  O  O25  1  0.935523  0.735270  0.318508  1
  O  O26  1  0.351992  0.385250  0.955819  1
  O  O27  1  0.850925  0.599696  0.035227  1
  O  O28  1  0.418608  0.565330  0.852327  1
  O  O29  1  0.932413  0.437553  0.159790  1
  O  O30  1  0.359964  0.572534  0.371479  1
  O  O31  1  0.836278  0.403544  0.631507  1
  O  O32  1  0.417443  0.383076  0.462523  1
  O  O33  1  0.893756  0.587523  0.538086  1
  O  O34  1  0.855589  0.103120  0.542279  1
  O  O35  1  0.405748  0.929256  0.460543  1
