# generated using pymatgen
data_LaPrMo3P7Rh9
_symmetry_space_group_name_H-M   'P 1'
_cell_length_a   3.97488002
_cell_length_b   9.61914116
_cell_length_c   9.61928402
_cell_angle_alpha   119.99970312
_cell_angle_beta   89.99870737
_cell_angle_gamma   90.00157278
_symmetry_Int_Tables_number   1
_chemical_formula_structural   LaPrMo3P7Rh9
_chemical_formula_sum   'La1 Pr1 Mo3 P7 Rh9'
_cell_volume   318.51874890
_cell_formula_units_Z   1
loop_
 _symmetry_equiv_pos_site_id
 _symmetry_equiv_pos_as_xyz
  1  'x, y, z'
loop_
 _atom_site_type_symbol
 _atom_site_label
 _atom_site_symmetry_multiplicity
 _atom_site_fract_x
 _atom_site_fract_y
 _atom_site_fract_z
 _atom_site_occupancy
  La  La0  1  0.261838  0.666669  0.333330  1
  Pr  Pr1  1  0.762111  0.333338  0.666661  1
  Mo  Mo2  1  0.761939  0.091236  0.873769  1
  Mo  Mo3  1  0.761943  0.126245  0.217498  1
  Mo  Mo4  1  0.761942  0.782508  0.908740  1
  P  P5  1  0.262076  0.000006  0.999995  1
  P  P6  1  0.761895  0.888114  0.599755  1
  P  P7  1  0.761891  0.400254  0.288376  1
  P  P8  1  0.761886  0.711638  0.111884  1
  P  P9  1  0.261831  0.113397  0.410297  1
  P  P10  1  0.261842  0.589704  0.703098  1
  P  P11  1  0.261835  0.296893  0.886601  1
  Rh  Rh12  1  0.261890  0.885068  0.158402  1
  Rh  Rh13  1  0.261893  0.841590  0.726659  1
  Rh  Rh14  1  0.261891  0.273341  0.114942  1
  Rh  Rh15  1  0.761870  0.611671  0.563263  1
  Rh  Rh16  1  0.761864  0.436726  0.048383  1
  Rh  Rh17  1  0.761876  0.951600  0.388336  1
  Rh  Rh18  1  0.261897  0.367424  0.434593  1
  Rh  Rh19  1  0.261890  0.565419  0.932830  1
  Rh  Rh20  1  0.261900  0.067156  0.632588  1
