# generated using pymatgen
data_Dy5(In2Cu)2
_symmetry_space_group_name_H-M   'P 1'
_cell_length_a   3.66287400
_cell_length_b   8.06670300
_cell_length_c   18.02064600
_cell_angle_alpha   90.00000000
_cell_angle_beta   90.00000000
_cell_angle_gamma   90.00000000
_symmetry_Int_Tables_number   1
_chemical_formula_structural   Dy5(In2Cu)2
_chemical_formula_sum   'Dy10 In8 Cu4'
_cell_volume   532.46173422
_cell_formula_units_Z   2
loop_
 _symmetry_equiv_pos_site_id
 _symmetry_equiv_pos_as_xyz
  1  'x, y, z'
loop_
 _atom_site_type_symbol
 _atom_site_label
 _atom_site_symmetry_multiplicity
 _atom_site_fract_x
 _atom_site_fract_y
 _atom_site_fract_z
 _atom_site_occupancy
  Dy  Dy0  1  0.000000  0.500000  0.500000  1
  Dy  Dy1  1  0.000000  0.000000  0.000000  1
  Dy  Dy2  1  0.000000  0.738943  0.280308  1
  Dy  Dy3  1  0.000000  0.261057  0.719692  1
  Dy  Dy4  1  0.000000  0.761057  0.780308  1
  Dy  Dy5  1  0.000000  0.238943  0.219692  1
  Dy  Dy6  1  0.000000  0.618331  0.083327  1
  Dy  Dy7  1  0.000000  0.381669  0.916673  1
  Dy  Dy8  1  0.000000  0.881669  0.583327  1
  Dy  Dy9  1  0.000000  0.118331  0.416673  1
  In  In10  1  0.500000  0.707684  0.930754  1
  In  In11  1  0.500000  0.292316  0.069246  1
  In  In12  1  0.500000  0.792316  0.430754  1
  In  In13  1  0.500000  0.207684  0.569246  1
  In  In14  1  0.500000  0.577773  0.650367  1
  In  In15  1  0.500000  0.422227  0.349633  1
  In  In16  1  0.500000  0.922227  0.150367  1
  In  In17  1  0.500000  0.077773  0.849633  1
  Cu  Cu18  1  0.500000  0.524105  0.197570  1
  Cu  Cu19  1  0.500000  0.475895  0.802430  1
  Cu  Cu20  1  0.500000  0.975895  0.697570  1
  Cu  Cu21  1  0.500000  0.024105  0.302430  1
