# generated using pymatgen
data_Hf8Fe3Co4Si14Ni
_symmetry_space_group_name_H-M   'P 1'
_cell_length_a   9.45865978
_cell_length_b   9.43813216
_cell_length_c   9.43103019
_cell_angle_alpha   94.08941624
_cell_angle_beta   94.20669287
_cell_angle_gamma   148.82477623
_symmetry_Int_Tables_number   1
_chemical_formula_structural   Hf8Fe3Co4Si14Ni
_chemical_formula_sum   'Hf8 Fe3 Co4 Si14 Ni1'
_cell_volume   419.74206442
_cell_formula_units_Z   1
loop_
 _symmetry_equiv_pos_site_id
 _symmetry_equiv_pos_as_xyz
  1  'x, y, z'
loop_
 _atom_site_type_symbol
 _atom_site_label
 _atom_site_symmetry_multiplicity
 _atom_site_fract_x
 _atom_site_fract_y
 _atom_site_fract_z
 _atom_site_occupancy
  Hf  Hf0  1  0.137949  0.137951  0.275912  1
  Hf  Hf1  1  0.861438  0.861440  0.722832  1
  Hf  Hf2  1  0.136267  0.860870  0.999635  1
  Hf  Hf3  1  0.863387  0.138763  0.999645  1
  Hf  Hf4  1  0.304712  0.501370  0.802972  1
  Hf  Hf5  1  0.697451  0.501905  0.196015  1
  Hf  Hf6  1  0.498569  0.694113  0.196020  1
  Hf  Hf7  1  0.498301  0.301650  0.802959  1
  Fe  Fe8  1  0.395562  0.895560  0.791106  1
  Fe  Fe9  1  0.903828  0.104612  0.502847  1
  Fe  Fe10  1  0.599020  0.398250  0.502840  1
  Co  Co11  1  0.602127  0.102136  0.204406  1
  Co  Co12  1  0.900276  0.400262  0.800536  1
  Co  Co13  1  0.099970  0.893735  0.497280  1
  Co  Co14  1  0.397318  0.603562  0.497269  1
  Si  Si15  1  0.290128  0.290136  0.580210  1
  Si  Si16  1  0.709849  0.709844  0.419718  1
  Si  Si17  1  0.296403  0.715643  0.998737  1
  Si  Si18  1  0.702326  0.283093  0.998705  1
  Si  Si19  1  0.089081  0.497138  0.590578  1
  Si  Si20  1  0.887955  0.483730  0.411967  1
  Si  Si21  1  0.523993  0.928266  0.411946  1
  Si  Si22  1  0.501491  0.093453  0.590573  1
  Si  Si23  1  0.249746  0.249563  0.999485  1
  Si  Si24  1  0.749748  0.749915  0.999489  1
  Si  Si25  1  0.305778  0.007139  0.301527  1
  Si  Si26  1  0.700915  0.002024  0.699084  1
  Si  Si27  1  0.998176  0.697047  0.699043  1
  Si  Si28  1  0.995750  0.294365  0.301532  1
  Ni  Ni29  1  0.102489  0.602465  0.205129  1
