# generated using pymatgen
data_Th4Al(Si3Rh2)3
_symmetry_space_group_name_H-M   'P 1'
_cell_length_a   8.31130719
_cell_length_b   8.31130621
_cell_length_c   8.31130690
_cell_angle_alpha   138.45145678
_cell_angle_beta   105.32656852
_cell_angle_gamma   89.27151299
_symmetry_Int_Tables_number   1
_chemical_formula_structural   Th4Al(Si3Rh2)3
_chemical_formula_sum   'Th4 Al1 Si9 Rh6'
_cell_volume   351.53713741
_cell_formula_units_Z   1
loop_
 _symmetry_equiv_pos_site_id
 _symmetry_equiv_pos_as_xyz
  1  'x, y, z'
loop_
 _atom_site_type_symbol
 _atom_site_label
 _atom_site_symmetry_multiplicity
 _atom_site_fract_x
 _atom_site_fract_y
 _atom_site_fract_z
 _atom_site_occupancy
  Th  Th0  1  0.866097  0.629310  0.232140  1
  Th  Th1  1  0.133903  0.366042  0.763212  1
  Th  Th2  1  0.397170  0.133958  0.267860  1
  Th  Th3  1  0.602830  0.870690  0.736788  1
  Al  Al4  1  0.500000  0.750000  0.250000  1
  Si  Si5  1  0.500000  0.250000  0.750000  1
  Si  Si6  1  0.223934  0.973934  0.750000  1
  Si  Si7  1  0.776066  0.526066  0.750000  1
  Si  Si8  1  0.772663  0.022663  0.250000  1
  Si  Si9  1  0.227337  0.477337  0.250000  1
  Si  Si10  1  0.042727  0.891368  0.149697  1
  Si  Si11  1  0.957273  0.106969  0.848639  1
  Si  Si12  1  0.741671  0.393031  0.350303  1
  Si  Si13  1  0.258329  0.608632  0.651361  1
  Rh  Rh14  1  0.000000  0.750000  0.750000  1
  Rh  Rh15  1  0.000000  0.250000  0.250000  1
  Rh  Rh16  1  0.244149  0.862723  0.389549  1
  Rh  Rh17  1  0.755851  0.145400  0.618574  1
  Rh  Rh18  1  0.473176  0.354600  0.110451  1
  Rh  Rh19  1  0.526824  0.637277  0.881426  1
