# generated using pymatgen
data_Ca3La17Si15Sb
_symmetry_space_group_name_H-M   'P 1'
_cell_length_a   8.12344688
_cell_length_b   8.12494895
_cell_length_c   15.60311300
_cell_angle_alpha   90.03105627
_cell_angle_beta   89.83451203
_cell_angle_gamma   89.86749453
_symmetry_Int_Tables_number   1
_chemical_formula_structural   Ca3La17Si15Sb
_chemical_formula_sum   'Ca3 La17 Si15 Sb1'
_cell_volume   1029.83868471
_cell_formula_units_Z   1
loop_
 _symmetry_equiv_pos_site_id
 _symmetry_equiv_pos_as_xyz
  1  'x, y, z'
loop_
 _atom_site_type_symbol
 _atom_site_label
 _atom_site_symmetry_multiplicity
 _atom_site_fract_x
 _atom_site_fract_y
 _atom_site_fract_z
 _atom_site_occupancy
  Ca  Ca0  1  0.312307  0.310777  0.000926  1
  Ca  Ca1  1  0.189509  0.809245  0.250288  1
  Ca  Ca2  1  0.802005  0.190050  0.751259  1
  La  La3  1  0.689098  0.693890  0.497222  1
  La  La4  1  0.381770  0.008304  0.446043  1
  La  La5  1  0.496655  0.873467  0.697992  1
  La  La6  1  0.508331  0.118372  0.196221  1
  La  La7  1  0.877247  0.491558  0.301107  1
  La  La8  1  0.117676  0.515605  0.807327  1
  La  La9  1  0.622031  0.989580  0.948482  1
  La  La10  1  0.002108  0.385476  0.547769  1
  La  La11  1  0.990063  0.619388  0.053531  1
  La  La12  1  0.126504  0.981551  0.879328  1
  La  La13  1  0.517469  0.626378  0.126368  1
  La  La14  1  0.488705  0.382475  0.626620  1
  La  La15  1  0.627531  0.519199  0.875391  1
  La  La16  1  0.375032  0.479424  0.372988  1
  La  La17  1  0.873715  0.019004  0.376544  1
  La  La18  1  0.982895  0.125762  0.123626  1
  La  La19  1  0.011036  0.861219  0.620714  1
  Si  Si20  1  0.329920  0.698568  0.955083  1
  Si  Si21  1  0.668795  0.303936  0.454158  1
  Si  Si22  1  0.699972  0.330887  0.047769  1
  Si  Si23  1  0.305304  0.671271  0.543938  1
  Si  Si24  1  0.798757  0.834230  0.201324  1
  Si  Si25  1  0.165834  0.200869  0.296576  1
  Si  Si26  1  0.836650  0.798456  0.798706  1
  Si  Si27  1  0.287252  0.917446  0.060414  1
  Si  Si28  1  0.582628  0.789047  0.308853  1
  Si  Si29  1  0.434817  0.210847  0.818094  1
  Si  Si30  1  0.788871  0.581814  0.691217  1
  Si  Si31  1  0.212365  0.416480  0.189265  1
  Si  Si32  1  0.705541  0.079475  0.559999  1
  Si  Si33  1  0.919564  0.288215  0.941029  1
  Si  Si34  1  0.079245  0.709497  0.438280  1
  Sb  Sb35  1  0.192795  0.168236  0.695550  1
