# generated using pymatgen
data_Lu4Zn11Ga
_symmetry_space_group_name_H-M   'P 1'
_cell_length_a   6.63534379
_cell_length_b   4.33093900
_cell_length_c   9.96494361
_cell_angle_alpha   90.00000000
_cell_angle_beta   89.84899898
_cell_angle_gamma   90.00000000
_symmetry_Int_Tables_number   1
_chemical_formula_structural   Lu4Zn11Ga
_chemical_formula_sum   'Lu4 Zn11 Ga1'
_cell_volume   286.36427251
_cell_formula_units_Z   1
loop_
 _symmetry_equiv_pos_site_id
 _symmetry_equiv_pos_as_xyz
  1  'x, y, z'
loop_
 _atom_site_type_symbol
 _atom_site_label
 _atom_site_symmetry_multiplicity
 _atom_site_fract_x
 _atom_site_fract_y
 _atom_site_fract_z
 _atom_site_occupancy
  Lu  Lu0  1  0.779624  0.249999  0.164655  1
  Lu  Lu1  1  0.280210  0.249999  0.336198  1
  Lu  Lu2  1  0.719791  0.750000  0.665184  1
  Lu  Lu3  1  0.219603  0.750000  0.834555  1
  Zn  Zn4  1  0.465508  0.750000  0.103555  1
  Zn  Zn5  1  0.076955  0.750000  0.149494  1
  Zn  Zn6  1  0.579195  0.750000  0.351349  1
  Zn  Zn7  1  0.962386  0.750000  0.397151  1
  Zn  Zn8  1  0.717158  0.249999  0.457617  1
  Zn  Zn9  1  0.283490  0.750000  0.542267  1
  Zn  Zn10  1  0.037783  0.249999  0.603189  1
  Zn  Zn11  1  0.420132  0.249999  0.648280  1
  Zn  Zn12  1  0.920048  0.249999  0.850526  1
  Zn  Zn13  1  0.539445  0.249999  0.895797  1
  Zn  Zn14  1  0.783672  0.750000  0.957960  1
  Ga  Ga15  1  0.214998  0.249999  0.042225  1
