# generated using pymatgen
data_Ti2Zn2CoPt3
_symmetry_space_group_name_H-M   'P 1'
_cell_length_a   7.33015900
_cell_length_b   4.00520200
_cell_length_c   7.87772001
_cell_angle_alpha   90.00000000
_cell_angle_beta   89.99613873
_cell_angle_gamma   90.00000000
_symmetry_Int_Tables_number   1
_chemical_formula_structural   Ti2Zn2CoPt3
_chemical_formula_sum   'Ti4 Zn4 Co2 Pt6'
_cell_volume   231.28014956
_cell_formula_units_Z   2
loop_
 _symmetry_equiv_pos_site_id
 _symmetry_equiv_pos_as_xyz
  1  'x, y, z'
loop_
 _atom_site_type_symbol
 _atom_site_label
 _atom_site_symmetry_multiplicity
 _atom_site_fract_x
 _atom_site_fract_y
 _atom_site_fract_z
 _atom_site_occupancy
  Ti  Ti0  1  0.749983  0.249999  0.110420  1
  Ti  Ti1  1  0.249998  0.749999  0.374993  1
  Ti  Ti2  1  0.749999  0.249999  0.639564  1
  Ti  Ti3  1  0.250015  0.749999  0.875007  1
  Zn  Zn4  1  0.249993  0.249999  0.114472  1
  Zn  Zn5  1  0.750004  0.749999  0.375023  1
  Zn  Zn6  1  0.250019  0.249999  0.635521  1
  Zn  Zn7  1  0.750005  0.749999  0.875016  1
  Co  Co8  1  0.503886  0.249999  0.875021  1
  Co  Co9  1  0.996089  0.249999  0.875008  1
  Pt  Pt10  1  0.000072  0.749999  0.118130  1
  Pt  Pt11  1  0.499925  0.749999  0.118133  1
  Pt  Pt12  1  0.999328  0.249999  0.375012  1
  Pt  Pt13  1  0.500652  0.249999  0.375015  1
  Pt  Pt14  1  0.499912  0.749999  0.631836  1
  Pt  Pt15  1  0.000119  0.749999  0.631830  1
