# generated using pymatgen
data_Ca8YbHoIr4
_symmetry_space_group_name_H-M   'P 1'
_cell_length_a   6.52382758
_cell_length_b   7.53148974
_cell_length_c   8.59677871
_cell_angle_alpha   97.30248161
_cell_angle_beta   112.29865989
_cell_angle_gamma   89.99999760
_symmetry_Int_Tables_number   1
_chemical_formula_structural   Ca8YbHoIr4
_chemical_formula_sum   'Ca8 Yb1 Ho1 Ir4'
_cell_volume   387.10247747
_cell_formula_units_Z   1
loop_
 _symmetry_equiv_pos_site_id
 _symmetry_equiv_pos_as_xyz
  1  'x, y, z'
loop_
 _atom_site_type_symbol
 _atom_site_label
 _atom_site_symmetry_multiplicity
 _atom_site_fract_x
 _atom_site_fract_y
 _atom_site_fract_z
 _atom_site_occupancy
  Ca  Ca0  1  0.970721  0.919300  0.172415  1
  Ca  Ca1  1  0.798308  0.580700  0.827585  1
  Ca  Ca2  1  0.024753  0.080571  0.825812  1
  Ca  Ca3  1  0.198939  0.419429  0.174188  1
  Ca  Ca4  1  0.637160  0.821392  0.433863  1
  Ca  Ca5  1  0.203297  0.678608  0.566137  1
  Ca  Ca6  1  0.361252  0.179317  0.562906  1
  Ca  Ca7  1  0.798345  0.320683  0.437094  1
  Yb  Yb8  1  0.431266  0.750000  0.000000  1
  Ho  Ho9  1  0.564209  0.250000  0.000000  1
  Ir  Ir10  1  0.813697  0.570775  0.211615  1
  Ir  Ir11  1  0.602082  0.929225  0.788385  1
  Ir  Ir12  1  0.191880  0.417581  0.787789  1
  Ir  Ir13  1  0.404090  0.082419  0.212211  1
