# generated using pymatgen
data_Tb4Zn2ReRu5
_symmetry_space_group_name_H-M   'P 1'
_cell_length_a   5.26573067
_cell_length_b   5.51753515
_cell_length_c   8.90311000
_cell_angle_alpha   90.00000000
_cell_angle_beta   90.00000000
_cell_angle_gamma   121.59488558
_symmetry_Int_Tables_number   1
_chemical_formula_structural   Tb4Zn2ReRu5
_chemical_formula_sum   'Tb4 Zn2 Re1 Ru5'
_cell_volume   220.32801287
_cell_formula_units_Z   1
loop_
 _symmetry_equiv_pos_site_id
 _symmetry_equiv_pos_as_xyz
  1  'x, y, z'
loop_
 _atom_site_type_symbol
 _atom_site_label
 _atom_site_symmetry_multiplicity
 _atom_site_fract_x
 _atom_site_fract_y
 _atom_site_fract_z
 _atom_site_occupancy
  Tb  Tb0  1  0.340351  0.670176  0.443878  1
  Tb  Tb1  1  0.668779  0.334389  0.566238  1
  Tb  Tb2  1  0.668779  0.334389  0.933762  1
  Tb  Tb3  1  0.340351  0.670176  0.056122  1
  Zn  Zn4  1  0.817480  0.159984  0.250000  1
  Zn  Zn5  1  0.817480  0.657495  0.250000  1
  Re  Re6  1  0.664917  0.832458  0.750000  1
  Ru  Ru7  1  0.995385  0.997692  0.499926  1
  Ru  Ru8  1  0.995385  0.997692  0.000074  1
  Ru  Ru9  1  0.320603  0.160301  0.250000  1
  Ru  Ru10  1  0.185246  0.843096  0.750000  1
  Ru  Ru11  1  0.185246  0.342151  0.750000  1
