# generated using pymatgen
data_TbPrTc5(PRh)7
_symmetry_space_group_name_H-M   'P 1'
_cell_length_a   3.96011901
_cell_length_b   9.51091064
_cell_length_c   9.53060258
_cell_angle_alpha   119.70524565
_cell_angle_beta   90.00187423
_cell_angle_gamma   90.00996618
_symmetry_Int_Tables_number   1
_chemical_formula_structural   TbPrTc5(PRh)7
_chemical_formula_sum   'Tb1 Pr1 Tc5 P7 Rh7'
_cell_volume   311.79100931
_cell_formula_units_Z   1
loop_
 _symmetry_equiv_pos_site_id
 _symmetry_equiv_pos_as_xyz
  1  'x, y, z'
loop_
 _atom_site_type_symbol
 _atom_site_label
 _atom_site_symmetry_multiplicity
 _atom_site_fract_x
 _atom_site_fract_y
 _atom_site_fract_z
 _atom_site_occupancy
  Tb  Tb0  1  0.762002  0.333451  0.666594  1
  Pr  Pr1  1  0.262056  0.668040  0.333150  1
  Tc  Tc2  1  0.761898  0.093318  0.872425  1
  Tc  Tc3  1  0.761866  0.125951  0.217599  1
  Tc  Tc4  1  0.761900  0.782115  0.906870  1
  Tc  Tc5  1  0.261898  0.886823  0.159349  1
  Tc  Tc6  1  0.261925  0.841506  0.727510  1
  P  P7  1  0.261719  0.996636  0.997438  1
  P  P8  1  0.761922  0.884840  0.602977  1
  P  P9  1  0.761873  0.398743  0.286846  1
  P  P10  1  0.761906  0.719239  0.117114  1
  P  P11  1  0.261957  0.114194  0.410911  1
  P  P12  1  0.261904  0.587697  0.702587  1
  P  P13  1  0.261880  0.296708  0.883099  1
  Rh  Rh14  1  0.261875  0.271580  0.112011  1
  Rh  Rh15  1  0.761897  0.606670  0.560207  1
  Rh  Rh16  1  0.761886  0.438924  0.049913  1
  Rh  Rh17  1  0.761900  0.952480  0.393487  1
  Rh  Rh18  1  0.261911  0.366023  0.434437  1
  Rh  Rh19  1  0.261895  0.563511  0.930778  1
  Rh  Rh20  1  0.261933  0.071550  0.634703  1
