# generated using pymatgen
data_HoTh3AlGa17Ir6
_symmetry_space_group_name_H-M   'P 1'
_cell_length_a   7.68561421
_cell_length_b   7.69791921
_cell_length_c   9.47177530
_cell_angle_alpha   89.99153365
_cell_angle_beta   89.98029710
_cell_angle_gamma   119.78904298
_symmetry_Int_Tables_number   1
_chemical_formula_structural   HoTh3AlGa17Ir6
_chemical_formula_sum   'Ho1 Th3 Al1 Ga17 Ir6'
_cell_volume   486.33236452
_cell_formula_units_Z   1
loop_
 _symmetry_equiv_pos_site_id
 _symmetry_equiv_pos_as_xyz
  1  'x, y, z'
loop_
 _atom_site_type_symbol
 _atom_site_label
 _atom_site_symmetry_multiplicity
 _atom_site_fract_x
 _atom_site_fract_y
 _atom_site_fract_z
 _atom_site_occupancy
  Ho  Ho0  1  0.328394  0.003579  0.749258  1
  Th  Th1  1  0.996827  0.670384  0.249868  1
  Th  Th2  1  0.001412  0.329625  0.748988  1
  Th  Th3  1  0.669906  0.995964  0.249852  1
  Al  Al4  1  0.337331  0.333682  0.946467  1
  Ga  Ga5  1  0.136038  0.132895  0.249597  1
  Ga  Ga6  1  0.870367  0.868589  0.749615  1
  Ga  Ga7  1  0.003971  0.335107  0.078355  1
  Ga  Ga8  1  0.002328  0.670448  0.917349  1
  Ga  Ga9  1  0.001939  0.670678  0.582641  1
  Ga  Ga10  1  0.335157  0.003553  0.426203  1
  Ga  Ga11  1  0.004906  0.335316  0.419889  1
  Ga  Ga12  1  0.658562  0.996333  0.582642  1
  Ga  Ga13  1  0.658750  0.996832  0.917372  1
  Ga  Ga14  1  0.335096  0.002620  0.072057  1
  Ga  Ga15  1  0.335071  0.330569  0.564358  1
  Ga  Ga16  1  0.663358  0.663213  0.442944  1
  Ga  Ga17  1  0.665793  0.665574  0.057130  1
  Ga  Ga18  1  0.343021  0.543821  0.250052  1
  Ga  Ga19  1  0.652298  0.449176  0.750023  1
  Ga  Ga20  1  0.543676  0.339423  0.250038  1
  Ga  Ga21  1  0.453674  0.658960  0.749954  1
  Ir  Ir22  1  0.673148  0.329688  0.999641  1
  Ir  Ir23  1  0.327099  0.668452  0.999858  1
  Ir  Ir24  1  0.327088  0.671203  0.499143  1
  Ir  Ir25  1  0.676345  0.330083  0.499242  1
  Ir  Ir26  1  0.001567  0.004155  0.998779  1
  Ir  Ir27  1  0.996882  0.000074  0.498687  1
