# generated using pymatgen
data_Ca5Er(Si3Os)8
_symmetry_space_group_name_H-M   'P 1'
_cell_length_a   10.17679670
_cell_length_b   10.17679721
_cell_length_c   8.19004800
_cell_angle_alpha   89.98798959
_cell_angle_beta   89.98798542
_cell_angle_gamma   132.54906768
_symmetry_Int_Tables_number   1
_chemical_formula_structural   Ca5Er(Si3Os)8
_chemical_formula_sum   'Ca5 Er1 Si24 Os8'
_cell_volume   624.88254099
_cell_formula_units_Z   1
loop_
 _symmetry_equiv_pos_site_id
 _symmetry_equiv_pos_as_xyz
  1  'x, y, z'
loop_
 _atom_site_type_symbol
 _atom_site_label
 _atom_site_symmetry_multiplicity
 _atom_site_fract_x
 _atom_site_fract_y
 _atom_site_fract_z
 _atom_site_occupancy
  Ca  Ca0  1  0.499045  0.999161  0.250032  1
  Ca  Ca1  1  0.000839  0.500955  0.749968  1
  Ca  Ca2  1  0.500955  0.000839  0.749968  1
  Ca  Ca3  1  0.999161  0.499045  0.250032  1
  Ca  Ca4  1  0.500000  0.500000  0.500000  1
  Er  Er5  1  0.000000  0.000000  0.000000  1
  Si  Si6  1  0.389464  0.155040  0.006410  1
  Si  Si7  1  0.653339  0.886691  0.492794  1
  Si  Si8  1  0.113309  0.346661  0.507206  1
  Si  Si9  1  0.844960  0.610536  0.993590  1
  Si  Si10  1  0.610536  0.844960  0.993590  1
  Si  Si11  1  0.346661  0.113309  0.507206  1
  Si  Si12  1  0.886691  0.653339  0.492794  1
  Si  Si13  1  0.155040  0.389464  0.006410  1
  Si  Si14  1  0.609625  0.376259  0.229603  1
  Si  Si15  1  0.875884  0.109601  0.271342  1
  Si  Si16  1  0.890399  0.124116  0.728658  1
  Si  Si17  1  0.623741  0.390375  0.770397  1
  Si  Si18  1  0.390375  0.623741  0.770397  1
  Si  Si19  1  0.124116  0.890399  0.728658  1
  Si  Si20  1  0.706266  0.293734  0.000000  1
  Si  Si21  1  0.793970  0.206030  0.500000  1
  Si  Si22  1  0.293734  0.706266  0.000000  1
  Si  Si23  1  0.206030  0.793970  0.500000  1
  Si  Si24  1  0.167607  0.167607  0.333368  1
  Si  Si25  1  0.665396  0.665396  0.168876  1
  Si  Si26  1  0.334604  0.334604  0.831124  1
  Si  Si27  1  0.832393  0.832393  0.666632  1
  Si  Si28  1  0.376259  0.609625  0.229603  1
  Si  Si29  1  0.109601  0.875884  0.271342  1
  Os  Os30  1  0.629454  0.629454  0.876639  1
  Os  Os31  1  0.125176  0.125176  0.627787  1
  Os  Os32  1  0.874824  0.874824  0.372213  1
  Os  Os33  1  0.370546  0.370546  0.123361  1
  Os  Os34  1  0.331060  0.668940  0.500000  1
  Os  Os35  1  0.167730  0.832270  0.000000  1
  Os  Os36  1  0.668940  0.331060  0.500000  1
  Os  Os37  1  0.832270  0.167730  0.000000  1
