# generated using pymatgen
data_V9Ga4Ru3
_symmetry_space_group_name_H-M   'P 1'
_cell_length_a   4.73620200
_cell_length_b   4.77554472
_cell_length_c   9.63045242
_cell_angle_alpha   89.66682401
_cell_angle_beta   90.00000000
_cell_angle_gamma   90.00000000
_symmetry_Int_Tables_number   1
_chemical_formula_structural   V9Ga4Ru3
_chemical_formula_sum   'V9 Ga4 Ru3'
_cell_volume   217.81735540
_cell_formula_units_Z   1
loop_
 _symmetry_equiv_pos_site_id
 _symmetry_equiv_pos_as_xyz
  1  'x, y, z'
loop_
 _atom_site_type_symbol
 _atom_site_label
 _atom_site_symmetry_multiplicity
 _atom_site_fract_x
 _atom_site_fract_y
 _atom_site_fract_z
 _atom_site_occupancy
  V  V0  1  0.500000  0.751604  0.500716  1
  V  V1  1  0.750392  0.003020  0.249691  1
  V  V2  1  0.748353  0.998799  0.748818  1
  V  V3  1  0.000000  0.496989  0.122626  1
  V  V4  1  0.000000  0.495504  0.624955  1
  V  V5  1  0.500000  0.256707  0.001967  1
  V  V6  1  0.500000  0.245589  0.500918  1
  V  V7  1  0.249608  0.003020  0.249691  1
  V  V8  1  0.251647  0.998799  0.748818  1
  Ga  Ga9  1  0.500000  0.499735  0.250621  1
  Ga  Ga10  1  0.500000  0.497906  0.747741  1
  Ga  Ga11  1  0.000000  0.000220  0.001554  1
  Ga  Ga12  1  0.000000  0.998419  0.501586  1
  Ru  Ru13  1  0.000000  0.499228  0.374064  1
  Ru  Ru14  1  0.000000  0.498567  0.873876  1
  Ru  Ru15  1  0.500000  0.755892  0.002359  1
