# generated using pymatgen
data_Pr7Sm(GeO5)4
_symmetry_space_group_name_H-M   'P 1'
_cell_length_a   8.49426368
_cell_length_b   8.49489115
_cell_length_c   11.05666067
_cell_angle_alpha   61.55301252
_cell_angle_beta   61.31014587
_cell_angle_gamma   49.91000530
_symmetry_Int_Tables_number   1
_chemical_formula_structural   Pr7Sm(GeO5)4
_chemical_formula_sum   'Pr7 Sm1 Ge4 O20'
_cell_volume   518.54898055
_cell_formula_units_Z   1
loop_
 _symmetry_equiv_pos_site_id
 _symmetry_equiv_pos_as_xyz
  1  'x, y, z'
loop_
 _atom_site_type_symbol
 _atom_site_label
 _atom_site_symmetry_multiplicity
 _atom_site_fract_x
 _atom_site_fract_y
 _atom_site_fract_z
 _atom_site_occupancy
  Pr  Pr0  1  0.717240  0.210753  0.964862  1
  Pr  Pr1  1  0.790423  0.276178  0.538331  1
  Pr  Pr2  1  0.277274  0.794528  0.035127  1
  Pr  Pr3  1  0.210448  0.718091  0.463758  1
  Pr  Pr4  1  0.988081  0.732916  0.836261  1
  Pr  Pr5  1  0.266700  0.020156  0.659840  1
  Pr  Pr6  1  0.008538  0.268707  0.167483  1
  Sm  Sm7  1  0.743300  0.975973  0.336662  1
  Ge  Ge8  1  0.774961  0.593039  0.690293  1
  Ge  Ge9  1  0.407326  0.225431  0.809870  1
  Ge  Ge10  1  0.229049  0.405729  0.305581  1
  Ge  Ge11  1  0.589389  0.777534  0.193567  1
  O  O12  1  0.770827  0.636920  0.058860  1
  O  O13  1  0.381857  0.224191  0.432528  1
  O  O14  1  0.225144  0.365774  0.944358  1
  O  O15  1  0.635134  0.776164  0.556205  1
  O  O16  1  0.591176  0.583070  0.358981  1
  O  O17  1  0.400435  0.421843  0.131763  1
  O  O18  1  0.410285  0.414587  0.642781  1
  O  O19  1  0.587694  0.587257  0.858593  1
  O  O20  1  0.952294  0.647332  0.674853  1
  O  O21  1  0.349561  0.050826  0.825481  1
  O  O22  1  0.053874  0.341512  0.330702  1
  O  O23  1  0.648260  0.951391  0.178604  1
  O  O24  1  0.888760  0.071561  0.398186  1
  O  O25  1  0.917108  0.109107  0.108362  1
  O  O26  1  0.110837  0.921974  0.603939  1
  O  O27  1  0.076171  0.896333  0.893758  1
  O  O28  1  0.092425  0.671000  0.320060  1
  O  O29  1  0.323877  0.908131  0.184195  1
  O  O30  1  0.908479  0.329134  0.676637  1
  O  O31  1  0.673076  0.092857  0.819518  1
