# generated using pymatgen
data_TbEuY5RuI12
_symmetry_space_group_name_H-M   'P 1'
_cell_length_a   9.81242906
_cell_length_b   9.78381451
_cell_length_c   9.87412131
_cell_angle_alpha   106.61519955
_cell_angle_beta   106.80391425
_cell_angle_gamma   106.25316846
_symmetry_Int_Tables_number   1
_chemical_formula_structural   TbEuY5RuI12
_chemical_formula_sum   'Tb1 Eu1 Y5 Ru1 I12'
_cell_volume   798.78237082
_cell_formula_units_Z   1
loop_
 _symmetry_equiv_pos_site_id
 _symmetry_equiv_pos_as_xyz
  1  'x, y, z'
loop_
 _atom_site_type_symbol
 _atom_site_label
 _atom_site_symmetry_multiplicity
 _atom_site_fract_x
 _atom_site_fract_y
 _atom_site_fract_z
 _atom_site_occupancy
  Tb  Tb0  1  0.292036  0.021506  0.092495  1
  Eu  Eu1  1  0.499907  0.500284  0.500159  1
  Y  Y2  1  0.905916  0.707835  0.979002  1
  Y  Y3  1  0.978834  0.904616  0.696878  1
  Y  Y4  1  0.707932  0.978055  0.907502  1
  Y  Y5  1  0.094038  0.292182  0.020932  1
  Y  Y6  1  0.021310  0.095332  0.303104  1
  Ru  Ru7  1  0.000751  0.999987  0.000130  1
  I  I8  1  0.629386  0.861598  0.551618  1
  I  I9  1  0.550329  0.628973  0.859870  1
  I  I10  1  0.860523  0.549520  0.630681  1
  I  I11  1  0.370627  0.138876  0.449344  1
  I  I12  1  0.449710  0.371830  0.140217  1
  I  I13  1  0.139243  0.450376  0.369154  1
  I  I14  1  0.679139  0.075010  0.223130  1
  I  I15  1  0.222757  0.679218  0.074549  1
  I  I16  1  0.075445  0.226010  0.677932  1
  I  I17  1  0.321490  0.925083  0.776408  1
  I  I18  1  0.776517  0.319897  0.925030  1
  I  I19  1  0.924108  0.773813  0.321864  1
