# generated using pymatgen
data_La15Yb(CdOs)4
_symmetry_space_group_name_H-M   'P 1'
_cell_length_a   10.10121491
_cell_length_b   10.10121390
_cell_length_c   10.06871000
_cell_angle_alpha   60.10638770
_cell_angle_beta   60.10639100
_cell_angle_gamma   60.00555691
_symmetry_Int_Tables_number   1
_chemical_formula_structural   La15Yb(CdOs)4
_chemical_formula_sum   'La15 Yb1 Cd4 Os4'
_cell_volume   727.64712300
_cell_formula_units_Z   1
loop_
 _symmetry_equiv_pos_site_id
 _symmetry_equiv_pos_as_xyz
  1  'x, y, z'
loop_
 _atom_site_type_symbol
 _atom_site_label
 _atom_site_symmetry_multiplicity
 _atom_site_fract_x
 _atom_site_fract_y
 _atom_site_fract_z
 _atom_site_occupancy
  La  La0  1  0.559444  0.941301  0.557682  1
  La  La1  1  0.559444  0.941301  0.941574  1
  La  La2  1  0.687636  0.687636  0.312364  1
  La  La3  1  0.154655  0.154655  0.534661  1
  La  La4  1  0.307231  0.690281  0.689649  1
  La  La5  1  0.154655  0.154655  0.156027  1
  La  La6  1  0.537010  0.154899  0.154045  1
  La  La7  1  0.307231  0.690281  0.312839  1
  La  La8  1  0.310633  0.310633  0.689367  1
  La  La9  1  0.690281  0.307231  0.689649  1
  La  La10  1  0.941301  0.559444  0.557682  1
  La  La11  1  0.557013  0.557013  0.942987  1
  La  La12  1  0.154899  0.537010  0.154045  1
  La  La13  1  0.690281  0.307231  0.312839  1
  La  La14  1  0.941301  0.559444  0.941574  1
  Yb  Yb15  1  0.941098  0.941098  0.558902  1
  Cd  Cd16  1  0.236408  0.921559  0.921016  1
  Cd  Cd17  1  0.921486  0.921486  0.920245  1
  Cd  Cd18  1  0.921486  0.921486  0.236781  1
  Cd  Cd19  1  0.921559  0.236408  0.921016  1
  Os  Os20  1  0.912344  0.366716  0.360470  1
  Os  Os21  1  0.362943  0.362943  0.912077  1
  Os  Os22  1  0.366716  0.912344  0.360470  1
  Os  Os23  1  0.362943  0.362943  0.362038  1
