# generated using pymatgen
data_Tb8Tm8In5GaCo2
_symmetry_space_group_name_H-M   'P 1'
_cell_length_a   10.20887970
_cell_length_b   10.20887784
_cell_length_c   7.11085908
_cell_angle_alpha   89.98472967
_cell_angle_beta   90.01526938
_cell_angle_gamma   120.03966802
_symmetry_Int_Tables_number   1
_chemical_formula_structural   Tb8Tm8In5GaCo2
_chemical_formula_sum   'Tb8 Tm8 In5 Ga1 Co2'
_cell_volume   641.55669449
_cell_formula_units_Z   1
loop_
 _symmetry_equiv_pos_site_id
 _symmetry_equiv_pos_as_xyz
  1  'x, y, z'
loop_
 _atom_site_type_symbol
 _atom_site_label
 _atom_site_symmetry_multiplicity
 _atom_site_fract_x
 _atom_site_fract_y
 _atom_site_fract_z
 _atom_site_occupancy
  Tb  Tb0  1  0.536255  0.071031  0.786786  1
  Tb  Tb1  1  0.928969  0.463745  0.786786  1
  Tb  Tb2  1  0.535349  0.464651  0.781675  1
  Tb  Tb3  1  0.458037  0.926218  0.288110  1
  Tb  Tb4  1  0.073782  0.541963  0.288110  1
  Tb  Tb5  1  0.465358  0.534642  0.287260  1
  Tb  Tb6  1  0.002198  0.997802  0.772862  1
  Tb  Tb7  1  0.001747  0.998253  0.275196  1
  Tm  Tm8  1  0.830337  0.647797  0.494129  1
  Tm  Tm9  1  0.352203  0.169663  0.494129  1
  Tm  Tm10  1  0.821348  0.178652  0.490056  1
  Tm  Tm11  1  0.178578  0.358364  0.991288  1
  Tm  Tm12  1  0.641636  0.821422  0.991288  1
  Tm  Tm13  1  0.178276  0.821724  0.980083  1
  Tm  Tm14  1  0.666555  0.333445  0.182855  1
  Tm  Tm15  1  0.329959  0.670041  0.677822  1
  In  In16  1  0.836241  0.672466  0.040266  1
  In  In17  1  0.327534  0.163759  0.040266  1
  In  In18  1  0.836529  0.163471  0.039815  1
  In  In19  1  0.164711  0.327532  0.539514  1
  In  In20  1  0.672468  0.835289  0.539514  1
  Ga  Ga21  1  0.163104  0.836896  0.542796  1
  Co  Co22  1  0.666431  0.333569  0.557957  1
  Co  Co23  1  0.332395  0.667605  0.057516  1
