# generated using pymatgen
data_Rb(Nb3Te4)4
_symmetry_space_group_name_H-M   'P 1'
_cell_length_a   7.31074202
_cell_length_b   10.90152726
_cell_length_c   11.50651927
_cell_angle_alpha   118.20200270
_cell_angle_beta   108.52033220
_cell_angle_gamma   89.99419083
_symmetry_Int_Tables_number   1
_chemical_formula_structural   Rb(Nb3Te4)4
_chemical_formula_sum   'Rb1 Nb12 Te16'
_cell_volume   753.88004297
_cell_formula_units_Z   1
loop_
 _symmetry_equiv_pos_site_id
 _symmetry_equiv_pos_as_xyz
  1  'x, y, z'
loop_
 _atom_site_type_symbol
 _atom_site_label
 _atom_site_symmetry_multiplicity
 _atom_site_fract_x
 _atom_site_fract_y
 _atom_site_fract_z
 _atom_site_occupancy
  Rb  Rb0  1  0.000000  0.000000  0.000000  1
  Nb  Nb1  1  0.673554  0.611190  0.101333  1
  Nb  Nb2  1  0.176730  0.613001  0.100611  1
  Nb  Nb3  1  0.883716  0.899373  0.510365  1
  Nb  Nb4  1  0.376514  0.898148  0.511946  1
  Nb  Nb5  1  0.814053  0.487850  0.386213  1
  Nb  Nb6  1  0.322908  0.489522  0.389243  1
  Nb  Nb7  1  0.823270  0.386999  0.899389  1
  Nb  Nb8  1  0.326446  0.388810  0.898667  1
  Nb  Nb9  1  0.623486  0.101852  0.488054  1
  Nb  Nb10  1  0.116284  0.100627  0.489635  1
  Nb  Nb11  1  0.677092  0.510478  0.610757  1
  Nb  Nb12  1  0.185947  0.512150  0.613787  1
  Te  Te13  1  0.265107  0.933145  0.277266  1
  Te  Te14  1  0.761459  0.932964  0.272189  1
  Te  Te15  1  0.455433  0.727487  0.660735  1
  Te  Te16  1  0.954459  0.722654  0.655581  1
  Te  Te17  1  0.161339  0.344142  0.067701  1
  Te  Te18  1  0.657379  0.339201  0.066531  1
  Te  Te19  1  0.238541  0.067036  0.727811  1
  Te  Te20  1  0.734893  0.066855  0.722734  1
  Te  Te21  1  0.045541  0.277346  0.344419  1
  Te  Te22  1  0.544567  0.272513  0.339265  1
  Te  Te23  1  0.342621  0.660799  0.933469  1
  Te  Te24  1  0.838661  0.655858  0.932299  1
  Te  Te25  1  0.458344  0.332158  0.665841  1
  Te  Te26  1  0.958960  0.334490  0.667541  1
  Te  Te27  1  0.041040  0.665510  0.332459  1
  Te  Te28  1  0.541656  0.667842  0.334159  1
