# generated using pymatgen
data_Ba5Nd5Sm3Mn4O21
_symmetry_space_group_name_H-M   'P 1'
_cell_length_a   5.92539517
_cell_length_b   10.57174450
_cell_length_c   10.57190401
_cell_angle_alpha   85.49245819
_cell_angle_beta   73.72656946
_cell_angle_gamma   73.72431338
_symmetry_Int_Tables_number   1
_chemical_formula_structural   Ba5Nd5Sm3Mn4O21
_chemical_formula_sum   'Ba5 Nd5 Sm3 Mn4 O21'
_cell_volume   610.23365737
_cell_formula_units_Z   1
loop_
 _symmetry_equiv_pos_site_id
 _symmetry_equiv_pos_as_xyz
  1  'x, y, z'
loop_
 _atom_site_type_symbol
 _atom_site_label
 _atom_site_symmetry_multiplicity
 _atom_site_fract_x
 _atom_site_fract_y
 _atom_site_fract_z
 _atom_site_occupancy
  Ba  Ba0  1  0.530239  0.333082  0.606411  1
  Ba  Ba1  1  0.863472  0.606608  0.666471  1
  Ba  Ba2  1  0.136670  0.393741  0.332909  1
  Ba  Ba3  1  0.469618  0.666373  0.394426  1
  Ba  Ba4  1  0.999719  0.000894  0.999649  1
  Nd  Nd5  1  0.588668  0.768940  0.053648  1
  Nd  Nd6  1  0.247696  0.583571  0.921112  1
  Nd  Nd7  1  0.831053  0.922047  0.415846  1
  Nd  Nd8  1  0.168477  0.078739  0.584186  1
  Nd  Nd9  1  0.753276  0.414796  0.078647  1
  Sm  Sm10  1  0.411433  0.230383  0.946745  1
  Sm  Sm11  1  0.641721  0.947259  0.769312  1
  Sm  Sm12  1  0.357837  0.053778  0.230525  1
  Mn  Mn13  1  0.040015  0.708365  0.211500  1
  Mn  Mn14  1  0.748633  0.211068  0.291526  1
  Mn  Mn15  1  0.251636  0.789036  0.707918  1
  Mn  Mn16  1  0.960009  0.291428  0.788912  1
  O  O17  1  0.901566  0.593206  0.111456  1
  O  O18  1  0.493278  0.111023  0.404491  1
  O  O19  1  0.008542  0.889917  0.595457  1
  O  O20  1  0.604644  0.404349  0.889294  1
  O  O21  1  0.101658  0.404361  0.889311  1
  O  O22  1  0.506129  0.889904  0.595464  1
  O  O23  1  0.991171  0.111018  0.404485  1
  O  O24  1  0.393755  0.593207  0.111485  1
  O  O25  1  0.072277  0.223659  0.131921  1
  O  O26  1  0.296107  0.132063  0.776172  1
  O  O27  1  0.201928  0.868928  0.225063  1
  O  O28  1  0.427640  0.776181  0.866417  1
  O  O29  1  0.929780  0.776204  0.866418  1
  O  O30  1  0.704000  0.868924  0.225075  1
  O  O31  1  0.795726  0.132051  0.776183  1
  O  O32  1  0.572109  0.223654  0.131919  1
  O  O33  1  0.623432  0.408886  0.344221  1
  O  O34  1  0.499313  0.001681  0.999621  1
  O  O35  1  0.376959  0.590726  0.655392  1
  O  O36  1  0.967411  0.655851  0.409318  1
  O  O37  1  0.032407  0.344100  0.591094  1
