# generated using pymatgen
data_Zr8Ta12GaGe15
_symmetry_space_group_name_H-M   'P 1'
_cell_length_a   6.84734600
_cell_length_b   6.95901617
_cell_length_c   13.31592200
_cell_angle_alpha   90.00000000
_cell_angle_beta   90.00000000
_cell_angle_gamma   89.89285156
_symmetry_Int_Tables_number   1
_chemical_formula_structural   Zr8Ta12GaGe15
_chemical_formula_sum   'Zr8 Ta12 Ga1 Ge15'
_cell_volume   634.51311368
_cell_formula_units_Z   1
loop_
 _symmetry_equiv_pos_site_id
 _symmetry_equiv_pos_as_xyz
  1  'x, y, z'
loop_
 _atom_site_type_symbol
 _atom_site_label
 _atom_site_symmetry_multiplicity
 _atom_site_fract_x
 _atom_site_fract_y
 _atom_site_fract_z
 _atom_site_occupancy
  Zr  Zr0  1  0.488902  0.674609  0.590987  1
  Zr  Zr1  1  0.988781  0.825109  0.907770  1
  Zr  Zr2  1  0.511393  0.325602  0.090960  1
  Zr  Zr3  1  0.011588  0.174502  0.408841  1
  Zr  Zr4  1  0.511393  0.325602  0.409040  1
  Zr  Zr5  1  0.011588  0.174502  0.091159  1
  Zr  Zr6  1  0.488902  0.674609  0.909013  1
  Zr  Zr7  1  0.988781  0.825109  0.592230  1
  Ta  Ta8  1  0.657491  0.167177  0.625102  1
  Ta  Ta9  1  0.157437  0.332671  0.875622  1
  Ta  Ta10  1  0.341406  0.834031  0.124750  1
  Ta  Ta11  1  0.841102  0.666002  0.375351  1
  Ta  Ta12  1  0.341406  0.834031  0.375250  1
  Ta  Ta13  1  0.841102  0.666002  0.124649  1
  Ta  Ta14  1  0.657491  0.167177  0.874898  1
  Ta  Ta15  1  0.157437  0.332671  0.624378  1
  Ta  Ta16  1  0.837698  0.490168  0.750000  1
  Ta  Ta17  1  0.334822  0.010695  0.750000  1
  Ta  Ta18  1  0.164220  0.511257  0.250000  1
  Ta  Ta19  1  0.664244  0.989175  0.250000  1
  Ga  Ga20  1  0.460565  0.390178  0.750000  1
  Ge  Ge21  1  0.682627  0.960918  0.460847  1
  Ge  Ge22  1  0.182530  0.539536  0.039620  1
  Ge  Ge23  1  0.317368  0.038786  0.960167  1
  Ge  Ge24  1  0.817554  0.460706  0.539841  1
  Ge  Ge25  1  0.317368  0.038786  0.539833  1
  Ge  Ge26  1  0.817554  0.460706  0.960159  1
  Ge  Ge27  1  0.682627  0.960918  0.039153  1
  Ge  Ge28  1  0.182530  0.539536  0.460380  1
  Ge  Ge29  1  0.960102  0.112903  0.750000  1
  Ge  Ge30  1  0.539144  0.612026  0.250000  1
  Ge  Ge31  1  0.038779  0.888170  0.250000  1
  Ge  Ge32  1  0.692185  0.848912  0.750000  1
  Ge  Ge33  1  0.197219  0.647143  0.750000  1
  Ge  Ge34  1  0.307288  0.150954  0.250000  1
  Ge  Ge35  1  0.807381  0.349119  0.250000  1
