# generated using pymatgen
data_Nd6Y(HoPb2)3
_symmetry_space_group_name_H-M   'P 1'
_cell_length_a   6.75283600
_cell_length_b   9.26138445
_cell_length_c   9.26192000
_cell_angle_alpha   119.99781248
_cell_angle_beta   90.00001697
_cell_angle_gamma   89.99986160
_symmetry_Int_Tables_number   1
_chemical_formula_structural   Nd6Y(HoPb2)3
_chemical_formula_sum   'Nd6 Y1 Ho3 Pb6'
_cell_volume   501.65292058
_cell_formula_units_Z   1
loop_
 _symmetry_equiv_pos_site_id
 _symmetry_equiv_pos_as_xyz
  1  'x, y, z'
loop_
 _atom_site_type_symbol
 _atom_site_label
 _atom_site_symmetry_multiplicity
 _atom_site_fract_x
 _atom_site_fract_y
 _atom_site_fract_z
 _atom_site_occupancy
  Nd  Nd0  1  0.750194  0.239829  0.999971  1
  Nd  Nd1  1  0.750192  0.760063  0.760152  1
  Nd  Nd2  1  0.750194  0.000087  0.239936  1
  Nd  Nd3  1  0.249812  0.760102  0.999886  1
  Nd  Nd4  1  0.249801  0.239864  0.239908  1
  Nd  Nd5  1  0.249798  0.000044  0.760128  1
  Y  Y6  1  0.999996  0.333361  0.666695  1
  Ho  Ho7  1  0.500006  0.333317  0.666679  1
  Ho  Ho8  1  0.499990  0.666683  0.333336  1
  Ho  Ho9  1  0.000003  0.666679  0.333332  1
  Pb  Pb10  1  0.749801  0.602020  0.000280  1
  Pb  Pb11  1  0.749806  0.398180  0.397926  1
  Pb  Pb12  1  0.749813  0.999776  0.601800  1
  Pb  Pb13  1  0.250190  0.398225  0.000210  1
  Pb  Pb14  1  0.250206  0.602066  0.601818  1
  Pb  Pb15  1  0.250202  0.999704  0.397941  1
