# generated using pymatgen
data_KI2Cl7O2
_symmetry_space_group_name_H-M   'P 1'
_cell_length_a   8.35100453
_cell_length_b   8.35100476
_cell_length_c   11.54895345
_cell_angle_alpha   74.45773812
_cell_angle_beta   74.45773961
_cell_angle_gamma   91.99419292
_symmetry_Int_Tables_number   1
_chemical_formula_structural   KI2Cl7O2
_chemical_formula_sum   'K2 I4 Cl14 O4'
_cell_volume   742.64343379
_cell_formula_units_Z   2
loop_
 _symmetry_equiv_pos_site_id
 _symmetry_equiv_pos_as_xyz
  1  'x, y, z'
loop_
 _atom_site_type_symbol
 _atom_site_label
 _atom_site_symmetry_multiplicity
 _atom_site_fract_x
 _atom_site_fract_y
 _atom_site_fract_z
 _atom_site_occupancy
  K  K0  1  0.399772  0.600228  0.250000  1
  K  K1  1  0.600228  0.399772  0.750000  1
  I  I2  1  0.643033  0.137785  0.157499  1
  I  I3  1  0.356967  0.862215  0.842501  1
  I  I4  1  0.862215  0.356967  0.342501  1
  I  I5  1  0.137785  0.643033  0.657499  1
  Cl  Cl6  1  0.499465  0.806167  0.629573  1
  Cl  Cl7  1  0.803963  0.147453  0.941816  1
  Cl  Cl8  1  0.914264  0.085736  0.250000  1
  Cl  Cl9  1  0.262872  0.415679  0.579945  1
  Cl  Cl10  1  0.737128  0.584321  0.420055  1
  Cl  Cl11  1  0.085736  0.914264  0.750000  1
  Cl  Cl12  1  0.193833  0.500535  0.870427  1
  Cl  Cl13  1  0.852547  0.196037  0.558184  1
  Cl  Cl14  1  0.584321  0.737128  0.920055  1
  Cl  Cl15  1  0.500535  0.193833  0.370427  1
  Cl  Cl16  1  0.196037  0.852547  0.058184  1
  Cl  Cl17  1  0.415679  0.262872  0.079945  1
  Cl  Cl18  1  0.806167  0.499465  0.129573  1
  Cl  Cl19  1  0.147453  0.803963  0.441816  1
  O  O20  1  0.437385  0.077991  0.793832  1
  O  O21  1  0.922009  0.562615  0.706168  1
  O  O22  1  0.562615  0.922009  0.206168  1
  O  O23  1  0.077991  0.437385  0.293832  1
