# generated using pymatgen
data_YbHo(CoO2)6
_symmetry_space_group_name_H-M   'P 1'
_cell_length_a   4.92449848
_cell_length_b   5.51700103
_cell_length_c   8.50699700
_cell_angle_alpha   89.99790245
_cell_angle_beta   90.00101230
_cell_angle_gamma   73.11765693
_symmetry_Int_Tables_number   1
_chemical_formula_structural   YbHo(CoO2)6
_chemical_formula_sum   'Yb1 Ho1 Co6 O12'
_cell_volume   221.16139673
_cell_formula_units_Z   1
loop_
 _symmetry_equiv_pos_site_id
 _symmetry_equiv_pos_as_xyz
  1  'x, y, z'
loop_
 _atom_site_type_symbol
 _atom_site_label
 _atom_site_symmetry_multiplicity
 _atom_site_fract_x
 _atom_site_fract_y
 _atom_site_fract_z
 _atom_site_occupancy
  Yb  Yb0  1  0.500001  0.500000  0.667775  1
  Ho  Ho1  1  0.999997  0.499997  0.166320  1
  Co  Co2  1  0.500000  0.000000  0.166604  1
  Co  Co3  1  0.499999  0.999999  0.833946  1
  Co  Co4  1  0.500001  0.000002  0.499162  1
  Co  Co5  1  0.000000  0.000001  0.666613  1
  Co  Co6  1  0.999998  0.000000  0.335185  1
  Co  Co7  1  0.000004  0.999999  0.998199  1
  O  O8  1  0.773240  0.193321  0.166640  1
  O  O9  1  0.271771  0.186382  0.666575  1
  O  O10  1  0.226760  0.806678  0.166639  1
  O  O11  1  0.728229  0.813619  0.666566  1
  O  O12  1  0.266606  0.195055  0.001777  1
  O  O13  1  0.771640  0.187264  0.503571  1
  O  O14  1  0.266526  0.195021  0.331186  1
  O  O15  1  0.771861  0.187086  0.830019  1
  O  O16  1  0.733471  0.804982  0.331186  1
  O  O17  1  0.228153  0.812907  0.830022  1
  O  O18  1  0.733398  0.804943  0.001775  1
  O  O19  1  0.228346  0.812744  0.503573  1
