# generated using pymatgen
data_YbEr2Tm4Sn23Ir6
_symmetry_space_group_name_H-M   'P 1'
_cell_length_a   9.86335268
_cell_length_b   9.85622988
_cell_length_c   10.06412453
_cell_angle_alpha   89.99783806
_cell_angle_beta   89.94065886
_cell_angle_gamma   119.97535944
_symmetry_Int_Tables_number   1
_chemical_formula_structural   YbEr2Tm4Sn23Ir6
_chemical_formula_sum   'Yb1 Er2 Tm4 Sn23 Ir6'
_cell_volume   847.51906766
_cell_formula_units_Z   1
loop_
 _symmetry_equiv_pos_site_id
 _symmetry_equiv_pos_as_xyz
  1  'x, y, z'
loop_
 _atom_site_type_symbol
 _atom_site_label
 _atom_site_symmetry_multiplicity
 _atom_site_fract_x
 _atom_site_fract_y
 _atom_site_fract_z
 _atom_site_occupancy
  Yb  Yb0  1  0.000000  0.000000  0.000000  1
  Er  Er1  1  0.033746  0.516848  0.306111  1
  Er  Er2  1  0.966254  0.483152  0.693889  1
  Tm  Tm3  1  0.483416  0.516391  0.305813  1
  Tm  Tm4  1  0.516584  0.483609  0.694187  1
  Tm  Tm5  1  0.483371  0.966964  0.305850  1
  Tm  Tm6  1  0.516629  0.033036  0.694150  1
  Sn  Sn7  1  0.118269  0.881915  0.283120  1
  Sn  Sn8  1  0.881731  0.118085  0.716880  1
  Sn  Sn9  1  0.118462  0.236225  0.283040  1
  Sn  Sn10  1  0.881538  0.763775  0.716960  1
  Sn  Sn11  1  0.762864  0.881413  0.283284  1
  Sn  Sn12  1  0.237136  0.118587  0.716716  1
  Sn  Sn13  1  0.776917  0.222281  0.460606  1
  Sn  Sn14  1  0.223083  0.777719  0.539394  1
  Sn  Sn15  1  0.776931  0.554532  0.460628  1
  Sn  Sn16  1  0.223069  0.445468  0.539372  1
  Sn  Sn17  1  0.445507  0.222724  0.460718  1
  Sn  Sn18  1  0.554493  0.777276  0.539282  1
  Sn  Sn19  1  0.352295  0.000347  0.000182  1
  Sn  Sn20  1  0.647705  0.999653  0.999818  1
  Sn  Sn21  1  0.999962  0.352072  0.000047  1
  Sn  Sn22  1  0.000038  0.647928  0.999953  1
  Sn  Sn23  1  0.647715  0.648091  0.999794  1
  Sn  Sn24  1  0.352285  0.351909  0.000206  1
  Sn  Sn25  1  0.333747  0.666935  0.127199  1
  Sn  Sn26  1  0.666253  0.333065  0.872801  1
  Sn  Sn27  1  0.333362  0.666739  0.826998  1
  Sn  Sn28  1  0.666638  0.333261  0.173002  1
  Sn  Sn29  1  0.000000  0.000000  0.500000  1
  Ir  Ir30  1  0.828914  0.170556  0.201194  1
  Ir  Ir31  1  0.171086  0.829444  0.798806  1
  Ir  Ir32  1  0.828879  0.658340  0.201292  1
  Ir  Ir33  1  0.171121  0.341660  0.798708  1
  Ir  Ir34  1  0.341986  0.170976  0.201437  1
  Ir  Ir35  1  0.658014  0.829024  0.798563  1
