# generated using pymatgen
data_DyLu2Np(ReB6)2
_symmetry_space_group_name_H-M   'P 1'
_cell_length_a   3.64511300
_cell_length_b   9.09708175
_cell_length_c   11.45943413
_cell_angle_alpha   90.19386129
_cell_angle_beta   90.00000000
_cell_angle_gamma   90.00000000
_symmetry_Int_Tables_number   1
_chemical_formula_structural   DyLu2Np(ReB6)2
_chemical_formula_sum   'Dy2 Lu4 Np2 Re4 B24'
_cell_volume   379.99141074
_cell_formula_units_Z   2
loop_
 _symmetry_equiv_pos_site_id
 _symmetry_equiv_pos_as_xyz
  1  'x, y, z'
loop_
 _atom_site_type_symbol
 _atom_site_label
 _atom_site_symmetry_multiplicity
 _atom_site_fract_x
 _atom_site_fract_y
 _atom_site_fract_z
 _atom_site_occupancy
  Dy  Dy0  1  0.000000  0.822351  0.085756  1
  Dy  Dy1  1  0.000000  0.177649  0.914244  1
  Lu  Lu2  1  0.000000  0.944588  0.373002  1
  Lu  Lu3  1  0.000000  0.055412  0.626998  1
  Lu  Lu4  1  0.000000  0.443589  0.127834  1
  Lu  Lu5  1  0.000000  0.556411  0.872166  1
  Np  Np6  1  0.000000  0.321253  0.413565  1
  Np  Np7  1  0.000000  0.678747  0.586435  1
  Re  Re8  1  0.000000  0.635943  0.324433  1
  Re  Re9  1  0.000000  0.364057  0.675567  1
  Re  Re10  1  0.000000  0.141217  0.182919  1
  Re  Re11  1  0.000000  0.858783  0.817081  1
  B  B12  1  0.500000  0.552593  0.433868  1
  B  B13  1  0.500000  0.447407  0.566132  1
  B  B14  1  0.500000  0.053740  0.067486  1
  B  B15  1  0.500000  0.946260  0.932514  1
  B  B16  1  0.500000  0.750046  0.420456  1
  B  B17  1  0.500000  0.249954  0.579544  1
  B  B18  1  0.500000  0.250300  0.080990  1
  B  B19  1  0.500000  0.749700  0.919010  1
  B  B20  1  0.500000  0.792448  0.266163  1
  B  B21  1  0.500000  0.207552  0.733837  1
  B  B22  1  0.500000  0.293728  0.235055  1
  B  B23  1  0.500000  0.706272  0.764945  1
  B  B24  1  0.500000  0.630085  0.185247  1
  B  B25  1  0.500000  0.369915  0.814753  1
  B  B26  1  0.500000  0.132032  0.316011  1
  B  B27  1  0.500000  0.867968  0.683989  1
  B  B28  1  0.500000  0.981699  0.213290  1
  B  B29  1  0.500000  0.018301  0.786710  1
  B  B30  1  0.500000  0.480973  0.287280  1
  B  B31  1  0.500000  0.519027  0.712720  1
  B  B32  1  0.500000  0.600543  0.028175  1
  B  B33  1  0.500000  0.399457  0.971825  1
  B  B34  1  0.500000  0.106546  0.470741  1
  B  B35  1  0.500000  0.893454  0.529259  1
