# generated using pymatgen
data_BaMg2In7Ir2
_symmetry_space_group_name_H-M   'P 1'
_cell_length_a   9.07506300
_cell_length_b   9.07730490
_cell_length_c   4.14283300
_cell_angle_alpha   90.00000000
_cell_angle_beta   90.00000000
_cell_angle_gamma   119.99182672
_symmetry_Int_Tables_number   1
_chemical_formula_structural   BaMg2In7Ir2
_chemical_formula_sum   'Ba1 Mg2 In7 Ir2'
_cell_volume   295.57683388
_cell_formula_units_Z   1
loop_
 _symmetry_equiv_pos_site_id
 _symmetry_equiv_pos_as_xyz
  1  'x, y, z'
loop_
 _atom_site_type_symbol
 _atom_site_label
 _atom_site_symmetry_multiplicity
 _atom_site_fract_x
 _atom_site_fract_y
 _atom_site_fract_z
 _atom_site_occupancy
  Ba  Ba0  1  0.000000  0.000000  0.000000  1
  Mg  Mg1  1  0.000000  0.500000  0.000000  1
  Mg  Mg2  1  0.500000  0.500000  0.000000  1
  In  In3  1  0.587886  0.788808  0.500000  1
  In  In4  1  0.200923  0.788808  0.500000  1
  In  In5  1  0.208685  0.417369  0.500000  1
  In  In6  1  0.791315  0.582631  0.500000  1
  In  In7  1  0.799077  0.211192  0.500000  1
  In  In8  1  0.412114  0.211192  0.500000  1
  In  In9  1  0.500000  0.000000  0.000000  1
  Ir  Ir10  1  0.332927  0.665855  0.000000  1
  Ir  Ir11  1  0.667073  0.334145  0.000000  1
