# generated using pymatgen
data_Ho2Er10Ru3Rh
_symmetry_space_group_name_H-M   'P 1'
_cell_length_a   6.27919800
_cell_length_b   7.25128589
_cell_length_c   9.10200800
_cell_angle_alpha   90.00000000
_cell_angle_beta   90.00000000
_cell_angle_gamma   89.97246286
_symmetry_Int_Tables_number   1
_chemical_formula_structural   Ho2Er10Ru3Rh
_chemical_formula_sum   'Ho2 Er10 Ru3 Rh1'
_cell_volume   414.43494556
_cell_formula_units_Z   1
loop_
 _symmetry_equiv_pos_site_id
 _symmetry_equiv_pos_as_xyz
  1  'x, y, z'
loop_
 _atom_site_type_symbol
 _atom_site_label
 _atom_site_symmetry_multiplicity
 _atom_site_fract_x
 _atom_site_fract_y
 _atom_site_fract_z
 _atom_site_occupancy
  Ho  Ho0  1  0.866845  0.537732  0.250000  1
  Ho  Ho1  1  0.632257  0.039913  0.250000  1
  Er  Er2  1  0.332231  0.675288  0.062703  1
  Er  Er3  1  0.170399  0.179138  0.437577  1
  Er  Er4  1  0.670201  0.323015  0.564673  1
  Er  Er5  1  0.827480  0.822736  0.933403  1
  Er  Er6  1  0.670201  0.323015  0.935327  1
  Er  Er7  1  0.827480  0.822736  0.566597  1
  Er  Er8  1  0.332231  0.675288  0.437297  1
  Er  Er9  1  0.170399  0.179138  0.062423  1
  Er  Er10  1  0.132626  0.460371  0.750000  1
  Er  Er11  1  0.366640  0.960978  0.750000  1
  Ru  Ru12  1  0.458689  0.384730  0.250000  1
  Ru  Ru13  1  0.961810  0.114804  0.750000  1
  Ru  Ru14  1  0.537439  0.616011  0.750000  1
  Rh  Rh15  1  0.043070  0.885108  0.250000  1
