# generated using pymatgen
data_LaPrTh6(ZnRh)8
_symmetry_space_group_name_H-M   'P 1'
_cell_length_a   3.96544000
_cell_length_b   7.52357310
_cell_length_c   16.62012966
_cell_angle_alpha   90.08572941
_cell_angle_beta   90.00000000
_cell_angle_gamma   90.00000000
_symmetry_Int_Tables_number   1
_chemical_formula_structural   LaPrTh6(ZnRh)8
_chemical_formula_sum   'La1 Pr1 Th6 Zn8 Rh8'
_cell_volume   495.84900896
_cell_formula_units_Z   1
loop_
 _symmetry_equiv_pos_site_id
 _symmetry_equiv_pos_as_xyz
  1  'x, y, z'
loop_
 _atom_site_type_symbol
 _atom_site_label
 _atom_site_symmetry_multiplicity
 _atom_site_fract_x
 _atom_site_fract_y
 _atom_site_fract_z
 _atom_site_occupancy
  La  La0  1  0.750000  0.947323  0.285126  1
  Pr  Pr1  1  0.750000  0.447076  0.213772  1
  Th  Th2  1  0.750000  0.325613  0.439872  1
  Th  Th3  1  0.250000  0.056078  0.715347  1
  Th  Th4  1  0.250000  0.556700  0.784780  1
  Th  Th5  1  0.250000  0.671668  0.560804  1
  Th  Th6  1  0.750000  0.825819  0.060089  1
  Th  Th7  1  0.250000  0.172199  0.939036  1
  Zn  Zn8  1  0.250000  0.120155  0.151348  1
  Zn  Zn9  1  0.250000  0.993552  0.441045  1
  Zn  Zn10  1  0.750000  0.882351  0.847156  1
  Zn  Zn11  1  0.750000  0.003489  0.560367  1
  Zn  Zn12  1  0.250000  0.493757  0.059886  1
  Zn  Zn13  1  0.750000  0.382017  0.652987  1
  Zn  Zn14  1  0.750000  0.503178  0.939774  1
  Zn  Zn15  1  0.250000  0.617345  0.347882  1
  Rh  Rh16  1  0.750000  0.254969  0.813720  1
  Rh  Rh17  1  0.250000  0.251311  0.323001  1
  Rh  Rh18  1  0.250000  0.752641  0.937186  1
  Rh  Rh19  1  0.250000  0.253436  0.563042  1
  Rh  Rh20  1  0.250000  0.754352  0.177909  1
  Rh  Rh21  1  0.750000  0.739862  0.441767  1
  Rh  Rh22  1  0.750000  0.239853  0.057863  1
  Rh  Rh23  1  0.750000  0.755253  0.686242  1
