# generated using pymatgen
data_Ho6Tm3Th3Co4
_symmetry_space_group_name_H-M   'P 1'
_cell_length_a   6.27116536
_cell_length_b   6.87840818
_cell_length_c   9.50995973
_cell_angle_alpha   90.04997300
_cell_angle_beta   90.11665576
_cell_angle_gamma   88.92359501
_symmetry_Int_Tables_number   1
_chemical_formula_structural   Ho6Tm3Th3Co4
_chemical_formula_sum   'Ho6 Tm3 Th3 Co4'
_cell_volume   410.14476993
_cell_formula_units_Z   1
loop_
 _symmetry_equiv_pos_site_id
 _symmetry_equiv_pos_as_xyz
  1  'x, y, z'
loop_
 _atom_site_type_symbol
 _atom_site_label
 _atom_site_symmetry_multiplicity
 _atom_site_fract_x
 _atom_site_fract_y
 _atom_site_fract_z
 _atom_site_occupancy
  Ho  Ho0  1  0.175194  0.328448  0.571244  1
  Ho  Ho1  1  0.672744  0.172667  0.430823  1
  Ho  Ho2  1  0.175725  0.328205  0.928898  1
  Ho  Ho3  1  0.324768  0.828822  0.569648  1
  Ho  Ho4  1  0.643507  0.457264  0.750063  1
  Ho  Ho5  1  0.829181  0.671286  0.069040  1
  Tm  Tm6  1  0.670653  0.172640  0.068407  1
  Tm  Tm7  1  0.830126  0.671292  0.430618  1
  Tm  Tm8  1  0.325326  0.828083  0.930541  1
  Th  Th9  1  0.347103  0.553152  0.249826  1
  Th  Th10  1  0.153804  0.050650  0.248611  1
  Th  Th11  1  0.843807  0.949241  0.750580  1
  Co  Co12  1  0.964267  0.371583  0.249905  1
  Co  Co13  1  0.465814  0.111847  0.752701  1
  Co  Co14  1  0.537525  0.872109  0.249360  1
  Co  Co15  1  0.040456  0.632713  0.749734  1
