# generated using pymatgen
data_Hf2CoHgPd
_symmetry_space_group_name_H-M   'P 1'
_cell_length_a   7.43702420
_cell_length_b   7.43702431
_cell_length_c   3.22663500
_cell_angle_alpha   90.00000000
_cell_angle_beta   90.00000000
_cell_angle_gamma   88.39372312
_symmetry_Int_Tables_number   1
_chemical_formula_structural   Hf2CoHgPd
_chemical_formula_sum   'Hf4 Co2 Hg2 Pd2'
_cell_volume   178.39289216
_cell_formula_units_Z   2
loop_
 _symmetry_equiv_pos_site_id
 _symmetry_equiv_pos_as_xyz
  1  'x, y, z'
loop_
 _atom_site_type_symbol
 _atom_site_label
 _atom_site_symmetry_multiplicity
 _atom_site_fract_x
 _atom_site_fract_y
 _atom_site_fract_z
 _atom_site_occupancy
  Hf  Hf0  1  0.184300  0.315700  0.000000  1
  Hf  Hf1  1  0.815700  0.684300  0.000000  1
  Hf  Hf2  1  0.650872  0.150872  0.000000  1
  Hf  Hf3  1  0.349128  0.849128  0.000000  1
  Co  Co4  1  0.374357  0.125643  0.500000  1
  Co  Co5  1  0.625643  0.874357  0.500000  1
  Hg  Hg6  1  0.000000  0.000000  0.500000  1
  Hg  Hg7  1  0.500000  0.500000  0.500000  1
  Pd  Pd8  1  0.870725  0.370725  0.500000  1
  Pd  Pd9  1  0.129275  0.629275  0.500000  1
