# generated using pymatgen
data_Li2DyThSi3
_symmetry_space_group_name_H-M   'P 1'
_cell_length_a   9.29911910
_cell_length_b   9.29911905
_cell_length_c   6.79677100
_cell_angle_alpha   90.00000000
_cell_angle_beta   90.00000000
_cell_angle_gamma   152.86044175
_symmetry_Int_Tables_number   1
_chemical_formula_structural   Li2DyThSi3
_chemical_formula_sum   'Li4 Dy2 Th2 Si6'
_cell_volume   268.10375946
_cell_formula_units_Z   2
loop_
 _symmetry_equiv_pos_site_id
 _symmetry_equiv_pos_as_xyz
  1  'x, y, z'
loop_
 _atom_site_type_symbol
 _atom_site_label
 _atom_site_symmetry_multiplicity
 _atom_site_fract_x
 _atom_site_fract_y
 _atom_site_fract_z
 _atom_site_occupancy
  Li  Li0  1  0.190587  0.809413  0.061605  1
  Li  Li1  1  0.190587  0.809413  0.438395  1
  Li  Li2  1  0.809413  0.190587  0.938395  1
  Li  Li3  1  0.809413  0.190587  0.561605  1
  Dy  Dy4  1  0.346356  0.653644  0.250000  1
  Dy  Dy5  1  0.653644  0.346356  0.750000  1
  Th  Th6  1  0.553049  0.446951  0.250000  1
  Th  Th7  1  0.446951  0.553049  0.750000  1
  Si  Si8  1  0.722460  0.277540  0.250000  1
  Si  Si9  1  0.277540  0.722460  0.750000  1
  Si  Si10  1  0.060106  0.939894  0.929396  1
  Si  Si11  1  0.939894  0.060106  0.070604  1
  Si  Si12  1  0.939894  0.060106  0.429396  1
  Si  Si13  1  0.060106  0.939894  0.570604  1
