# generated using pymatgen
data_Ta5Nb7Al8(TcC)4
_symmetry_space_group_name_H-M   'P 1'
_cell_length_a   8.35773705
_cell_length_b   8.35817421
_cell_length_c   8.36461401
_cell_angle_alpha   59.97350466
_cell_angle_beta   59.96383505
_cell_angle_gamma   59.95731306
_symmetry_Int_Tables_number   1
_chemical_formula_structural   Ta5Nb7Al8(TcC)4
_chemical_formula_sum   'Ta5 Nb7 Al8 Tc4 C4'
_cell_volume   412.84309861
_cell_formula_units_Z   1
loop_
 _symmetry_equiv_pos_site_id
 _symmetry_equiv_pos_as_xyz
  1  'x, y, z'
loop_
 _atom_site_type_symbol
 _atom_site_label
 _atom_site_symmetry_multiplicity
 _atom_site_fract_x
 _atom_site_fract_y
 _atom_site_fract_z
 _atom_site_occupancy
  Ta  Ta0  1  0.941446  0.558561  0.558920  1
  Ta  Ta1  1  0.558940  0.941177  0.941278  1
  Ta  Ta2  1  0.940940  0.940632  0.559388  1
  Ta  Ta3  1  0.691815  0.308415  0.691436  1
  Ta  Ta4  1  0.940571  0.559545  0.940344  1
  Nb  Nb5  1  0.559954  0.940121  0.560054  1
  Nb  Nb6  1  0.309962  0.690501  0.690357  1
  Nb  Nb7  1  0.690686  0.309492  0.309743  1
  Nb  Nb8  1  0.308908  0.691357  0.308693  1
  Nb  Nb9  1  0.691142  0.690960  0.309150  1
  Nb  Nb10  1  0.309481  0.308996  0.690838  1
  Nb  Nb11  1  0.559371  0.559159  0.940942  1
  Al  Al12  1  0.916411  0.914304  0.915393  1
  Al  Al13  1  0.996545  0.334503  0.333364  1
  Al  Al14  1  0.334307  0.996922  0.335382  1
  Al  Al15  1  0.333396  0.335597  0.996542  1
  Al  Al16  1  0.915323  0.253645  0.916504  1
  Al  Al17  1  0.914249  0.916480  0.253660  1
  Al  Al18  1  0.253343  0.915563  0.914487  1
  Al  Al19  1  0.335366  0.333402  0.334275  1
  Tc  Tc20  1  0.125562  0.124563  0.125051  1
  Tc  Tc21  1  0.625704  0.124746  0.120869  1
  Tc  Tc22  1  0.122699  0.625089  0.126630  1
  Tc  Tc23  1  0.119985  0.127601  0.625376  1
  C  C24  1  0.627718  0.622510  0.625161  1
  C  C25  1  0.122448  0.625840  0.625912  1
  C  C26  1  0.627118  0.123853  0.627108  1
  C  C27  1  0.626614  0.626465  0.123146  1
