# generated using pymatgen
data_Bi3IrRu3O14
_symmetry_space_group_name_H-M   'P 1'
_cell_length_a   7.20494116
_cell_length_b   7.20494170
_cell_length_c   7.20494100
_cell_angle_alpha   61.19011968
_cell_angle_beta   61.19011982
_cell_angle_gamma   61.19012574
_symmetry_Int_Tables_number   1
_chemical_formula_structural   Bi3IrRu3O14
_chemical_formula_sum   'Bi3 Ir1 Ru3 O14'
_cell_volume   271.55051324
_cell_formula_units_Z   1
loop_
 _symmetry_equiv_pos_site_id
 _symmetry_equiv_pos_as_xyz
  1  'x, y, z'
loop_
 _atom_site_type_symbol
 _atom_site_label
 _atom_site_symmetry_multiplicity
 _atom_site_fract_x
 _atom_site_fract_y
 _atom_site_fract_z
 _atom_site_occupancy
  Bi  Bi0  1  0.000000  0.500000  0.500000  1
  Bi  Bi1  1  0.500000  0.500000  0.000000  1
  Bi  Bi2  1  0.500000  0.000000  0.500000  1
  Ir  Ir3  1  0.000000  0.000000  0.000000  1
  Ru  Ru4  1  0.500000  0.000000  0.000000  1
  Ru  Ru5  1  0.000000  0.000000  0.500000  1
  Ru  Ru6  1  0.000000  0.500000  0.000000  1
  O  O7  1  0.946300  0.319192  0.319192  1
  O  O8  1  0.328094  0.918330  0.918330  1
  O  O9  1  0.319192  0.319192  0.946300  1
  O  O10  1  0.918330  0.918330  0.328094  1
  O  O11  1  0.918330  0.328094  0.918330  1
  O  O12  1  0.319192  0.946300  0.319192  1
  O  O13  1  0.053700  0.680808  0.680808  1
  O  O14  1  0.671906  0.081670  0.081670  1
  O  O15  1  0.680808  0.680808  0.053700  1
  O  O16  1  0.081670  0.081670  0.671906  1
  O  O17  1  0.081670  0.671906  0.081670  1
  O  O18  1  0.680808  0.053700  0.680808  1
  O  O19  1  0.374121  0.374121  0.374121  1
  O  O20  1  0.625879  0.625879  0.625879  1
