# generated using pymatgen
data_SrGaPRu2
_symmetry_space_group_name_H-M   'P 1'
_cell_length_a   5.97309573
_cell_length_b   5.97309642
_cell_length_c   5.97309682
_cell_angle_alpha   138.22260275
_cell_angle_beta   138.22260498
_cell_angle_gamma   60.56224172
_symmetry_Int_Tables_number   1
_chemical_formula_structural   SrGaPRu2
_chemical_formula_sum   'Sr1 Ga1 P1 Ru2'
_cell_volume   93.58405811
_cell_formula_units_Z   1
loop_
 _symmetry_equiv_pos_site_id
 _symmetry_equiv_pos_as_xyz
  1  'x, y, z'
loop_
 _atom_site_type_symbol
 _atom_site_label
 _atom_site_symmetry_multiplicity
 _atom_site_fract_x
 _atom_site_fract_y
 _atom_site_fract_z
 _atom_site_occupancy
  Sr  Sr0  1  0.001693  0.001693  0.000000  1
  Ga  Ga1  1  0.634124  0.634124  0.000000  1
  P  P2  1  0.347870  0.347870  0.000000  1
  Ru  Ru3  1  0.258156  0.758156  0.500000  1
  Ru  Ru4  1  0.758156  0.258156  0.500000  1
