# generated using pymatgen
data_Pr6Co15P12RhW2
_symmetry_space_group_name_H-M   'P 1'
_cell_length_a   3.80573300
_cell_length_b   10.81135200
_cell_length_c   12.55891600
_cell_angle_alpha   90.00000000
_cell_angle_beta   90.00000000
_cell_angle_gamma   90.00000000
_symmetry_Int_Tables_number   1
_chemical_formula_structural   Pr6Co15P12RhW2
_chemical_formula_sum   'Pr6 Co15 P12 Rh1 W2'
_cell_volume   516.73809435
_cell_formula_units_Z   1
loop_
 _symmetry_equiv_pos_site_id
 _symmetry_equiv_pos_as_xyz
  1  'x, y, z'
loop_
 _atom_site_type_symbol
 _atom_site_label
 _atom_site_symmetry_multiplicity
 _atom_site_fract_x
 _atom_site_fract_y
 _atom_site_fract_z
 _atom_site_occupancy
  Pr  Pr0  1  0.000000  0.500000  0.520099  1
  Pr  Pr1  1  0.500000  0.000000  0.476293  1
  Pr  Pr2  1  0.500000  0.819530  0.204809  1
  Pr  Pr3  1  0.500000  0.180470  0.204809  1
  Pr  Pr4  1  0.000000  0.683526  0.796172  1
  Pr  Pr5  1  0.000000  0.316474  0.796172  1
  Co  Co6  1  0.000000  0.000000  0.296507  1
  Co  Co7  1  0.000000  0.500000  0.990623  1
  Co  Co8  1  0.500000  0.000000  0.011818  1
  Co  Co9  1  0.500000  0.331509  0.993791  1
  Co  Co10  1  0.500000  0.668491  0.993791  1
  Co  Co11  1  0.000000  0.166666  0.008577  1
  Co  Co12  1  0.000000  0.833334  0.008577  1
  Co  Co13  1  0.500000  0.294233  0.429281  1
  Co  Co14  1  0.500000  0.705767  0.429281  1
  Co  Co15  1  0.000000  0.201749  0.567869  1
  Co  Co16  1  0.000000  0.798251  0.567869  1
  Co  Co17  1  0.500000  0.882609  0.710303  1
  Co  Co18  1  0.500000  0.117391  0.710303  1
  Co  Co19  1  0.000000  0.618841  0.289661  1
  Co  Co20  1  0.000000  0.381159  0.289661  1
  P  P21  1  0.500000  0.500000  0.892881  1
  P  P22  1  0.000000  0.000000  0.114081  1
  P  P23  1  0.500000  0.500000  0.342703  1
  P  P24  1  0.000000  0.000000  0.656398  1
  P  P25  1  0.500000  0.297813  0.611166  1
  P  P26  1  0.500000  0.702187  0.611166  1
  P  P27  1  0.000000  0.193573  0.385083  1
  P  P28  1  0.000000  0.806427  0.385083  1
  P  P29  1  0.500000  0.847445  0.896552  1
  P  P30  1  0.500000  0.152555  0.896552  1
  P  P31  1  0.000000  0.653846  0.105189  1
  P  P32  1  0.000000  0.346154  0.105189  1
  Rh  Rh33  1  0.500000  0.500000  0.701206  1
  W  W34  1  0.500000  0.500000  0.153607  1
  W  W35  1  0.000000  0.000000  0.846879  1
