# generated using pymatgen
data_Li3PrTh2Pt3
_symmetry_space_group_name_H-M   'P 1'
_cell_length_a   7.38038854
_cell_length_b   7.33759833
_cell_length_c   4.11742700
_cell_angle_alpha   90.00000000
_cell_angle_beta   90.00000000
_cell_angle_gamma   119.80840625
_symmetry_Int_Tables_number   1
_chemical_formula_structural   Li3PrTh2Pt3
_chemical_formula_sum   'Li3 Pr1 Th2 Pt3'
_cell_volume   193.47503179
_cell_formula_units_Z   1
loop_
 _symmetry_equiv_pos_site_id
 _symmetry_equiv_pos_as_xyz
  1  'x, y, z'
loop_
 _atom_site_type_symbol
 _atom_site_label
 _atom_site_symmetry_multiplicity
 _atom_site_fract_x
 _atom_site_fract_y
 _atom_site_fract_z
 _atom_site_occupancy
  Li  Li0  1  0.000000  0.239064  0.500000  1
  Li  Li1  1  0.771050  0.768421  0.500000  1
  Li  Li2  1  0.228950  0.997370  0.500000  1
  Pr  Pr3  1  0.000000  0.594301  0.000000  1
  Th  Th4  1  0.403312  0.403093  0.000000  1
  Th  Th5  1  0.596688  0.999781  0.000000  1
  Pt  Pt6  1  0.000000  0.010871  0.000000  1
  Pt  Pt7  1  0.650136  0.318616  0.500000  1
  Pt  Pt8  1  0.349864  0.668482  0.500000  1
