# generated using pymatgen
data_TbY2Lu2Si3H
_symmetry_space_group_name_H-M   'P 1'
_cell_length_a   8.39850730
_cell_length_b   8.40659403
_cell_length_c   6.14903200
_cell_angle_alpha   90.00000000
_cell_angle_beta   90.00000000
_cell_angle_gamma   120.03185926
_symmetry_Int_Tables_number   1
_chemical_formula_structural   TbY2Lu2Si3H
_chemical_formula_sum   'Tb2 Y4 Lu4 Si6 H2'
_cell_volume   375.85475646
_cell_formula_units_Z   2
loop_
 _symmetry_equiv_pos_site_id
 _symmetry_equiv_pos_as_xyz
  1  'x, y, z'
loop_
 _atom_site_type_symbol
 _atom_site_label
 _atom_site_symmetry_multiplicity
 _atom_site_fract_x
 _atom_site_fract_y
 _atom_site_fract_z
 _atom_site_occupancy
  Tb  Tb0  1  0.749201  0.749135  0.750000  1
  Tb  Tb1  1  0.250799  0.999934  0.750000  1
  Y  Y2  1  0.000000  0.251236  0.750000  1
  Y  Y3  1  0.251144  0.251199  0.250000  1
  Y  Y4  1  0.748856  0.000055  0.250000  1
  Y  Y5  1  0.000000  0.748655  0.250000  1
  Lu  Lu6  1  0.666695  0.333281  0.999967  1
  Lu  Lu7  1  0.333305  0.666587  0.999967  1
  Lu  Lu8  1  0.333305  0.666587  0.500033  1
  Lu  Lu9  1  0.666695  0.333281  0.500033  1
  Si  Si10  1  0.390974  0.391328  0.750000  1
  Si  Si11  1  0.609026  0.000354  0.750000  1
  Si  Si12  1  0.000000  0.608337  0.750000  1
  Si  Si13  1  0.608905  0.608963  0.250000  1
  Si  Si14  1  0.391095  0.000057  0.250000  1
  Si  Si15  1  0.000000  0.391052  0.250000  1
  H  H16  1  0.000000  0.999979  0.499746  1
  H  H17  1  0.000000  0.999979  0.000254  1
