# generated using pymatgen
data_GdLuSc4(TeO6)3
_symmetry_space_group_name_H-M   'P 1'
_cell_length_a   8.91688872
_cell_length_b   8.92380543
_cell_length_c   5.00834775
_cell_angle_alpha   89.84901035
_cell_angle_beta   90.22445187
_cell_angle_gamma   120.08609983
_symmetry_Int_Tables_number   1
_chemical_formula_structural   GdLuSc4(TeO6)3
_chemical_formula_sum   'Gd1 Lu1 Sc4 Te3 O18'
_cell_volume   344.83205962
_cell_formula_units_Z   1
loop_
 _symmetry_equiv_pos_site_id
 _symmetry_equiv_pos_as_xyz
  1  'x, y, z'
loop_
 _atom_site_type_symbol
 _atom_site_label
 _atom_site_symmetry_multiplicity
 _atom_site_fract_x
 _atom_site_fract_y
 _atom_site_fract_z
 _atom_site_occupancy
  Gd  Gd0  1  0.000700  0.620430  0.999446  1
  Lu  Lu1  1  0.625715  0.001618  0.001548  1
  Sc  Sc2  1  0.999303  0.289559  0.500084  1
  Sc  Sc3  1  0.372235  0.373241  0.000429  1
  Sc  Sc4  1  0.289314  0.999182  0.499961  1
  Sc  Sc5  1  0.711603  0.711555  0.500384  1
  Te  Te6  1  0.337651  0.664421  0.501895  1
  Te  Te7  1  0.002944  0.005811  0.000076  1
  Te  Te8  1  0.659437  0.329828  0.498001  1
  O  O9  1  0.092279  0.890569  0.779477  1
  O  O10  1  0.232032  0.771734  0.290854  1
  O  O11  1  0.128620  0.532234  0.705990  1
  O  O12  1  0.409589  0.867033  0.727102  1
  O  O13  1  0.234544  0.457728  0.272907  1
  O  O14  1  0.120602  0.215570  0.787645  1
  O  O15  1  0.213196  0.122364  0.214590  1
  O  O16  1  0.548171  0.776988  0.290010  1
  O  O17  1  0.460920  0.580828  0.724359  1
  O  O18  1  0.794014  0.912001  0.781561  1
  O  O19  1  0.452437  0.231355  0.720667  1
  O  O20  1  0.581301  0.455799  0.267848  1
  O  O21  1  0.533928  0.121271  0.287621  1
  O  O22  1  0.770674  0.543677  0.702324  1
  O  O23  1  0.911074  0.800116  0.222284  1
  O  O24  1  0.766944  0.228035  0.722138  1
  O  O25  1  0.865257  0.401339  0.286007  1
  O  O26  1  0.885518  0.095716  0.214793  1
