# generated using pymatgen
data_Ti8V11Si16Mo
_symmetry_space_group_name_H-M   'P 1'
_cell_length_a   6.33332062
_cell_length_b   6.47125245
_cell_length_c   12.30272500
_cell_angle_alpha   90.00000000
_cell_angle_beta   90.00000000
_cell_angle_gamma   90.01294322
_symmetry_Int_Tables_number   1
_chemical_formula_structural   Ti8V11Si16Mo
_chemical_formula_sum   'Ti8 V11 Si16 Mo1'
_cell_volume   504.22122392
_cell_formula_units_Z   1
loop_
 _symmetry_equiv_pos_site_id
 _symmetry_equiv_pos_as_xyz
  1  'x, y, z'
loop_
 _atom_site_type_symbol
 _atom_site_label
 _atom_site_symmetry_multiplicity
 _atom_site_fract_x
 _atom_site_fract_y
 _atom_site_fract_z
 _atom_site_occupancy
  Ti  Ti0  1  0.491596  0.327751  0.090456  1
  Ti  Ti1  1  0.992903  0.171748  0.409652  1
  Ti  Ti2  1  0.506802  0.672899  0.592720  1
  Ti  Ti3  1  0.007877  0.827726  0.907501  1
  Ti  Ti4  1  0.506802  0.672899  0.907280  1
  Ti  Ti5  1  0.007877  0.827726  0.592499  1
  Ti  Ti6  1  0.491596  0.327751  0.409544  1
  Ti  Ti7  1  0.992903  0.171748  0.090348  1
  V  V8  1  0.838061  0.332406  0.625259  1
  V  V9  1  0.337263  0.167648  0.874580  1
  V  V10  1  0.165369  0.667569  0.124303  1
  V  V11  1  0.661428  0.834603  0.375238  1
  V  V12  1  0.165369  0.667569  0.375697  1
  V  V13  1  0.661428  0.834603  0.124762  1
  V  V14  1  0.838061  0.332406  0.874741  1
  V  V15  1  0.337263  0.167648  0.625420  1
  V  V16  1  0.661046  0.008505  0.750000  1
  V  V17  1  0.161427  0.491522  0.750000  1
  V  V18  1  0.337788  0.992273  0.250000  1
  Si  Si19  1  0.674274  0.039546  0.540037  1
  Si  Si20  1  0.174242  0.461080  0.960033  1
  Si  Si21  1  0.325922  0.961336  0.039063  1
  Si  Si22  1  0.825958  0.540409  0.461826  1
  Si  Si23  1  0.325922  0.961336  0.460937  1
  Si  Si24  1  0.825958  0.540409  0.038174  1
  Si  Si25  1  0.674274  0.039546  0.959963  1
  Si  Si26  1  0.174242  0.461080  0.539967  1
  Si  Si27  1  0.535897  0.385810  0.750000  1
  Si  Si28  1  0.035747  0.114115  0.750000  1
  Si  Si29  1  0.461331  0.616708  0.250000  1
  Si  Si30  1  0.966080  0.886380  0.250000  1
  Si  Si31  1  0.801453  0.646623  0.750000  1
  Si  Si32  1  0.301212  0.853792  0.750000  1
  Si  Si33  1  0.202396  0.350061  0.250000  1
  Si  Si34  1  0.695048  0.142502  0.250000  1
  Mo  Mo35  1  0.837185  0.502268  0.250000  1
