# generated using pymatgen
data_YbDy3(AlSi2)2
_symmetry_space_group_name_H-M   'P 1'
_cell_length_a   6.86894476
_cell_length_b   6.86894476
_cell_length_c   4.32155600
_cell_angle_alpha   90.00000000
_cell_angle_beta   90.00000000
_cell_angle_gamma   90.05380125
_symmetry_Int_Tables_number   1
_chemical_formula_structural   YbDy3(AlSi2)2
_chemical_formula_sum   'Yb1 Dy3 Al2 Si4'
_cell_volume   203.90130289
_cell_formula_units_Z   1
loop_
 _symmetry_equiv_pos_site_id
 _symmetry_equiv_pos_as_xyz
  1  'x, y, z'
loop_
 _atom_site_type_symbol
 _atom_site_label
 _atom_site_symmetry_multiplicity
 _atom_site_fract_x
 _atom_site_fract_y
 _atom_site_fract_z
 _atom_site_occupancy
  Yb  Yb0  1  0.676492  0.176492  0.500000  1
  Dy  Dy1  1  0.323695  0.823695  0.500000  1
  Dy  Dy2  1  0.822803  0.676634  0.500000  1
  Dy  Dy3  1  0.176634  0.322803  0.500000  1
  Al  Al4  1  0.498680  0.501392  0.000000  1
  Al  Al5  1  0.001392  0.998680  0.000000  1
  Si  Si6  1  0.622343  0.875405  0.000000  1
  Si  Si7  1  0.878128  0.378128  0.000000  1
  Si  Si8  1  0.375405  0.122343  0.000000  1
  Si  Si9  1  0.124428  0.624428  0.000000  1
