# generated using pymatgen
data_Pr3Y2P12Ru18Rh
_symmetry_space_group_name_H-M   'P 1'
_cell_length_a   12.58396000
_cell_length_b   12.63461902
_cell_length_c   4.01996000
_cell_angle_alpha   90.00000000
_cell_angle_beta   90.00000000
_cell_angle_gamma   119.86745386
_symmetry_Int_Tables_number   1
_chemical_formula_structural   Pr3Y2P12Ru18Rh
_chemical_formula_sum   'Pr3 Y2 P12 Ru18 Rh1'
_cell_volume   554.25593085
_cell_formula_units_Z   1
loop_
 _symmetry_equiv_pos_site_id
 _symmetry_equiv_pos_as_xyz
  1  'x, y, z'
loop_
 _atom_site_type_symbol
 _atom_site_label
 _atom_site_symmetry_multiplicity
 _atom_site_fract_x
 _atom_site_fract_y
 _atom_site_fract_z
 _atom_site_occupancy
  Pr  Pr0  1  0.816032  0.000000  0.500000  1
  Pr  Pr1  1  0.000445  0.815261  0.500000  1
  Pr  Pr2  1  0.185184  0.184739  0.500000  1
  Y  Y3  1  0.332366  0.664312  0.000000  1
  Y  Y4  1  0.668056  0.335688  0.000000  1
  P  P5  1  0.190612  0.000000  0.000000  1
  P  P6  1  0.999524  0.188171  0.000000  1
  P  P7  1  0.811353  0.811829  0.000000  1
  P  P8  1  0.520576  0.695301  0.500000  1
  P  P9  1  0.301376  0.821858  0.500000  1
  P  P10  1  0.173082  0.476927  0.500000  1
  P  P11  1  0.479518  0.178142  0.500000  1
  P  P12  1  0.696156  0.523073  0.500000  1
  P  P13  1  0.825275  0.304699  0.500000  1
  P  P14  1  0.627788  0.000000  0.000000  1
  P  P15  1  0.999860  0.625209  0.000000  1
  P  P16  1  0.374650  0.374791  0.000000  1
  Ru  Ru17  1  0.998893  0.445171  0.000000  1
  Ru  Ru18  1  0.553723  0.554829  0.000000  1
  Ru  Ru19  1  0.289623  0.000000  0.500000  1
  Ru  Ru20  1  0.998865  0.286155  0.500000  1
  Ru  Ru21  1  0.712709  0.713845  0.500000  1
  Ru  Ru22  1  0.617927  0.804524  0.000000  1
  Ru  Ru23  1  0.196010  0.814141  0.000000  1
  Ru  Ru24  1  0.184713  0.380207  0.000000  1
  Ru  Ru25  1  0.381869  0.185859  0.000000  1
  Ru  Ru26  1  0.804508  0.619793  0.000000  1
  Ru  Ru27  1  0.813403  0.195476  0.000000  1
  Ru  Ru28  1  0.505691  0.874349  0.500000  1
  Ru  Ru29  1  0.124035  0.630105  0.500000  1
  Ru  Ru30  1  0.367962  0.493588  0.500000  1
  Ru  Ru31  1  0.493929  0.369895  0.500000  1
  Ru  Ru32  1  0.874374  0.506412  0.500000  1
  Ru  Ru33  1  0.631342  0.125651  0.500000  1
  Ru  Ru34  1  0.001209  0.000000  0.000000  1
  Rh  Rh35  1  0.447362  0.000000  0.000000  1
