# generated using pymatgen
data_Tb20IrPd6Ru5
_symmetry_space_group_name_H-M   'P 1'
_cell_length_a   11.02312200
_cell_length_b   11.02312195
_cell_length_c   6.44205520
_cell_angle_alpha   89.96209860
_cell_angle_beta   89.96209815
_cell_angle_gamma   90.69056784
_symmetry_Int_Tables_number   1
_chemical_formula_structural   Tb20IrPd6Ru5
_chemical_formula_sum   'Tb20 Ir1 Pd6 Ru5'
_cell_volume   782.71188861
_cell_formula_units_Z   1
loop_
 _symmetry_equiv_pos_site_id
 _symmetry_equiv_pos_as_xyz
  1  'x, y, z'
loop_
 _atom_site_type_symbol
 _atom_site_label
 _atom_site_symmetry_multiplicity
 _atom_site_fract_x
 _atom_site_fract_y
 _atom_site_fract_z
 _atom_site_occupancy
  Tb  Tb0  1  0.298101  0.085021  0.371447  1
  Tb  Tb1  1  0.298083  0.909309  0.872584  1
  Tb  Tb2  1  0.702774  0.091801  0.872681  1
  Tb  Tb3  1  0.701764  0.915470  0.372135  1
  Tb  Tb4  1  0.581301  0.796741  0.870451  1
  Tb  Tb5  1  0.588490  0.207514  0.380528  1
  Tb  Tb6  1  0.412223  0.792895  0.381330  1
  Tb  Tb7  1  0.419652  0.204470  0.870458  1
  Tb  Tb8  1  0.203259  0.418699  0.629549  1
  Tb  Tb9  1  0.207105  0.587777  0.118670  1
  Tb  Tb10  1  0.792486  0.411510  0.119472  1
  Tb  Tb11  1  0.795530  0.580348  0.629542  1
  Tb  Tb12  1  0.914979  0.701899  0.128553  1
  Tb  Tb13  1  0.908199  0.297226  0.627319  1
  Tb  Tb14  1  0.090691  0.701917  0.627416  1
  Tb  Tb15  1  0.084530  0.298236  0.127865  1
  Tb  Tb16  1  0.000245  0.000104  0.501341  1
  Tb  Tb17  1  0.999896  0.999755  0.998659  1
  Tb  Tb18  1  0.501455  0.499710  0.997401  1
  Tb  Tb19  1  0.500290  0.498545  0.502599  1
  Ir  Ir20  1  0.347853  0.652147  0.750000  1
  Pd  Pd21  1  0.847767  0.152233  0.250000  1
  Pd  Pd22  1  0.845997  0.845816  0.749816  1
  Pd  Pd23  1  0.154184  0.154003  0.750184  1
  Pd  Pd24  1  0.153015  0.846985  0.250000  1
  Pd  Pd25  1  0.654882  0.655742  0.250489  1
  Pd  Pd26  1  0.344258  0.345118  0.249511  1
  Ru  Ru27  1  0.650863  0.349137  0.750000  1
  Ru  Ru28  1  0.500000  0.999779  0.126067  1
  Ru  Ru29  1  0.500160  0.000255  0.622251  1
  Ru  Ru30  1  0.999745  0.499840  0.877749  1
  Ru  Ru31  1  0.000221  0.500000  0.373933  1
