# generated using pymatgen
data_Tb2Ce2Se3N2
_symmetry_space_group_name_H-M   'P 1'
_cell_length_a   6.92763405
_cell_length_b   6.92763562
_cell_length_c   10.88653000
_cell_angle_alpha   47.97434223
_cell_angle_beta   47.97434166
_cell_angle_gamma   33.44353555
_symmetry_Int_Tables_number   1
_chemical_formula_structural   Tb2Ce2Se3N2
_chemical_formula_sum   'Tb2 Ce2 Se3 N2'
_cell_volume   205.90555736
_cell_formula_units_Z   1
loop_
 _symmetry_equiv_pos_site_id
 _symmetry_equiv_pos_as_xyz
  1  'x, y, z'
loop_
 _atom_site_type_symbol
 _atom_site_label
 _atom_site_symmetry_multiplicity
 _atom_site_fract_x
 _atom_site_fract_y
 _atom_site_fract_z
 _atom_site_occupancy
  Tb  Tb0  1  0.564316  0.564316  0.126543  1
  Tb  Tb1  1  0.435684  0.435684  0.873457  1
  Ce  Ce2  1  0.271306  0.271306  0.618205  1
  Ce  Ce3  1  0.728693  0.728694  0.381795  1
  Se  Se4  1  0.000000  0.000000  0.000000  1
  Se  Se5  1  0.862478  0.862478  0.754596  1
  Se  Se6  1  0.137522  0.137522  0.245404  1
  N  N7  1  0.334903  0.334903  0.362912  1
  N  N8  1  0.665097  0.665097  0.637088  1
