# generated using pymatgen
data_Ta2Nb4B4Os3Ru7
_symmetry_space_group_name_H-M   'P 1'
_cell_length_a   9.47912727
_cell_length_b   9.53887254
_cell_length_c   3.02060400
_cell_angle_alpha   90.00000000
_cell_angle_beta   90.00000000
_cell_angle_gamma   89.95190711
_symmetry_Int_Tables_number   1
_chemical_formula_structural   Ta2Nb4B4Os3Ru7
_chemical_formula_sum   'Ta2 Nb4 B4 Os3 Ru7'
_cell_volume   273.12348192
_cell_formula_units_Z   1
loop_
 _symmetry_equiv_pos_site_id
 _symmetry_equiv_pos_as_xyz
  1  'x, y, z'
loop_
 _atom_site_type_symbol
 _atom_site_label
 _atom_site_symmetry_multiplicity
 _atom_site_fract_x
 _atom_site_fract_y
 _atom_site_fract_z
 _atom_site_occupancy
  Ta  Ta0  1  0.500165  0.499877  0.000000  1
  Ta  Ta1  1  0.999444  0.001931  0.000000  1
  Nb  Nb2  1  0.824041  0.676957  0.000000  1
  Nb  Nb3  1  0.176731  0.323795  0.000000  1
  Nb  Nb4  1  0.323683  0.823340  0.000000  1
  Nb  Nb5  1  0.675913  0.176998  0.000000  1
  B  B6  1  0.621263  0.878933  0.000000  1
  B  B7  1  0.379052  0.120506  0.000000  1
  B  B8  1  0.120467  0.620927  0.000000  1
  B  B9  1  0.879160  0.378485  0.000000  1
  Os  Os10  1  0.571627  0.719718  0.500000  1
  Os  Os11  1  0.428187  0.280095  0.500000  1
  Os  Os12  1  0.070971  0.780490  0.500000  1
  Ru  Ru13  1  0.928532  0.219695  0.500000  1
  Ru  Ru14  1  0.281369  0.570574  0.500000  1
  Ru  Ru15  1  0.718880  0.428617  0.500000  1
  Ru  Ru16  1  0.218312  0.070380  0.500000  1
  Ru  Ru17  1  0.781779  0.929539  0.500000  1
  Ru  Ru18  1  0.500403  0.000068  0.500000  1
  Ru  Ru19  1  0.000021  0.499076  0.500000  1
