# generated using pymatgen
data_Er4Th6Si5GeC2
_symmetry_space_group_name_H-M   'P 1'
_cell_length_a   8.73903026
_cell_length_b   8.73903066
_cell_length_c   6.35634800
_cell_angle_alpha   90.00000000
_cell_angle_beta   90.00000000
_cell_angle_gamma   119.97189080
_symmetry_Int_Tables_number   1
_chemical_formula_structural   Er4Th6Si5GeC2
_chemical_formula_sum   'Er4 Th6 Si5 Ge1 C2'
_cell_volume   420.52105647
_cell_formula_units_Z   1
loop_
 _symmetry_equiv_pos_site_id
 _symmetry_equiv_pos_as_xyz
  1  'x, y, z'
loop_
 _atom_site_type_symbol
 _atom_site_label
 _atom_site_symmetry_multiplicity
 _atom_site_fract_x
 _atom_site_fract_y
 _atom_site_fract_z
 _atom_site_occupancy
  Er  Er0  1  0.667293  0.333165  0.000705  1
  Er  Er1  1  0.333165  0.667293  0.000705  1
  Er  Er2  1  0.333165  0.667293  0.499295  1
  Er  Er3  1  0.667293  0.333165  0.499295  1
  Th  Th4  1  0.767068  0.767068  0.750000  1
  Th  Th5  1  0.233126  0.998585  0.750000  1
  Th  Th6  1  0.998585  0.233126  0.750000  1
  Th  Th7  1  0.233089  0.233089  0.250000  1
  Th  Th8  1  0.766211  0.999902  0.250000  1
  Th  Th9  1  0.999902  0.766211  0.250000  1
  Si  Si10  1  0.597373  0.000036  0.750000  1
  Si  Si11  1  0.000036  0.597373  0.750000  1
  Si  Si12  1  0.597542  0.597542  0.250000  1
  Si  Si13  1  0.402644  0.000069  0.250000  1
  Si  Si14  1  0.000069  0.402644  0.250000  1
  Ge  Ge15  1  0.403035  0.403035  0.750000  1
  C  C16  1  0.000203  0.000203  0.999832  1
  C  C17  1  0.000203  0.000203  0.500168  1
