# generated using pymatgen
data_Hf2TaNb(FeP)4
_symmetry_space_group_name_H-M   'P 1'
_cell_length_a   3.66194200
_cell_length_b   6.20138037
_cell_length_c   7.00653504
_cell_angle_alpha   89.97410350
_cell_angle_beta   90.00000000
_cell_angle_gamma   90.00000000
_symmetry_Int_Tables_number   1
_chemical_formula_structural   Hf2TaNb(FeP)4
_chemical_formula_sum   'Hf2 Ta1 Nb1 Fe4 P4'
_cell_volume   159.11205517
_cell_formula_units_Z   1
loop_
 _symmetry_equiv_pos_site_id
 _symmetry_equiv_pos_as_xyz
  1  'x, y, z'
loop_
 _atom_site_type_symbol
 _atom_site_label
 _atom_site_symmetry_multiplicity
 _atom_site_fract_x
 _atom_site_fract_y
 _atom_site_fract_z
 _atom_site_occupancy
  Hf  Hf0  1  0.250000  0.019462  0.819395  1
  Hf  Hf1  1  0.250000  0.519405  0.681017  1
  Ta  Ta2  1  0.750000  0.481971  0.319084  1
  Nb  Nb3  1  0.750000  0.981774  0.179608  1
  Fe  Fe4  1  0.250000  0.144681  0.435958  1
  Fe  Fe5  1  0.250000  0.642371  0.065587  1
  Fe  Fe6  1  0.750000  0.853759  0.558151  1
  Fe  Fe7  1  0.750000  0.355143  0.941769  1
  P  P8  1  0.250000  0.778989  0.379776  1
  P  P9  1  0.250000  0.279946  0.120013  1
  P  P10  1  0.750000  0.221517  0.611326  1
  P  P11  1  0.750000  0.720984  0.888317  1
