# generated using pymatgen
data_Na(ScBr3)2
_symmetry_space_group_name_H-M   'P 1'
_cell_length_a   6.52414578
_cell_length_b   7.32536584
_cell_length_c   9.78048753
_cell_angle_alpha   67.62794787
_cell_angle_beta   48.66802971
_cell_angle_gamma   89.85856436
_symmetry_Int_Tables_number   1
_chemical_formula_structural   Na(ScBr3)2
_chemical_formula_sum   'Na1 Sc2 Br6'
_cell_volume   303.00218894
_cell_formula_units_Z   1
loop_
 _symmetry_equiv_pos_site_id
 _symmetry_equiv_pos_as_xyz
  1  'x, y, z'
loop_
 _atom_site_type_symbol
 _atom_site_label
 _atom_site_symmetry_multiplicity
 _atom_site_fract_x
 _atom_site_fract_y
 _atom_site_fract_z
 _atom_site_occupancy
  Na  Na0  1  0.429636  0.718239  0.980746  1
  Sc  Sc1  1  0.551020  0.049174  0.314347  1
  Sc  Sc2  1  0.040823  0.049252  0.314226  1
  Br  Br3  1  0.079109  0.026307  0.029480  1
  Br  Br4  1  0.491400  0.762192  0.623454  1
  Br  Br5  1  0.821336  0.358969  0.289007  1
  Br  Br6  1  0.274418  0.743041  0.337017  1
  Br  Br7  1  0.599236  0.333496  0.006936  1
  Br  Br8  1  0.015009  0.069179  0.598349  1
