# generated using pymatgen
data_Dy3YLu4Mn(FeB8)3
_symmetry_space_group_name_H-M   'P 1'
_cell_length_a   3.51477800
_cell_length_b   9.01953900
_cell_length_c   11.39367100
_cell_angle_alpha   90.00000000
_cell_angle_beta   90.00000000
_cell_angle_gamma   90.00000000
_symmetry_Int_Tables_number   1
_chemical_formula_structural   Dy3YLu4Mn(FeB8)3
_chemical_formula_sum   'Dy3 Y1 Lu4 Mn1 Fe3 B24'
_cell_volume   361.19848070
_cell_formula_units_Z   1
loop_
 _symmetry_equiv_pos_site_id
 _symmetry_equiv_pos_as_xyz
  1  'x, y, z'
loop_
 _atom_site_type_symbol
 _atom_site_label
 _atom_site_symmetry_multiplicity
 _atom_site_fract_x
 _atom_site_fract_y
 _atom_site_fract_z
 _atom_site_occupancy
  Dy  Dy0  1  0.000000  0.175876  0.916128  1
  Dy  Dy1  1  0.000000  0.322752  0.412958  1
  Dy  Dy2  1  0.000000  0.675828  0.584916  1
  Y  Y3  1  0.000000  0.824822  0.086172  1
  Lu  Lu4  1  0.000000  0.442638  0.129931  1
  Lu  Lu5  1  0.000000  0.557549  0.869336  1
  Lu  Lu6  1  0.000000  0.943740  0.369699  1
  Lu  Lu7  1  0.000000  0.057228  0.630889  1
  Mn  Mn8  1  0.000000  0.139422  0.180505  1
  Fe  Fe9  1  0.000000  0.860245  0.818697  1
  Fe  Fe10  1  0.000000  0.639236  0.319828  1
  Fe  Fe11  1  0.000000  0.360776  0.680610  1
  B  B12  1  0.500000  0.054604  0.068520  1
  B  B13  1  0.500000  0.945224  0.931270  1
  B  B14  1  0.500000  0.554741  0.431397  1
  B  B15  1  0.500000  0.444866  0.568329  1
  B  B16  1  0.500000  0.248020  0.082690  1
  B  B17  1  0.500000  0.752224  0.917315  1
  B  B18  1  0.500000  0.748013  0.417602  1
  B  B19  1  0.500000  0.251930  0.582547  1
  B  B20  1  0.500000  0.290960  0.234086  1
  B  B21  1  0.500000  0.709460  0.765729  1
  B  B22  1  0.500000  0.790579  0.266204  1
  B  B23  1  0.500000  0.209847  0.734462  1
  B  B24  1  0.500000  0.131246  0.314064  1
  B  B25  1  0.500000  0.868594  0.685391  1
  B  B26  1  0.500000  0.631260  0.185902  1
  B  B27  1  0.500000  0.368815  0.814701  1
  B  B28  1  0.500000  0.485189  0.287753  1
  B  B29  1  0.500000  0.514348  0.711942  1
  B  B30  1  0.500000  0.985015  0.212404  1
  B  B31  1  0.500000  0.014357  0.787731  1
  B  B32  1  0.500000  0.103236  0.472329  1
  B  B33  1  0.500000  0.896576  0.528480  1
  B  B34  1  0.500000  0.603613  0.028067  1
  B  B35  1  0.500000  0.397170  0.971418  1
