# generated using pymatgen
data_LaPr3Pt6O19
_symmetry_space_group_name_H-M   'P 1'
_cell_length_a   7.89784497
_cell_length_b   7.89346295
_cell_length_c   7.89346215
_cell_angle_alpha   109.45996146
_cell_angle_beta   109.48246390
_cell_angle_gamma   109.48247423
_symmetry_Int_Tables_number   1
_chemical_formula_structural   LaPr3Pt6O19
_chemical_formula_sum   'La1 Pr3 Pt6 O19'
_cell_volume   378.75777520
_cell_formula_units_Z   1
loop_
 _symmetry_equiv_pos_site_id
 _symmetry_equiv_pos_as_xyz
  1  'x, y, z'
loop_
 _atom_site_type_symbol
 _atom_site_label
 _atom_site_symmetry_multiplicity
 _atom_site_fract_x
 _atom_site_fract_y
 _atom_site_fract_z
 _atom_site_occupancy
  La  La0  1  0.316288  0.000000  0.000000  1
  Pr  Pr1  1  0.999527  0.000111  0.317313  1
  Pr  Pr2  1  0.999415  0.317202  0.999889  1
  Pr  Pr3  1  0.682213  0.682687  0.682798  1
  Pt  Pt4  1  0.340754  0.499649  0.840453  1
  Pt  Pt5  1  0.841105  0.340805  0.500351  1
  Pt  Pt6  1  0.500300  0.159547  0.659195  1
  Pt  Pt7  1  0.159323  0.659293  0.499850  1
  Pt  Pt8  1  0.500029  0.840557  0.340707  1
  Pt  Pt9  1  0.659473  0.500150  0.159443  1
  O  O10  1  0.338864  0.999927  0.339212  1
  O  O11  1  0.338937  0.339285  0.000073  1
  O  O12  1  0.999652  0.660788  0.660715  1
  O  O13  1  0.661276  0.661035  0.999935  1
  O  O14  1  0.000241  0.338900  0.338965  1
  O  O15  1  0.661341  0.000065  0.661100  1
  O  O16  1  0.997485  0.000000  0.000000  1
  O  O17  1  0.355708  0.316909  0.607337  1
  O  O18  1  0.038799  0.290427  0.683091  1
  O  O19  1  0.748372  0.392663  0.709573  1
  O  O20  1  0.392083  0.707374  0.746182  1
  O  O21  1  0.252070  0.961418  0.643161  1
  O  O22  1  0.608910  0.356839  0.318257  1
  O  O23  1  0.316532  0.607716  0.355306  1
  O  O24  1  0.684710  0.038808  0.292626  1
  O  O25  1  0.961225  0.644694  0.252409  1
  O  O26  1  0.708816  0.747591  0.392284  1
  O  O27  1  0.645902  0.253818  0.961192  1
  O  O28  1  0.290651  0.681743  0.038582  1
