# generated using pymatgen
data_TaTlS2O9
_symmetry_space_group_name_H-M   'P 1'
_cell_length_a   17.32243100
_cell_length_b   8.71444900
_cell_length_c   5.22696300
_cell_angle_alpha   90.00000000
_cell_angle_beta   90.00000000
_cell_angle_gamma   90.00000000
_symmetry_Int_Tables_number   1
_chemical_formula_structural   TaTlS2O9
_chemical_formula_sum   'Ta4 Tl4 S8 O36'
_cell_volume   789.03850740
_cell_formula_units_Z   4
loop_
 _symmetry_equiv_pos_site_id
 _symmetry_equiv_pos_as_xyz
  1  'x, y, z'
loop_
 _atom_site_type_symbol
 _atom_site_label
 _atom_site_symmetry_multiplicity
 _atom_site_fract_x
 _atom_site_fract_y
 _atom_site_fract_z
 _atom_site_occupancy
  Ta  Ta0  1  0.312150  0.064404  0.250002  1
  Ta  Ta1  1  0.812150  0.435595  0.250002  1
  Ta  Ta2  1  0.187850  0.564404  0.750001  1
  Ta  Ta3  1  0.687850  0.935596  0.750001  1
  Tl  Tl4  1  0.068076  0.168478  0.250002  1
  Tl  Tl5  1  0.568076  0.331522  0.250002  1
  Tl  Tl6  1  0.431924  0.668478  0.750001  1
  Tl  Tl7  1  0.931924  0.831521  0.750001  1
  S  S8  1  0.804149  0.034631  0.250002  1
  S  S9  1  0.304150  0.465370  0.250002  1
  S  S10  1  0.065271  0.626055  0.250002  1
  S  S11  1  0.565271  0.873946  0.250002  1
  S  S12  1  0.434729  0.126055  0.750001  1
  S  S13  1  0.934729  0.373945  0.750001  1
  S  S14  1  0.695850  0.534630  0.750001  1
  S  S15  1  0.195851  0.965369  0.750001  1
  O  O16  1  0.274566  0.553059  0.018223  1
  O  O17  1  0.774565  0.946941  0.018223  1
  O  O18  1  0.119514  0.651730  0.022112  1
  O  O19  1  0.619514  0.848271  0.022112  1
  O  O20  1  0.536741  0.029607  0.250002  1
  O  O21  1  0.887397  0.031684  0.250002  1
  O  O22  1  0.767347  0.186577  0.250002  1
  O  O23  1  0.267347  0.313422  0.250002  1
  O  O24  1  0.387397  0.468317  0.250002  1
  O  O25  1  0.036741  0.470394  0.250002  1
  O  O26  1  0.842481  0.625898  0.250002  1
  O  O27  1  0.509147  0.750932  0.250002  1
  O  O28  1  0.009147  0.749068  0.250002  1
  O  O29  1  0.342481  0.874102  0.250002  1
  O  O30  1  0.119514  0.651730  0.477888  1
  O  O31  1  0.619514  0.848271  0.477888  1
  O  O32  1  0.274566  0.553059  0.481777  1
  O  O33  1  0.774565  0.946941  0.481777  1
  O  O34  1  0.225434  0.053058  0.518222  1
  O  O35  1  0.725434  0.446941  0.518222  1
  O  O36  1  0.380486  0.151731  0.522111  1
  O  O37  1  0.880486  0.348270  0.522111  1
  O  O38  1  0.657519  0.125898  0.750001  1
  O  O39  1  0.990853  0.250933  0.750001  1
  O  O40  1  0.490853  0.249067  0.750001  1
  O  O41  1  0.157519  0.374101  0.750001  1
  O  O42  1  0.963259  0.529608  0.750001  1
  O  O43  1  0.612603  0.531683  0.750001  1
  O  O44  1  0.732653  0.686577  0.750001  1
  O  O45  1  0.232653  0.813423  0.750001  1
  O  O46  1  0.112603  0.968318  0.750001  1
  O  O47  1  0.463259  0.970392  0.750001  1
  O  O48  1  0.380486  0.151731  0.977888  1
  O  O49  1  0.880486  0.348270  0.977888  1
  O  O50  1  0.225434  0.053058  0.981777  1
  O  O51  1  0.725434  0.446941  0.981777  1
