# generated using pymatgen
data_PtPb2(SeO3)4
_symmetry_space_group_name_H-M   'P 1'
_cell_length_a   6.90465800
_cell_length_b   9.17132526
_cell_length_c   9.63530684
_cell_angle_alpha   83.83751115
_cell_angle_beta   90.00000000
_cell_angle_gamma   90.00000000
_symmetry_Int_Tables_number   1
_chemical_formula_structural   PtPb2(SeO3)4
_chemical_formula_sum   'Pt2 Pb4 Se8 O24'
_cell_volume   606.62869432
_cell_formula_units_Z   2
loop_
 _symmetry_equiv_pos_site_id
 _symmetry_equiv_pos_as_xyz
  1  'x, y, z'
loop_
 _atom_site_type_symbol
 _atom_site_label
 _atom_site_symmetry_multiplicity
 _atom_site_fract_x
 _atom_site_fract_y
 _atom_site_fract_z
 _atom_site_occupancy
  Pt  Pt0  1  0.000000  0.000000  0.500000  1
  Pt  Pt1  1  0.500000  0.000000  0.000000  1
  Pb  Pb2  1  0.245286  0.538248  0.598167  1
  Pb  Pb3  1  0.745286  0.461752  0.901833  1
  Pb  Pb4  1  0.754714  0.461752  0.401833  1
  Pb  Pb5  1  0.254714  0.538248  0.098167  1
  Se  Se6  1  0.189950  0.841121  0.792520  1
  Se  Se7  1  0.689950  0.158879  0.707480  1
  Se  Se8  1  0.810050  0.158879  0.207480  1
  Se  Se9  1  0.310050  0.841121  0.292520  1
  Se  Se10  1  0.189384  0.242852  0.866697  1
  Se  Se11  1  0.689384  0.757148  0.633303  1
  Se  Se12  1  0.810616  0.757148  0.133303  1
  Se  Se13  1  0.310616  0.242852  0.366697  1
  O  O14  1  0.378850  0.972587  0.811325  1
  O  O15  1  0.878850  0.027413  0.688675  1
  O  O16  1  0.621150  0.027413  0.188675  1
  O  O17  1  0.121150  0.972587  0.311325  1
  O  O18  1  0.196461  0.863909  0.606411  1
  O  O19  1  0.696461  0.136091  0.893589  1
  O  O20  1  0.803539  0.136091  0.393589  1
  O  O21  1  0.303539  0.863909  0.106411  1
  O  O22  1  0.308293  0.677918  0.812742  1
  O  O23  1  0.808293  0.322082  0.687258  1
  O  O24  1  0.691707  0.322082  0.187258  1
  O  O25  1  0.191707  0.677918  0.312742  1
  O  O26  1  0.360543  0.351023  0.776173  1
  O  O27  1  0.860543  0.648977  0.723827  1
  O  O28  1  0.639457  0.648977  0.223827  1
  O  O29  1  0.139457  0.351023  0.276173  1
  O  O30  1  0.063598  0.374023  0.949898  1
  O  O31  1  0.563598  0.625977  0.550102  1
  O  O32  1  0.936402  0.625977  0.050102  1
  O  O33  1  0.436402  0.374023  0.449898  1
  O  O34  1  0.323896  0.176267  0.017318  1
  O  O35  1  0.823896  0.823733  0.482682  1
  O  O36  1  0.676104  0.823733  0.982682  1
  O  O37  1  0.176104  0.176267  0.517318  1
