# generated using pymatgen
data_Dy8Lu9Sc3Si15Os
_symmetry_space_group_name_H-M   'P 1'
_cell_length_a   7.20812197
_cell_length_b   7.61649139
_cell_length_c   14.25338200
_cell_angle_alpha   90.00000000
_cell_angle_beta   90.00000000
_cell_angle_gamma   90.13213545
_symmetry_Int_Tables_number   1
_chemical_formula_structural   Dy8Lu9Sc3Si15Os
_chemical_formula_sum   'Dy8 Lu9 Sc3 Si15 Os1'
_cell_volume   782.51712792
_cell_formula_units_Z   1
loop_
 _symmetry_equiv_pos_site_id
 _symmetry_equiv_pos_as_xyz
  1  'x, y, z'
loop_
 _atom_site_type_symbol
 _atom_site_label
 _atom_site_symmetry_multiplicity
 _atom_site_fract_x
 _atom_site_fract_y
 _atom_site_fract_z
 _atom_site_occupancy
  Dy  Dy0  1  0.016041  0.183154  0.097821  1
  Dy  Dy1  1  0.985790  0.828180  0.904227  1
  Dy  Dy2  1  0.484933  0.679983  0.904625  1
  Dy  Dy3  1  0.985790  0.828180  0.595773  1
  Dy  Dy4  1  0.515103  0.320256  0.097260  1
  Dy  Dy5  1  0.016041  0.183154  0.402179  1
  Dy  Dy6  1  0.515103  0.320256  0.402740  1
  Dy  Dy7  1  0.484933  0.679983  0.595375  1
  Lu  Lu8  1  0.153062  0.508040  0.750000  1
  Lu  Lu9  1  0.313014  0.171396  0.626983  1
  Lu  Lu10  1  0.677025  0.825705  0.373036  1
  Lu  Lu11  1  0.175936  0.678559  0.373118  1
  Lu  Lu12  1  0.677025  0.825705  0.126964  1
  Lu  Lu13  1  0.833043  0.313808  0.626762  1
  Lu  Lu14  1  0.313014  0.171396  0.873017  1
  Lu  Lu15  1  0.833043  0.313808  0.873238  1
  Lu  Lu16  1  0.175936  0.678559  0.126882  1
  Sc  Sc17  1  0.841426  0.488270  0.250000  1
  Sc  Sc18  1  0.342379  0.013987  0.250000  1
  Sc  Sc19  1  0.667788  0.990468  0.750000  1
  Si  Si20  1  0.978051  0.898620  0.250000  1
  Si  Si21  1  0.479087  0.602184  0.250000  1
  Si  Si22  1  0.525965  0.395893  0.750000  1
  Si  Si23  1  0.285280  0.865890  0.750000  1
  Si  Si24  1  0.715394  0.137011  0.250000  1
  Si  Si25  1  0.216730  0.365561  0.250000  1
  Si  Si26  1  0.770319  0.630327  0.750000  1
  Si  Si27  1  0.157521  0.472367  0.536630  1
  Si  Si28  1  0.846180  0.532693  0.460428  1
  Si  Si29  1  0.346122  0.969079  0.458497  1
  Si  Si30  1  0.846180  0.532693  0.039572  1
  Si  Si31  1  0.650648  0.030594  0.538265  1
  Si  Si32  1  0.157521  0.472367  0.963370  1
  Si  Si33  1  0.650648  0.030594  0.961735  1
  Si  Si34  1  0.346122  0.969079  0.041503  1
  Os  Os35  1  0.021806  0.092207  0.750000  1
