# generated using pymatgen
data_Nd3Al12IrOsRu2
_symmetry_space_group_name_H-M   'P 1'
_cell_length_a   8.91199689
_cell_length_b   8.89154124
_cell_length_c   9.68595796
_cell_angle_alpha   90.24943663
_cell_angle_beta   89.88235507
_cell_angle_gamma   119.92116477
_symmetry_Int_Tables_number   1
_chemical_formula_structural   Nd3Al12IrOsRu2
_chemical_formula_sum   'Nd6 Al24 Ir2 Os2 Ru4'
_cell_volume   665.22049139
_cell_formula_units_Z   2
loop_
 _symmetry_equiv_pos_site_id
 _symmetry_equiv_pos_as_xyz
  1  'x, y, z'
loop_
 _atom_site_type_symbol
 _atom_site_label
 _atom_site_symmetry_multiplicity
 _atom_site_fract_x
 _atom_site_fract_y
 _atom_site_fract_z
 _atom_site_occupancy
  Nd  Nd0  1  0.191006  0.384789  0.248644  1
  Nd  Nd1  1  0.808994  0.615211  0.751356  1
  Nd  Nd2  1  0.617443  0.808479  0.249150  1
  Nd  Nd3  1  0.382557  0.191521  0.750850  1
  Nd  Nd4  1  0.190414  0.806084  0.249898  1
  Nd  Nd5  1  0.809586  0.193916  0.750102  1
  Al  Al6  1  0.332542  0.665408  0.013617  1
  Al  Al7  1  0.667458  0.334592  0.986383  1
  Al  Al8  1  0.667504  0.332192  0.514686  1
  Al  Al9  1  0.332496  0.667808  0.485314  1
  Al  Al10  1  0.162244  0.326544  0.574720  1
  Al  Al11  1  0.837756  0.673456  0.425280  1
  Al  Al12  1  0.674416  0.838431  0.575478  1
  Al  Al13  1  0.836502  0.673350  0.076009  1
  Al  Al14  1  0.325584  0.161569  0.424522  1
  Al  Al15  1  0.163498  0.326650  0.923991  1
  Al  Al16  1  0.163077  0.837314  0.575410  1
  Al  Al17  1  0.325895  0.164651  0.076209  1
  Al  Al18  1  0.836923  0.162686  0.424590  1
  Al  Al19  1  0.674105  0.835349  0.923791  1
  Al  Al20  1  0.838396  0.164922  0.074636  1
  Al  Al21  1  0.161604  0.835078  0.925364  1
  Al  Al22  1  0.561483  0.123825  0.251989  1
  Al  Al23  1  0.438517  0.876175  0.748011  1
  Al  Al24  1  0.873627  0.437039  0.250927  1
  Al  Al25  1  0.126373  0.562961  0.749073  1
  Al  Al26  1  0.562379  0.437062  0.249235  1
  Al  Al27  1  0.437621  0.562938  0.750765  1
  Al  Al28  1  0.999442  0.000080  0.249953  1
  Al  Al29  1  0.000558  0.999920  0.750047  1
  Ir  Ir30  1  0.500000  0.000000  0.000000  1
  Ir  Ir31  1  0.500000  0.500000  0.500000  1
  Os  Os32  1  0.000000  0.500000  0.000000  1
  Os  Os33  1  0.500000  0.500000  0.000000  1
  Ru  Ru34  1  0.500000  0.000000  0.500000  1
  Ru  Ru35  1  0.000000  0.500000  0.500000  1
  Ru  Ru36  1  0.000000  0.000000  0.000000  1
  Ru  Ru37  1  0.000000  0.000000  0.500000  1
