# generated using pymatgen
data_IrPdRh2F24
_symmetry_space_group_name_H-M   'P 1'
_cell_length_a   5.19047704
_cell_length_b   8.88901000
_cell_length_c   9.75604970
_cell_angle_alpha   90.00000000
_cell_angle_beta   90.03558905
_cell_angle_gamma   90.00000000
_symmetry_Int_Tables_number   1
_chemical_formula_structural   IrPdRh2F24
_chemical_formula_sum   'Ir1 Pd1 Rh2 F24'
_cell_volume   450.12650804
_cell_formula_units_Z   1
loop_
 _symmetry_equiv_pos_site_id
 _symmetry_equiv_pos_as_xyz
  1  'x, y, z'
loop_
 _atom_site_type_symbol
 _atom_site_label
 _atom_site_symmetry_multiplicity
 _atom_site_fract_x
 _atom_site_fract_y
 _atom_site_fract_z
 _atom_site_occupancy
  Ir  Ir0  1  0.905943  0.250000  0.372146  1
  Pd  Pd1  1  0.593431  0.250000  0.873836  1
  Rh  Rh2  1  0.407070  0.750000  0.126130  1
  Rh  Rh3  1  0.093473  0.750000  0.627929  1
  F  F4  1  0.245208  0.601014  0.518551  1
  F  F5  1  0.255031  0.898883  0.017394  1
  F  F6  1  0.942144  0.898766  0.736755  1
  F  F7  1  0.196183  0.250000  0.485801  1
  F  F8  1  0.743398  0.099657  0.985942  1
  F  F9  1  0.558221  0.898861  0.235741  1
  F  F10  1  0.293975  0.250000  0.985869  1
  F  F11  1  0.245208  0.898986  0.518551  1
  F  F12  1  0.753268  0.398493  0.481255  1
  F  F13  1  0.444197  0.400306  0.761572  1
  F  F14  1  0.743398  0.400343  0.985942  1
  F  F15  1  0.804326  0.750000  0.513077  1
  F  F16  1  0.696777  0.750000  0.012173  1
  F  F17  1  0.255031  0.601117  0.017394  1
  F  F18  1  0.444197  0.099694  0.761572  1
  F  F19  1  0.058076  0.398289  0.262763  1
  F  F20  1  0.614680  0.250000  0.259080  1
  F  F21  1  0.558221  0.601139  0.235741  1
  F  F22  1  0.893751  0.250000  0.762131  1
  F  F23  1  0.117018  0.750000  0.240431  1
  F  F24  1  0.058076  0.101711  0.262763  1
  F  F25  1  0.942144  0.601234  0.736755  1
  F  F26  1  0.384287  0.750000  0.741452  1
  F  F27  1  0.753268  0.101507  0.481255  1
