# generated using pymatgen
data_Hf4Zr6Al12Ir7
_symmetry_space_group_name_H-M   'P 1'
_cell_length_a   8.92825023
_cell_length_b   8.92825061
_cell_length_c   8.92825100
_cell_angle_alpha   59.99999483
_cell_angle_beta   59.99999344
_cell_angle_gamma   60.00000130
_symmetry_Int_Tables_number   1
_chemical_formula_structural   Hf4Zr6Al12Ir7
_chemical_formula_sum   'Hf4 Zr6 Al12 Ir7'
_cell_volume   503.25034881
_cell_formula_units_Z   1
loop_
 _symmetry_equiv_pos_site_id
 _symmetry_equiv_pos_as_xyz
  1  'x, y, z'
loop_
 _atom_site_type_symbol
 _atom_site_label
 _atom_site_symmetry_multiplicity
 _atom_site_fract_x
 _atom_site_fract_y
 _atom_site_fract_z
 _atom_site_occupancy
  Hf  Hf0  1  0.879801  0.879801  0.360597  1
  Hf  Hf1  1  0.879801  0.360597  0.879801  1
  Hf  Hf2  1  0.360597  0.879801  0.879801  1
  Hf  Hf3  1  0.879801  0.879801  0.879801  1
  Zr  Zr4  1  0.687452  0.687452  0.312548  1
  Zr  Zr5  1  0.312548  0.687452  0.312548  1
  Zr  Zr6  1  0.687452  0.312548  0.312548  1
  Zr  Zr7  1  0.312548  0.312548  0.687452  1
  Zr  Zr8  1  0.687452  0.312548  0.687452  1
  Zr  Zr9  1  0.312548  0.687452  0.687452  1
  Al  Al10  1  0.122130  0.122130  0.633611  1
  Al  Al11  1  0.122130  0.633611  0.122130  1
  Al  Al12  1  0.633611  0.122130  0.122130  1
  Al  Al13  1  0.122130  0.122130  0.122130  1
  Al  Al14  1  0.659949  0.659949  0.020153  1
  Al  Al15  1  0.659949  0.020153  0.659949  1
  Al  Al16  1  0.020153  0.659949  0.659949  1
  Al  Al17  1  0.659949  0.659949  0.659949  1
  Al  Al18  1  0.337101  0.337101  0.988698  1
  Al  Al19  1  0.337101  0.988698  0.337101  1
  Al  Al20  1  0.988698  0.337101  0.337101  1
  Al  Al21  1  0.337101  0.337101  0.337101  1
  Ir  Ir22  1  0.000000  0.000000  0.000000  1
  Ir  Ir23  1  0.999373  0.999373  0.500627  1
  Ir  Ir24  1  0.500627  0.999373  0.500627  1
  Ir  Ir25  1  0.999373  0.500627  0.500627  1
  Ir  Ir26  1  0.500627  0.500627  0.999373  1
  Ir  Ir27  1  0.999373  0.500627  0.999373  1
  Ir  Ir28  1  0.500627  0.999373  0.999373  1
