# generated using pymatgen
data_NdLu2U(TcB6)2
_symmetry_space_group_name_H-M   'P 1'
_cell_length_a   3.67793500
_cell_length_b   9.12557938
_cell_length_c   11.52328600
_cell_angle_alpha   90.30627112
_cell_angle_beta   90.00000000
_cell_angle_gamma   90.00000000
_symmetry_Int_Tables_number   1
_chemical_formula_structural   NdLu2U(TcB6)2
_chemical_formula_sum   'Nd2 Lu4 U2 Tc4 B24'
_cell_volume   386.75383863
_cell_formula_units_Z   2
loop_
 _symmetry_equiv_pos_site_id
 _symmetry_equiv_pos_as_xyz
  1  'x, y, z'
loop_
 _atom_site_type_symbol
 _atom_site_label
 _atom_site_symmetry_multiplicity
 _atom_site_fract_x
 _atom_site_fract_y
 _atom_site_fract_z
 _atom_site_occupancy
  Nd  Nd0  1  0.000000  0.822661  0.086198  1
  Nd  Nd1  1  0.000000  0.177339  0.913802  1
  Lu  Lu2  1  0.000000  0.944878  0.373396  1
  Lu  Lu3  1  0.000000  0.055122  0.626604  1
  Lu  Lu4  1  0.000000  0.443954  0.128803  1
  Lu  Lu5  1  0.000000  0.556046  0.871197  1
  U  U6  1  0.000000  0.322898  0.414354  1
  U  U7  1  0.000000  0.677102  0.585646  1
  Tc  Tc8  1  0.000000  0.635175  0.326124  1
  Tc  Tc9  1  0.000000  0.364825  0.673876  1
  Tc  Tc10  1  0.000000  0.143795  0.186367  1
  Tc  Tc11  1  0.000000  0.856205  0.813633  1
  B  B12  1  0.500000  0.552951  0.434527  1
  B  B13  1  0.500000  0.447049  0.565473  1
  B  B14  1  0.500000  0.055982  0.070941  1
  B  B15  1  0.500000  0.944018  0.929059  1
  B  B16  1  0.500000  0.749008  0.421027  1
  B  B17  1  0.500000  0.250992  0.578973  1
  B  B18  1  0.500000  0.251176  0.084257  1
  B  B19  1  0.500000  0.748824  0.915743  1
  B  B20  1  0.500000  0.791171  0.268614  1
  B  B21  1  0.500000  0.208829  0.731386  1
  B  B22  1  0.500000  0.294437  0.237404  1
  B  B23  1  0.500000  0.705563  0.762596  1
  B  B24  1  0.500000  0.628884  0.187268  1
  B  B25  1  0.500000  0.371116  0.812732  1
  B  B26  1  0.500000  0.133586  0.317706  1
  B  B27  1  0.500000  0.866414  0.682294  1
  B  B28  1  0.500000  0.984277  0.215965  1
  B  B29  1  0.500000  0.015723  0.784035  1
  B  B30  1  0.500000  0.481586  0.288717  1
  B  B31  1  0.500000  0.518414  0.711283  1
  B  B32  1  0.500000  0.598320  0.027436  1
  B  B33  1  0.500000  0.401680  0.972564  1
  B  B34  1  0.500000  0.108554  0.470741  1
  B  B35  1  0.500000  0.891446  0.529259  1
