# generated using pymatgen
data_Rb2HoF5
_symmetry_space_group_name_H-M   'P 1'
_cell_length_a   6.92400800
_cell_length_b   7.43137400
_cell_length_c   11.48603400
_cell_angle_alpha   90.00000000
_cell_angle_beta   90.00000000
_cell_angle_gamma   90.00000000
_symmetry_Int_Tables_number   1
_chemical_formula_structural   Rb2HoF5
_chemical_formula_sum   'Rb8 Ho4 F20'
_cell_volume   591.01265077
_cell_formula_units_Z   4
loop_
 _symmetry_equiv_pos_site_id
 _symmetry_equiv_pos_as_xyz
  1  'x, y, z'
loop_
 _atom_site_type_symbol
 _atom_site_label
 _atom_site_symmetry_multiplicity
 _atom_site_fract_x
 _atom_site_fract_y
 _atom_site_fract_z
 _atom_site_occupancy
  Rb  Rb0  1  0.534333  0.021003  0.171122  1
  Rb  Rb1  1  0.465667  0.521003  0.828878  1
  Rb  Rb2  1  0.965667  0.021003  0.671122  1
  Rb  Rb3  1  0.034333  0.521003  0.328878  1
  Rb  Rb4  1  0.033394  0.017422  0.328968  1
  Rb  Rb5  1  0.966606  0.517422  0.671032  1
  Rb  Rb6  1  0.466606  0.017422  0.828968  1
  Rb  Rb7  1  0.533394  0.517422  0.171032  1
  Ho  Ho8  1  0.440885  0.268099  0.501152  1
  Ho  Ho9  1  0.559115  0.768099  0.498848  1
  Ho  Ho10  1  0.059115  0.268099  0.001152  1
  Ho  Ho11  1  0.940885  0.768099  0.998848  1
  F  F12  1  0.141672  0.983252  0.069923  1
  F  F13  1  0.858328  0.483252  0.930077  1
  F  F14  1  0.358328  0.983252  0.569923  1
  F  F15  1  0.641672  0.483252  0.430077  1
  F  F16  1  0.374458  0.269179  0.015371  1
  F  F17  1  0.625542  0.769179  0.984629  1
  F  F18  1  0.125542  0.269179  0.515371  1
  F  F19  1  0.874458  0.769179  0.484629  1
  F  F20  1  0.140128  0.552686  0.071059  1
  F  F21  1  0.859872  0.052686  0.928941  1
  F  F22  1  0.359872  0.552686  0.571059  1
  F  F23  1  0.640128  0.052686  0.428941  1
  F  F24  1  0.348999  0.268624  0.317791  1
  F  F25  1  0.651001  0.768624  0.682209  1
  F  F26  1  0.151001  0.268624  0.817791  1
  F  F27  1  0.848999  0.768624  0.182209  1
  F  F28  1  0.378939  0.766733  0.341869  1
  F  F29  1  0.621061  0.266733  0.658131  1
  F  F30  1  0.121061  0.766733  0.841869  1
  F  F31  1  0.878939  0.266733  0.158131  1
