# generated using pymatgen
data_Gd6NiSn6Ir5
_symmetry_space_group_name_H-M   'P 1'
_cell_length_a   7.44938000
_cell_length_b   7.44937872
_cell_length_c   7.78674400
_cell_angle_alpha   90.00000000
_cell_angle_beta   90.00000000
_cell_angle_gamma   119.99998792
_symmetry_Int_Tables_number   1
_chemical_formula_structural   Gd6NiSn6Ir5
_chemical_formula_sum   'Gd6 Ni1 Sn6 Ir5'
_cell_volume   374.21980154
_cell_formula_units_Z   1
loop_
 _symmetry_equiv_pos_site_id
 _symmetry_equiv_pos_as_xyz
  1  'x, y, z'
loop_
 _atom_site_type_symbol
 _atom_site_label
 _atom_site_symmetry_multiplicity
 _atom_site_fract_x
 _atom_site_fract_y
 _atom_site_fract_z
 _atom_site_occupancy
  Gd  Gd0  1  0.000048  0.409636  0.750000  1
  Gd  Gd1  1  0.590364  0.590413  0.750000  1
  Gd  Gd2  1  0.409587  0.999952  0.750000  1
  Gd  Gd3  1  0.999680  0.407242  0.250000  1
  Gd  Gd4  1  0.592758  0.592438  0.250000  1
  Gd  Gd5  1  0.407562  0.000320  0.250000  1
  Ni  Ni6  1  0.000000  0.000000  0.250000  1
  Sn  Sn7  1  0.255611  0.255603  0.495307  1
  Sn  Sn8  1  0.999993  0.744389  0.495307  1
  Sn  Sn9  1  0.999993  0.744389  0.004693  1
  Sn  Sn10  1  0.744397  0.000007  0.495307  1
  Sn  Sn11  1  0.744397  0.000007  0.004693  1
  Sn  Sn12  1  0.255611  0.255603  0.004693  1
  Ir  Ir13  1  0.333333  0.666667  0.498336  1
  Ir  Ir14  1  0.666667  0.333333  0.498776  1
  Ir  Ir15  1  0.333333  0.666667  0.001664  1
  Ir  Ir16  1  0.000000  0.000000  0.750000  1
  Ir  Ir17  1  0.666667  0.333333  0.001224  1
