# generated using pymatgen
data_GdHo7(TeO6)4
_symmetry_space_group_name_H-M   'P 1'
_cell_length_a   5.32188931
_cell_length_b   9.16905782
_cell_length_c   10.04372500
_cell_angle_alpha   90.09978744
_cell_angle_beta   89.98040577
_cell_angle_gamma   89.95432402
_symmetry_Int_Tables_number   1
_chemical_formula_structural   GdHo7(TeO6)4
_chemical_formula_sum   'Gd1 Ho7 Te4 O24'
_cell_volume   490.09981653
_cell_formula_units_Z   1
loop_
 _symmetry_equiv_pos_site_id
 _symmetry_equiv_pos_as_xyz
  1  'x, y, z'
loop_
 _atom_site_type_symbol
 _atom_site_label
 _atom_site_symmetry_multiplicity
 _atom_site_fract_x
 _atom_site_fract_y
 _atom_site_fract_z
 _atom_site_occupancy
  Gd  Gd0  1  0.037474  0.217367  0.136421  1
  Ho  Ho1  1  0.481702  0.896953  0.038478  1
  Ho  Ho2  1  0.981211  0.604096  0.960793  1
  Ho  Ho3  1  0.519283  0.396578  0.461543  1
  Ho  Ho4  1  0.017488  0.102791  0.539020  1
  Ho  Ho5  1  0.460207  0.782238  0.635557  1
  Ho  Ho6  1  0.960227  0.716484  0.365445  1
  Ho  Ho7  1  0.538711  0.283690  0.863860  1
  Te  Te8  1  0.962211  0.994184  0.851193  1
  Te  Te9  1  0.463194  0.507492  0.147544  1
  Te  Te10  1  0.037370  0.494635  0.647623  1
  Te  Te11  1  0.536956  0.003419  0.353983  1
  O  O12  1  0.242572  0.584139  0.504335  1
  O  O13  1  0.741588  0.913903  0.497170  1
  O  O14  1  0.754131  0.083925  0.993494  1
  O  O15  1  0.258673  0.418301  0.003512  1
  O  O16  1  0.266094  0.883736  0.432827  1
  O  O17  1  0.766241  0.614336  0.567664  1
  O  O18  1  0.731292  0.387492  0.065594  1
  O  O19  1  0.234046  0.114421  0.929790  1
  O  O20  1  0.180555  0.641418  0.178474  1
  O  O21  1  0.681092  0.858596  0.821009  1
  O  O22  1  0.817866  0.139048  0.326027  1
  O  O23  1  0.320095  0.360046  0.678066  1
  O  O24  1  0.318452  0.360456  0.261505  1
  O  O25  1  0.813122  0.141197  0.738489  1
  O  O26  1  0.688855  0.858480  0.239714  1
  O  O27  1  0.186011  0.641386  0.760895  1
  O  O28  1  0.333676  0.048341  0.201013  1
  O  O29  1  0.830714  0.449939  0.799750  1
  O  O30  1  0.671474  0.550407  0.299749  1
  O  O31  1  0.168624  0.948653  0.699196  1
  O  O32  1  0.405769  0.156077  0.469915  1
  O  O33  1  0.908909  0.343204  0.530113  1
  O  O34  1  0.592503  0.658535  0.030530  1
  O  O35  1  0.091616  0.844037  0.969704  1
