# generated using pymatgen
data_La4TmSn3
_symmetry_space_group_name_H-M   'P 1'
_cell_length_a   9.45070121
_cell_length_b   9.45070103
_cell_length_c   9.45070162
_cell_angle_alpha   96.26684377
_cell_angle_beta   96.26684625
_cell_angle_gamma   141.41481183
_symmetry_Int_Tables_number   1
_chemical_formula_structural   La4TmSn3
_chemical_formula_sum   'La8 Tm2 Sn6'
_cell_volume   496.88087986
_cell_formula_units_Z   2
loop_
 _symmetry_equiv_pos_site_id
 _symmetry_equiv_pos_as_xyz
  1  'x, y, z'
loop_
 _atom_site_type_symbol
 _atom_site_label
 _atom_site_symmetry_multiplicity
 _atom_site_fract_x
 _atom_site_fract_y
 _atom_site_fract_z
 _atom_site_occupancy
  La  La0  1  0.910419  0.223900  0.134318  1
  La  La1  1  0.223900  0.089581  0.313481  1
  La  La2  1  0.776100  0.910419  0.686519  1
  La  La3  1  0.089581  0.776100  0.865682  1
  La  La4  1  0.723900  0.410419  0.134318  1
  La  La5  1  0.276100  0.589581  0.865682  1
  La  La6  1  0.589581  0.723900  0.313481  1
  La  La7  1  0.410419  0.276100  0.686519  1
  Tm  Tm8  1  0.750000  0.250000  0.500000  1
  Tm  Tm9  1  0.250000  0.750000  0.500000  1
  Sn  Sn10  1  0.750000  0.750000  0.000000  1
  Sn  Sn11  1  0.250000  0.250000  0.000000  1
  Sn  Sn12  1  0.846294  0.653706  0.500000  1
  Sn  Sn13  1  0.653706  0.153706  0.807412  1
  Sn  Sn14  1  0.346294  0.846294  0.192588  1
  Sn  Sn15  1  0.153706  0.346294  0.500000  1
