# generated using pymatgen
data_CsTaSiS5
_symmetry_space_group_name_H-M   'P 1'
_cell_length_a   7.04747230
_cell_length_b   7.67563519
_cell_length_c   9.62358125
_cell_angle_alpha   64.60719579
_cell_angle_beta   77.40912828
_cell_angle_gamma   74.08260642
_symmetry_Int_Tables_number   1
_chemical_formula_structural   CsTaSiS5
_chemical_formula_sum   'Cs2 Ta2 Si2 S10'
_cell_volume   449.22221721
_cell_formula_units_Z   2
loop_
 _symmetry_equiv_pos_site_id
 _symmetry_equiv_pos_as_xyz
  1  'x, y, z'
loop_
 _atom_site_type_symbol
 _atom_site_label
 _atom_site_symmetry_multiplicity
 _atom_site_fract_x
 _atom_site_fract_y
 _atom_site_fract_z
 _atom_site_occupancy
  Cs  Cs0  1  0.608478  0.342220  0.311349  1
  Cs  Cs1  1  0.391522  0.657780  0.688651  1
  Ta  Ta2  1  0.238217  0.027707  0.004411  1
  Ta  Ta3  1  0.761783  0.972293  0.995589  1
  Si  Si4  1  0.979973  0.692338  0.373667  1
  Si  Si5  1  0.020027  0.307662  0.626333  1
  S  S6  1  0.073208  0.763110  0.012996  1
  S  S7  1  0.433889  0.210315  0.031196  1
  S  S8  1  0.703560  0.852152  0.288987  1
  S  S9  1  0.210658  0.852776  0.292823  1
  S  S10  1  0.070609  0.396940  0.375144  1
  S  S11  1  0.929391  0.603060  0.624856  1
  S  S12  1  0.789342  0.147224  0.707177  1
  S  S13  1  0.296440  0.147848  0.711013  1
  S  S14  1  0.566111  0.789685  0.968804  1
  S  S15  1  0.926792  0.236890  0.987004  1
