# generated using pymatgen
data_LaYb11(YSi2)8
_symmetry_space_group_name_H-M   'P 1'
_cell_length_a   7.43085201
_cell_length_b   7.83780393
_cell_length_c   15.14204287
_cell_angle_alpha   90.06901857
_cell_angle_beta   90.09414162
_cell_angle_gamma   90.04158123
_symmetry_Int_Tables_number   1
_chemical_formula_structural   LaYb11(YSi2)8
_chemical_formula_sum   'La1 Yb11 Y8 Si16'
_cell_volume   881.89415002
_cell_formula_units_Z   1
loop_
 _symmetry_equiv_pos_site_id
 _symmetry_equiv_pos_as_xyz
  1  'x, y, z'
loop_
 _atom_site_type_symbol
 _atom_site_label
 _atom_site_symmetry_multiplicity
 _atom_site_fract_x
 _atom_site_fract_y
 _atom_site_fract_z
 _atom_site_occupancy
  La  La0  1  0.972043  0.818174  0.403147  1
  Yb  Yb1  1  0.471445  0.684185  0.095561  1
  Yb  Yb2  1  0.527814  0.314736  0.597247  1
  Yb  Yb3  1  0.029089  0.184389  0.903692  1
  Yb  Yb4  1  0.028922  0.184069  0.597155  1
  Yb  Yb5  1  0.529021  0.315333  0.903646  1
  Yb  Yb6  1  0.471025  0.683072  0.403839  1
  Yb  Yb7  1  0.971189  0.816262  0.096935  1
  Yb  Yb8  1  0.353729  0.021076  0.750237  1
  Yb  Yb9  1  0.853646  0.478350  0.750421  1
  Yb  Yb10  1  0.148194  0.518376  0.247839  1
  Yb  Yb11  1  0.643514  0.981586  0.247889  1
  Y  Y12  1  0.314302  0.178169  0.120289  1
  Y  Y13  1  0.814735  0.321264  0.378382  1
  Y  Y14  1  0.186554  0.677040  0.878984  1
  Y  Y15  1  0.684867  0.821741  0.622231  1
  Y  Y16  1  0.315776  0.181134  0.378740  1
  Y  Y17  1  0.812932  0.323259  0.120709  1
  Y  Y18  1  0.186221  0.676522  0.622764  1
  Y  Y19  1  0.686828  0.822753  0.878760  1
  Si  Si20  1  0.856562  0.531206  0.537963  1
  Si  Si21  1  0.358044  0.967422  0.961411  1
  Si  Si22  1  0.641743  0.030118  0.461906  1
  Si  Si23  1  0.141796  0.468481  0.038579  1
  Si  Si24  1  0.141107  0.469881  0.461867  1
  Si  Si25  1  0.642219  0.031862  0.038472  1
  Si  Si26  1  0.354895  0.966526  0.537330  1
  Si  Si27  1  0.857663  0.532259  0.961611  1
  Si  Si28  1  0.979012  0.886161  0.750492  1
  Si  Si29  1  0.479302  0.613658  0.750154  1
  Si  Si30  1  0.523560  0.385676  0.250276  1
  Si  Si31  1  0.021638  0.113245  0.250154  1
  Si  Si32  1  0.250081  0.393282  0.750198  1
  Si  Si33  1  0.750114  0.105998  0.750020  1
  Si  Si34  1  0.249922  0.894002  0.249790  1
  Si  Si35  1  0.750499  0.608734  0.251311  1
