# generated using pymatgen
data_Sc10In7SnRh4
_symmetry_space_group_name_H-M   'P 1'
_cell_length_a   17.60073907
_cell_length_b   7.73560046
_cell_length_c   3.35799300
_cell_angle_alpha   90.00000000
_cell_angle_beta   90.00000000
_cell_angle_gamma   90.03977317
_symmetry_Int_Tables_number   1
_chemical_formula_structural   Sc10In7SnRh4
_chemical_formula_sum   'Sc10 In7 Sn1 Rh4'
_cell_volume   457.19831073
_cell_formula_units_Z   1
loop_
 _symmetry_equiv_pos_site_id
 _symmetry_equiv_pos_as_xyz
  1  'x, y, z'
loop_
 _atom_site_type_symbol
 _atom_site_label
 _atom_site_symmetry_multiplicity
 _atom_site_fract_x
 _atom_site_fract_y
 _atom_site_fract_z
 _atom_site_occupancy
  Sc  Sc0  1  0.999309  0.000556  0.000000  1
  Sc  Sc1  1  0.414156  0.124660  0.000000  1
  Sc  Sc2  1  0.721050  0.247532  0.000000  1
  Sc  Sc3  1  0.220561  0.253479  0.000000  1
  Sc  Sc4  1  0.915599  0.374290  0.000000  1
  Sc  Sc5  1  0.500285  0.500023  0.000000  1
  Sc  Sc6  1  0.085131  0.625872  0.000000  1
  Sc  Sc7  1  0.779137  0.745624  0.000000  1
  Sc  Sc8  1  0.278080  0.754569  0.000000  1
  Sc  Sc9  1  0.584962  0.874599  0.000000  1
  In  In10  1  0.567089  0.202844  0.500001  1
  In  In11  1  0.066071  0.296664  0.500001  1
  In  In12  1  0.349916  0.431339  0.500001  1
  In  In13  1  0.650255  0.569514  0.500001  1
  In  In14  1  0.934856  0.699491  0.500001  1
  In  In15  1  0.433303  0.796700  0.500001  1
  In  In16  1  0.148368  0.931150  0.500001  1
  Sn  Sn17  1  0.850767  0.071477  0.500001  1
  Rh  Rh18  1  0.305213  0.036849  0.500001  1
  Rh  Rh19  1  0.807233  0.462623  0.500001  1
  Rh  Rh20  1  0.193122  0.537207  0.500001  1
  Rh  Rh21  1  0.695538  0.962938  0.500001  1
