# generated using pymatgen
data_ReSeBr9
_symmetry_space_group_name_H-M   'P 1'
_cell_length_a   11.77042300
_cell_length_b   6.90756382
_cell_length_c   9.99660671
_cell_angle_alpha   76.17901730
_cell_angle_beta   90.00000000
_cell_angle_gamma   90.00000000
_symmetry_Int_Tables_number   1
_chemical_formula_structural   ReSeBr9
_chemical_formula_sum   'Re2 Se2 Br18'
_cell_volume   789.24124229
_cell_formula_units_Z   2
loop_
 _symmetry_equiv_pos_site_id
 _symmetry_equiv_pos_as_xyz
  1  'x, y, z'
loop_
 _atom_site_type_symbol
 _atom_site_label
 _atom_site_symmetry_multiplicity
 _atom_site_fract_x
 _atom_site_fract_y
 _atom_site_fract_z
 _atom_site_occupancy
  Re  Re0  1  0.250000  0.645444  0.850094  1
  Re  Re1  1  0.750000  0.354556  0.149906  1
  Se  Se2  1  0.250000  0.757934  0.463778  1
  Se  Se3  1  0.750000  0.242066  0.536222  1
  Br  Br4  1  0.603533  0.453544  0.310556  1
  Br  Br5  1  0.103533  0.546456  0.689444  1
  Br  Br6  1  0.396467  0.546456  0.689444  1
  Br  Br7  1  0.896467  0.453544  0.310556  1
  Br  Br8  1  0.750000  0.693409  0.006141  1
  Br  Br9  1  0.250000  0.306591  0.993859  1
  Br  Br10  1  0.750000  0.515015  0.647430  1
  Br  Br11  1  0.250000  0.484985  0.352570  1
  Br  Br12  1  0.750000  0.013875  0.321584  1
  Br  Br13  1  0.250000  0.986125  0.678416  1
  Br  Br14  1  0.902943  0.243360  0.021916  1
  Br  Br15  1  0.402943  0.756640  0.978084  1
  Br  Br16  1  0.097057  0.756640  0.978084  1
  Br  Br17  1  0.597057  0.243360  0.021916  1
  Br  Br18  1  0.904369  0.053319  0.660735  1
  Br  Br19  1  0.404369  0.946681  0.339265  1
  Br  Br20  1  0.095631  0.946681  0.339265  1
  Br  Br21  1  0.595631  0.053319  0.660735  1
