# generated using pymatgen
data_Fe7SbAsO12
_symmetry_space_group_name_H-M   'P 1'
_cell_length_a   10.81747065
_cell_length_b   10.81747053
_cell_length_c   10.81747100
_cell_angle_alpha   147.44298645
_cell_angle_beta   132.35902029
_cell_angle_gamma   58.89350287
_symmetry_Int_Tables_number   1
_chemical_formula_structural   Fe7SbAsO12
_chemical_formula_sum   'Fe14 Sb2 As2 O24'
_cell_volume   499.15991404
_cell_formula_units_Z   2
loop_
 _symmetry_equiv_pos_site_id
 _symmetry_equiv_pos_as_xyz
  1  'x, y, z'
loop_
 _atom_site_type_symbol
 _atom_site_label
 _atom_site_symmetry_multiplicity
 _atom_site_fract_x
 _atom_site_fract_y
 _atom_site_fract_z
 _atom_site_occupancy
  Fe  Fe0  1  0.799730  0.925851  0.873878  1
  Fe  Fe1  1  0.158526  0.158526  0.500000  1
  Fe  Fe2  1  0.808990  0.333337  0.475653  1
  Fe  Fe3  1  0.158526  0.658526  0.000000  1
  Fe  Fe4  1  0.642315  0.166663  0.475653  1
  Fe  Fe5  1  0.841474  0.341474  0.000000  1
  Fe  Fe6  1  0.551973  0.425851  0.126122  1
  Fe  Fe7  1  0.000000  0.000000  0.500000  1
  Fe  Fe8  1  0.357685  0.833337  0.524347  1
  Fe  Fe9  1  0.841474  0.841474  0.500000  1
  Fe  Fe10  1  0.191010  0.666663  0.524347  1
  Fe  Fe11  1  0.200270  0.074149  0.126122  1
  Fe  Fe12  1  0.448027  0.574149  0.873878  1
  Fe  Fe13  1  0.000000  0.500000  0.000000  1
  Sb  Sb14  1  0.500000  0.000000  0.500000  1
  Sb  Sb15  1  0.000000  0.500000  0.500000  1
  As  As16  1  0.370203  0.250000  0.120203  1
  As  As17  1  0.629797  0.750000  0.879797  1
  O  O18  1  0.260441  0.989690  0.270750  1
  O  O19  1  0.114779  0.829333  0.285446  1
  O  O20  1  0.741363  0.513755  0.755117  1
  O  O21  1  0.781061  0.510310  0.270750  1
  O  O22  1  0.741363  0.986245  0.227608  1
  O  O23  1  0.408011  0.174697  0.233313  1
  O  O24  1  0.441385  0.674697  0.766687  1
  O  O25  1  0.558615  0.325303  0.233313  1
  O  O26  1  0.739559  0.010310  0.729250  1
  O  O27  1  0.917945  0.196950  0.271639  1
  O  O28  1  0.258637  0.486245  0.244883  1
  O  O29  1  0.956113  0.670667  0.285446  1
  O  O30  1  0.591989  0.825303  0.766687  1
  O  O31  1  0.574689  0.303050  0.720995  1
  O  O32  1  0.082055  0.353694  0.279005  1
  O  O33  1  0.885221  0.170667  0.714554  1
  O  O34  1  0.218939  0.489690  0.729250  1
  O  O35  1  0.917945  0.646306  0.720995  1
  O  O36  1  0.043887  0.329333  0.714554  1
  O  O37  1  0.425311  0.696950  0.279005  1
  O  O38  1  0.574689  0.853694  0.271639  1
  O  O39  1  0.258637  0.013755  0.772392  1
  O  O40  1  0.425311  0.146306  0.728361  1
  O  O41  1  0.082055  0.803050  0.728361  1
