# generated using pymatgen
data_CsNbCuAgTe4
_symmetry_space_group_name_H-M   'P 1'
_cell_length_a   11.07451774
_cell_length_b   11.07440300
_cell_length_c   8.37863800
_cell_angle_alpha   89.99927800
_cell_angle_beta   90.00047051
_cell_angle_gamma   146.47963320
_symmetry_Int_Tables_number   1
_chemical_formula_structural   CsNbCuAgTe4
_chemical_formula_sum   'Cs2 Nb2 Cu2 Ag2 Te8'
_cell_volume   567.46779598
_cell_formula_units_Z   2
loop_
 _symmetry_equiv_pos_site_id
 _symmetry_equiv_pos_as_xyz
  1  'x, y, z'
loop_
 _atom_site_type_symbol
 _atom_site_label
 _atom_site_symmetry_multiplicity
 _atom_site_fract_x
 _atom_site_fract_y
 _atom_site_fract_z
 _atom_site_occupancy
  Cs  Cs0  1  0.450331  0.827472  0.750001  1
  Cs  Cs1  1  0.827474  0.450333  0.250000  1
  Nb  Nb2  1  0.507793  0.302276  0.749989  1
  Nb  Nb3  1  0.302267  0.507785  0.250010  1
  Cu  Cu4  1  0.396811  0.396808  0.000003  1
  Cu  Cu5  1  0.396801  0.396793  0.500000  1
  Ag  Ag6  1  0.010605  0.801138  0.750003  1
  Ag  Ag7  1  0.801135  0.010599  0.250001  1
  Te  Te8  1  0.640734  0.644001  0.749949  1
  Te  Te9  1  0.643991  0.640725  0.250044  1
  Te  Te10  1  0.279041  0.072689  0.014122  1
  Te  Te11  1  0.072596  0.278994  0.514130  1
  Te  Te12  1  0.423647  0.838507  0.250000  1
  Te  Te13  1  0.072682  0.279034  0.985878  1
  Te  Te14  1  0.279012  0.072624  0.485869  1
  Te  Te15  1  0.838497  0.423641  0.750000  1
