# generated using pymatgen
data_Y12Co4RhPb
_symmetry_space_group_name_H-M   'P 1'
_cell_length_a   8.35414867
_cell_length_b   8.35414799
_cell_length_c   8.35414820
_cell_angle_alpha   110.93826145
_cell_angle_beta   110.56602315
_cell_angle_gamma   106.93891112
_symmetry_Int_Tables_number   1
_chemical_formula_structural   Y12Co4RhPb
_chemical_formula_sum   'Y12 Co4 Rh1 Pb1'
_cell_volume   448.17393116
_cell_formula_units_Z   1
loop_
 _symmetry_equiv_pos_site_id
 _symmetry_equiv_pos_as_xyz
  1  'x, y, z'
loop_
 _atom_site_type_symbol
 _atom_site_label
 _atom_site_symmetry_multiplicity
 _atom_site_fract_x
 _atom_site_fract_y
 _atom_site_fract_z
 _atom_site_occupancy
  Y  Y0  1  0.406509  0.210270  0.196239  1
  Y  Y1  1  0.593491  0.789730  0.803761  1
  Y  Y2  1  0.014032  0.210270  0.803761  1
  Y  Y3  1  0.985968  0.789730  0.196239  1
  Y  Y4  1  0.185731  0.291290  0.477021  1
  Y  Y5  1  0.814269  0.708710  0.522979  1
  Y  Y6  1  0.185731  0.708710  0.894441  1
  Y  Y7  1  0.814269  0.291290  0.105559  1
  Y  Y8  1  0.312387  0.618088  0.305701  1
  Y  Y9  1  0.687613  0.381912  0.694299  1
  Y  Y10  1  0.312387  0.006686  0.694299  1
  Y  Y11  1  0.687613  0.993314  0.305701  1
  Co  Co12  1  0.380980  0.000000  0.380980  1
  Co  Co13  1  0.619020  0.000000  0.619020  1
  Co  Co14  1  0.110404  0.610404  0.500000  1
  Co  Co15  1  0.889596  0.389596  0.500000  1
  Rh  Rh16  1  0.000000  0.000000  0.000000  1
  Pb  Pb17  1  0.500000  0.500000  0.000000  1
