# generated using pymatgen
data_Tm12Fe2Co2BiOs
_symmetry_space_group_name_H-M   'P 1'
_cell_length_a   8.22892489
_cell_length_b   8.22887535
_cell_length_c   8.22892375
_cell_angle_alpha   111.14977767
_cell_angle_beta   112.03300285
_cell_angle_gamma   105.31086604
_symmetry_Int_Tables_number   1
_chemical_formula_structural   Tm12Fe2Co2BiOs
_chemical_formula_sum   'Tm12 Fe2 Co2 Bi1 Os1'
_cell_volume   427.23920691
_cell_formula_units_Z   1
loop_
 _symmetry_equiv_pos_site_id
 _symmetry_equiv_pos_as_xyz
  1  'x, y, z'
loop_
 _atom_site_type_symbol
 _atom_site_label
 _atom_site_symmetry_multiplicity
 _atom_site_fract_x
 _atom_site_fract_y
 _atom_site_fract_z
 _atom_site_occupancy
  Tm  Tm0  1  0.276368  0.181660  0.458024  1
  Tm  Tm1  1  0.723632  0.818340  0.541976  1
  Tm  Tm2  1  0.276365  0.818340  0.094707  1
  Tm  Tm3  1  0.723635  0.181660  0.905293  1
  Tm  Tm4  1  0.619678  0.310798  0.308877  1
  Tm  Tm5  1  0.380322  0.689202  0.691123  1
  Tm  Tm6  1  0.001921  0.310798  0.691120  1
  Tm  Tm7  1  0.998079  0.689202  0.308880  1
  Tm  Tm8  1  0.216733  0.414750  0.198019  1
  Tm  Tm9  1  0.783267  0.585250  0.801981  1
  Tm  Tm10  1  0.216733  0.018715  0.801982  1
  Tm  Tm11  1  0.783267  0.981285  0.198018  1
  Fe  Fe12  1  0.000005  0.381531  0.381526  1
  Fe  Fe13  1  0.999995  0.618469  0.618474  1
  Co  Co14  1  0.389432  0.889418  0.499987  1
  Co  Co15  1  0.610568  0.110582  0.500013  1
  Bi  Bi16  1  0.500000  0.500000  0.000000  1
  Os  Os17  1  0.000000  0.000000  0.000000  1
