# generated using pymatgen
data_NdEu3(SiPt)4
_symmetry_space_group_name_H-M   'P 1'
_cell_length_a   6.45269814
_cell_length_b   6.45269814
_cell_length_c   6.45269814
_cell_angle_alpha   90.30008712
_cell_angle_beta   90.30008712
_cell_angle_gamma   89.69991288
_symmetry_Int_Tables_number   1
_chemical_formula_structural   NdEu3(SiPt)4
_chemical_formula_sum   'Nd1 Eu3 Si4 Pt4'
_cell_volume   268.66199690
_cell_formula_units_Z   1
loop_
 _symmetry_equiv_pos_site_id
 _symmetry_equiv_pos_as_xyz
  1  'x, y, z'
loop_
 _atom_site_type_symbol
 _atom_site_label
 _atom_site_symmetry_multiplicity
 _atom_site_fract_x
 _atom_site_fract_y
 _atom_site_fract_z
 _atom_site_occupancy
  Nd  Nd0  1  0.386844  0.886844  0.613156  1
  Eu  Eu1  1  0.880640  0.618762  0.379278  1
  Eu  Eu2  1  0.620722  0.380640  0.881238  1
  Eu  Eu3  1  0.118762  0.120722  0.119360  1
  Si  Si4  1  0.668045  0.168045  0.331955  1
  Si  Si5  1  0.170273  0.327610  0.670928  1
  Si  Si6  1  0.329072  0.670273  0.172390  1
  Si  Si7  1  0.827610  0.829072  0.829727  1
  Pt  Pt8  1  0.082053  0.582053  0.917947  1
  Pt  Pt9  1  0.577556  0.918121  0.079701  1
  Pt  Pt10  1  0.920299  0.077556  0.581879  1
  Pt  Pt11  1  0.418121  0.420299  0.422444  1
