# generated using pymatgen
data_Dy5Y5Er2Co5Sn
_symmetry_space_group_name_H-M   'P 1'
_cell_length_a   8.30216262
_cell_length_b   8.30782608
_cell_length_c   8.30216377
_cell_angle_alpha   107.13120951
_cell_angle_beta   110.62684341
_cell_angle_gamma   110.65361625
_symmetry_Int_Tables_number   1
_chemical_formula_structural   Dy5Y5Er2Co5Sn
_chemical_formula_sum   'Dy5 Y5 Er2 Co5 Sn1'
_cell_volume   440.40796900
_cell_formula_units_Z   1
loop_
 _symmetry_equiv_pos_site_id
 _symmetry_equiv_pos_as_xyz
  1  'x, y, z'
loop_
 _atom_site_type_symbol
 _atom_site_label
 _atom_site_symmetry_multiplicity
 _atom_site_fract_x
 _atom_site_fract_y
 _atom_site_fract_z
 _atom_site_occupancy
  Dy  Dy0  1  0.692826  0.006677  0.313852  1
  Dy  Dy1  1  0.192980  0.206560  0.400523  1
  Dy  Dy2  1  0.807969  0.793213  0.600958  1
  Dy  Dy3  1  0.192255  0.793213  0.985243  1
  Dy  Dy4  1  0.806037  0.206560  0.013581  1
  Y  Y5  1  0.479710  0.292564  0.186897  1
  Y  Y6  1  0.105667  0.292564  0.812853  1
  Y  Y7  1  0.893788  0.707132  0.186789  1
  Y  Y8  1  0.520343  0.707132  0.813344  1
  Y  Y9  1  0.305251  0.619125  0.313874  1
  Er  Er10  1  0.307884  0.994158  0.686273  1
  Er  Er11  1  0.692263  0.378561  0.686299  1
  Co  Co12  1  0.500619  0.611111  0.110492  1
  Co  Co13  1  0.499767  0.386067  0.886300  1
  Co  Co14  1  0.379770  0.002130  0.379815  1
  Co  Co15  1  0.622315  0.002130  0.622361  1
  Co  Co16  1  0.000456  0.000630  0.000175  1
  Sn  Sn17  1  0.000099  0.500472  0.500372  1
