# generated using pymatgen
data_Sm8Be3AlSi12
_symmetry_space_group_name_H-M   'P 1'
_cell_length_a   8.00010700
_cell_length_b   8.00010647
_cell_length_c   8.36725600
_cell_angle_alpha   90.00000000
_cell_angle_beta   90.00000000
_cell_angle_gamma   120.00000631
_symmetry_Int_Tables_number   1
_chemical_formula_structural   Sm8Be3AlSi12
_chemical_formula_sum   'Sm8 Be3 Al1 Si12'
_cell_volume   463.77274615
_cell_formula_units_Z   1
loop_
 _symmetry_equiv_pos_site_id
 _symmetry_equiv_pos_as_xyz
  1  'x, y, z'
loop_
 _atom_site_type_symbol
 _atom_site_label
 _atom_site_symmetry_multiplicity
 _atom_site_fract_x
 _atom_site_fract_y
 _atom_site_fract_z
 _atom_site_occupancy
  Sm  Sm0  1  0.000000  0.000000  0.252467  1
  Sm  Sm1  1  0.000000  0.000000  0.747560  1
  Sm  Sm2  1  0.501579  0.498421  0.251371  1
  Sm  Sm3  1  0.501579  0.003159  0.251371  1
  Sm  Sm4  1  0.996841  0.498421  0.251371  1
  Sm  Sm5  1  0.501279  0.498721  0.748666  1
  Sm  Sm6  1  0.501279  0.002558  0.748666  1
  Sm  Sm7  1  0.997442  0.498721  0.748666  1
  Be  Be8  1  0.333333  0.666667  0.498517  1
  Be  Be9  1  0.666667  0.333333  0.501433  1
  Be  Be10  1  0.666667  0.333333  0.999300  1
  Al  Al11  1  0.333333  0.666667  0.000506  1
  Si  Si12  1  0.172307  0.827693  0.500123  1
  Si  Si13  1  0.172307  0.344613  0.500123  1
  Si  Si14  1  0.655387  0.827693  0.500123  1
  Si  Si15  1  0.827734  0.172266  0.499972  1
  Si  Si16  1  0.827734  0.655469  0.499972  1
  Si  Si17  1  0.344531  0.172266  0.499972  1
  Si  Si18  1  0.825342  0.174658  0.999759  1
  Si  Si19  1  0.825342  0.650684  0.999759  1
  Si  Si20  1  0.349316  0.174658  0.999759  1
  Si  Si21  1  0.162100  0.837900  0.000183  1
  Si  Si22  1  0.162100  0.324199  0.000183  1
  Si  Si23  1  0.675801  0.837900  0.000183  1
