# generated using pymatgen
data_Er4Ga18Ir4PtRh
_symmetry_space_group_name_H-M   'P 1'
_cell_length_a   7.58532614
_cell_length_b   7.58532684
_cell_length_c   9.46713520
_cell_angle_alpha   90.03904043
_cell_angle_beta   90.03904250
_cell_angle_gamma   119.91693899
_symmetry_Int_Tables_number   1
_chemical_formula_structural   Er4Ga18Ir4PtRh
_chemical_formula_sum   'Er4 Ga18 Ir4 Pt1 Rh1'
_cell_volume   472.12853839
_cell_formula_units_Z   1
loop_
 _symmetry_equiv_pos_site_id
 _symmetry_equiv_pos_as_xyz
  1  'x, y, z'
loop_
 _atom_site_type_symbol
 _atom_site_label
 _atom_site_symmetry_multiplicity
 _atom_site_fract_x
 _atom_site_fract_y
 _atom_site_fract_z
 _atom_site_occupancy
  Er  Er0  1  0.997097  0.667525  0.250348  1
  Er  Er1  1  0.002903  0.332475  0.749652  1
  Er  Er2  1  0.667525  0.997097  0.250348  1
  Er  Er3  1  0.332475  0.002903  0.749652  1
  Ga  Ga4  1  0.126135  0.126135  0.252506  1
  Ga  Ga5  1  0.873865  0.873865  0.747494  1
  Ga  Ga6  1  0.999243  0.336266  0.081471  1
  Ga  Ga7  1  0.000757  0.663734  0.918529  1
  Ga  Ga8  1  0.000760  0.666643  0.580215  1
  Ga  Ga9  1  0.333357  0.999240  0.419785  1
  Ga  Ga10  1  0.999240  0.333357  0.419785  1
  Ga  Ga11  1  0.666643  0.000760  0.580215  1
  Ga  Ga12  1  0.663734  0.000757  0.918529  1
  Ga  Ga13  1  0.336266  0.999243  0.081471  1
  Ga  Ga14  1  0.331454  0.331454  0.565431  1
  Ga  Ga15  1  0.668546  0.668546  0.434569  1
  Ga  Ga16  1  0.665167  0.665167  0.066464  1
  Ga  Ga17  1  0.334833  0.334833  0.933536  1
  Ga  Ga18  1  0.338662  0.546402  0.250091  1
  Ga  Ga19  1  0.661338  0.453598  0.749909  1
  Ga  Ga20  1  0.546402  0.338662  0.250091  1
  Ga  Ga21  1  0.453598  0.661338  0.749909  1
  Ir  Ir22  1  0.671995  0.328005  0.000000  1
  Ir  Ir23  1  0.328005  0.671995  0.000000  1
  Ir  Ir24  1  0.327895  0.672105  0.500000  1
  Ir  Ir25  1  0.672105  0.327895  0.500000  1
  Pt  Pt26  1  0.000000  0.000000  0.000000  1
  Rh  Rh27  1  0.000000  0.000000  0.500000  1
