# generated using pymatgen
data_Tb3Nd(In2Pd3)4
_symmetry_space_group_name_H-M   'P 1'
_cell_length_a   4.64336300
_cell_length_b   9.85916782
_cell_length_c   10.40041891
_cell_angle_alpha   89.93044530
_cell_angle_beta   90.00000000
_cell_angle_gamma   90.00000000
_symmetry_Int_Tables_number   1
_chemical_formula_structural   Tb3Nd(In2Pd3)4
_chemical_formula_sum   'Tb3 Nd1 In8 Pd12'
_cell_volume   476.12765551
_cell_formula_units_Z   1
loop_
 _symmetry_equiv_pos_site_id
 _symmetry_equiv_pos_as_xyz
  1  'x, y, z'
loop_
 _atom_site_type_symbol
 _atom_site_label
 _atom_site_symmetry_multiplicity
 _atom_site_fract_x
 _atom_site_fract_y
 _atom_site_fract_z
 _atom_site_occupancy
  Tb  Tb0  1  0.250000  0.054147  0.224267  1
  Tb  Tb1  1  0.750000  0.554162  0.275192  1
  Tb  Tb2  1  0.750000  0.945337  0.776066  1
  Nd  Nd3  1  0.250000  0.446691  0.728623  1
  In  In4  1  0.250000  0.885772  0.511968  1
  In  In5  1  0.250000  0.614755  0.015277  1
  In  In6  1  0.750000  0.113972  0.486831  1
  In  In7  1  0.750000  0.385503  0.987497  1
  In  In8  1  0.250000  0.161350  0.896212  1
  In  In9  1  0.250000  0.336413  0.394083  1
  In  In10  1  0.750000  0.836741  0.105335  1
  In  In11  1  0.750000  0.664853  0.603545  1
  Pd  Pd12  1  0.250000  0.140014  0.625017  1
  Pd  Pd13  1  0.250000  0.356984  0.124911  1
  Pd  Pd14  1  0.750000  0.857181  0.374515  1
  Pd  Pd15  1  0.750000  0.646044  0.876390  1
  Pd  Pd16  1  0.250000  0.748758  0.740262  1
  Pd  Pd17  1  0.250000  0.756597  0.239939  1
  Pd  Pd18  1  0.750000  0.255500  0.259502  1
  Pd  Pd19  1  0.750000  0.239288  0.759644  1
  Pd  Pd20  1  0.250000  0.896097  0.973686  1
  Pd  Pd21  1  0.250000  0.604492  0.470311  1
  Pd  Pd22  1  0.750000  0.102808  0.027325  1
  Pd  Pd23  1  0.750000  0.396543  0.523602  1
