# generated using pymatgen
data_Tb5Nd7In20
_symmetry_space_group_name_H-M   'P 1'
_cell_length_a   6.69083112
_cell_length_b   10.57722990
_cell_length_c   12.45874672
_cell_angle_alpha   90.13227409
_cell_angle_beta   89.92497829
_cell_angle_gamma   89.93664253
_symmetry_Int_Tables_number   1
_chemical_formula_structural   Tb5Nd7In20
_chemical_formula_sum   'Tb5 Nd7 In20'
_cell_volume   881.70757722
_cell_formula_units_Z   1
loop_
 _symmetry_equiv_pos_site_id
 _symmetry_equiv_pos_as_xyz
  1  'x, y, z'
loop_
 _atom_site_type_symbol
 _atom_site_label
 _atom_site_symmetry_multiplicity
 _atom_site_fract_x
 _atom_site_fract_y
 _atom_site_fract_z
 _atom_site_occupancy
  Tb  Tb0  1  0.348159  0.751046  0.057155  1
  Tb  Tb1  1  0.149424  0.749706  0.556681  1
  Tb  Tb2  1  0.649957  0.250655  0.943558  1
  Tb  Tb3  1  0.849983  0.249422  0.442894  1
  Tb  Tb4  1  0.890241  0.490208  0.142205  1
  Nd  Nd5  1  0.611074  0.008770  0.643173  1
  Nd  Nd6  1  0.110153  0.990509  0.857310  1
  Nd  Nd7  1  0.389825  0.509392  0.356627  1
  Nd  Nd8  1  0.110446  0.509346  0.858041  1
  Nd  Nd9  1  0.389433  0.990588  0.355996  1
  Nd  Nd10  1  0.888820  0.009780  0.143692  1
  Nd  Nd11  1  0.611005  0.490673  0.643078  1
  In  In12  1  0.617496  0.749402  0.502058  1
  In  In13  1  0.881743  0.747597  0.006553  1
  In  In14  1  0.382698  0.249848  0.497019  1
  In  In15  1  0.115109  0.250880  0.997594  1
  In  In16  1  0.655143  0.747269  0.242040  1
  In  In17  1  0.847134  0.749677  0.744320  1
  In  In18  1  0.347404  0.250113  0.756470  1
  In  In19  1  0.153222  0.251992  0.255653  1
  In  In20  1  0.112874  0.749450  0.283108  1
  In  In21  1  0.386730  0.749466  0.783162  1
  In  In22  1  0.886909  0.250060  0.716760  1
  In  In23  1  0.616628  0.253745  0.215669  1
  In  In24  1  0.876266  0.543152  0.400662  1
  In  In25  1  0.625063  0.955100  0.903731  1
  In  In26  1  0.124553  0.044570  0.596647  1
  In  In27  1  0.373124  0.456780  0.097266  1
  In  In28  1  0.124192  0.455501  0.596592  1
  In  In29  1  0.375300  0.045918  0.096782  1
  In  In30  1  0.875463  0.955060  0.403291  1
  In  In31  1  0.624434  0.544323  0.904215  1
