# generated using pymatgen
data_Nd19DySi15Rh
_symmetry_space_group_name_H-M   'P 1'
_cell_length_a   7.78922862
_cell_length_b   7.92352097
_cell_length_c   15.10903113
_cell_angle_alpha   89.67122529
_cell_angle_beta   89.55678789
_cell_angle_gamma   90.02424378
_symmetry_Int_Tables_number   1
_chemical_formula_structural   Nd19DySi15Rh
_chemical_formula_sum   'Nd19 Dy1 Si15 Rh1'
_cell_volume   932.45758747
_cell_formula_units_Z   1
loop_
 _symmetry_equiv_pos_site_id
 _symmetry_equiv_pos_as_xyz
  1  'x, y, z'
loop_
 _atom_site_type_symbol
 _atom_site_label
 _atom_site_symmetry_multiplicity
 _atom_site_fract_x
 _atom_site_fract_y
 _atom_site_fract_z
 _atom_site_occupancy
  Nd  Nd0  1  0.812403  0.332522  0.614767  1
  Nd  Nd1  1  0.456827  0.686243  0.897798  1
  Nd  Nd2  1  0.957594  0.814038  0.897742  1
  Nd  Nd3  1  0.185283  0.682574  0.120740  1
  Nd  Nd4  1  0.691452  0.818666  0.120910  1
  Nd  Nd5  1  0.307923  0.179236  0.877887  1
  Nd  Nd6  1  0.187251  0.678386  0.380076  1
  Nd  Nd7  1  0.043089  0.188097  0.103300  1
  Nd  Nd8  1  0.312760  0.180589  0.622100  1
  Nd  Nd9  1  0.857537  0.490867  0.260328  1
  Nd  Nd10  1  0.364496  0.007047  0.253504  1
  Nd  Nd11  1  0.535754  0.315403  0.398127  1
  Nd  Nd12  1  0.810661  0.317555  0.878224  1
  Nd  Nd13  1  0.963788  0.814390  0.599782  1
  Nd  Nd14  1  0.459672  0.686909  0.602981  1
  Nd  Nd15  1  0.041850  0.185725  0.399691  1
  Nd  Nd16  1  0.693140  0.812893  0.384321  1
  Nd  Nd17  1  0.639206  0.993606  0.748224  1
  Nd  Nd18  1  0.544016  0.312124  0.102847  1
  Dy  Dy19  1  0.136279  0.510978  0.747946  1
  Si  Si20  1  0.478989  0.602749  0.246105  1
  Si  Si21  1  0.251489  0.378232  0.247414  1
  Si  Si22  1  0.514280  0.402139  0.751057  1
  Si  Si23  1  0.631368  0.025666  0.958450  1
  Si  Si24  1  0.016504  0.103942  0.748628  1
  Si  Si25  1  0.750250  0.621082  0.750260  1
  Si  Si26  1  0.750910  0.119992  0.248575  1
  Si  Si27  1  0.365165  0.970114  0.461226  1
  Si  Si28  1  0.981854  0.901315  0.248800  1
  Si  Si29  1  0.365273  0.974658  0.041305  1
  Si  Si30  1  0.634942  0.025369  0.542182  1
  Si  Si31  1  0.133852  0.475153  0.956830  1
  Si  Si32  1  0.145363  0.475548  0.543197  1
  Si  Si33  1  0.866464  0.525368  0.039204  1
  Si  Si34  1  0.245420  0.873743  0.750749  1
  Rh  Rh35  1  0.866893  0.517084  0.454725  1
