# generated using pymatgen
data_PrNd3(AlAu2)6
_symmetry_space_group_name_H-M   'P 1'
_cell_length_a   8.79406179
_cell_length_b   8.79405991
_cell_length_c   8.79406180
_cell_angle_alpha   57.08723809
_cell_angle_beta   57.08724780
_cell_angle_gamma   57.08724608
_symmetry_Int_Tables_number   1
_chemical_formula_structural   PrNd3(AlAu2)6
_chemical_formula_sum   'Pr1 Nd3 Al6 Au12'
_cell_volume   448.61467176
_cell_formula_units_Z   1
loop_
 _symmetry_equiv_pos_site_id
 _symmetry_equiv_pos_as_xyz
  1  'x, y, z'
loop_
 _atom_site_type_symbol
 _atom_site_label
 _atom_site_symmetry_multiplicity
 _atom_site_fract_x
 _atom_site_fract_y
 _atom_site_fract_z
 _atom_site_occupancy
  Pr  Pr0  1  0.408729  0.408729  0.408729  1
  Nd  Nd1  1  0.908650  0.908650  0.908650  1
  Nd  Nd2  1  0.591385  0.591385  0.591385  1
  Nd  Nd3  1  0.091351  0.091351  0.091351  1
  Al  Al4  1  0.053901  0.250064  0.445991  1
  Al  Al5  1  0.445991  0.053901  0.250064  1
  Al  Al6  1  0.250064  0.445991  0.053901  1
  Al  Al7  1  0.945890  0.750155  0.553995  1
  Al  Al8  1  0.553995  0.945890  0.750155  1
  Al  Al9  1  0.750155  0.553995  0.945890  1
  Au  Au10  1  0.981679  0.365031  0.702703  1
  Au  Au11  1  0.702703  0.981679  0.365031  1
  Au  Au12  1  0.365031  0.702703  0.981679  1
  Au  Au13  1  0.202506  0.865125  0.481971  1
  Au  Au14  1  0.481971  0.202506  0.865125  1
  Au  Au15  1  0.865125  0.481971  0.202506  1
  Au  Au16  1  0.017777  0.635024  0.297420  1
  Au  Au17  1  0.297420  0.017777  0.635024  1
  Au  Au18  1  0.635024  0.297420  0.017777  1
  Au  Au19  1  0.797835  0.134638  0.518178  1
  Au  Au20  1  0.518178  0.797835  0.134638  1
  Au  Au21  1  0.134638  0.518178  0.797835  1
