# generated using pymatgen
data_Lu12TcRh3
_symmetry_space_group_name_H-M   'P 1'
_cell_length_a   7.15920142
_cell_length_b   8.99840200
_cell_length_c   6.22083722
_cell_angle_alpha   90.00000000
_cell_angle_beta   89.92796744
_cell_angle_gamma   90.00000000
_symmetry_Int_Tables_number   1
_chemical_formula_structural   Lu12TcRh3
_chemical_formula_sum   'Lu12 Tc1 Rh3'
_cell_volume   400.75455460
_cell_formula_units_Z   1
loop_
 _symmetry_equiv_pos_site_id
 _symmetry_equiv_pos_as_xyz
  1  'x, y, z'
loop_
 _atom_site_type_symbol
 _atom_site_label
 _atom_site_symmetry_multiplicity
 _atom_site_fract_x
 _atom_site_fract_y
 _atom_site_fract_z
 _atom_site_occupancy
  Lu  Lu0  1  0.535014  0.750000  0.128481  1
  Lu  Lu1  1  0.822682  0.063018  0.172389  1
  Lu  Lu2  1  0.822682  0.436982  0.172389  1
  Lu  Lu3  1  0.319900  0.063075  0.325060  1
  Lu  Lu4  1  0.319900  0.436925  0.325060  1
  Lu  Lu5  1  0.037456  0.750000  0.372299  1
  Lu  Lu6  1  0.964110  0.250000  0.624466  1
  Lu  Lu7  1  0.679535  0.562238  0.672938  1
  Lu  Lu8  1  0.679535  0.937763  0.672938  1
  Lu  Lu9  1  0.177579  0.558979  0.832535  1
  Lu  Lu10  1  0.177579  0.941022  0.832535  1
  Lu  Lu11  1  0.464967  0.250000  0.872611  1
  Tc  Tc12  1  0.112906  0.250000  0.038321  1
  Rh  Rh13  1  0.613715  0.250000  0.456766  1
  Rh  Rh14  1  0.387270  0.750000  0.545893  1
  Rh  Rh15  1  0.885171  0.750000  0.955306  1
