# generated using pymatgen
data_ErMn3CrCoP3
_symmetry_space_group_name_H-M   'P 1'
_cell_length_a   3.59650500
_cell_length_b   10.55576400
_cell_length_c   12.17457200
_cell_angle_alpha   90.00000000
_cell_angle_beta   90.00000000
_cell_angle_gamma   90.00000000
_symmetry_Int_Tables_number   1
_chemical_formula_structural   ErMn3CrCoP3
_chemical_formula_sum   'Er4 Mn12 Cr4 Co4 P12'
_cell_volume   462.19372268
_cell_formula_units_Z   4
loop_
 _symmetry_equiv_pos_site_id
 _symmetry_equiv_pos_as_xyz
  1  'x, y, z'
loop_
 _atom_site_type_symbol
 _atom_site_label
 _atom_site_symmetry_multiplicity
 _atom_site_fract_x
 _atom_site_fract_y
 _atom_site_fract_z
 _atom_site_occupancy
  Er  Er0  1  0.250000  0.584500  0.708005  1
  Er  Er1  1  0.250000  0.915500  0.208005  1
  Er  Er2  1  0.750000  0.415500  0.291995  1
  Er  Er3  1  0.750000  0.084500  0.791995  1
  Mn  Mn4  1  0.250000  0.407969  0.492553  1
  Mn  Mn5  1  0.250000  0.092031  0.992553  1
  Mn  Mn6  1  0.750000  0.592031  0.507447  1
  Mn  Mn7  1  0.750000  0.907969  0.007447  1
  Mn  Mn8  1  0.250000  0.216431  0.177619  1
  Mn  Mn9  1  0.250000  0.283569  0.677619  1
  Mn  Mn10  1  0.750000  0.783569  0.822381  1
  Mn  Mn11  1  0.750000  0.716431  0.322381  1
  Mn  Mn12  1  0.250000  0.878884  0.697270  1
  Mn  Mn13  1  0.250000  0.621116  0.197270  1
  Mn  Mn14  1  0.750000  0.121116  0.302730  1
  Mn  Mn15  1  0.750000  0.378884  0.802730  1
  Cr  Cr16  1  0.250000  0.708649  0.985448  1
  Cr  Cr17  1  0.250000  0.791351  0.485448  1
  Cr  Cr18  1  0.750000  0.291351  0.014552  1
  Cr  Cr19  1  0.750000  0.208649  0.514552  1
  Co  Co20  1  0.250000  0.463595  0.935240  1
  Co  Co21  1  0.250000  0.036405  0.435240  1
  Co  Co22  1  0.750000  0.536405  0.064760  1
  Co  Co23  1  0.750000  0.963595  0.564760  1
  P  P24  1  0.250000  0.420027  0.112977  1
  P  P25  1  0.250000  0.079973  0.612977  1
  P  P26  1  0.750000  0.579973  0.887023  1
  P  P27  1  0.750000  0.920027  0.387023  1
  P  P28  1  0.250000  0.265136  0.872581  1
  P  P29  1  0.250000  0.234864  0.372581  1
  P  P30  1  0.750000  0.734864  0.127419  1
  P  P31  1  0.750000  0.765136  0.627419  1
  P  P32  1  0.250000  0.593351  0.385857  1
  P  P33  1  0.250000  0.906649  0.885857  1
  P  P34  1  0.750000  0.406649  0.614143  1
  P  P35  1  0.750000  0.093351  0.114143  1
