# generated using pymatgen
data_HoTm11GaCo4Sn
_symmetry_space_group_name_H-M   'P 1'
_cell_length_a   8.19487434
_cell_length_b   8.18810997
_cell_length_c   8.18811037
_cell_angle_alpha   112.08113247
_cell_angle_beta   109.38475736
_cell_angle_gamma   106.95710061
_symmetry_Int_Tables_number   1
_chemical_formula_structural   HoTm11GaCo4Sn
_chemical_formula_sum   'Ho1 Tm11 Ga1 Co4 Sn1'
_cell_volume   422.26456842
_cell_formula_units_Z   1
loop_
 _symmetry_equiv_pos_site_id
 _symmetry_equiv_pos_as_xyz
  1  'x, y, z'
loop_
 _atom_site_type_symbol
 _atom_site_label
 _atom_site_symmetry_multiplicity
 _atom_site_fract_x
 _atom_site_fract_y
 _atom_site_fract_z
 _atom_site_occupancy
  Ho  Ho0  1  0.564686  0.266692  0.297993  1
  Tm  Tm1  1  0.180351  0.218892  0.399606  1
  Tm  Tm2  1  0.180351  0.780745  0.961461  1
  Tm  Tm3  1  0.675078  0.488167  0.813346  1
  Tm  Tm4  1  0.675078  0.861732  0.186911  1
  Tm  Tm5  1  0.969208  0.266809  0.702399  1
  Tm  Tm6  1  0.031289  0.733397  0.297892  1
  Tm  Tm7  1  0.324397  0.137770  0.812400  1
  Tm  Tm8  1  0.324397  0.511997  0.186627  1
  Tm  Tm9  1  0.819564  0.218743  0.037853  1
  Tm  Tm10  1  0.819564  0.781710  0.600821  1
  Tm  Tm11  1  0.435433  0.733097  0.702336  1
  Ga  Ga12  1  0.000919  0.500583  0.500337  1
  Co  Co13  1  0.884990  0.884909  0.000081  1
  Co  Co14  1  0.342205  0.499925  0.842280  1
  Co  Co15  1  0.657937  0.500292  0.157645  1
  Co  Co16  1  0.114510  0.115017  0.999492  1
  Sn  Sn17  1  0.500045  0.999523  0.500522  1
