# generated using pymatgen
data_La7NdB4(CI5)2
_symmetry_space_group_name_H-M   'P 1'
_cell_length_a   4.31916743
_cell_length_b   12.21798229
_cell_length_c   15.55425067
_cell_angle_alpha   91.52202301
_cell_angle_beta   97.98085433
_cell_angle_gamma   100.18077712
_symmetry_Int_Tables_number   1
_chemical_formula_structural   La7NdB4(CI5)2
_chemical_formula_sum   'La7 Nd1 B4 C2 I10'
_cell_volume   798.97226564
_cell_formula_units_Z   1
loop_
 _symmetry_equiv_pos_site_id
 _symmetry_equiv_pos_as_xyz
  1  'x, y, z'
loop_
 _atom_site_type_symbol
 _atom_site_label
 _atom_site_symmetry_multiplicity
 _atom_site_fract_x
 _atom_site_fract_y
 _atom_site_fract_z
 _atom_site_occupancy
  La  La0  1  0.638125  0.146876  0.129373  1
  La  La1  1  0.551343  0.706163  0.396523  1
  La  La2  1  0.913244  0.418574  0.407914  1
  La  La3  1  0.086650  0.580988  0.592312  1
  La  La4  1  0.447843  0.292626  0.603058  1
  La  La5  1  0.361969  0.851891  0.872046  1
  La  La6  1  0.027212  0.157165  0.897258  1
  Nd  Nd7  1  0.973700  0.846953  0.100446  1
  B  B8  1  0.318001  0.000645  0.999789  1
  B  B9  1  0.682431  0.000645  0.999789  1
  B  B10  1  0.051663  0.054884  0.048444  1
  B  B11  1  0.948757  0.946468  0.951045  1
  C  C12  1  0.512325  0.547443  0.477206  1
  C  C13  1  0.487706  0.452126  0.523286  1
  I  I14  1  0.344094  0.668268  0.019919  1
  I  I15  1  0.930315  0.607547  0.253084  1
  I  I16  1  0.589814  0.927879  0.251748  1
  I  I17  1  0.280204  0.296331  0.264077  1
  I  I18  1  0.821258  0.163940  0.478578  1
  I  I19  1  0.177909  0.835201  0.520617  1
  I  I20  1  0.719729  0.703156  0.736303  1
  I  I21  1  0.405868  0.067276  0.744460  1
  I  I22  1  0.069237  0.390913  0.747560  1
  I  I23  1  0.660600  0.336039  0.985163  1
