# generated using pymatgen
data_Li2Nd2Zn15
_symmetry_space_group_name_H-M   'P 1'
_cell_length_a   6.86071192
_cell_length_b   6.86071079
_cell_length_c   6.86071102
_cell_angle_alpha   83.95876180
_cell_angle_beta   83.95876470
_cell_angle_gamma   83.95876882
_symmetry_Int_Tables_number   1
_chemical_formula_structural   Li2Nd2Zn15
_chemical_formula_sum   'Li2 Nd2 Zn15'
_cell_volume   317.90127061
_cell_formula_units_Z   1
loop_
 _symmetry_equiv_pos_site_id
 _symmetry_equiv_pos_as_xyz
  1  'x, y, z'
loop_
 _atom_site_type_symbol
 _atom_site_label
 _atom_site_symmetry_multiplicity
 _atom_site_fract_x
 _atom_site_fract_y
 _atom_site_fract_z
 _atom_site_occupancy
  Li  Li0  1  0.900685  0.900685  0.900685  1
  Li  Li1  1  0.099315  0.099315  0.099315  1
  Nd  Nd2  1  0.660432  0.660432  0.660432  1
  Nd  Nd3  1  0.339568  0.339568  0.339568  1
  Zn  Zn4  1  0.000000  0.000000  0.500000  1
  Zn  Zn5  1  0.000000  0.500000  0.000000  1
  Zn  Zn6  1  0.500000  0.000000  0.000000  1
  Zn  Zn7  1  0.293992  0.706008  0.000000  1
  Zn  Zn8  1  0.706008  0.000000  0.293992  1
  Zn  Zn9  1  0.000000  0.293992  0.706008  1
  Zn  Zn10  1  0.293992  0.000000  0.706008  1
  Zn  Zn11  1  0.000000  0.706008  0.293992  1
  Zn  Zn12  1  0.706008  0.293992  0.000000  1
  Zn  Zn13  1  0.347974  0.347974  0.840099  1
  Zn  Zn14  1  0.347974  0.840099  0.347974  1
  Zn  Zn15  1  0.840099  0.347974  0.347974  1
  Zn  Zn16  1  0.652026  0.652026  0.159901  1
  Zn  Zn17  1  0.652026  0.159901  0.652026  1
  Zn  Zn18  1  0.159901  0.652026  0.652026  1
