# generated using pymatgen
data_Ho7ErRe(B8Os)3
_symmetry_space_group_name_H-M   'P 1'
_cell_length_a   3.65281900
_cell_length_b   9.13145648
_cell_length_c   11.51303202
_cell_angle_alpha   90.08997095
_cell_angle_beta   90.00000000
_cell_angle_gamma   90.00000000
_symmetry_Int_Tables_number   1
_chemical_formula_structural   Ho7ErRe(B8Os)3
_chemical_formula_sum   'Ho7 Er1 Re1 B24 Os3'
_cell_volume   384.02313052
_cell_formula_units_Z   1
loop_
 _symmetry_equiv_pos_site_id
 _symmetry_equiv_pos_as_xyz
  1  'x, y, z'
loop_
 _atom_site_type_symbol
 _atom_site_label
 _atom_site_symmetry_multiplicity
 _atom_site_fract_x
 _atom_site_fract_y
 _atom_site_fract_z
 _atom_site_occupancy
  Ho  Ho0  1  0.000000  0.322206  0.414964  1
  Ho  Ho1  1  0.000000  0.680115  0.588132  1
  Ho  Ho2  1  0.000000  0.822449  0.083598  1
  Ho  Ho3  1  0.000000  0.176559  0.913226  1
  Ho  Ho4  1  0.000000  0.943363  0.371859  1
  Ho  Ho5  1  0.000000  0.055835  0.627789  1
  Ho  Ho6  1  0.000000  0.443078  0.127742  1
  Er  Er7  1  0.000000  0.556499  0.872617  1
  Re  Re8  1  0.000000  0.862219  0.821451  1
  B  B9  1  0.500000  0.553841  0.433295  1
  B  B10  1  0.500000  0.446241  0.566976  1
  B  B11  1  0.500000  0.053690  0.067211  1
  B  B12  1  0.500000  0.947044  0.933276  1
  B  B13  1  0.500000  0.748467  0.419508  1
  B  B14  1  0.500000  0.251616  0.580373  1
  B  B15  1  0.500000  0.248230  0.080623  1
  B  B16  1  0.500000  0.751198  0.919373  1
  B  B17  1  0.500000  0.790521  0.265936  1
  B  B18  1  0.500000  0.209150  0.733376  1
  B  B19  1  0.500000  0.290971  0.234076  1
  B  B20  1  0.500000  0.708171  0.765977  1
  B  B21  1  0.500000  0.631103  0.185349  1
  B  B22  1  0.500000  0.368697  0.814337  1
  B  B23  1  0.500000  0.131691  0.314782  1
  B  B24  1  0.500000  0.868618  0.685555  1
  B  B25  1  0.500000  0.983253  0.212573  1
  B  B26  1  0.500000  0.017800  0.787384  1
  B  B27  1  0.500000  0.482976  0.287826  1
  B  B28  1  0.500000  0.517113  0.712766  1
  B  B29  1  0.500000  0.605308  0.029608  1
  B  B30  1  0.500000  0.393453  0.970580  1
  B  B31  1  0.500000  0.106742  0.470122  1
  B  B32  1  0.500000  0.893773  0.528911  1
  Os  Os33  1  0.000000  0.637332  0.321471  1
  Os  Os34  1  0.000000  0.362819  0.678198  1
  Os  Os35  1  0.000000  0.137855  0.179161  1
