# generated using pymatgen
data_CsV2F6
_symmetry_space_group_name_H-M   'P 1'
_cell_length_a   7.58264628
_cell_length_b   7.57670739
_cell_length_c   7.61904200
_cell_angle_alpha   59.81499529
_cell_angle_beta   59.84109413
_cell_angle_gamma   60.26439997
_symmetry_Int_Tables_number   1
_chemical_formula_structural   CsV2F6
_chemical_formula_sum   'Cs2 V4 F12'
_cell_volume   309.32049134
_cell_formula_units_Z   2
loop_
 _symmetry_equiv_pos_site_id
 _symmetry_equiv_pos_as_xyz
  1  'x, y, z'
loop_
 _atom_site_type_symbol
 _atom_site_label
 _atom_site_symmetry_multiplicity
 _atom_site_fract_x
 _atom_site_fract_y
 _atom_site_fract_z
 _atom_site_occupancy
  Cs  Cs0  1  0.248285  0.248057  0.251829  1
  Cs  Cs1  1  0.001715  0.001943  0.998171  1
  V  V2  1  0.125000  0.625000  0.625000  1
  V  V3  1  0.625000  0.125000  0.625000  1
  V  V4  1  0.625000  0.625000  0.125000  1
  V  V5  1  0.625000  0.625000  0.625000  1
  F  F6  1  0.294932  0.295556  0.704756  1
  F  F7  1  0.689412  0.687709  0.311439  1
  F  F8  1  0.315950  0.684008  0.298517  1
  F  F9  1  0.685451  0.315684  0.700859  1
  F  F10  1  0.685451  0.315684  0.298006  1
  F  F11  1  0.315950  0.684008  0.701525  1
  F  F12  1  0.955068  0.954444  0.545244  1
  F  F13  1  0.560588  0.562291  0.938561  1
  F  F14  1  0.934050  0.565992  0.951483  1
  F  F15  1  0.564549  0.934316  0.549141  1
  F  F16  1  0.564549  0.934316  0.951994  1
  F  F17  1  0.934050  0.565992  0.548475  1
