# generated using pymatgen
data_Y16Er4IrRh11
_symmetry_space_group_name_H-M   'P 1'
_cell_length_a   10.92757787
_cell_length_b   10.92757787
_cell_length_c   6.36050506
_cell_angle_alpha   89.98888192
_cell_angle_beta   89.98888192
_cell_angle_gamma   90.10756954
_symmetry_Int_Tables_number   1
_chemical_formula_structural   Y16Er4IrRh11
_chemical_formula_sum   'Y16 Er4 Ir1 Rh11'
_cell_volume   759.51899599
_cell_formula_units_Z   1
loop_
 _symmetry_equiv_pos_site_id
 _symmetry_equiv_pos_as_xyz
  1  'x, y, z'
loop_
 _atom_site_type_symbol
 _atom_site_label
 _atom_site_symmetry_multiplicity
 _atom_site_fract_x
 _atom_site_fract_y
 _atom_site_fract_z
 _atom_site_occupancy
  Y  Y0  1  0.290183  0.088740  0.378587  1
  Y  Y1  1  0.290358  0.909634  0.878688  1
  Y  Y2  1  0.709868  0.088457  0.878580  1
  Y  Y3  1  0.709601  0.911135  0.378331  1
  Y  Y4  1  0.587024  0.789629  0.878224  1
  Y  Y5  1  0.588713  0.209942  0.378977  1
  Y  Y6  1  0.410934  0.789320  0.379467  1
  Y  Y7  1  0.411197  0.209460  0.878209  1
  Y  Y8  1  0.210371  0.412976  0.621776  1
  Y  Y9  1  0.210680  0.589066  0.120533  1
  Y  Y10  1  0.790058  0.411287  0.121023  1
  Y  Y11  1  0.790540  0.588803  0.621791  1
  Y  Y12  1  0.911260  0.709817  0.121413  1
  Y  Y13  1  0.911543  0.290132  0.621420  1
  Y  Y14  1  0.090366  0.709642  0.621312  1
  Y  Y15  1  0.088865  0.290399  0.121669  1
  Er  Er16  1  0.999734  0.999870  0.500111  1
  Er  Er17  1  0.000130  0.000266  0.999889  1
  Er  Er18  1  0.499626  0.500078  0.999919  1
  Er  Er19  1  0.499922  0.500374  0.500081  1
  Ir  Ir20  1  0.348052  0.651948  0.750000  1
  Rh  Rh21  1  0.848098  0.151902  0.250000  1
  Rh  Rh22  1  0.847879  0.848126  0.750084  1
  Rh  Rh23  1  0.151874  0.152121  0.749916  1
  Rh  Rh24  1  0.151092  0.848908  0.250000  1
  Rh  Rh25  1  0.651950  0.348050  0.750000  1
  Rh  Rh26  1  0.652776  0.651909  0.250090  1
  Rh  Rh27  1  0.348091  0.347224  0.249910  1
  Rh  Rh28  1  0.500181  0.000575  0.124713  1
  Rh  Rh29  1  0.500351  0.000744  0.624064  1
  Rh  Rh30  1  0.999256  0.499649  0.875936  1
  Rh  Rh31  1  0.999425  0.499819  0.375287  1
