# generated using pymatgen
data_LaYb(In2Ir)2
_symmetry_space_group_name_H-M   'P 1'
_cell_length_a   5.60265834
_cell_length_b   5.60265844
_cell_length_c   8.19297000
_cell_angle_alpha   90.00000000
_cell_angle_beta   90.00000000
_cell_angle_gamma   133.92317733
_symmetry_Int_Tables_number   1
_chemical_formula_structural   LaYb(In2Ir)2
_chemical_formula_sum   'La1 Yb1 In4 Ir2'
_cell_volume   185.23596548
_cell_formula_units_Z   1
loop_
 _symmetry_equiv_pos_site_id
 _symmetry_equiv_pos_as_xyz
  1  'x, y, z'
loop_
 _atom_site_type_symbol
 _atom_site_label
 _atom_site_symmetry_multiplicity
 _atom_site_fract_x
 _atom_site_fract_y
 _atom_site_fract_z
 _atom_site_occupancy
  La  La0  1  0.066324  0.933676  0.250000  1
  Yb  Yb1  1  0.931881  0.068119  0.750000  1
  In  In2  1  0.647318  0.352682  0.557266  1
  In  In3  1  0.353620  0.646380  0.455384  1
  In  In4  1  0.647318  0.352682  0.942734  1
  In  In5  1  0.353620  0.646380  0.044616  1
  Ir  Ir6  1  0.783002  0.216998  0.250000  1
  Ir  Ir7  1  0.216917  0.783083  0.750000  1
