# generated using pymatgen
data_CeTm15(NiHg)4
_symmetry_space_group_name_H-M   'P 1'
_cell_length_a   9.40869466
_cell_length_b   9.40869502
_cell_length_c   9.40869456
_cell_angle_alpha   59.61745180
_cell_angle_beta   59.61745103
_cell_angle_gamma   59.61745604
_symmetry_Int_Tables_number   1
_chemical_formula_structural   CeTm15(NiHg)4
_chemical_formula_sum   'Ce1 Tm15 Ni4 Hg4'
_cell_volume   583.82260646
_cell_formula_units_Z   1
loop_
 _symmetry_equiv_pos_site_id
 _symmetry_equiv_pos_as_xyz
  1  'x, y, z'
loop_
 _atom_site_type_symbol
 _atom_site_label
 _atom_site_symmetry_multiplicity
 _atom_site_fract_x
 _atom_site_fract_y
 _atom_site_fract_z
 _atom_site_occupancy
  Ce  Ce0  1  0.347959  0.347959  0.347959  1
  Tm  Tm1  1  0.351096  0.351096  0.945705  1
  Tm  Tm2  1  0.351096  0.945705  0.351096  1
  Tm  Tm3  1  0.945705  0.351096  0.351096  1
  Tm  Tm4  1  0.812578  0.187683  0.187683  1
  Tm  Tm5  1  0.189558  0.811246  0.811246  1
  Tm  Tm6  1  0.187683  0.812578  0.187683  1
  Tm  Tm7  1  0.811246  0.189558  0.811246  1
  Tm  Tm8  1  0.187683  0.187683  0.812578  1
  Tm  Tm9  1  0.811246  0.811246  0.189558  1
  Tm  Tm10  1  0.938020  0.563242  0.563242  1
  Tm  Tm11  1  0.563561  0.935971  0.935971  1
  Tm  Tm12  1  0.563242  0.938020  0.563242  1
  Tm  Tm13  1  0.935971  0.563561  0.935971  1
  Tm  Tm14  1  0.563242  0.563242  0.938020  1
  Tm  Tm15  1  0.935971  0.935971  0.563561  1
  Ni  Ni16  1  0.143377  0.143377  0.143377  1
  Ni  Ni17  1  0.144905  0.144905  0.569839  1
  Ni  Ni18  1  0.144905  0.569839  0.144905  1
  Ni  Ni19  1  0.569839  0.144905  0.144905  1
  Hg  Hg20  1  0.586278  0.586278  0.586278  1
  Hg  Hg21  1  0.586106  0.586106  0.242626  1
  Hg  Hg22  1  0.586106  0.242626  0.586106  1
  Hg  Hg23  1  0.242626  0.586106  0.586106  1
