# generated using pymatgen
data_Cs3NbSO3
_symmetry_space_group_name_H-M   'P 1'
_cell_length_a   6.64711300
_cell_length_b   7.39203362
_cell_length_c   9.83695648
_cell_angle_alpha   78.54924772
_cell_angle_beta   90.00000000
_cell_angle_gamma   90.00000000
_symmetry_Int_Tables_number   1
_chemical_formula_structural   Cs3NbSO3
_chemical_formula_sum   'Cs6 Nb2 S2 O6'
_cell_volume   473.72492097
_cell_formula_units_Z   2
loop_
 _symmetry_equiv_pos_site_id
 _symmetry_equiv_pos_as_xyz
  1  'x, y, z'
loop_
 _atom_site_type_symbol
 _atom_site_label
 _atom_site_symmetry_multiplicity
 _atom_site_fract_x
 _atom_site_fract_y
 _atom_site_fract_z
 _atom_site_occupancy
  Cs  Cs0  1  0.750000  0.691394  0.467856  1
  Cs  Cs1  1  0.250000  0.247175  0.004662  1
  Cs  Cs2  1  0.250000  0.308606  0.532144  1
  Cs  Cs3  1  0.750000  0.752825  0.995338  1
  Cs  Cs4  1  0.250000  0.777740  0.724485  1
  Cs  Cs5  1  0.750000  0.222260  0.275515  1
  Nb  Nb6  1  0.750000  0.300744  0.788636  1
  Nb  Nb7  1  0.250000  0.699256  0.211364  1
  S  S8  1  0.750000  0.064670  0.654504  1
  S  S9  1  0.250000  0.935330  0.345496  1
  O  O10  1  0.250000  0.804458  0.023163  1
  O  O11  1  0.750000  0.195542  0.976837  1
  O  O12  1  0.977730  0.447727  0.745271  1
  O  O13  1  0.022270  0.552273  0.254729  1
  O  O14  1  0.522270  0.447727  0.745271  1
  O  O15  1  0.477730  0.552273  0.254729  1
