# generated using pymatgen
data_Mg4Al2B4PtRh9
_symmetry_space_group_name_H-M   'P 1'
_cell_length_a   2.94444200
_cell_length_b   9.41841013
_cell_length_c   9.42444513
_cell_angle_alpha   90.05602825
_cell_angle_beta   90.00000000
_cell_angle_gamma   90.00000000
_symmetry_Int_Tables_number   1
_chemical_formula_structural   Mg4Al2B4PtRh9
_chemical_formula_sum   'Mg4 Al2 B4 Pt1 Rh9'
_cell_volume   261.35823243
_cell_formula_units_Z   1
loop_
 _symmetry_equiv_pos_site_id
 _symmetry_equiv_pos_as_xyz
  1  'x, y, z'
loop_
 _atom_site_type_symbol
 _atom_site_label
 _atom_site_symmetry_multiplicity
 _atom_site_fract_x
 _atom_site_fract_y
 _atom_site_fract_z
 _atom_site_occupancy
  Mg  Mg0  1  0.000000  0.823473  0.175903  1
  Mg  Mg1  1  0.000000  0.324903  0.328309  1
  Mg  Mg2  1  0.000000  0.676182  0.676055  1
  Mg  Mg3  1  0.000000  0.174380  0.819828  1
  Al  Al4  1  0.000000  0.506158  0.998156  1
  Al  Al5  1  0.000000  0.999664  0.501125  1
  B  B6  1  0.000000  0.116400  0.128321  1
  B  B7  1  0.000000  0.625457  0.374497  1
  B  B8  1  0.000000  0.373843  0.625507  1
  B  B9  1  0.000000  0.873416  0.871597  1
  Pt  Pt10  1  0.499999  0.286827  0.071387  1
  Rh  Rh11  1  0.499999  0.001576  0.999328  1
  Rh  Rh12  1  0.499999  0.569852  0.215174  1
  Rh  Rh13  1  0.499999  0.072727  0.286012  1
  Rh  Rh14  1  0.499999  0.785256  0.428404  1
  Rh  Rh15  1  0.499999  0.500721  0.500975  1
  Rh  Rh16  1  0.499999  0.215125  0.570280  1
  Rh  Rh17  1  0.499999  0.929204  0.714728  1
  Rh  Rh18  1  0.499999  0.428213  0.785721  1
  Rh  Rh19  1  0.499999  0.716636  0.928706  1
