# generated using pymatgen
data_K2Zr3(ScSe5)2
_symmetry_space_group_name_H-M   'P 1'
_cell_length_a   6.65703369
_cell_length_b   11.31382651
_cell_length_c   9.08678628
_cell_angle_alpha   58.96207159
_cell_angle_beta   68.52755134
_cell_angle_gamma   89.97246180
_symmetry_Int_Tables_number   1
_chemical_formula_structural   K2Zr3(ScSe5)2
_chemical_formula_sum   'K2 Zr3 Sc2 Se10'
_cell_volume   530.27128100
_cell_formula_units_Z   1
loop_
 _symmetry_equiv_pos_site_id
 _symmetry_equiv_pos_as_xyz
  1  'x, y, z'
loop_
 _atom_site_type_symbol
 _atom_site_label
 _atom_site_symmetry_multiplicity
 _atom_site_fract_x
 _atom_site_fract_y
 _atom_site_fract_z
 _atom_site_occupancy
  K  K0  1  0.787968  0.076440  0.424187  1
  K  K1  1  0.012479  0.524032  0.975674  1
  Zr  Zr2  1  0.396189  0.793149  0.206565  1
  Zr  Zr3  1  0.604226  0.206345  0.796892  1
  Zr  Zr4  1  0.998581  0.999611  0.000080  1
  Sc  Sc5  1  0.800353  0.598489  0.401894  1
  Sc  Sc6  1  0.200680  0.401814  0.595048  1
  Se  Se7  1  0.991960  0.837433  0.351514  1
  Se  Se8  1  0.589440  0.038067  0.152690  1
  Se  Se9  1  0.188808  0.237966  0.953893  1
  Se  Se10  1  0.787906  0.436831  0.753314  1
  Se  Se11  1  0.392472  0.639013  0.548596  1
  Se  Se12  1  0.405981  0.962152  0.850823  1
  Se  Se13  1  0.008750  0.160531  0.649561  1
  Se  Se14  1  0.612012  0.359145  0.448675  1
  Se  Se15  1  0.213175  0.563533  0.245127  1
  Se  Se16  1  0.809022  0.765450  0.045466  1
