# generated using pymatgen
data_Lu2Zr(ScFe6)3
_symmetry_space_group_name_H-M   'P 1'
_cell_length_a   4.95593441
_cell_length_b   4.95593485
_cell_length_c   16.05870888
_cell_angle_alpha   98.87658880
_cell_angle_beta   98.87659141
_cell_angle_gamma   59.99998065
_symmetry_Int_Tables_number   1
_chemical_formula_structural   Lu2Zr(ScFe6)3
_chemical_formula_sum   'Lu2 Zr1 Sc3 Fe18'
_cell_volume   336.11403313
_cell_formula_units_Z   1
loop_
 _symmetry_equiv_pos_site_id
 _symmetry_equiv_pos_as_xyz
  1  'x, y, z'
loop_
 _atom_site_type_symbol
 _atom_site_label
 _atom_site_symmetry_multiplicity
 _atom_site_fract_x
 _atom_site_fract_y
 _atom_site_fract_z
 _atom_site_occupancy
  Lu  Lu0  1  0.000359  0.000359  0.001076  1
  Lu  Lu1  1  0.499325  0.499325  0.497977  1
  Zr  Zr2  1  0.571616  0.571616  0.714847  1
  Sc  Sc3  1  0.428360  0.428360  0.285080  1
  Sc  Sc4  1  0.928983  0.928983  0.786949  1
  Sc  Sc5  1  0.071564  0.071564  0.214690  1
  Fe  Fe6  1  0.455500  0.959308  0.374116  1
  Fe  Fe7  1  0.956473  0.459055  0.874581  1
  Fe  Fe8  1  0.959308  0.959308  0.374116  1
  Fe  Fe9  1  0.459055  0.459055  0.874581  1
  Fe  Fe10  1  0.959308  0.455500  0.374116  1
  Fe  Fe11  1  0.459055  0.956473  0.874581  1
  Fe  Fe12  1  0.043997  0.540872  0.125740  1
  Fe  Fe13  1  0.544318  0.040482  0.625282  1
  Fe  Fe14  1  0.540872  0.540872  0.125740  1
  Fe  Fe15  1  0.040482  0.040482  0.625282  1
  Fe  Fe16  1  0.540872  0.043997  0.125740  1
  Fe  Fe17  1  0.040482  0.544318  0.625282  1
  Fe  Fe18  1  0.333462  0.333462  0.000386  1
  Fe  Fe19  1  0.833376  0.833376  0.500128  1
  Fe  Fe20  1  0.166624  0.166624  0.499871  1
  Fe  Fe21  1  0.666554  0.666554  0.999661  1
  Fe  Fe22  1  0.749993  0.749993  0.249980  1
  Fe  Fe23  1  0.250063  0.250063  0.750191  1
