# generated using pymatgen
data_YbPrSnIr2
_symmetry_space_group_name_H-M   'P 1'
_cell_length_a   5.84205158
_cell_length_b   5.84205214
_cell_length_c   8.12698273
_cell_angle_alpha   101.90462935
_cell_angle_beta   101.90463119
_cell_angle_gamma   58.47603865
_symmetry_Int_Tables_number   1
_chemical_formula_structural   YbPrSnIr2
_chemical_formula_sum   'Yb2 Pr2 Sn2 Ir4'
_cell_volume   229.73486739
_cell_formula_units_Z   2
loop_
 _symmetry_equiv_pos_site_id
 _symmetry_equiv_pos_as_xyz
  1  'x, y, z'
loop_
 _atom_site_type_symbol
 _atom_site_label
 _atom_site_symmetry_multiplicity
 _atom_site_fract_x
 _atom_site_fract_y
 _atom_site_fract_z
 _atom_site_occupancy
  Yb  Yb0  1  0.498639  0.799078  0.652428  1
  Yb  Yb1  1  0.200922  0.501361  0.847572  1
  Pr  Pr2  1  0.794117  0.494376  0.141631  1
  Pr  Pr3  1  0.505624  0.205883  0.358370  1
  Sn  Sn4  1  0.146105  0.853895  0.250000  1
  Sn  Sn5  1  0.867891  0.132109  0.750001  1
  Ir  Ir6  1  0.283632  0.008469  0.003377  1
  Ir  Ir7  1  0.991531  0.716367  0.496624  1
  Ir  Ir8  1  0.993384  0.281844  0.499308  1
  Ir  Ir9  1  0.718155  0.006615  0.000692  1
