# generated using pymatgen
data_Tb3Yb(Al3Os)2
_symmetry_space_group_name_H-M   'P 1'
_cell_length_a   5.52754500
_cell_length_b   5.52754528
_cell_length_c   8.79609400
_cell_angle_alpha   90.00000000
_cell_angle_beta   90.00000000
_cell_angle_gamma   119.99999235
_symmetry_Int_Tables_number   1
_chemical_formula_structural   Tb3Yb(Al3Os)2
_chemical_formula_sum   'Tb3 Yb1 Al6 Os2'
_cell_volume   232.74755239
_cell_formula_units_Z   1
loop_
 _symmetry_equiv_pos_site_id
 _symmetry_equiv_pos_as_xyz
  1  'x, y, z'
loop_
 _atom_site_type_symbol
 _atom_site_label
 _atom_site_symmetry_multiplicity
 _atom_site_fract_x
 _atom_site_fract_y
 _atom_site_fract_z
 _atom_site_occupancy
  Tb  Tb0  1  0.666666  0.333333  0.049782  1
  Tb  Tb1  1  0.666666  0.333333  0.448908  1
  Tb  Tb2  1  0.333334  0.666667  0.551904  1
  Yb  Yb3  1  0.333334  0.666667  0.946471  1
  Al  Al4  1  0.160979  0.321957  0.251646  1
  Al  Al5  1  0.160979  0.839021  0.251646  1
  Al  Al6  1  0.678042  0.839021  0.251646  1
  Al  Al7  1  0.322601  0.161300  0.749089  1
  Al  Al8  1  0.838700  0.161300  0.749089  1
  Al  Al9  1  0.838700  0.677399  0.749089  1
  Os  Os10  1  0.000000  0.000000  0.000053  1
  Os  Os11  1  0.000000  0.000000  0.500676  1
