# generated using pymatgen
data_TcHgBrO7
_symmetry_space_group_name_H-M   'P 1'
_cell_length_a   8.30738226
_cell_length_b   8.30738160
_cell_length_c   9.13851509
_cell_angle_alpha   53.07477453
_cell_angle_beta   53.07477446
_cell_angle_gamma   65.44408779
_symmetry_Int_Tables_number   1
_chemical_formula_structural   TcHgBrO7
_chemical_formula_sum   'Tc2 Hg2 Br2 O14'
_cell_volume   401.56908254
_cell_formula_units_Z   2
loop_
 _symmetry_equiv_pos_site_id
 _symmetry_equiv_pos_as_xyz
  1  'x, y, z'
loop_
 _atom_site_type_symbol
 _atom_site_label
 _atom_site_symmetry_multiplicity
 _atom_site_fract_x
 _atom_site_fract_y
 _atom_site_fract_z
 _atom_site_occupancy
  Tc  Tc0  1  0.786166  0.831421  0.273325  1
  Tc  Tc1  1  0.831421  0.786166  0.773325  1
  Hg  Hg2  1  0.235155  0.637115  0.301806  1
  Hg  Hg3  1  0.637115  0.235155  0.801806  1
  Br  Br4  1  0.255087  0.206162  0.700435  1
  Br  Br5  1  0.206162  0.255087  0.200435  1
  O  O6  1  0.727033  0.903635  0.088195  1
  O  O7  1  0.903635  0.727033  0.588195  1
  O  O8  1  0.323157  0.152031  0.865177  1
  O  O9  1  0.152031  0.323157  0.365177  1
  O  O10  1  0.059119  0.814933  0.149372  1
  O  O11  1  0.814933  0.059119  0.649372  1
  O  O12  1  0.009346  0.271607  0.796348  1
  O  O13  1  0.271607  0.009346  0.296348  1
  O  O14  1  0.697000  0.598371  0.481622  1
  O  O15  1  0.598371  0.697000  0.981622  1
  O  O16  1  0.376253  0.435677  0.487786  1
  O  O17  1  0.435677  0.376253  0.987786  1
  O  O18  1  0.672381  0.008354  0.355933  1
  O  O19  1  0.008354  0.672381  0.855933  1
