# generated using pymatgen
data_EuGa2PdRh
_symmetry_space_group_name_H-M   'P 1'
_cell_length_a   4.35751600
_cell_length_b   4.35751600
_cell_length_c   10.20144600
_cell_angle_alpha   90.00000000
_cell_angle_beta   90.00000000
_cell_angle_gamma   90.00000000
_symmetry_Int_Tables_number   1
_chemical_formula_structural   EuGa2PdRh
_chemical_formula_sum   'Eu2 Ga4 Pd2 Rh2'
_cell_volume   193.70450261
_cell_formula_units_Z   2
loop_
 _symmetry_equiv_pos_site_id
 _symmetry_equiv_pos_as_xyz
  1  'x, y, z'
loop_
 _atom_site_type_symbol
 _atom_site_label
 _atom_site_symmetry_multiplicity
 _atom_site_fract_x
 _atom_site_fract_y
 _atom_site_fract_z
 _atom_site_occupancy
  Eu  Eu0  1  0.000000  0.500001  0.237541  1
  Eu  Eu1  1  0.500001  0.000000  0.762459  1
  Ga  Ga2  1  0.500001  0.000000  0.119971  1
  Ga  Ga3  1  0.000000  0.000000  0.500000  1
  Ga  Ga4  1  0.500001  0.500001  0.500000  1
  Ga  Ga5  1  0.000000  0.500001  0.880029  1
  Pd  Pd6  1  0.500001  0.000000  0.369049  1
  Pd  Pd7  1  0.000000  0.500001  0.630951  1
  Rh  Rh8  1  0.000000  0.000000  0.000000  1
  Rh  Rh9  1  0.500001  0.500001  0.000000  1
