# generated using pymatgen
data_Dy10Si16Pt
_symmetry_space_group_name_H-M   'P 1'
_cell_length_a   6.75014774
_cell_length_b   8.23515746
_cell_length_c   11.11878564
_cell_angle_alpha   111.73574327
_cell_angle_beta   107.67076890
_cell_angle_gamma   89.99999888
_symmetry_Int_Tables_number   1
_chemical_formula_structural   Dy10Si16Pt
_chemical_formula_sum   'Dy10 Si16 Pt1'
_cell_volume   542.61300118
_cell_formula_units_Z   1
loop_
 _symmetry_equiv_pos_site_id
 _symmetry_equiv_pos_as_xyz
  1  'x, y, z'
loop_
 _atom_site_type_symbol
 _atom_site_label
 _atom_site_symmetry_multiplicity
 _atom_site_fract_x
 _atom_site_fract_y
 _atom_site_fract_z
 _atom_site_occupancy
  Dy  Dy0  1  0.239551  0.245438  0.000000  1
  Dy  Dy1  1  0.239551  0.754562  0.000000  1
  Dy  Dy2  1  0.834197  0.356459  0.205595  1
  Dy  Dy3  1  0.834197  0.849138  0.205595  1
  Dy  Dy4  1  0.438165  0.450815  0.399812  1
  Dy  Dy5  1  0.438165  0.948997  0.399812  1
  Dy  Dy6  1  0.038353  0.051003  0.600189  1
  Dy  Dy7  1  0.038353  0.549185  0.600189  1
  Dy  Dy8  1  0.628600  0.150862  0.794404  1
  Dy  Dy9  1  0.628600  0.643542  0.794404  1
  Si  Si10  1  0.916650  0.000000  0.000000  1
  Si  Si11  1  0.610747  0.500000  0.000000  1
  Si  Si12  1  0.129223  0.583814  0.167628  1
  Si  Si13  1  0.500397  0.600168  0.200337  1
  Si  Si14  1  0.500008  0.104037  0.208076  1
  Si  Si15  1  0.160150  0.115782  0.231564  1
  Si  Si16  1  0.809230  0.201652  0.403303  1
  Si  Si17  1  0.100355  0.698427  0.396855  1
  Si  Si18  1  0.759622  0.713362  0.426724  1
  Si  Si19  1  0.332898  0.286638  0.573276  1
  Si  Si20  1  0.703500  0.301573  0.603144  1
  Si  Si21  1  0.405926  0.798348  0.596697  1
  Si  Si22  1  0.928586  0.884218  0.768436  1
  Si  Si23  1  0.291931  0.895962  0.791923  1
  Si  Si24  1  0.300060  0.399832  0.799664  1
  Si  Si25  1  0.961596  0.416186  0.832372  1
  Pt  Pt26  1  0.569891  0.000000  0.000000  1
