# generated using pymatgen
data_Sc2Cr3Co2(NiP)7
_symmetry_space_group_name_H-M   'P 1'
_cell_length_a   9.00546348
_cell_length_b   8.99267391
_cell_length_c   3.57369100
_cell_angle_alpha   90.00000000
_cell_angle_beta   90.00000000
_cell_angle_gamma   120.06367888
_symmetry_Int_Tables_number   1
_chemical_formula_structural   Sc2Cr3Co2(NiP)7
_chemical_formula_sum   'Sc2 Cr3 Co2 Ni7 P7'
_cell_volume   250.47449688
_cell_formula_units_Z   1
loop_
 _symmetry_equiv_pos_site_id
 _symmetry_equiv_pos_as_xyz
  1  'x, y, z'
loop_
 _atom_site_type_symbol
 _atom_site_label
 _atom_site_symmetry_multiplicity
 _atom_site_fract_x
 _atom_site_fract_y
 _atom_site_fract_z
 _atom_site_occupancy
  Sc  Sc0  1  0.667448  0.333081  0.500000  1
  Sc  Sc1  1  0.333005  0.666098  0.000000  1
  Cr  Cr2  1  0.219368  0.096114  0.500000  1
  Cr  Cr3  1  0.877089  0.780847  0.500000  1
  Cr  Cr4  1  0.903139  0.123935  0.500000  1
  Co  Co5  1  0.383084  0.437244  0.500000  1
  Co  Co6  1  0.054681  0.616253  0.500000  1
  Ni  Ni7  1  0.716698  0.875234  0.000000  1
  Ni  Ni8  1  0.124035  0.840396  0.000000  1
  Ni  Ni9  1  0.159145  0.283756  0.000000  1
  Ni  Ni10  1  0.937890  0.375832  0.000000  1
  Ni  Ni11  1  0.626695  0.561382  0.000000  1
  Ni  Ni12  1  0.437441  0.064357  0.000000  1
  Ni  Ni13  1  0.559106  0.944049  0.500000  1
  P  P14  1  0.999673  0.999210  0.000000  1
  P  P15  1  0.410098  0.293525  0.000000  1
  P  P16  1  0.588655  0.706167  0.500000  1
  P  P17  1  0.289827  0.879949  0.500000  1
  P  P18  1  0.121811  0.413927  0.500000  1
  P  P19  1  0.707943  0.119216  0.000000  1
  P  P20  1  0.883172  0.589428  0.000000  1
