# generated using pymatgen
data_Tb3Ce7Si8O3
_symmetry_space_group_name_H-M   'P 1'
_cell_length_a   10.55726900
_cell_length_b   10.55727085
_cell_length_c   4.49955600
_cell_angle_alpha   90.00000000
_cell_angle_beta   90.00000000
_cell_angle_gamma   119.99999733
_symmetry_Int_Tables_number   1
_chemical_formula_structural   Tb3Ce7Si8O3
_chemical_formula_sum   'Tb3 Ce7 Si8 O3'
_cell_volume   434.31372704
_cell_formula_units_Z   1
loop_
 _symmetry_equiv_pos_site_id
 _symmetry_equiv_pos_as_xyz
  1  'x, y, z'
loop_
 _atom_site_type_symbol
 _atom_site_label
 _atom_site_symmetry_multiplicity
 _atom_site_fract_x
 _atom_site_fract_y
 _atom_site_fract_z
 _atom_site_occupancy
  Tb  Tb0  1  0.500000  0.000000  0.500000  1
  Tb  Tb1  1  0.000000  0.500000  0.500000  1
  Tb  Tb2  1  0.500000  0.500000  0.500000  1
  Ce  Ce3  1  0.213107  0.786893  0.000000  1
  Ce  Ce4  1  0.213107  0.426214  0.000000  1
  Ce  Ce5  1  0.786893  0.573786  0.000000  1
  Ce  Ce6  1  0.426214  0.213107  0.000000  1
  Ce  Ce7  1  0.000000  0.000000  0.000000  1
  Ce  Ce8  1  0.573786  0.786893  0.000000  1
  Ce  Ce9  1  0.786893  0.213107  0.000000  1
  Si  Si10  1  0.666667  0.333333  0.500000  1
  Si  Si11  1  0.000000  0.775615  0.500000  1
  Si  Si12  1  0.333333  0.666667  0.500000  1
  Si  Si13  1  0.224385  0.224385  0.500000  1
  Si  Si14  1  0.775615  0.775615  0.500000  1
  Si  Si15  1  0.775615  0.000000  0.500000  1
  Si  Si16  1  0.224385  0.000000  0.500000  1
  Si  Si17  1  0.000000  0.224385  0.500000  1
  O  O18  1  0.500000  0.500000  0.000000  1
  O  O19  1  0.500000  0.000000  0.000000  1
  O  O20  1  0.000000  0.500000  0.000000  1
