# generated using pymatgen
data_Li2Lu3Si2AgHg
_symmetry_space_group_name_H-M   'P 1'
_cell_length_a   7.05896338
_cell_length_b   7.16899990
_cell_length_c   4.11302200
_cell_angle_alpha   90.00000000
_cell_angle_beta   90.00000000
_cell_angle_gamma   120.51701145
_symmetry_Int_Tables_number   1
_chemical_formula_structural   Li2Lu3Si2AgHg
_chemical_formula_sum   'Li2 Lu3 Si2 Ag1 Hg1'
_cell_volume   179.31017910
_cell_formula_units_Z   1
loop_
 _symmetry_equiv_pos_site_id
 _symmetry_equiv_pos_as_xyz
  1  'x, y, z'
loop_
 _atom_site_type_symbol
 _atom_site_label
 _atom_site_symmetry_multiplicity
 _atom_site_fract_x
 _atom_site_fract_y
 _atom_site_fract_z
 _atom_site_occupancy
  Li  Li0  1  0.745395  0.746905  0.000000  1
  Li  Li1  1  0.254605  0.001510  0.000000  1
  Lu  Lu2  1  0.424734  0.425273  0.500000  1
  Lu  Lu3  1  0.575266  0.000539  0.500000  1
  Lu  Lu4  1  0.000000  0.570379  0.500000  1
  Si  Si5  1  0.659560  0.333743  0.000000  1
  Si  Si6  1  0.340440  0.674185  0.000000  1
  Ag  Ag7  1  0.000000  0.264855  0.000000  1
  Hg  Hg8  1  0.000000  0.982610  0.500000  1
