# generated using pymatgen
data_Ta4Si4PtRh3
_symmetry_space_group_name_H-M   'P 1'
_cell_length_a   3.77689300
_cell_length_b   6.44368402
_cell_length_c   7.37597042
_cell_angle_alpha   89.81803706
_cell_angle_beta   90.00000000
_cell_angle_gamma   90.00000000
_symmetry_Int_Tables_number   1
_chemical_formula_structural   Ta4Si4PtRh3
_chemical_formula_sum   'Ta4 Si4 Pt1 Rh3'
_cell_volume   179.50886180
_cell_formula_units_Z   1
loop_
 _symmetry_equiv_pos_site_id
 _symmetry_equiv_pos_as_xyz
  1  'x, y, z'
loop_
 _atom_site_type_symbol
 _atom_site_label
 _atom_site_symmetry_multiplicity
 _atom_site_fract_x
 _atom_site_fract_y
 _atom_site_fract_z
 _atom_site_occupancy
  Ta  Ta0  1  0.250000  0.527781  0.171996  1
  Ta  Ta1  1  0.750000  0.474893  0.827916  1
  Ta  Ta2  1  0.750000  0.972070  0.668242  1
  Ta  Ta3  1  0.250000  0.024001  0.332331  1
  Si  Si4  1  0.250000  0.764072  0.873652  1
  Si  Si5  1  0.750000  0.232789  0.131618  1
  Si  Si6  1  0.750000  0.731495  0.374184  1
  Si  Si7  1  0.250000  0.269352  0.620972  1
  Pt  Pt8  1  0.250000  0.148577  0.935253  1
  Rh  Rh9  1  0.250000  0.645669  0.563967  1
  Rh  Rh10  1  0.750000  0.355597  0.437328  1
  Rh  Rh11  1  0.750000  0.853704  0.062542  1
