# generated using pymatgen
data_K2SiSn3Se8
_symmetry_space_group_name_H-M   'P 1'
_cell_length_a   10.12359289
_cell_length_b   10.12359276
_cell_length_c   7.27492263
_cell_angle_alpha   88.66697249
_cell_angle_beta   88.66697736
_cell_angle_gamma   141.71196424
_symmetry_Int_Tables_number   1
_chemical_formula_structural   K2SiSn3Se8
_chemical_formula_sum   'K2 Si1 Sn3 Se8'
_cell_volume   460.81251331
_cell_formula_units_Z   1
loop_
 _symmetry_equiv_pos_site_id
 _symmetry_equiv_pos_as_xyz
  1  'x, y, z'
loop_
 _atom_site_type_symbol
 _atom_site_label
 _atom_site_symmetry_multiplicity
 _atom_site_fract_x
 _atom_site_fract_y
 _atom_site_fract_z
 _atom_site_occupancy
  K  K0  1  0.346824  0.035327  0.968887  1
  K  K1  1  0.035327  0.346824  0.968887  1
  Si  Si2  1  0.597339  0.597339  0.375515  1
  Sn  Sn3  1  0.477026  0.849632  0.552059  1
  Sn  Sn4  1  0.849632  0.477026  0.552059  1
  Sn  Sn5  1  0.702989  0.702989  0.872220  1
  Se  Se6  1  0.482678  0.101889  0.453786  1
  Se  Se7  1  0.101889  0.482678  0.453786  1
  Se  Se8  1  0.389364  0.389364  0.139936  1
  Se  Se9  1  0.750036  0.927567  0.350483  1
  Se  Se10  1  0.398478  0.398478  0.641660  1
  Se  Se11  1  0.857051  0.530800  0.888419  1
  Se  Se12  1  0.530800  0.857051  0.888419  1
  Se  Se13  1  0.927567  0.750036  0.350483  1
