# generated using pymatgen
data_Sr6TbY(CoO6)2
_symmetry_space_group_name_H-M   'P 1'
_cell_length_a   6.78730401
_cell_length_b   6.78545261
_cell_length_c   6.78583112
_cell_angle_alpha   92.39926473
_cell_angle_beta   92.48243220
_cell_angle_gamma   92.46218030
_symmetry_Int_Tables_number   1
_chemical_formula_structural   Sr6TbY(CoO6)2
_chemical_formula_sum   'Sr6 Tb1 Y1 Co2 O12'
_cell_volume   311.64000813
_cell_formula_units_Z   1
loop_
 _symmetry_equiv_pos_site_id
 _symmetry_equiv_pos_as_xyz
  1  'x, y, z'
loop_
 _atom_site_type_symbol
 _atom_site_label
 _atom_site_symmetry_multiplicity
 _atom_site_fract_x
 _atom_site_fract_y
 _atom_site_fract_z
 _atom_site_occupancy
  Sr  Sr0  1  0.882538  0.249825  0.617482  1
  Sr  Sr1  1  0.249690  0.618592  0.881320  1
  Sr  Sr2  1  0.617631  0.881937  0.250099  1
  Sr  Sr3  1  0.750360  0.381603  0.118137  1
  Sr  Sr4  1  0.382159  0.118026  0.749433  1
  Sr  Sr5  1  0.117725  0.750568  0.381983  1
  Tb  Tb6  1  0.749785  0.749446  0.750842  1
  Y  Y7  1  0.250424  0.250924  0.248922  1
  Co  Co8  1  0.999621  0.000197  0.000063  1
  Co  Co9  1  0.500358  0.499694  0.500203  1
  O  O10  1  0.219356  0.413852  0.544734  1
  O  O11  1  0.414533  0.546553  0.218678  1
  O  O12  1  0.545404  0.218563  0.413700  1
  O  O13  1  0.914220  0.718994  0.047119  1
  O  O14  1  0.718026  0.045116  0.915463  1
  O  O15  1  0.045122  0.914220  0.718880  1
  O  O16  1  0.781719  0.585048  0.455148  1
  O  O17  1  0.585924  0.452816  0.781294  1
  O  O18  1  0.453905  0.780467  0.586587  1
  O  O19  1  0.085307  0.281652  0.953520  1
  O  O20  1  0.280920  0.955308  0.085354  1
  O  O21  1  0.955272  0.086600  0.281039  1
