# generated using pymatgen
data_Rb3Na2SnAs3
_symmetry_space_group_name_H-M   'P 1'
_cell_length_a   11.05110747
_cell_length_b   11.05110804
_cell_length_c   16.27365400
_cell_angle_alpha   90.00000000
_cell_angle_beta   90.00000000
_cell_angle_gamma   143.15647962
_symmetry_Int_Tables_number   1
_chemical_formula_structural   Rb3Na2SnAs3
_chemical_formula_sum   'Rb12 Na8 Sn4 As12'
_cell_volume   1191.73925843
_cell_formula_units_Z   4
loop_
 _symmetry_equiv_pos_site_id
 _symmetry_equiv_pos_as_xyz
  1  'x, y, z'
loop_
 _atom_site_type_symbol
 _atom_site_label
 _atom_site_symmetry_multiplicity
 _atom_site_fract_x
 _atom_site_fract_y
 _atom_site_fract_z
 _atom_site_occupancy
  Rb  Rb0  1  0.939138  0.605288  0.827567  1
  Rb  Rb1  1  0.560862  0.894712  0.327567  1
  Rb  Rb2  1  0.394712  0.060862  0.172433  1
  Rb  Rb3  1  0.060862  0.394712  0.172433  1
  Rb  Rb4  1  0.894712  0.560862  0.327567  1
  Rb  Rb5  1  0.439138  0.105288  0.672433  1
  Rb  Rb6  1  0.605288  0.939138  0.827567  1
  Rb  Rb7  1  0.265483  0.265483  0.323116  1
  Rb  Rb8  1  0.765483  0.765483  0.176884  1
  Rb  Rb9  1  0.234517  0.234517  0.823116  1
  Rb  Rb10  1  0.734517  0.734517  0.676884  1
  Rb  Rb11  1  0.105288  0.439138  0.672433  1
  Na  Na12  1  0.919169  0.080831  0.000000  1
  Na  Na13  1  0.580831  0.419169  0.500000  1
  Na  Na14  1  0.080831  0.919169  0.000000  1
  Na  Na15  1  0.419169  0.580831  0.500000  1
  Na  Na16  1  0.754227  0.245773  0.000000  1
  Na  Na17  1  0.745773  0.254227  0.500000  1
  Na  Na18  1  0.245773  0.754227  0.000000  1
  Na  Na19  1  0.254227  0.745773  0.500000  1
  Sn  Sn20  1  0.588146  0.411854  0.000000  1
  Sn  Sn21  1  0.911854  0.088146  0.500000  1
  Sn  Sn22  1  0.411854  0.588146  0.000000  1
  Sn  Sn23  1  0.088146  0.911854  0.500000  1
  As  As24  1  0.880796  0.563397  0.099834  1
  As  As25  1  0.436603  0.119204  0.900166  1
  As  As26  1  0.619204  0.936603  0.599834  1
  As  As27  1  0.936603  0.619204  0.599834  1
  As  As28  1  0.119204  0.436603  0.900166  1
  As  As29  1  0.563397  0.880796  0.099834  1
  As  As30  1  0.380796  0.063397  0.400166  1
  As  As31  1  0.204694  0.204694  0.589987  1
  As  As32  1  0.704694  0.704694  0.910013  1
  As  As33  1  0.295306  0.295306  0.089987  1
  As  As34  1  0.063397  0.380796  0.400166  1
  As  As35  1  0.795306  0.795306  0.410013  1
