# generated using pymatgen
data_Hf2Ta3NbC5
_symmetry_space_group_name_H-M   'P 1'
_cell_length_a   5.57011511
_cell_length_b   5.57122495
_cell_length_c   5.53181100
_cell_angle_alpha   80.85867138
_cell_angle_beta   80.70032194
_cell_angle_gamma   120.36128874
_symmetry_Int_Tables_number   1
_chemical_formula_structural   Hf2Ta3NbC5
_chemical_formula_sum   'Hf2 Ta3 Nb1 C5'
_cell_volume   140.22140374
_cell_formula_units_Z   1
loop_
 _symmetry_equiv_pos_site_id
 _symmetry_equiv_pos_as_xyz
  1  'x, y, z'
loop_
 _atom_site_type_symbol
 _atom_site_label
 _atom_site_symmetry_multiplicity
 _atom_site_fract_x
 _atom_site_fract_y
 _atom_site_fract_z
 _atom_site_occupancy
  Hf  Hf0  1  0.744313  0.743087  0.742430  1
  Hf  Hf1  1  0.255992  0.256542  0.257986  1
  Ta  Ta2  1  0.559365  0.912566  0.254402  1
  Ta  Ta3  1  0.912942  0.559585  0.254234  1
  Ta  Ta4  1  0.439581  0.086481  0.745991  1
  Nb  Nb5  1  0.087343  0.439687  0.746257  1
  C  C6  1  0.503370  0.500177  0.498517  1
  C  C7  1  0.666495  0.328737  0.001970  1
  C  C8  1  0.332117  0.671868  0.002071  1
  C  C9  1  0.827356  0.168800  0.498024  1
  C  C10  1  0.171125  0.832471  0.498118  1
