# generated using pymatgen
data_CaYb(Ni2Sb)4
_symmetry_space_group_name_H-M   'P 1'
_cell_length_a   6.70008762
_cell_length_b   6.70008706
_cell_length_c   6.70008882
_cell_angle_alpha   109.50530099
_cell_angle_beta   109.50530712
_cell_angle_gamma   109.40308176
_symmetry_Int_Tables_number   1
_chemical_formula_structural   CaYb(Ni2Sb)4
_chemical_formula_sum   'Ca1 Yb1 Ni8 Sb4'
_cell_volume   231.53630712
_cell_formula_units_Z   1
loop_
 _symmetry_equiv_pos_site_id
 _symmetry_equiv_pos_as_xyz
  1  'x, y, z'
loop_
 _atom_site_type_symbol
 _atom_site_label
 _atom_site_symmetry_multiplicity
 _atom_site_fract_x
 _atom_site_fract_y
 _atom_site_fract_z
 _atom_site_occupancy
  Ca  Ca0  1  0.250000  0.250000  0.000000  1
  Yb  Yb1  1  0.750000  0.750000  0.000000  1
  Ni  Ni2  1  0.975666  0.190641  0.496695  1
  Ni  Ni3  1  0.190641  0.693946  0.214975  1
  Ni  Ni4  1  0.478971  0.975666  0.785025  1
  Ni  Ni5  1  0.806054  0.309359  0.785025  1
  Ni  Ni6  1  0.524334  0.021029  0.214975  1
  Ni  Ni7  1  0.693946  0.478971  0.503305  1
  Ni  Ni8  1  0.309359  0.524334  0.503305  1
  Ni  Ni9  1  0.021029  0.806054  0.496695  1
  Sb  Sb10  1  0.656482  0.843518  0.500000  1
  Sb  Sb11  1  0.843518  0.343518  0.187037  1
  Sb  Sb12  1  0.156482  0.656482  0.812963  1
  Sb  Sb13  1  0.343518  0.156482  0.500000  1
