# generated using pymatgen
data_LaPa3Ni4Ge3P
_symmetry_space_group_name_H-M   'P 1'
_cell_length_a   4.10910100
_cell_length_b   4.10910101
_cell_length_c   15.33568300
_cell_angle_alpha   90.00000000
_cell_angle_beta   90.00000000
_cell_angle_gamma   120.00002406
_symmetry_Int_Tables_number   1
_chemical_formula_structural   LaPa3Ni4Ge3P
_chemical_formula_sum   'La1 Pa3 Ni4 Ge3 P1'
_cell_volume   224.24733099
_cell_formula_units_Z   1
loop_
 _symmetry_equiv_pos_site_id
 _symmetry_equiv_pos_as_xyz
  1  'x, y, z'
loop_
 _atom_site_type_symbol
 _atom_site_label
 _atom_site_symmetry_multiplicity
 _atom_site_fract_x
 _atom_site_fract_y
 _atom_site_fract_z
 _atom_site_occupancy
  La  La0  1  0.000000  0.000000  0.747755  1
  Pa  Pa1  1  0.000000  0.000000  0.497060  1
  Pa  Pa2  1  0.000000  0.000000  0.002769  1
  Pa  Pa3  1  0.000000  0.000000  0.249832  1
  Ni  Ni4  1  0.333333  0.666667  0.351540  1
  Ni  Ni5  1  0.666667  0.333333  0.600384  1
  Ni  Ni6  1  0.666667  0.333333  0.905042  1
  Ni  Ni7  1  0.333333  0.666667  0.150468  1
  Ge  Ge8  1  0.333333  0.666667  0.879709  1
  Ge  Ge9  1  0.666667  0.333333  0.120815  1
  Ge  Ge10  1  0.666667  0.333333  0.380669  1
  P  P11  1  0.333333  0.666667  0.613956  1
