# generated using pymatgen
data_Dy8V11Si16Tc
_symmetry_space_group_name_H-M   'P 1'
_cell_length_a   6.82458554
_cell_length_b   6.82840863
_cell_length_c   12.66566481
_cell_angle_alpha   90.03585147
_cell_angle_beta   89.97319420
_cell_angle_gamma   90.04883781
_symmetry_Int_Tables_number   1
_chemical_formula_structural   Dy8V11Si16Tc
_chemical_formula_sum   'Dy8 V11 Si16 Tc1'
_cell_volume   590.23299607
_cell_formula_units_Z   1
loop_
 _symmetry_equiv_pos_site_id
 _symmetry_equiv_pos_as_xyz
  1  'x, y, z'
loop_
 _atom_site_type_symbol
 _atom_site_label
 _atom_site_symmetry_multiplicity
 _atom_site_fract_x
 _atom_site_fract_y
 _atom_site_fract_z
 _atom_site_occupancy
  Dy  Dy0  1  0.997884  0.661168  0.030813  1
  Dy  Dy1  1  0.002842  0.339448  0.530175  1
  Dy  Dy2  1  0.661605  0.997632  0.969335  1
  Dy  Dy3  1  0.161095  0.501506  0.780315  1
  Dy  Dy4  1  0.839658  0.498104  0.280711  1
  Dy  Dy5  1  0.502109  0.160841  0.220264  1
  Dy  Dy6  1  0.497538  0.839040  0.719531  1
  Dy  Dy7  1  0.339039  0.000723  0.468870  1
  V  V8  1  0.838686  0.991404  0.375598  1
  V  V9  1  0.012444  0.161102  0.125034  1
  V  V10  1  0.990984  0.838427  0.623259  1
  V  V11  1  0.508266  0.340987  0.624643  1
  V  V12  1  0.159777  0.009444  0.874224  1
  V  V13  1  0.674317  0.672636  0.501802  1
  V  V14  1  0.829337  0.171569  0.751247  1
  V  V15  1  0.170996  0.832109  0.248138  1
  V  V16  1  0.328118  0.328169  0.000641  1
  V  V17  1  0.490834  0.659451  0.125286  1
  V  V18  1  0.660289  0.489873  0.873857  1
  Si  Si19  1  0.040496  0.715310  0.434937  1
  Si  Si20  1  0.958964  0.287410  0.935771  1
  Si  Si21  1  0.713307  0.042875  0.565335  1
  Si  Si22  1  0.212509  0.459544  0.184858  1
  Si  Si23  1  0.786426  0.541278  0.685853  1
  Si  Si24  1  0.457830  0.213281  0.814979  1
  Si  Si25  1  0.541104  0.785243  0.313739  1
  Si  Si26  1  0.287689  0.957891  0.064091  1
  Si  Si27  1  0.802968  0.876587  0.186152  1
  Si  Si28  1  0.303127  0.625565  0.565132  1
  Si  Si29  1  0.696313  0.375570  0.064170  1
  Si  Si30  1  0.625625  0.303426  0.436615  1
  Si  Si31  1  0.375717  0.695944  0.936025  1
  Si  Si32  1  0.122286  0.196108  0.314159  1
  Si  Si33  1  0.195994  0.124506  0.685462  1
  Si  Si34  1  0.876053  0.801829  0.814028  1
  Tc  Tc35  1  0.337773  0.503999  0.374951  1
