# generated using pymatgen
data_Er8In3Au
_symmetry_space_group_name_H-M   'P 1'
_cell_length_a   10.53942600
_cell_length_b   10.53942493
_cell_length_c   6.82165500
_cell_angle_alpha   90.00000000
_cell_angle_beta   90.00000000
_cell_angle_gamma   119.99999708
_symmetry_Int_Tables_number   1
_chemical_formula_structural   Er8In3Au
_chemical_formula_sum   'Er16 In6 Au2'
_cell_volume   656.22726379
_cell_formula_units_Z   2
loop_
 _symmetry_equiv_pos_site_id
 _symmetry_equiv_pos_as_xyz
  1  'x, y, z'
loop_
 _atom_site_type_symbol
 _atom_site_label
 _atom_site_symmetry_multiplicity
 _atom_site_fract_x
 _atom_site_fract_y
 _atom_site_fract_z
 _atom_site_occupancy
  Er  Er0  1  0.523569  0.047139  0.796306  1
  Er  Er1  1  0.952861  0.476431  0.796306  1
  Er  Er2  1  0.523569  0.476431  0.796306  1
  Er  Er3  1  0.476431  0.952861  0.296306  1
  Er  Er4  1  0.047139  0.523569  0.296306  1
  Er  Er5  1  0.476431  0.523569  0.296306  1
  Er  Er6  1  0.827239  0.654478  0.512109  1
  Er  Er7  1  0.345522  0.172761  0.512109  1
  Er  Er8  1  0.827239  0.172761  0.512109  1
  Er  Er9  1  0.172761  0.345522  0.012109  1
  Er  Er10  1  0.654478  0.827239  0.012109  1
  Er  Er11  1  0.172761  0.827239  0.012109  1
  Er  Er12  1  0.666667  0.333333  0.153227  1
  Er  Er13  1  0.333333  0.666667  0.653227  1
  Er  Er14  1  0.000000  0.000000  0.777020  1
  Er  Er15  1  0.000000  0.000000  0.277020  1
  In  In16  1  0.836110  0.672222  0.032069  1
  In  In17  1  0.327778  0.163890  0.032069  1
  In  In18  1  0.836110  0.163890  0.032069  1
  In  In19  1  0.163890  0.327778  0.532069  1
  In  In20  1  0.672222  0.836110  0.532069  1
  In  In21  1  0.163890  0.836110  0.532069  1
  Au  Au22  1  0.666667  0.333333  0.566257  1
  Au  Au23  1  0.333333  0.666667  0.066257  1
