# generated using pymatgen
data_Dy4Tc3IrF28
_symmetry_space_group_name_H-M   'P 1'
_cell_length_a   5.62209256
_cell_length_b   8.90997318
_cell_length_c   11.97579392
_cell_angle_alpha   62.74014497
_cell_angle_beta   90.07764125
_cell_angle_gamma   89.96816059
_symmetry_Int_Tables_number   1
_chemical_formula_structural   Dy4Tc3IrF28
_chemical_formula_sum   'Dy4 Tc3 Ir1 F28'
_cell_volume   533.27297724
_cell_formula_units_Z   1
loop_
 _symmetry_equiv_pos_site_id
 _symmetry_equiv_pos_as_xyz
  1  'x, y, z'
loop_
 _atom_site_type_symbol
 _atom_site_label
 _atom_site_symmetry_multiplicity
 _atom_site_fract_x
 _atom_site_fract_y
 _atom_site_fract_z
 _atom_site_occupancy
  Dy  Dy0  1  0.760370  0.815034  0.764575  1
  Dy  Dy1  1  0.262485  0.187040  0.736536  1
  Dy  Dy2  1  0.237701  0.186443  0.233910  1
  Dy  Dy3  1  0.741183  0.812185  0.266087  1
  Tc  Tc4  1  0.257274  0.726581  0.543865  1
  Tc  Tc5  1  0.243349  0.726307  0.043468  1
  Tc  Tc6  1  0.742363  0.273088  0.456578  1
  Ir  Ir7  1  0.757652  0.273117  0.956183  1
  F  F8  1  0.450067  0.706564  0.919379  1
  F  F9  1  0.948644  0.293239  0.580891  1
  F  F10  1  0.560518  0.293243  0.081667  1
  F  F11  1  0.051395  0.706538  0.419196  1
  F  F12  1  0.453036  0.280158  0.547385  1
  F  F13  1  0.953014  0.718214  0.953371  1
  F  F14  1  0.547693  0.719637  0.453782  1
  F  F15  1  0.054721  0.280626  0.046350  1
  F  F16  1  0.767158  0.518011  0.858472  1
  F  F17  1  0.268745  0.479706  0.641401  1
  F  F18  1  0.233396  0.479439  0.142186  1
  F  F19  1  0.729619  0.520377  0.358450  1
  F  F20  1  0.754622  0.028431  0.049469  1
  F  F21  1  0.255981  0.972638  0.447043  1
  F  F22  1  0.240898  0.972624  0.947440  1
  F  F23  1  0.743421  0.026462  0.552829  1
  F  F24  1  0.978329  0.728910  0.641726  1
  F  F25  1  0.467677  0.271681  0.860135  1
  F  F26  1  0.020937  0.269618  0.359010  1
  F  F27  1  0.523018  0.730994  0.140366  1
  F  F28  1  0.041653  0.746634  0.170838  1
  F  F29  1  0.540692  0.253364  0.328699  1
  F  F30  1  0.950803  0.255164  0.827301  1
  F  F31  1  0.457780  0.746514  0.671783  1
  F  F32  1  0.423399  0.973368  0.230903  1
  F  F33  1  0.919607  0.027317  0.267522  1
  F  F34  1  0.580827  0.028144  0.768269  1
  F  F35  1  0.079971  0.972587  0.732933  1
