# generated using pymatgen
data_La6Nd2GePd24
_symmetry_space_group_name_H-M   'P 1'
_cell_length_a   8.53901329
_cell_length_b   8.53901329
_cell_length_c   8.53901329
_cell_angle_alpha   90.02113418
_cell_angle_beta   89.97886582
_cell_angle_gamma   89.97886582
_symmetry_Int_Tables_number   1
_chemical_formula_structural   La6Nd2GePd24
_chemical_formula_sum   'La6 Nd2 Ge1 Pd24'
_cell_volume   622.61987494
_cell_formula_units_Z   1
loop_
 _symmetry_equiv_pos_site_id
 _symmetry_equiv_pos_as_xyz
  1  'x, y, z'
loop_
 _atom_site_type_symbol
 _atom_site_label
 _atom_site_symmetry_multiplicity
 _atom_site_fract_x
 _atom_site_fract_y
 _atom_site_fract_z
 _atom_site_occupancy
  La  La0  1  0.253294  0.253172  0.253172  1
  La  La1  1  0.746706  0.746828  0.746828  1
  La  La2  1  0.746828  0.746706  0.253172  1
  La  La3  1  0.746828  0.253172  0.746706  1
  La  La4  1  0.253172  0.253294  0.746828  1
  La  La5  1  0.253172  0.746828  0.253294  1
  Nd  Nd6  1  0.252880  0.747120  0.747120  1
  Nd  Nd7  1  0.747120  0.252880  0.252880  1
  Ge  Ge8  1  0.000000  0.000000  0.000000  1
  Pd  Pd9  1  0.260000  0.500263  0.999749  1
  Pd  Pd10  1  0.740000  0.499737  0.000251  1
  Pd  Pd11  1  0.999749  0.260000  0.499737  1
  Pd  Pd12  1  0.500263  0.260000  0.000251  1
  Pd  Pd13  1  0.000251  0.740000  0.500263  1
  Pd  Pd14  1  0.499737  0.740000  0.999749  1
  Pd  Pd15  1  0.500263  0.000251  0.260000  1
  Pd  Pd16  1  0.260000  0.999749  0.500263  1
  Pd  Pd17  1  0.499737  0.999749  0.740000  1
  Pd  Pd18  1  0.740000  0.000251  0.499737  1
  Pd  Pd19  1  0.999749  0.499737  0.260000  1
  Pd  Pd20  1  0.000251  0.500263  0.740000  1
  Pd  Pd21  1  0.253099  0.500260  0.500260  1
  Pd  Pd22  1  0.746901  0.499740  0.499740  1
  Pd  Pd23  1  0.500260  0.253099  0.499740  1
  Pd  Pd24  1  0.499740  0.746901  0.500260  1
  Pd  Pd25  1  0.500260  0.499740  0.253099  1
  Pd  Pd26  1  0.499740  0.500260  0.746901  1
  Pd  Pd27  1  0.291017  0.999577  0.999577  1
  Pd  Pd28  1  0.708983  0.000423  0.000423  1
  Pd  Pd29  1  0.999577  0.291017  0.000423  1
  Pd  Pd30  1  0.000423  0.708983  0.999577  1
  Pd  Pd31  1  0.999577  0.000423  0.291017  1
  Pd  Pd32  1  0.000423  0.999577  0.708983  1
