# generated using pymatgen
data_Zr6Co16Ni4P13
_symmetry_space_group_name_H-M   'P 1'
_cell_length_a   12.39994900
_cell_length_b   12.39994889
_cell_length_c   3.61562600
_cell_angle_alpha   90.00000000
_cell_angle_beta   90.00000000
_cell_angle_gamma   119.99999763
_symmetry_Int_Tables_number   1
_chemical_formula_structural   Zr6Co16Ni4P13
_chemical_formula_sum   'Zr6 Co16 Ni4 P13'
_cell_volume   481.45304393
_cell_formula_units_Z   1
loop_
 _symmetry_equiv_pos_site_id
 _symmetry_equiv_pos_as_xyz
  1  'x, y, z'
loop_
 _atom_site_type_symbol
 _atom_site_label
 _atom_site_symmetry_multiplicity
 _atom_site_fract_x
 _atom_site_fract_y
 _atom_site_fract_z
 _atom_site_occupancy
  Zr  Zr0  1  0.810953  0.285473  0.500000  1
  Zr  Zr1  1  0.714527  0.525480  0.500000  1
  Zr  Zr2  1  0.474520  0.189047  0.500000  1
  Zr  Zr3  1  0.193576  0.718043  0.000000  1
  Zr  Zr4  1  0.281957  0.475533  0.000000  1
  Zr  Zr5  1  0.524467  0.806424  0.000000  1
  Co  Co6  1  0.419031  0.979395  0.000000  1
  Co  Co7  1  0.020605  0.439636  0.000000  1
  Co  Co8  1  0.583374  0.018108  0.500000  1
  Co  Co9  1  0.560364  0.580969  0.000000  1
  Co  Co10  1  0.981892  0.565267  0.500000  1
  Co  Co11  1  0.925863  0.077145  0.500000  1
  Co  Co12  1  0.151283  0.074137  0.500000  1
  Co  Co13  1  0.922855  0.848717  0.500000  1
  Co  Co14  1  0.097019  0.895831  0.000000  1
  Co  Co15  1  0.798812  0.902981  0.000000  1
  Co  Co16  1  0.104169  0.201188  0.000000  1
  Co  Co17  1  0.333333  0.666667  0.500000  1
  Co  Co18  1  0.676824  0.745726  0.500000  1
  Co  Co19  1  0.254274  0.931098  0.500000  1
  Co  Co20  1  0.434733  0.416626  0.500000  1
  Co  Co21  1  0.068902  0.323176  0.500000  1
  Ni  Ni22  1  0.666667  0.333333  0.000000  1
  Ni  Ni23  1  0.918482  0.673691  0.000000  1
  Ni  Ni24  1  0.326309  0.244790  0.000000  1
  Ni  Ni25  1  0.755210  0.081518  0.000000  1
  P  P26  1  0.000000  0.000000  0.000000  1
  P  P27  1  0.228839  0.283072  0.500000  1
  P  P28  1  0.716928  0.945765  0.500000  1
  P  P29  1  0.054235  0.771161  0.500000  1
  P  P30  1  0.765200  0.714165  0.000000  1
  P  P31  1  0.285835  0.051034  0.000000  1
  P  P32  1  0.472832  0.612901  0.500000  1
  P  P33  1  0.387099  0.859931  0.500000  1
  P  P34  1  0.861397  0.474836  0.000000  1
  P  P35  1  0.525164  0.386561  0.000000  1
  P  P36  1  0.613439  0.138603  0.000000  1
  P  P37  1  0.948966  0.234800  0.000000  1
  P  P38  1  0.140069  0.527168  0.500000  1
