# generated using pymatgen
data_TbDy2Y2CoSb2
_symmetry_space_group_name_H-M   'P 1'
_cell_length_a   7.93224000
_cell_length_b   8.73153300
_cell_length_c   12.19385600
_cell_angle_alpha   90.00000000
_cell_angle_beta   90.00000000
_cell_angle_gamma   90.00000000
_symmetry_Int_Tables_number   1
_chemical_formula_structural   TbDy2Y2CoSb2
_chemical_formula_sum   'Tb4 Dy8 Y8 Co4 Sb8'
_cell_volume   844.55396973
_cell_formula_units_Z   4
loop_
 _symmetry_equiv_pos_site_id
 _symmetry_equiv_pos_as_xyz
  1  'x, y, z'
loop_
 _atom_site_type_symbol
 _atom_site_label
 _atom_site_symmetry_multiplicity
 _atom_site_fract_x
 _atom_site_fract_y
 _atom_site_fract_z
 _atom_site_occupancy
  Tb  Tb0  1  0.622582  0.750000  0.305541  1
  Tb  Tb1  1  0.122582  0.250000  0.194459  1
  Tb  Tb2  1  0.377418  0.250000  0.694459  1
  Tb  Tb3  1  0.877418  0.750000  0.805541  1
  Dy  Dy4  1  0.821939  0.965219  0.064959  1
  Dy  Dy5  1  0.321939  0.034781  0.435041  1
  Dy  Dy6  1  0.178061  0.465219  0.935041  1
  Dy  Dy7  1  0.678061  0.534781  0.564959  1
  Dy  Dy8  1  0.178061  0.034781  0.935041  1
  Dy  Dy9  1  0.678061  0.965219  0.564959  1
  Dy  Dy10  1  0.821939  0.534781  0.064959  1
  Dy  Dy11  1  0.321939  0.465219  0.435041  1
  Y  Y12  1  0.155325  0.750000  0.203812  1
  Y  Y13  1  0.655325  0.250000  0.296188  1
  Y  Y14  1  0.844675  0.250000  0.796188  1
  Y  Y15  1  0.344675  0.750000  0.703812  1
  Y  Y16  1  0.455937  0.750000  0.998284  1
  Y  Y17  1  0.955937  0.250000  0.501716  1
  Y  Y18  1  0.544063  0.250000  0.001716  1
  Y  Y19  1  0.044063  0.750000  0.498284  1
  Co  Co20  1  0.435891  0.750000  0.489574  1
  Co  Co21  1  0.935891  0.250000  0.010426  1
  Co  Co22  1  0.564109  0.250000  0.510426  1
  Co  Co23  1  0.064109  0.750000  0.989574  1
  Sb  Sb24  1  0.928029  0.991555  0.327128  1
  Sb  Sb25  1  0.428029  0.008445  0.172872  1
  Sb  Sb26  1  0.071971  0.491555  0.672872  1
  Sb  Sb27  1  0.571971  0.508445  0.827128  1
  Sb  Sb28  1  0.071971  0.008445  0.672872  1
  Sb  Sb29  1  0.571971  0.991555  0.827128  1
  Sb  Sb30  1  0.928029  0.508445  0.327128  1
  Sb  Sb31  1  0.428029  0.491555  0.172872  1
