# generated using pymatgen
data_Tb4PdPt3O14
_symmetry_space_group_name_H-M   'P 1'
_cell_length_a   7.29077084
_cell_length_b   7.29077128
_cell_length_c   7.28637566
_cell_angle_alpha   59.98004679
_cell_angle_beta   59.98004746
_cell_angle_gamma   59.99999932
_symmetry_Int_Tables_number   1
_chemical_formula_structural   Tb4PdPt3O14
_chemical_formula_sum   'Tb4 Pd1 Pt3 O14'
_cell_volume   273.78675647
_cell_formula_units_Z   1
loop_
 _symmetry_equiv_pos_site_id
 _symmetry_equiv_pos_as_xyz
  1  'x, y, z'
loop_
 _atom_site_type_symbol
 _atom_site_label
 _atom_site_symmetry_multiplicity
 _atom_site_fract_x
 _atom_site_fract_y
 _atom_site_fract_z
 _atom_site_occupancy
  Tb  Tb0  1  0.625000  0.625000  0.125000  1
  Tb  Tb1  1  0.625000  0.625000  0.625000  1
  Tb  Tb2  1  0.625000  0.125000  0.625000  1
  Tb  Tb3  1  0.125000  0.625000  0.625000  1
  Pd  Pd4  1  0.125000  0.125000  0.625000  1
  Pt  Pt5  1  0.125000  0.125000  0.125000  1
  Pt  Pt6  1  0.625000  0.125000  0.125000  1
  Pt  Pt7  1  0.125000  0.625000  0.125000  1
  O  O8  1  0.034892  0.466118  0.464098  1
  O  O9  1  0.784639  0.784639  0.215282  1
  O  O10  1  0.784639  0.215439  0.215282  1
  O  O11  1  0.466118  0.034892  0.464098  1
  O  O12  1  0.034561  0.465361  0.034718  1
  O  O13  1  0.749963  0.749963  0.750112  1
  O  O14  1  0.034892  0.034892  0.464098  1
  O  O15  1  0.215439  0.784639  0.215282  1
  O  O16  1  0.215108  0.215108  0.785902  1
  O  O17  1  0.500037  0.500037  0.499888  1
  O  O18  1  0.783882  0.215108  0.785902  1
  O  O19  1  0.465361  0.034561  0.034718  1
  O  O20  1  0.465361  0.465361  0.034718  1
  O  O21  1  0.215108  0.783882  0.785902  1
