# generated using pymatgen
data_Zr6ZnSe2
_symmetry_space_group_name_H-M   'P 1'
_cell_length_a   3.68459500
_cell_length_b   12.90480200
_cell_length_c   15.77141200
_cell_angle_alpha   90.00000000
_cell_angle_beta   90.00000000
_cell_angle_gamma   90.00000000
_symmetry_Int_Tables_number   1
_chemical_formula_structural   Zr6ZnSe2
_chemical_formula_sum   'Zr24 Zn4 Se8'
_cell_volume   749.91437909
_cell_formula_units_Z   4
loop_
 _symmetry_equiv_pos_site_id
 _symmetry_equiv_pos_as_xyz
  1  'x, y, z'
loop_
 _atom_site_type_symbol
 _atom_site_label
 _atom_site_symmetry_multiplicity
 _atom_site_fract_x
 _atom_site_fract_y
 _atom_site_fract_z
 _atom_site_occupancy
  Zr  Zr0  1  0.000000  0.027273  0.106126  1
  Zr  Zr1  1  0.000000  0.972727  0.893874  1
  Zr  Zr2  1  0.500000  0.472727  0.606126  1
  Zr  Zr3  1  0.500000  0.527273  0.393874  1
  Zr  Zr4  1  0.000000  0.407319  0.246012  1
  Zr  Zr5  1  0.000000  0.592681  0.753988  1
  Zr  Zr6  1  0.500000  0.092681  0.746012  1
  Zr  Zr7  1  0.500000  0.907319  0.253988  1
  Zr  Zr8  1  0.000000  0.082907  0.575691  1
  Zr  Zr9  1  0.000000  0.917093  0.424309  1
  Zr  Zr10  1  0.500000  0.417093  0.075691  1
  Zr  Zr11  1  0.500000  0.582907  0.924309  1
  Zr  Zr12  1  0.000000  0.350734  0.478292  1
  Zr  Zr13  1  0.000000  0.649266  0.521708  1
  Zr  Zr14  1  0.500000  0.149266  0.978292  1
  Zr  Zr15  1  0.500000  0.850734  0.021708  1
  Zr  Zr16  1  0.000000  0.691258  0.294030  1
  Zr  Zr17  1  0.000000  0.308742  0.705970  1
  Zr  Zr18  1  0.500000  0.808742  0.794030  1
  Zr  Zr19  1  0.500000  0.191258  0.205970  1
  Zr  Zr20  1  0.000000  0.614953  0.079864  1
  Zr  Zr21  1  0.000000  0.385047  0.920136  1
  Zr  Zr22  1  0.500000  0.885047  0.579864  1
  Zr  Zr23  1  0.500000  0.114953  0.420136  1
  Zn  Zn24  1  0.000000  0.257848  0.084616  1
  Zn  Zn25  1  0.000000  0.742152  0.915384  1
  Zn  Zn26  1  0.500000  0.242152  0.584616  1
  Zn  Zn27  1  0.500000  0.757848  0.415384  1
  Se  Se28  1  0.000000  0.064720  0.288023  1
  Se  Se29  1  0.000000  0.935280  0.711977  1
  Se  Se30  1  0.500000  0.435280  0.788023  1
  Se  Se31  1  0.500000  0.564720  0.211977  1
  Se  Se32  1  0.000000  0.810677  0.149486  1
  Se  Se33  1  0.000000  0.189323  0.850514  1
  Se  Se34  1  0.500000  0.689323  0.649486  1
  Se  Se35  1  0.500000  0.310677  0.350514  1
