# generated using pymatgen
data_Dy4Tm12Cd4Co3Ni
_symmetry_space_group_name_H-M   'P 1'
_cell_length_a   9.42561851
_cell_length_b   9.40398936
_cell_length_c   9.40398900
_cell_angle_alpha   60.00000479
_cell_angle_beta   60.07588448
_cell_angle_gamma   60.07588704
_symmetry_Int_Tables_number   1
_chemical_formula_structural   Dy4Tm12Cd4Co3Ni
_chemical_formula_sum   'Dy4 Tm12 Cd4 Co3 Ni1'
_cell_volume   590.08735455
_cell_formula_units_Z   1
loop_
 _symmetry_equiv_pos_site_id
 _symmetry_equiv_pos_as_xyz
  1  'x, y, z'
loop_
 _atom_site_type_symbol
 _atom_site_label
 _atom_site_symmetry_multiplicity
 _atom_site_fract_x
 _atom_site_fract_y
 _atom_site_fract_z
 _atom_site_occupancy
  Dy  Dy0  1  0.344963  0.348950  0.348950  1
  Dy  Dy1  1  0.344963  0.348950  0.957138  1
  Dy  Dy2  1  0.344963  0.957138  0.348950  1
  Dy  Dy3  1  0.958893  0.347036  0.347036  1
  Tm  Tm4  1  0.816804  0.187130  0.187130  1
  Tm  Tm5  1  0.186749  0.813210  0.813210  1
  Tm  Tm6  1  0.186749  0.813210  0.186831  1
  Tm  Tm7  1  0.816804  0.187130  0.808936  1
  Tm  Tm8  1  0.186749  0.186831  0.813210  1
  Tm  Tm9  1  0.816804  0.808936  0.187130  1
  Tm  Tm10  1  0.935880  0.563522  0.563522  1
  Tm  Tm11  1  0.561989  0.936463  0.936463  1
  Tm  Tm12  1  0.561989  0.936463  0.565085  1
  Tm  Tm13  1  0.935880  0.563522  0.937075  1
  Tm  Tm14  1  0.561989  0.565085  0.936463  1
  Tm  Tm15  1  0.935880  0.937075  0.563522  1
  Cd  Cd16  1  0.581116  0.580971  0.580971  1
  Cd  Cd17  1  0.581116  0.580971  0.256943  1
  Cd  Cd18  1  0.581116  0.256943  0.580971  1
  Cd  Cd19  1  0.255742  0.581420  0.581420  1
  Co  Co20  1  0.141164  0.140629  0.140629  1
  Co  Co21  1  0.141164  0.140629  0.577578  1
  Co  Co22  1  0.141164  0.577578  0.140629  1
  Ni  Ni23  1  0.579370  0.140210  0.140210  1
