# generated using pymatgen
data_Tm2CrFeF14
_symmetry_space_group_name_H-M   'P 1'
_cell_length_a   5.50435860
_cell_length_b   5.80035913
_cell_length_c   8.10083909
_cell_angle_alpha   103.95879114
_cell_angle_beta   90.23440234
_cell_angle_gamma   90.13913982
_symmetry_Int_Tables_number   1
_chemical_formula_structural   Tm2CrFeF14
_chemical_formula_sum   'Tm2 Cr1 Fe1 F14'
_cell_volume   250.99621002
_cell_formula_units_Z   1
loop_
 _symmetry_equiv_pos_site_id
 _symmetry_equiv_pos_as_xyz
  1  'x, y, z'
loop_
 _atom_site_type_symbol
 _atom_site_label
 _atom_site_symmetry_multiplicity
 _atom_site_fract_x
 _atom_site_fract_y
 _atom_site_fract_z
 _atom_site_occupancy
  Tm  Tm0  1  0.697565  0.647024  0.694907  1
  Tm  Tm1  1  0.198096  0.349088  0.306339  1
  Cr  Cr2  1  0.207705  0.182491  0.775218  1
  Fe  Fe3  1  0.707611  0.815974  0.223793  1
  F  F4  1  0.903140  0.458685  0.487572  1
  F  F5  1  0.403225  0.544275  0.518028  1
  F  F6  1  0.423014  0.935156  0.768085  1
  F  F7  1  0.925068  0.067356  0.228676  1
  F  F8  1  0.944401  0.959374  0.755906  1
  F  F9  1  0.444829  0.045263  0.242848  1
  F  F10  1  0.998614  0.436255  0.794439  1
  F  F11  1  0.497720  0.556909  0.203402  1
  F  F12  1  0.702307  0.769543  0.992619  1
  F  F13  1  0.203391  0.231341  0.007784  1
  F  F14  1  0.715638  0.875852  0.452785  1
  F  F15  1  0.208615  0.128903  0.545602  1
  F  F16  1  0.482914  0.386814  0.791456  1
  F  F17  1  0.988868  0.609697  0.210542  1
