# generated using pymatgen
data_Sm5DyTl2F20
_symmetry_space_group_name_H-M   'P 1'
_cell_length_a   8.46980489
_cell_length_b   8.46980501
_cell_length_c   8.46330500
_cell_angle_alpha   60.02534811
_cell_angle_beta   60.02534763
_cell_angle_gamma   59.94931424
_symmetry_Int_Tables_number   1
_chemical_formula_structural   Sm5DyTl2F20
_chemical_formula_sum   'Sm5 Dy1 Tl2 F20'
_cell_volume   429.31032743
_cell_formula_units_Z   1
loop_
 _symmetry_equiv_pos_site_id
 _symmetry_equiv_pos_as_xyz
  1  'x, y, z'
loop_
 _atom_site_type_symbol
 _atom_site_label
 _atom_site_symmetry_multiplicity
 _atom_site_fract_x
 _atom_site_fract_y
 _atom_site_fract_z
 _atom_site_occupancy
  Sm  Sm0  1  0.240628  0.759691  0.240309  1
  Sm  Sm1  1  0.759691  0.240628  0.240309  1
  Sm  Sm2  1  0.240628  0.759692  0.759372  1
  Sm  Sm3  1  0.240668  0.240667  0.759332  1
  Sm  Sm4  1  0.759692  0.240628  0.759372  1
  Dy  Dy5  1  0.759358  0.759357  0.240641  1
  Tl  Tl6  1  0.750101  0.750101  0.749899  1
  Tl  Tl7  1  0.250102  0.250102  0.249901  1
  F  F8  1  0.829566  0.170542  0.499946  1
  F  F9  1  0.500049  0.170497  0.829503  1
  F  F10  1  0.827996  0.503986  0.172002  1
  F  F11  1  0.500050  0.170496  0.499952  1
  F  F12  1  0.827998  0.503984  0.496014  1
  F  F13  1  0.170497  0.500049  0.829503  1
  F  F14  1  0.503984  0.827998  0.496014  1
  F  F15  1  0.500054  0.500054  0.170435  1
  F  F16  1  0.889024  0.331774  0.889601  1
  F  F17  1  0.110399  0.110399  0.668226  1
  F  F18  1  0.669362  0.106773  0.111932  1
  F  F19  1  0.110399  0.110399  0.110977  1
  F  F20  1  0.331774  0.889024  0.889601  1
  F  F21  1  0.888068  0.888067  0.893227  1
  F  F22  1  0.888067  0.888067  0.330637  1
  F  F23  1  0.106772  0.669362  0.111933  1
  F  F24  1  0.170541  0.829565  0.499947  1
  F  F25  1  0.503985  0.827997  0.172002  1
  F  F26  1  0.170496  0.500050  0.499952  1
  F  F27  1  0.500053  0.500053  0.829459  1
