# generated using pymatgen
data_SmDy2Y(Si3Rh)2
_symmetry_space_group_name_H-M   'P 1'
_cell_length_a   8.18616508
_cell_length_b   8.19627170
_cell_length_c   7.98566300
_cell_angle_alpha   90.00000000
_cell_angle_beta   90.00000000
_cell_angle_gamma   120.04083988
_symmetry_Int_Tables_number   1
_chemical_formula_structural   SmDy2Y(Si3Rh)2
_chemical_formula_sum   'Sm2 Dy4 Y2 Si12 Rh4'
_cell_volume   463.83079900
_cell_formula_units_Z   2
loop_
 _symmetry_equiv_pos_site_id
 _symmetry_equiv_pos_as_xyz
  1  'x, y, z'
loop_
 _atom_site_type_symbol
 _atom_site_label
 _atom_site_symmetry_multiplicity
 _atom_site_fract_x
 _atom_site_fract_y
 _atom_site_fract_z
 _atom_site_occupancy
  Sm  Sm0  1  0.000018  0.000009  0.250000  1
  Sm  Sm1  1  0.999871  0.999936  0.750000  1
  Dy  Dy2  1  0.983369  0.491684  0.250000  1
  Dy  Dy3  1  0.491639  0.508455  0.750000  1
  Dy  Dy4  1  0.491639  0.983184  0.750000  1
  Dy  Dy5  1  0.016846  0.508423  0.750000  1
  Y  Y6  1  0.508709  0.491348  0.250000  1
  Y  Y7  1  0.508709  0.017361  0.250000  1
  Si  Si8  1  0.167367  0.832271  0.500933  1
  Si  Si9  1  0.167367  0.335097  0.500933  1
  Si  Si10  1  0.664948  0.832475  0.501269  1
  Si  Si11  1  0.832614  0.167683  0.499551  1
  Si  Si12  1  0.832614  0.664930  0.499551  1
  Si  Si13  1  0.335041  0.167520  0.499810  1
  Si  Si14  1  0.832614  0.167683  0.000449  1
  Si  Si15  1  0.832614  0.664930  0.000449  1
  Si  Si16  1  0.335041  0.167520  0.000190  1
  Si  Si17  1  0.167367  0.832271  0.999067  1
  Si  Si18  1  0.167367  0.335097  0.999067  1
  Si  Si19  1  0.664948  0.832475  0.998731  1
  Rh  Rh20  1  0.332618  0.666310  0.467076  1
  Rh  Rh21  1  0.667031  0.333515  0.534475  1
  Rh  Rh22  1  0.667031  0.333515  0.965525  1
  Rh  Rh23  1  0.332618  0.666310  0.032924  1
