# generated using pymatgen
data_Ta4Si4PdRu3
_symmetry_space_group_name_H-M   'P 1'
_cell_length_a   3.81904000
_cell_length_b   6.41121463
_cell_length_c   7.33662427
_cell_angle_alpha   90.77910073
_cell_angle_beta   90.00000000
_cell_angle_gamma   90.00000000
_symmetry_Int_Tables_number   1
_chemical_formula_structural   Ta4Si4PdRu3
_chemical_formula_sum   'Ta4 Si4 Pd1 Ru3'
_cell_volume   179.61832785
_cell_formula_units_Z   1
loop_
 _symmetry_equiv_pos_site_id
 _symmetry_equiv_pos_as_xyz
  1  'x, y, z'
loop_
 _atom_site_type_symbol
 _atom_site_label
 _atom_site_symmetry_multiplicity
 _atom_site_fract_x
 _atom_site_fract_y
 _atom_site_fract_z
 _atom_site_occupancy
  Ta  Ta0  1  0.750000  0.525237  0.819641  1
  Ta  Ta1  1  0.250000  0.969553  0.327811  1
  Ta  Ta2  1  0.750000  0.019855  0.672465  1
  Ta  Ta3  1  0.250000  0.481128  0.180759  1
  Si  Si4  1  0.250000  0.231510  0.869838  1
  Si  Si5  1  0.250000  0.725889  0.625918  1
  Si  Si6  1  0.750000  0.765590  0.121251  1
  Si  Si7  1  0.750000  0.270256  0.381450  1
  Pd  Pd8  1  0.750000  0.152405  0.065505  1
  Ru  Ru9  1  0.250000  0.856372  0.938660  1
  Ru  Ru10  1  0.250000  0.351563  0.560197  1
  Ru  Ru11  1  0.750000  0.650641  0.436502  1
