# generated using pymatgen
data_Ba2TmAlO5
_symmetry_space_group_name_H-M   'P 1'
_cell_length_a   6.00175900
_cell_length_b   6.00175809
_cell_length_c   20.18242400
_cell_angle_alpha   90.00000000
_cell_angle_beta   90.00000000
_cell_angle_gamma   119.99999950
_symmetry_Int_Tables_number   1
_chemical_formula_structural   Ba2TmAlO5
_chemical_formula_sum   'Ba8 Tm4 Al4 O20'
_cell_volume   629.59460604
_cell_formula_units_Z   4
loop_
 _symmetry_equiv_pos_site_id
 _symmetry_equiv_pos_as_xyz
  1  'x, y, z'
loop_
 _atom_site_type_symbol
 _atom_site_label
 _atom_site_symmetry_multiplicity
 _atom_site_fract_x
 _atom_site_fract_y
 _atom_site_fract_z
 _atom_site_occupancy
  Ba  Ba0  1  0.666667  0.333333  0.893867  1
  Ba  Ba1  1  0.333333  0.666667  0.106133  1
  Ba  Ba2  1  0.333333  0.666667  0.393867  1
  Ba  Ba3  1  0.000000  0.000000  0.000000  1
  Ba  Ba4  1  0.000000  0.000000  0.500000  1
  Ba  Ba5  1  0.666667  0.333333  0.250000  1
  Ba  Ba6  1  0.666667  0.333333  0.606133  1
  Ba  Ba7  1  0.333333  0.666667  0.750000  1
  Tm  Tm8  1  0.333333  0.666667  0.567004  1
  Tm  Tm9  1  0.666667  0.333333  0.067004  1
  Tm  Tm10  1  0.333333  0.666667  0.932996  1
  Tm  Tm11  1  0.666667  0.333333  0.432996  1
  Al  Al12  1  0.000000  0.000000  0.835723  1
  Al  Al13  1  0.000000  0.000000  0.164277  1
  Al  Al14  1  0.000000  0.000000  0.664277  1
  Al  Al15  1  0.000000  0.000000  0.335723  1
  O  O16  1  0.678060  0.839031  0.634515  1
  O  O17  1  0.000000  0.500000  0.500000  1
  O  O18  1  0.000000  0.000000  0.250000  1
  O  O19  1  0.839031  0.678060  0.365485  1
  O  O20  1  0.839031  0.160969  0.134515  1
  O  O21  1  0.160969  0.321940  0.634515  1
  O  O22  1  0.678060  0.839031  0.865485  1
  O  O23  1  0.321940  0.160969  0.134515  1
  O  O24  1  0.000000  0.000000  0.750000  1
  O  O25  1  0.839031  0.160969  0.365485  1
  O  O26  1  0.160969  0.321940  0.865485  1
  O  O27  1  0.500000  0.000000  0.000000  1
  O  O28  1  0.321940  0.160969  0.365485  1
  O  O29  1  0.500000  0.000000  0.500000  1
  O  O30  1  0.839031  0.678060  0.134515  1
  O  O31  1  0.160969  0.839031  0.634515  1
  O  O32  1  0.500000  0.500000  0.000000  1
  O  O33  1  0.000000  0.500000  0.000000  1
  O  O34  1  0.500000  0.500000  0.500000  1
  O  O35  1  0.160969  0.839031  0.865485  1
