# generated using pymatgen
data_Y5HoTcBi2
_symmetry_space_group_name_H-M   'P 1'
_cell_length_a   8.31054710
_cell_length_b   8.30314518
_cell_length_c   4.30257500
_cell_angle_alpha   90.00000000
_cell_angle_beta   90.00000000
_cell_angle_gamma   119.97053575
_symmetry_Int_Tables_number   1
_chemical_formula_structural   Y5HoTcBi2
_chemical_formula_sum   'Y5 Ho1 Tc1 Bi2'
_cell_volume   257.19362167
_cell_formula_units_Z   1
loop_
 _symmetry_equiv_pos_site_id
 _symmetry_equiv_pos_as_xyz
  1  'x, y, z'
loop_
 _atom_site_type_symbol
 _atom_site_label
 _atom_site_symmetry_multiplicity
 _atom_site_fract_x
 _atom_site_fract_y
 _atom_site_fract_z
 _atom_site_occupancy
  Y  Y0  1  0.233084  0.000070  0.000000  1
  Y  Y1  1  0.000000  0.605057  0.500000  1
  Y  Y2  1  0.392632  0.393561  0.500000  1
  Y  Y3  1  0.766916  0.766986  0.000000  1
  Y  Y4  1  0.607368  0.000929  0.500000  1
  Ho  Ho5  1  0.000000  0.231130  0.000000  1
  Tc  Tc6  1  0.000000  0.002564  0.500000  1
  Bi  Bi7  1  0.333107  0.666406  0.000000  1
  Bi  Bi8  1  0.666893  0.333298  0.000000  1
