# generated using pymatgen
data_Ho2NpMn3
_symmetry_space_group_name_H-M   'P 1'
_cell_length_a   5.64023700
_cell_length_b   5.64023473
_cell_length_c   7.73542500
_cell_angle_alpha   90.00000000
_cell_angle_beta   90.00000000
_cell_angle_gamma   119.98957634
_symmetry_Int_Tables_number   1
_chemical_formula_structural   Ho2NpMn3
_chemical_formula_sum   'Ho4 Np2 Mn6'
_cell_volume   213.13508697
_cell_formula_units_Z   2
loop_
 _symmetry_equiv_pos_site_id
 _symmetry_equiv_pos_as_xyz
  1  'x, y, z'
loop_
 _atom_site_type_symbol
 _atom_site_label
 _atom_site_symmetry_multiplicity
 _atom_site_fract_x
 _atom_site_fract_y
 _atom_site_fract_z
 _atom_site_occupancy
  Ho  Ho0  1  0.666718  0.333282  0.551986  1
  Ho  Ho1  1  0.333282  0.666718  0.448014  1
  Ho  Ho2  1  0.333282  0.666718  0.051986  1
  Ho  Ho3  1  0.666718  0.333282  0.948014  1
  Np  Np4  1  0.000000  0.000000  0.500000  1
  Np  Np5  1  0.000000  0.000000  0.000000  1
  Mn  Mn6  1  0.155302  0.310619  0.750000  1
  Mn  Mn7  1  0.155336  0.844664  0.750000  1
  Mn  Mn8  1  0.689381  0.844698  0.750000  1
  Mn  Mn9  1  0.844698  0.689381  0.250000  1
  Mn  Mn10  1  0.844664  0.155336  0.250000  1
  Mn  Mn11  1  0.310619  0.155302  0.250000  1
