# generated using pymatgen
data_LiDy15ThNi4Hg3
_symmetry_space_group_name_H-M   'P 1'
_cell_length_a   9.49238728
_cell_length_b   9.52580479
_cell_length_c   9.52580467
_cell_angle_alpha   60.05394946
_cell_angle_beta   60.19196474
_cell_angle_gamma   60.19195400
_symmetry_Int_Tables_number   1
_chemical_formula_structural   LiDy15ThNi4Hg3
_chemical_formula_sum   'Li1 Dy15 Th1 Ni4 Hg3'
_cell_volume   611.07651799
_cell_formula_units_Z   1
loop_
 _symmetry_equiv_pos_site_id
 _symmetry_equiv_pos_as_xyz
  1  'x, y, z'
loop_
 _atom_site_type_symbol
 _atom_site_label
 _atom_site_symmetry_multiplicity
 _atom_site_fract_x
 _atom_site_fract_y
 _atom_site_fract_z
 _atom_site_occupancy
  Li  Li0  1  0.549714  0.814291  0.814291  1
  Dy  Dy1  1  0.601035  0.598327  0.198374  1
  Dy  Dy2  1  0.601035  0.198374  0.598327  1
  Dy  Dy3  1  0.191092  0.602890  0.602890  1
  Dy  Dy4  1  0.058272  0.441857  0.441857  1
  Dy  Dy5  1  0.437983  0.064619  0.064619  1
  Dy  Dy6  1  0.435365  0.065048  0.439424  1
  Dy  Dy7  1  0.059691  0.442375  0.061437  1
  Dy  Dy8  1  0.435365  0.439424  0.065048  1
  Dy  Dy9  1  0.059691  0.061437  0.442375  1
  Dy  Dy10  1  0.187428  0.816000  0.816000  1
  Dy  Dy11  1  0.812204  0.186912  0.186912  1
  Dy  Dy12  1  0.812917  0.188014  0.814898  1
  Dy  Dy13  1  0.187012  0.814128  0.187406  1
  Dy  Dy14  1  0.812917  0.814898  0.188014  1
  Dy  Dy15  1  0.187012  0.187406  0.814128  1
  Th  Th16  1  0.591779  0.593942  0.593942  1
  Ni  Ni17  1  0.389685  0.395936  0.395936  1
  Ni  Ni18  1  0.390182  0.390948  0.821308  1
  Ni  Ni19  1  0.390182  0.821308  0.390948  1
  Ni  Ni20  1  0.820452  0.392264  0.392264  1
  Hg  Hg21  1  0.826887  0.837844  0.837844  1
  Hg  Hg22  1  0.831048  0.838386  0.493370  1
  Hg  Hg23  1  0.831048  0.493370  0.838386  1
