# generated using pymatgen
data_Tb2PrNd(CCl)2
_symmetry_space_group_name_H-M   'P 1'
_cell_length_a   3.71970501
_cell_length_b   3.71970560
_cell_length_c   14.17445500
_cell_angle_alpha   90.00610682
_cell_angle_beta   89.99653686
_cell_angle_gamma   120.00070948
_symmetry_Int_Tables_number   1
_chemical_formula_structural   Tb2PrNd(CCl)2
_chemical_formula_sum   'Tb2 Pr1 Nd1 C2 Cl2'
_cell_volume   169.84429415
_cell_formula_units_Z   1
loop_
 _symmetry_equiv_pos_site_id
 _symmetry_equiv_pos_as_xyz
  1  'x, y, z'
loop_
 _atom_site_type_symbol
 _atom_site_label
 _atom_site_symmetry_multiplicity
 _atom_site_fract_x
 _atom_site_fract_y
 _atom_site_fract_z
 _atom_site_occupancy
  Tb  Tb0  1  0.666696  0.333229  0.906043  1
  Tb  Tb1  1  0.333301  0.666822  0.404840  1
  Pr  Pr2  1  0.666634  0.333517  0.595410  1
  Nd  Nd3  1  0.333362  0.666524  0.095026  1
  C  C4  1  0.000045  0.999819  0.993486  1
  C  C5  1  0.999974  0.000085  0.490647  1
  Cl  Cl6  1  0.333333  0.666646  0.758785  1
  Cl  Cl7  1  0.666656  0.333358  0.255762  1
