# generated using pymatgen
data_Tm10In8IrRu3
_symmetry_space_group_name_H-M   'P 1'
_cell_length_a   3.56636400
_cell_length_b   7.94530368
_cell_length_c   18.20208642
_cell_angle_alpha   89.97543893
_cell_angle_beta   90.00000000
_cell_angle_gamma   90.00000000
_symmetry_Int_Tables_number   1
_chemical_formula_structural   Tm10In8IrRu3
_chemical_formula_sum   'Tm10 In8 Ir1 Ru3'
_cell_volume   515.77145270
_cell_formula_units_Z   1
loop_
 _symmetry_equiv_pos_site_id
 _symmetry_equiv_pos_as_xyz
  1  'x, y, z'
loop_
 _atom_site_type_symbol
 _atom_site_label
 _atom_site_symmetry_multiplicity
 _atom_site_fract_x
 _atom_site_fract_y
 _atom_site_fract_z
 _atom_site_occupancy
  Tm  Tm0  1  0.000000  0.115849  0.412356  1
  Tm  Tm1  1  0.000000  0.883975  0.589393  1
  Tm  Tm2  1  0.000000  0.382573  0.910696  1
  Tm  Tm3  1  0.000000  0.616284  0.087709  1
  Tm  Tm4  1  0.000000  0.243950  0.221881  1
  Tm  Tm5  1  0.000000  0.754259  0.779191  1
  Tm  Tm6  1  0.000000  0.254386  0.721702  1
  Tm  Tm7  1  0.000000  0.749462  0.277802  1
  Tm  Tm8  1  0.000000  0.999362  0.999932  1
  Tm  Tm9  1  0.000000  0.500795  0.499571  1
  In  In10  1  0.500000  0.427441  0.351256  1
  In  In11  1  0.500000  0.569371  0.649532  1
  In  In12  1  0.500000  0.068390  0.850511  1
  In  In13  1  0.500000  0.932352  0.148871  1
  In  In14  1  0.500000  0.292096  0.065914  1
  In  In15  1  0.500000  0.705083  0.932422  1
  In  In16  1  0.500000  0.207055  0.568447  1
  In  In17  1  0.500000  0.792761  0.431752  1
  Ir  Ir18  1  0.500000  0.522510  0.196558  1
  Ru  Ru19  1  0.500000  0.023516  0.304119  1
  Ru  Ru20  1  0.500000  0.978925  0.697110  1
  Ru  Ru21  1  0.500000  0.479608  0.803276  1
