# generated using pymatgen
data_La2Nd2Zn10SiSn
_symmetry_space_group_name_H-M   'P 1'
_cell_length_a   8.51546627
_cell_length_b   8.51546503
_cell_length_c   8.97307200
_cell_angle_alpha   90.00000000
_cell_angle_beta   90.00000000
_cell_angle_gamma   149.45638578
_symmetry_Int_Tables_number   1
_chemical_formula_structural   La2Nd2Zn10SiSn
_chemical_formula_sum   'La2 Nd2 Zn10 Si1 Sn1'
_cell_volume   330.66450048
_cell_formula_units_Z   1
loop_
 _symmetry_equiv_pos_site_id
 _symmetry_equiv_pos_as_xyz
  1  'x, y, z'
loop_
 _atom_site_type_symbol
 _atom_site_label
 _atom_site_symmetry_multiplicity
 _atom_site_fract_x
 _atom_site_fract_y
 _atom_site_fract_z
 _atom_site_occupancy
  La  La0  1  0.000488  0.999512  0.486984  1
  La  La1  1  0.000488  0.999512  0.013016  1
  Nd  Nd2  1  0.203657  0.796343  0.250000  1
  Nd  Nd3  1  0.794127  0.205873  0.750000  1
  Zn  Zn4  1  0.812687  0.187313  0.391022  1
  Zn  Zn5  1  0.186088  0.813912  0.607189  1
  Zn  Zn6  1  0.812687  0.187313  0.108978  1
  Zn  Zn7  1  0.186088  0.813912  0.892811  1
  Zn  Zn8  1  0.650657  0.349343  0.474728  1
  Zn  Zn9  1  0.344009  0.655991  0.514206  1
  Zn  Zn10  1  0.650657  0.349343  0.025272  1
  Zn  Zn11  1  0.344009  0.655991  0.985794  1
  Zn  Zn12  1  0.405317  0.594683  0.250000  1
  Zn  Zn13  1  0.605302  0.394698  0.750000  1
  Si  Si14  1  0.559663  0.440337  0.250000  1
  Sn  Sn15  1  0.444069  0.555931  0.750000  1
