# generated using pymatgen
data_Zr4NiPt
_symmetry_space_group_name_H-M   'P 1'
_cell_length_a   5.39984180
_cell_length_b   5.39984202
_cell_length_c   5.39984104
_cell_angle_alpha   104.04942440
_cell_angle_beta   104.04943224
_cell_angle_gamma   120.96287345
_symmetry_Int_Tables_number   1
_chemical_formula_structural   Zr4NiPt
_chemical_formula_sum   'Zr4 Ni1 Pt1'
_cell_volume   117.48831809
_cell_formula_units_Z   1
loop_
 _symmetry_equiv_pos_site_id
 _symmetry_equiv_pos_as_xyz
  1  'x, y, z'
loop_
 _atom_site_type_symbol
 _atom_site_label
 _atom_site_symmetry_multiplicity
 _atom_site_fract_x
 _atom_site_fract_y
 _atom_site_fract_z
 _atom_site_occupancy
  Zr  Zr0  1  0.910454  0.410454  0.820909  1
  Zr  Zr1  1  0.589546  0.089546  0.179091  1
  Zr  Zr2  1  0.089546  0.910454  0.500000  1
  Zr  Zr3  1  0.410454  0.589546  0.500000  1
  Ni  Ni4  1  0.500000  0.500000  0.000000  1
  Pt  Pt5  1  0.000000  0.000000  0.000000  1
