# generated using pymatgen
data_Mn3Nb12Zn(Ga2N)4
_symmetry_space_group_name_H-M   'P 1'
_cell_length_a   8.24375523
_cell_length_b   8.27796820
_cell_length_c   8.27797000
_cell_angle_alpha   60.00000080
_cell_angle_beta   59.86261912
_cell_angle_gamma   59.86262243
_symmetry_Int_Tables_number   1
_chemical_formula_structural   Mn3Nb12Zn(Ga2N)4
_chemical_formula_sum   'Mn3 Nb12 Zn1 Ga8 N4'
_cell_volume   398.61419525
_cell_formula_units_Z   1
loop_
 _symmetry_equiv_pos_site_id
 _symmetry_equiv_pos_as_xyz
  1  'x, y, z'
loop_
 _atom_site_type_symbol
 _atom_site_label
 _atom_site_symmetry_multiplicity
 _atom_site_fract_x
 _atom_site_fract_y
 _atom_site_fract_z
 _atom_site_occupancy
  Mn  Mn0  1  0.625000  0.625000  0.125000  1
  Mn  Mn1  1  0.625000  0.125000  0.625000  1
  Mn  Mn2  1  0.625000  0.625000  0.625000  1
  Nb  Nb3  1  0.442267  0.443556  0.057089  1
  Nb  Nb4  1  0.056933  0.443678  0.055710  1
  Nb  Nb5  1  0.442267  0.057089  0.057089  1
  Nb  Nb6  1  0.056933  0.055710  0.443678  1
  Nb  Nb7  1  0.442267  0.057089  0.443556  1
  Nb  Nb8  1  0.056933  0.443678  0.443678  1
  Nb  Nb9  1  0.807733  0.806444  0.192911  1
  Nb  Nb10  1  0.193067  0.806322  0.194290  1
  Nb  Nb11  1  0.807733  0.192911  0.192911  1
  Nb  Nb12  1  0.193067  0.194290  0.806322  1
  Nb  Nb13  1  0.807733  0.192911  0.806444  1
  Nb  Nb14  1  0.193067  0.806322  0.806322  1
  Zn  Zn15  1  0.125000  0.625000  0.625000  1
  Ga  Ga16  1  0.832246  0.838315  0.491126  1
  Ga  Ga17  1  0.832246  0.491126  0.838315  1
  Ga  Ga18  1  0.491124  0.836292  0.836292  1
  Ga  Ga19  1  0.832246  0.838315  0.838315  1
  Ga  Ga20  1  0.417754  0.411685  0.758874  1
  Ga  Ga21  1  0.417754  0.758874  0.411685  1
  Ga  Ga22  1  0.758876  0.413708  0.413708  1
  Ga  Ga23  1  0.417754  0.411685  0.411685  1
  N  N24  1  0.125000  0.125000  0.625000  1
  N  N25  1  0.125000  0.625000  0.125000  1
  N  N26  1  0.625000  0.125000  0.125000  1
  N  N27  1  0.125000  0.125000  0.125000  1
