# generated using pymatgen
data_Hf3Co8Re(SiP)3
_symmetry_space_group_name_H-M   'P 1'
_cell_length_a   12.01166699
_cell_length_b   12.00677371
_cell_length_c   3.65400700
_cell_angle_alpha   90.00000000
_cell_angle_beta   90.00000000
_cell_angle_gamma   119.98653340
_symmetry_Int_Tables_number   1
_chemical_formula_structural   Hf3Co8Re(SiP)3
_chemical_formula_sum   'Hf6 Co16 Re2 Si6 P6'
_cell_volume   456.44508279
_cell_formula_units_Z   2
loop_
 _symmetry_equiv_pos_site_id
 _symmetry_equiv_pos_as_xyz
  1  'x, y, z'
loop_
 _atom_site_type_symbol
 _atom_site_label
 _atom_site_symmetry_multiplicity
 _atom_site_fract_x
 _atom_site_fract_y
 _atom_site_fract_z
 _atom_site_occupancy
  Hf  Hf0  1  0.817724  0.816490  0.500000  1
  Hf  Hf1  1  0.000000  0.178462  0.500000  1
  Hf  Hf2  1  0.335816  0.667218  0.000000  1
  Hf  Hf3  1  0.664184  0.331401  0.000000  1
  Hf  Hf4  1  0.000000  0.556191  0.000000  1
  Hf  Hf5  1  0.182276  0.998767  0.500000  1
  Co  Co6  1  0.628972  0.823673  0.000000  1
  Co  Co7  1  0.371028  0.194702  0.000000  1
  Co  Co8  1  0.000000  0.724874  0.500000  1
  Co  Co9  1  0.276739  0.274321  0.500000  1
  Co  Co10  1  0.873848  0.349588  0.500000  1
  Co  Co11  1  0.723261  0.997582  0.500000  1
  Co  Co12  1  0.818367  0.631127  0.000000  1
  Co  Co13  1  0.181633  0.812759  0.000000  1
  Co  Co14  1  0.357353  0.882999  0.500000  1
  Co  Co15  1  0.126152  0.475740  0.500000  1
  Co  Co16  1  0.642647  0.525646  0.500000  1
  Co  Co17  1  0.000000  0.999347  0.000000  1
  Co  Co18  1  0.520319  0.648112  0.500000  1
  Co  Co19  1  0.479681  0.127792  0.500000  1
  Co  Co20  1  0.193386  0.364967  0.000000  1
  Co  Co21  1  0.806614  0.171581  0.000000  1
  Re  Re22  1  0.446659  0.448932  0.000000  1
  Re  Re23  1  0.553341  0.002273  0.000000  1
  Si  Si24  1  0.823127  0.514782  0.500000  1
  Si  Si25  1  0.684407  0.164906  0.500000  1
  Si  Si26  1  0.516947  0.835643  0.500000  1
  Si  Si27  1  0.176873  0.691653  0.500000  1
  Si  Si28  1  0.483053  0.318699  0.500000  1
  Si  Si29  1  0.315593  0.480500  0.500000  1
  P  P30  1  0.000000  0.346010  0.000000  1
  P  P31  1  0.175528  0.172604  0.000000  1
  P  P32  1  0.640074  0.644715  0.000000  1
  P  P33  1  0.824472  0.997076  0.000000  1
  P  P34  1  0.359926  0.004641  0.000000  1
  P  P35  1  0.000000  0.824228  0.000000  1
