# generated using pymatgen
data_Ba3Si2GeRh6
_symmetry_space_group_name_H-M   'P 1'
_cell_length_a   5.94176500
_cell_length_b   5.94176301
_cell_length_c   15.54811300
_cell_angle_alpha   90.00000000
_cell_angle_beta   90.00000000
_cell_angle_gamma   119.99999438
_symmetry_Int_Tables_number   1
_chemical_formula_structural   Ba3Si2GeRh6
_chemical_formula_sum   'Ba6 Si4 Ge2 Rh12'
_cell_volume   475.37806824
_cell_formula_units_Z   2
loop_
 _symmetry_equiv_pos_site_id
 _symmetry_equiv_pos_as_xyz
  1  'x, y, z'
loop_
 _atom_site_type_symbol
 _atom_site_label
 _atom_site_symmetry_multiplicity
 _atom_site_fract_x
 _atom_site_fract_y
 _atom_site_fract_z
 _atom_site_occupancy
  Ba  Ba0  1  0.666667  0.333333  0.963073  1
  Ba  Ba1  1  0.666667  0.333333  0.536927  1
  Ba  Ba2  1  0.333333  0.666667  0.036927  1
  Ba  Ba3  1  0.666667  0.333333  0.750000  1
  Ba  Ba4  1  0.333333  0.666667  0.463073  1
  Ba  Ba5  1  0.333333  0.666667  0.250000  1
  Si  Si6  1  0.666667  0.333333  0.250000  1
  Si  Si7  1  0.000000  0.000000  0.250000  1
  Si  Si8  1  0.000000  0.000000  0.750000  1
  Si  Si9  1  0.333333  0.666667  0.750000  1
  Ge  Ge10  1  0.000000  0.000000  0.500000  1
  Ge  Ge11  1  0.000000  0.000000  0.000000  1
  Rh  Rh12  1  0.162663  0.325326  0.857337  1
  Rh  Rh13  1  0.162663  0.325326  0.642663  1
  Rh  Rh14  1  0.674674  0.837337  0.857337  1
  Rh  Rh15  1  0.325326  0.162663  0.357337  1
  Rh  Rh16  1  0.837337  0.674674  0.357337  1
  Rh  Rh17  1  0.837337  0.162663  0.357337  1
  Rh  Rh18  1  0.837337  0.162663  0.142663  1
  Rh  Rh19  1  0.325326  0.162663  0.142663  1
  Rh  Rh20  1  0.674674  0.837337  0.642663  1
  Rh  Rh21  1  0.162663  0.837337  0.642663  1
  Rh  Rh22  1  0.837337  0.674674  0.142663  1
  Rh  Rh23  1  0.162663  0.837337  0.857337  1
