# generated using pymatgen
data_Lu10Cd3Pd
_symmetry_space_group_name_H-M   'P 1'
_cell_length_a   9.51300700
_cell_length_b   9.51300699
_cell_length_c   9.56720900
_cell_angle_alpha   90.00000000
_cell_angle_beta   90.00000000
_cell_angle_gamma   119.99999657
_symmetry_Int_Tables_number   1
_chemical_formula_structural   Lu10Cd3Pd
_chemical_formula_sum   'Lu20 Cd6 Pd2'
_cell_volume   749.81053847
_cell_formula_units_Z   2
loop_
 _symmetry_equiv_pos_site_id
 _symmetry_equiv_pos_as_xyz
  1  'x, y, z'
loop_
 _atom_site_type_symbol
 _atom_site_label
 _atom_site_symmetry_multiplicity
 _atom_site_fract_x
 _atom_site_fract_y
 _atom_site_fract_z
 _atom_site_occupancy
  Lu  Lu0  1  0.207417  0.792583  0.941234  1
  Lu  Lu1  1  0.207417  0.414835  0.941234  1
  Lu  Lu2  1  0.585165  0.792583  0.941234  1
  Lu  Lu3  1  0.792583  0.207417  0.058766  1
  Lu  Lu4  1  0.792583  0.585165  0.058766  1
  Lu  Lu5  1  0.414835  0.207417  0.058766  1
  Lu  Lu6  1  0.792583  0.207417  0.441234  1
  Lu  Lu7  1  0.792583  0.585165  0.441234  1
  Lu  Lu8  1  0.414835  0.207417  0.441234  1
  Lu  Lu9  1  0.207417  0.792583  0.558766  1
  Lu  Lu10  1  0.207417  0.414835  0.558766  1
  Lu  Lu11  1  0.585165  0.792583  0.558766  1
  Lu  Lu12  1  0.542996  0.457004  0.750000  1
  Lu  Lu13  1  0.542996  0.085992  0.750000  1
  Lu  Lu14  1  0.914008  0.457004  0.750000  1
  Lu  Lu15  1  0.457004  0.542996  0.250000  1
  Lu  Lu16  1  0.457004  0.914008  0.250000  1
  Lu  Lu17  1  0.085992  0.542996  0.250000  1
  Lu  Lu18  1  0.000000  0.000000  0.000000  1
  Lu  Lu19  1  0.000000  0.000000  0.500000  1
  Cd  Cd20  1  0.884553  0.115447  0.750000  1
  Cd  Cd21  1  0.884553  0.769106  0.750000  1
  Cd  Cd22  1  0.230894  0.115447  0.750000  1
  Cd  Cd23  1  0.115447  0.884553  0.250000  1
  Cd  Cd24  1  0.115447  0.230894  0.250000  1
  Cd  Cd25  1  0.769106  0.884553  0.250000  1
  Pd  Pd26  1  0.333333  0.666667  0.750000  1
  Pd  Pd27  1  0.666667  0.333333  0.250000  1
