# generated using pymatgen
data_CaAc2Si(AsPd4)5
_symmetry_space_group_name_H-M   'P 1'
_cell_length_a   8.99909885
_cell_length_b   8.94888628
_cell_length_c   8.94888711
_cell_angle_alpha   60.37156607
_cell_angle_beta   59.81421123
_cell_angle_gamma   59.81421232
_symmetry_Int_Tables_number   1
_chemical_formula_structural   CaAc2Si(AsPd4)5
_chemical_formula_sum   'Ca1 Ac2 Si1 As5 Pd20'
_cell_volume   509.55903605
_cell_formula_units_Z   1
loop_
 _symmetry_equiv_pos_site_id
 _symmetry_equiv_pos_as_xyz
  1  'x, y, z'
loop_
 _atom_site_type_symbol
 _atom_site_label
 _atom_site_symmetry_multiplicity
 _atom_site_fract_x
 _atom_site_fract_y
 _atom_site_fract_z
 _atom_site_occupancy
  Ca  Ca0  1  0.999910  0.000090  0.000090  1
  Ac  Ac1  1  0.749795  0.750205  0.750205  1
  Ac  Ac2  1  0.249795  0.250205  0.250205  1
  Si  Si3  1  0.735564  0.264436  0.264436  1
  As  As4  1  0.737311  0.737775  0.262689  1
  As  As5  1  0.262225  0.262689  0.737775  1
  As  As6  1  0.737311  0.262689  0.737775  1
  As  As7  1  0.262225  0.737775  0.262689  1
  As  As8  1  0.262149  0.737851  0.737851  1
  Pd  Pd9  1  0.614631  0.613129  0.613129  1
  Pd  Pd10  1  0.393276  0.383049  0.383049  1
  Pd  Pd11  1  0.159110  0.613129  0.613129  1
  Pd  Pd12  1  0.616951  0.159373  0.606724  1
  Pd  Pd13  1  0.840627  0.383049  0.383049  1
  Pd  Pd14  1  0.386871  0.840890  0.385369  1
  Pd  Pd15  1  0.616951  0.606724  0.159373  1
  Pd  Pd16  1  0.386871  0.385369  0.840890  1
  Pd  Pd17  1  0.001096  0.998904  0.648553  1
  Pd  Pd18  1  0.991723  0.008277  0.346859  1
  Pd  Pd19  1  0.351447  0.648553  0.998904  1
  Pd  Pd20  1  0.653141  0.346859  0.008277  1
  Pd  Pd21  1  0.001096  0.648553  0.998904  1
  Pd  Pd22  1  0.653141  0.008277  0.346859  1
  Pd  Pd23  1  0.991723  0.346859  0.008277  1
  Pd  Pd24  1  0.351447  0.998904  0.648553  1
  Pd  Pd25  1  0.649595  0.001595  0.001595  1
  Pd  Pd26  1  0.347214  0.001595  0.001595  1
  Pd  Pd27  1  0.998405  0.652786  0.350405  1
  Pd  Pd28  1  0.998405  0.350405  0.652786  1
