# generated using pymatgen
data_Cs3KFe2(Cu4Se5)2
_symmetry_space_group_name_H-M   'P 1'
_cell_length_a   9.82577928
_cell_length_b   9.82370477
_cell_length_c   9.81380230
_cell_angle_alpha   126.03828427
_cell_angle_beta   125.89669314
_cell_angle_gamma   79.67808036
_symmetry_Int_Tables_number   1
_chemical_formula_structural   Cs3KFe2(Cu4Se5)2
_chemical_formula_sum   'Cs3 K1 Fe2 Cu8 Se10'
_cell_volume   600.31545410
_cell_formula_units_Z   1
loop_
 _symmetry_equiv_pos_site_id
 _symmetry_equiv_pos_as_xyz
  1  'x, y, z'
loop_
 _atom_site_type_symbol
 _atom_site_label
 _atom_site_symmetry_multiplicity
 _atom_site_fract_x
 _atom_site_fract_y
 _atom_site_fract_z
 _atom_site_occupancy
  Cs  Cs0  1  0.377076  0.806902  0.184196  1
  Cs  Cs1  1  0.800043  0.617481  0.426160  1
  Cs  Cs2  1  0.196801  0.381933  0.579934  1
  K  K3  1  0.636214  0.192406  0.825725  1
  Fe  Fe4  1  0.843868  0.944008  0.299556  1
  Fe  Fe5  1  0.241414  0.744441  0.496956  1
  Cu  Cu6  1  0.950753  0.646440  0.094690  1
  Cu  Cu7  1  0.350733  0.446399  0.294848  1
  Cu  Cu8  1  0.749530  0.255157  0.502557  1
  Cu  Cu9  1  0.151470  0.057514  0.704196  1
  Cu  Cu10  1  0.546269  0.847412  0.898988  1
  Cu  Cu11  1  0.648021  0.546760  0.693672  1
  Cu  Cu12  1  0.060185  0.357845  0.899674  1
  Cu  Cu13  1  0.452731  0.155367  0.107457  1
  Se  Se14  1  0.944898  0.552713  0.797749  1
  Se  Se15  1  0.359336  0.346415  0.998757  1
  Se  Se16  1  0.751639  0.136430  0.201009  1
  Se  Se17  1  0.140717  0.941651  0.396730  1
  Se  Se18  1  0.530971  0.751583  0.595108  1
  Se  Se19  1  0.655601  0.652904  0.004076  1
  Se  Se20  1  0.057105  0.453392  0.200483  1
  Se  Se21  1  0.453129  0.252309  0.402863  1
  Se  Se22  1  0.852022  0.058233  0.600046  1
  Se  Se23  1  0.249476  0.854308  0.794569  1
