# generated using pymatgen
data_CsHBr2
_symmetry_space_group_name_H-M   'P 1'
_cell_length_a   7.31706378
_cell_length_b   7.31706336
_cell_length_c   7.31706413
_cell_angle_alpha   114.57982463
_cell_angle_beta   114.57982786
_cell_angle_gamma   99.67613457
_symmetry_Int_Tables_number   1
_chemical_formula_structural   CsHBr2
_chemical_formula_sum   'Cs2 H2 Br4'
_cell_volume   295.12686268
_cell_formula_units_Z   2
loop_
 _symmetry_equiv_pos_site_id
 _symmetry_equiv_pos_as_xyz
  1  'x, y, z'
loop_
 _atom_site_type_symbol
 _atom_site_label
 _atom_site_symmetry_multiplicity
 _atom_site_fract_x
 _atom_site_fract_y
 _atom_site_fract_z
 _atom_site_occupancy
  Cs  Cs0  1  0.250000  0.250000  0.000000  1
  Cs  Cs1  1  0.750000  0.750000  0.000000  1
  H  H2  1  0.500000  0.000000  0.500000  1
  H  H3  1  0.000000  0.500000  0.500000  1
  Br  Br4  1  0.846344  0.346344  0.192688  1
  Br  Br5  1  0.346344  0.153657  0.500000  1
  Br  Br6  1  0.653657  0.846344  0.500000  1
  Br  Br7  1  0.153657  0.653657  0.807312  1
