# generated using pymatgen
data_Ho4Tm2P13Rh20
_symmetry_space_group_name_H-M   'P 1'
_cell_length_a   13.32373901
_cell_length_b   13.32358962
_cell_length_c   3.91153300
_cell_angle_alpha   90.00120966
_cell_angle_beta   90.00193437
_cell_angle_gamma   119.99623360
_symmetry_Int_Tables_number   1
_chemical_formula_structural   Ho4Tm2P13Rh20
_chemical_formula_sum   'Ho4 Tm2 P13 Rh20'
_cell_volume   601.36960787
_cell_formula_units_Z   1
loop_
 _symmetry_equiv_pos_site_id
 _symmetry_equiv_pos_as_xyz
  1  'x, y, z'
loop_
 _atom_site_type_symbol
 _atom_site_label
 _atom_site_symmetry_multiplicity
 _atom_site_fract_x
 _atom_site_fract_y
 _atom_site_fract_z
 _atom_site_occupancy
  Ho  Ho0  1  0.529202  0.717422  0.248615  1
  Ho  Ho1  1  0.282532  0.811747  0.248578  1
  Ho  Ho2  1  0.188305  0.470800  0.248606  1
  Ho  Ho3  1  0.470907  0.282586  0.751406  1
  Tm  Tm4  1  0.717445  0.188294  0.751402  1
  Tm  Tm5  1  0.811684  0.529143  0.751391  1
  P  P6  1  0.527057  0.139757  0.250351  1
  P  P7  1  0.860156  0.387089  0.250311  1
  P  P8  1  0.613190  0.473336  0.250318  1
  P  P9  1  0.944359  0.713868  0.254559  1
  P  P10  1  0.285758  0.230399  0.254533  1
  P  P11  1  0.769504  0.055633  0.254498  1
  P  P12  1  0.387088  0.526629  0.749762  1
  P  P13  1  0.473366  0.860417  0.749705  1
  P  P14  1  0.139543  0.612916  0.749738  1
  P  P15  1  0.714294  0.769704  0.745433  1
  P  P16  1  0.230380  0.944642  0.745530  1
  P  P17  1  0.055365  0.285698  0.745443  1
  P  P18  1  0.999963  0.000001  0.000002  1
  Rh  Rh19  1  0.333310  0.666665  0.752182  1
  Rh  Rh20  1  0.920270  0.250435  0.253250  1
  Rh  Rh21  1  0.749657  0.669899  0.253279  1
  Rh  Rh22  1  0.329812  0.079205  0.253246  1
  Rh  Rh23  1  0.438358  0.021934  0.751269  1
  Rh  Rh24  1  0.977896  0.416256  0.751299  1
  Rh  Rh25  1  0.583820  0.561789  0.751318  1
  Rh  Rh26  1  0.667119  0.333442  0.247754  1
  Rh  Rh27  1  0.094547  0.187468  0.247855  1
  Rh  Rh28  1  0.812503  0.907183  0.247894  1
  Rh  Rh29  1  0.092809  0.905305  0.247839  1
  Rh  Rh30  1  0.021545  0.583599  0.248634  1
  Rh  Rh31  1  0.416321  0.438215  0.248647  1
  Rh  Rh32  1  0.562114  0.978494  0.248675  1
  Rh  Rh33  1  0.670227  0.920897  0.746765  1
  Rh  Rh34  1  0.079096  0.749313  0.746765  1
  Rh  Rh35  1  0.250536  0.329773  0.746720  1
  Rh  Rh36  1  0.905487  0.812561  0.752156  1
  Rh  Rh37  1  0.187417  0.092927  0.752092  1
  Rh  Rh38  1  0.907056  0.094557  0.752182  1
