# generated using pymatgen
data_Ti2SiB2Ru4Rh
_symmetry_space_group_name_H-M   'P 1'
_cell_length_a   2.95795000
_cell_length_b   9.13874912
_cell_length_c   9.21710400
_cell_angle_alpha   89.80018371
_cell_angle_beta   90.00000000
_cell_angle_gamma   90.00000000
_symmetry_Int_Tables_number   1
_chemical_formula_structural   Ti2SiB2Ru4Rh
_chemical_formula_sum   'Ti4 Si2 B4 Ru8 Rh2'
_cell_volume   249.15489885
_cell_formula_units_Z   2
loop_
 _symmetry_equiv_pos_site_id
 _symmetry_equiv_pos_as_xyz
  1  'x, y, z'
loop_
 _atom_site_type_symbol
 _atom_site_label
 _atom_site_symmetry_multiplicity
 _atom_site_fract_x
 _atom_site_fract_y
 _atom_site_fract_z
 _atom_site_occupancy
  Ti  Ti0  1  0.000000  0.826473  0.681145  1
  Ti  Ti1  1  0.000000  0.173527  0.318855  1
  Ti  Ti2  1  0.000000  0.674626  0.170427  1
  Ti  Ti3  1  0.000000  0.325374  0.829573  1
  Si  Si4  1  0.000000  0.500000  0.500000  1
  Si  Si5  1  0.000000  0.000000  0.000000  1
  B  B6  1  0.000000  0.375470  0.126497  1
  B  B7  1  0.000000  0.624530  0.873503  1
  B  B8  1  0.000000  0.120517  0.627649  1
  B  B9  1  0.000000  0.879483  0.372351  1
  Ru  Ru10  1  0.500000  0.208783  0.071626  1
  Ru  Ru11  1  0.500000  0.791217  0.928374  1
  Ru  Ru12  1  0.500000  0.428944  0.291428  1
  Ru  Ru13  1  0.500000  0.571056  0.708572  1
  Ru  Ru14  1  0.500000  0.926483  0.209335  1
  Ru  Ru15  1  0.500000  0.073517  0.790665  1
  Ru  Ru16  1  0.500000  0.000000  0.500000  1
  Ru  Ru17  1  0.500000  0.500000  0.000000  1
  Rh  Rh18  1  0.500000  0.289335  0.571738  1
  Rh  Rh19  1  0.500000  0.710665  0.428262  1
