# generated using pymatgen
data_DyTh3(Fe2I)2
_symmetry_space_group_name_H-M   'P 1'
_cell_length_a   3.98751000
_cell_length_b   3.98751004
_cell_length_c   17.78796300
_cell_angle_alpha   90.00000000
_cell_angle_beta   90.00000000
_cell_angle_gamma   119.99999970
_symmetry_Int_Tables_number   1
_chemical_formula_structural   DyTh3(Fe2I)2
_chemical_formula_sum   'Dy1 Th3 Fe4 I2'
_cell_volume   244.94040118
_cell_formula_units_Z   1
loop_
 _symmetry_equiv_pos_site_id
 _symmetry_equiv_pos_as_xyz
  1  'x, y, z'
loop_
 _atom_site_type_symbol
 _atom_site_label
 _atom_site_symmetry_multiplicity
 _atom_site_fract_x
 _atom_site_fract_y
 _atom_site_fract_z
 _atom_site_occupancy
  Dy  Dy0  1  0.000000  0.000000  0.106051  1
  Th  Th1  1  0.000000  0.000000  0.603183  1
  Th  Th2  1  0.000000  0.000000  0.901423  1
  Th  Th3  1  0.000000  0.000000  0.394247  1
  Fe  Fe4  1  0.666667  0.333333  0.001684  1
  Fe  Fe5  1  0.333333  0.666667  0.502732  1
  Fe  Fe6  1  0.333333  0.666667  0.003406  1
  Fe  Fe7  1  0.666667  0.333333  0.494156  1
  I  I8  1  0.666667  0.333333  0.242560  1
  I  I9  1  0.333333  0.666667  0.750558  1
