# generated using pymatgen
data_SmDyRu2F14
_symmetry_space_group_name_H-M   'P 1'
_cell_length_a   5.58268400
_cell_length_b   8.98574504
_cell_length_c   12.07307979
_cell_angle_alpha   63.04509627
_cell_angle_beta   90.00000000
_cell_angle_gamma   90.00000000
_symmetry_Int_Tables_number   1
_chemical_formula_structural   SmDyRu2F14
_chemical_formula_sum   'Sm2 Dy2 Ru4 F28'
_cell_volume   539.84625283
_cell_formula_units_Z   2
loop_
 _symmetry_equiv_pos_site_id
 _symmetry_equiv_pos_as_xyz
  1  'x, y, z'
loop_
 _atom_site_type_symbol
 _atom_site_label
 _atom_site_symmetry_multiplicity
 _atom_site_fract_x
 _atom_site_fract_y
 _atom_site_fract_z
 _atom_site_occupancy
  Sm  Sm0  1  0.241105  0.191405  0.231727  1
  Sm  Sm1  1  0.741105  0.808595  0.268273  1
  Dy  Dy2  1  0.758496  0.812219  0.767521  1
  Dy  Dy3  1  0.258496  0.187781  0.732479  1
  Ru  Ru4  1  0.756058  0.274663  0.952766  1
  Ru  Ru5  1  0.256058  0.725337  0.547234  1
  Ru  Ru6  1  0.245627  0.729072  0.040233  1
  Ru  Ru7  1  0.745627  0.270928  0.459767  1
  F  F8  1  0.446176  0.707117  0.914593  1
  F  F9  1  0.946176  0.292883  0.585407  1
  F  F10  1  0.558205  0.294816  0.079950  1
  F  F11  1  0.058205  0.705184  0.420050  1
  F  F12  1  0.450213  0.279192  0.548290  1
  F  F13  1  0.950213  0.720808  0.951710  1
  F  F14  1  0.548676  0.716566  0.458577  1
  F  F15  1  0.048676  0.283434  0.041423  1
  F  F16  1  0.766576  0.512838  0.858362  1
  F  F17  1  0.266576  0.487162  0.641638  1
  F  F18  1  0.232392  0.491134  0.136154  1
  F  F19  1  0.732392  0.508866  0.363846  1
  F  F20  1  0.757158  0.037887  0.046440  1
  F  F21  1  0.257158  0.962113  0.453560  1
  F  F22  1  0.243859  0.966328  0.948751  1
  F  F23  1  0.743859  0.033672  0.551249  1
  F  F24  1  0.968536  0.731283  0.640409  1
  F  F25  1  0.468536  0.268717  0.859591  1
  F  F26  1  0.033300  0.270380  0.366148  1
  F  F27  1  0.533300  0.729620  0.133852  1
  F  F28  1  0.050921  0.747753  0.169870  1
  F  F29  1  0.550921  0.252247  0.330130  1
  F  F30  1  0.954516  0.251952  0.825669  1
  F  F31  1  0.454516  0.748048  0.674331  1
  F  F32  1  0.410735  0.968137  0.230619  1
  F  F33  1  0.910735  0.031863  0.269381  1
  F  F34  1  0.577450  0.026650  0.767364  1
  F  F35  1  0.077450  0.973350  0.732636  1
