# generated using pymatgen
data_Nb12Al9Ni3(CN)2
_symmetry_space_group_name_H-M   'P 1'
_cell_length_a   8.27708227
_cell_length_b   8.30047710
_cell_length_c   8.27708207
_cell_angle_alpha   59.97883960
_cell_angle_beta   59.91040444
_cell_angle_gamma   59.97884152
_symmetry_Int_Tables_number   1
_chemical_formula_structural   Nb12Al9Ni3(CN)2
_chemical_formula_sum   'Nb12 Al9 Ni3 C2 N2'
_cell_volume   401.70651458
_cell_formula_units_Z   1
loop_
 _symmetry_equiv_pos_site_id
 _symmetry_equiv_pos_as_xyz
  1  'x, y, z'
loop_
 _atom_site_type_symbol
 _atom_site_label
 _atom_site_symmetry_multiplicity
 _atom_site_fract_x
 _atom_site_fract_y
 _atom_site_fract_z
 _atom_site_occupancy
  Nb  Nb0  1  0.814522  0.817657  0.184858  1
  Nb  Nb1  1  0.196991  0.180723  0.810641  1
  Nb  Nb2  1  0.812302  0.180123  0.812302  1
  Nb  Nb3  1  0.184688  0.816479  0.184688  1
  Nb  Nb4  1  0.184858  0.817657  0.814522  1
  Nb  Nb5  1  0.810641  0.180723  0.196991  1
  Nb  Nb6  1  0.435478  0.432343  0.065142  1
  Nb  Nb7  1  0.053009  0.069277  0.439359  1
  Nb  Nb8  1  0.437698  0.069877  0.437698  1
  Nb  Nb9  1  0.065312  0.433521  0.065312  1
  Nb  Nb10  1  0.065142  0.432343  0.435478  1
  Nb  Nb11  1  0.439359  0.069277  0.053009  1
  Al  Al12  1  0.625000  0.125000  0.625000  1
  Al  Al13  1  0.748320  0.433042  0.409057  1
  Al  Al14  1  0.414426  0.755540  0.414426  1
  Al  Al15  1  0.409057  0.433042  0.748320  1
  Al  Al16  1  0.409053  0.433142  0.409053  1
  Al  Al17  1  0.501680  0.816958  0.840943  1
  Al  Al18  1  0.835574  0.494460  0.835574  1
  Al  Al19  1  0.840943  0.816958  0.501680  1
  Al  Al20  1  0.840947  0.816858  0.840947  1
  Ni  Ni21  1  0.125000  0.625000  0.625000  1
  Ni  Ni22  1  0.625000  0.625000  0.125000  1
  Ni  Ni23  1  0.625000  0.625000  0.625000  1
  C  C24  1  0.125000  0.625000  0.125000  1
  C  C25  1  0.125000  0.125000  0.125000  1
  N  N26  1  0.625000  0.125000  0.125000  1
  N  N27  1  0.125000  0.125000  0.625000  1
