# generated using pymatgen
data_Tb4Nd3LuAu4
_symmetry_space_group_name_H-M   'P 1'
_cell_length_a   5.00465800
_cell_length_b   7.29415194
_cell_length_c   9.06349500
_cell_angle_alpha   89.36572482
_cell_angle_beta   90.00000000
_cell_angle_gamma   90.00000000
_symmetry_Int_Tables_number   1
_chemical_formula_structural   Tb4Nd3LuAu4
_chemical_formula_sum   'Tb4 Nd3 Lu1 Au4'
_cell_volume   330.84021788
_cell_formula_units_Z   1
loop_
 _symmetry_equiv_pos_site_id
 _symmetry_equiv_pos_as_xyz
  1  'x, y, z'
loop_
 _atom_site_type_symbol
 _atom_site_label
 _atom_site_symmetry_multiplicity
 _atom_site_fract_x
 _atom_site_fract_y
 _atom_site_fract_z
 _atom_site_occupancy
  Tb  Tb0  1  0.250000  0.347778  0.585166  1
  Tb  Tb1  1  0.750000  0.150867  0.077606  1
  Tb  Tb2  1  0.750000  0.651934  0.418316  1
  Tb  Tb3  1  0.750000  0.514450  0.821107  1
  Nd  Nd4  1  0.250000  0.490972  0.179236  1
  Nd  Nd5  1  0.250000  0.989945  0.324107  1
  Nd  Nd6  1  0.750000  0.007991  0.677609  1
  Lu  Lu7  1  0.250000  0.851057  0.919969  1
  Au  Au8  1  0.250000  0.247626  0.903112  1
  Au  Au9  1  0.250000  0.743615  0.607898  1
  Au  Au10  1  0.750000  0.750022  0.086762  1
  Au  Au11  1  0.750000  0.253741  0.399111  1
