# generated using pymatgen
data_Ca6V6Fe3NiO24
_symmetry_space_group_name_H-M   'P 1'
_cell_length_a   10.94899987
_cell_length_b   10.96155955
_cell_length_c   10.97834937
_cell_angle_alpha   109.26815880
_cell_angle_beta   109.99534073
_cell_angle_gamma   109.15915491
_symmetry_Int_Tables_number   1
_chemical_formula_structural   Ca6V6Fe3NiO24
_chemical_formula_sum   'Ca12 V12 Fe6 Ni2 O48'
_cell_volume   1014.12900130
_cell_formula_units_Z   2
loop_
 _symmetry_equiv_pos_site_id
 _symmetry_equiv_pos_as_xyz
  1  'x, y, z'
loop_
 _atom_site_type_symbol
 _atom_site_label
 _atom_site_symmetry_multiplicity
 _atom_site_fract_x
 _atom_site_fract_y
 _atom_site_fract_z
 _atom_site_occupancy
  Ca  Ca0  1  0.242511  0.370024  0.116390  1
  Ca  Ca1  1  0.757489  0.629976  0.883610  1
  Ca  Ca2  1  0.755814  0.123101  0.381233  1
  Ca  Ca3  1  0.115540  0.231080  0.365540  1
  Ca  Ca4  1  0.379887  0.759774  0.129887  1
  Ca  Ca5  1  0.244186  0.876899  0.618767  1
  Ca  Ca6  1  0.884460  0.768920  0.634460  1
  Ca  Ca7  1  0.620113  0.240226  0.870113  1
  Ca  Ca8  1  0.367287  0.123101  0.241868  1
  Ca  Ca9  1  0.632713  0.876899  0.758132  1
  Ca  Ca10  1  0.127513  0.370024  0.753635  1
  Ca  Ca11  1  0.872487  0.629976  0.246365  1
  V  V12  1  0.249993  0.622603  0.375840  1
  V  V13  1  0.750007  0.377397  0.624160  1
  V  V14  1  0.749186  0.874852  0.125392  1
  V  V15  1  0.374538  0.249037  0.623493  1
  V  V16  1  0.625462  0.750963  0.376507  1
  V  V17  1  0.250814  0.125148  0.874608  1
  V  V18  1  0.125501  0.750963  0.874455  1
  V  V19  1  0.874499  0.249037  0.125545  1
  V  V20  1  0.627389  0.377397  0.253237  1
  V  V21  1  0.372611  0.622603  0.746763  1
  V  V22  1  0.874334  0.125148  0.750540  1
  V  V23  1  0.125666  0.874852  0.249460  1
  Fe  Fe24  1  0.500000  0.000000  0.500000  1
  Fe  Fe25  1  0.000000  0.500000  0.500000  1
  Fe  Fe26  1  0.500000  0.000000  0.000000  1
  Fe  Fe27  1  0.500000  0.500000  0.000000  1
  Fe  Fe28  1  0.500000  0.500000  0.500000  1
  Fe  Fe29  1  0.000000  0.500000  0.000000  1
  Ni  Ni30  1  0.000000  0.000000  0.000000  1
  Ni  Ni31  1  0.000000  0.000000  0.500000  1
  O  O32  1  0.485993  0.384140  0.291431  1
  O  O33  1  0.514007  0.615860  0.708569  1
  O  O34  1  0.593148  0.198254  0.214304  1
  O  O35  1  0.918345  0.125461  0.604453  1
  O  O36  1  0.290612  0.480744  0.380836  1
  O  O37  1  0.318743  0.918950  0.292239  1
  O  O38  1  0.406852  0.801746  0.785696  1
  O  O39  1  0.081655  0.874539  0.395547  1
  O  O40  1  0.709388  0.519256  0.619164  1
  O  O41  1  0.681257  0.081050  0.707761  1
  O  O42  1  0.021747  0.318017  0.900011  1
  O  O43  1  0.213705  0.593912  0.198145  1
  O  O44  1  0.122571  0.021781  0.206333  1
  O  O45  1  0.978253  0.681983  0.099989  1
  O  O46  1  0.786295  0.406088  0.801855  1
  O  O47  1  0.877429  0.978219  0.793667  1
  O  O48  1  0.600207  0.918950  0.126711  1
  O  O49  1  0.190132  0.480744  0.599909  1
  O  O50  1  0.399793  0.081050  0.873289  1
  O  O51  1  0.809868  0.519256  0.400091  1
  O  O52  1  0.899209  0.021781  0.315448  1
  O  O53  1  0.380207  0.593912  0.895767  1
  O  O54  1  0.100791  0.978219  0.684552  1
  O  O55  1  0.619793  0.406088  0.104233  1
  O  O56  1  0.378970  0.288391  0.482142  1
  O  O57  1  0.594899  0.899351  0.384094  1
  O  O58  1  0.621030  0.711609  0.517858  1
  O  O59  1  0.405101  0.100649  0.615906  1
  O  O60  1  0.123836  0.607042  0.910494  1
  O  O61  1  0.015219  0.209204  0.118736  1
  O  O62  1  0.876164  0.392958  0.089506  1
  O  O63  1  0.984781  0.790796  0.881264  1
  O  O64  1  0.304452  0.899351  0.015257  1
  O  O65  1  0.909421  0.288391  0.306249  1
  O  O66  1  0.695548  0.100649  0.984743  1
  O  O67  1  0.090579  0.711609  0.693751  1
  O  O68  1  0.193985  0.209204  0.590467  1
  O  O69  1  0.483206  0.607042  0.196548  1
  O  O70  1  0.806015  0.790796  0.409533  1
  O  O71  1  0.516794  0.392958  0.803452  1
  O  O72  1  0.296270  0.318017  0.918006  1
  O  O73  1  0.703730  0.681983  0.081994  1
  O  O74  1  0.207116  0.125461  0.021008  1
  O  O75  1  0.792884  0.874539  0.978992  1
  O  O76  1  0.898147  0.384140  0.592709  1
  O  O77  1  0.101853  0.615860  0.407291  1
  O  O78  1  0.605107  0.198254  0.483951  1
  O  O79  1  0.394893  0.801746  0.516049  1
