# generated using pymatgen
data_Ca4Si4PdPt7
_symmetry_space_group_name_H-M   'P 1'
_cell_length_a   5.55631629
_cell_length_b   6.90534859
_cell_length_c   7.32731200
_cell_angle_alpha   90.11329977
_cell_angle_beta   89.98149027
_cell_angle_gamma   89.49799350
_symmetry_Int_Tables_number   1
_chemical_formula_structural   Ca4Si4PdPt7
_chemical_formula_sum   'Ca4 Si4 Pd1 Pt7'
_cell_volume   281.12515443
_cell_formula_units_Z   1
loop_
 _symmetry_equiv_pos_site_id
 _symmetry_equiv_pos_as_xyz
  1  'x, y, z'
loop_
 _atom_site_type_symbol
 _atom_site_label
 _atom_site_symmetry_multiplicity
 _atom_site_fract_x
 _atom_site_fract_y
 _atom_site_fract_z
 _atom_site_occupancy
  Ca  Ca0  1  0.124928  0.747824  0.478282  1
  Ca  Ca1  1  0.372290  0.750675  0.977925  1
  Ca  Ca2  1  0.626122  0.251844  0.020744  1
  Ca  Ca3  1  0.874881  0.250536  0.522718  1
  Si  Si4  1  0.127770  0.250773  0.876273  1
  Si  Si5  1  0.376616  0.254139  0.376372  1
  Si  Si6  1  0.625814  0.748818  0.624282  1
  Si  Si7  1  0.867256  0.746133  0.122664  1
  Pd  Pd8  1  0.101024  0.048199  0.174871  1
  Pt  Pt9  1  0.107326  0.442744  0.169850  1
  Pt  Pt10  1  0.395037  0.051262  0.670252  1
  Pt  Pt11  1  0.396748  0.447419  0.672045  1
  Pt  Pt12  1  0.603591  0.554909  0.329335  1
  Pt  Pt13  1  0.602646  0.950478  0.326938  1
  Pt  Pt14  1  0.897237  0.554381  0.828614  1
  Pt  Pt15  1  0.900713  0.949865  0.828832  1
