# generated using pymatgen
data_La2InNiAg
_symmetry_space_group_name_H-M   'P 1'
_cell_length_a   8.12587761
_cell_length_b   8.12587761
_cell_length_c   3.80796400
_cell_angle_alpha   90.00000000
_cell_angle_beta   90.00000000
_cell_angle_gamma   87.71135254
_symmetry_Int_Tables_number   1
_chemical_formula_structural   La2InNiAg
_chemical_formula_sum   'La4 In2 Ni2 Ag2'
_cell_volume   251.23886593
_cell_formula_units_Z   2
loop_
 _symmetry_equiv_pos_site_id
 _symmetry_equiv_pos_as_xyz
  1  'x, y, z'
loop_
 _atom_site_type_symbol
 _atom_site_label
 _atom_site_symmetry_multiplicity
 _atom_site_fract_x
 _atom_site_fract_y
 _atom_site_fract_z
 _atom_site_occupancy
  La  La0  1  0.661655  0.161655  0.500000  1
  La  La1  1  0.338345  0.838345  0.500000  1
  La  La2  1  0.198144  0.301856  0.500000  1
  La  La3  1  0.801856  0.698144  0.500000  1
  In  In4  1  0.500000  0.500000  0.000000  1
  In  In5  1  0.000000  0.000000  0.000000  1
  Ni  Ni6  1  0.616691  0.883309  0.000000  1
  Ni  Ni7  1  0.383309  0.116691  0.000000  1
  Ag  Ag8  1  0.122108  0.622108  0.000000  1
  Ag  Ag9  1  0.877892  0.377892  0.000000  1
