# generated using pymatgen
data_Li10AuN3
_symmetry_space_group_name_H-M   'P 1'
_cell_length_a   7.34141700
_cell_length_b   7.34141758
_cell_length_c   3.83327300
_cell_angle_alpha   90.00000000
_cell_angle_beta   90.00000000
_cell_angle_gamma   120.00000190
_symmetry_Int_Tables_number   1
_chemical_formula_structural   Li10AuN3
_chemical_formula_sum   'Li10 Au1 N3'
_cell_volume   178.92053742
_cell_formula_units_Z   1
loop_
 _symmetry_equiv_pos_site_id
 _symmetry_equiv_pos_as_xyz
  1  'x, y, z'
loop_
 _atom_site_type_symbol
 _atom_site_label
 _atom_site_symmetry_multiplicity
 _atom_site_fract_x
 _atom_site_fract_y
 _atom_site_fract_z
 _atom_site_occupancy
  Li  Li0  1  0.781068  0.562137  0.000000  1
  Li  Li1  1  0.437863  0.218932  0.000000  1
  Li  Li2  1  0.781068  0.218932  0.000000  1
  Li  Li3  1  0.165154  0.330307  0.000000  1
  Li  Li4  1  0.491825  0.508175  0.500000  1
  Li  Li5  1  0.016352  0.508175  0.500000  1
  Li  Li6  1  0.491825  0.983648  0.500000  1
  Li  Li7  1  0.333333  0.666667  0.000000  1
  Li  Li8  1  0.165154  0.834846  0.000000  1
  Li  Li9  1  0.669693  0.834846  0.000000  1
  Au  Au10  1  0.000000  0.000000  0.500000  1
  N  N11  1  0.491086  0.508914  0.000000  1
  N  N12  1  0.491086  0.982171  0.000000  1
  N  N13  1  0.017829  0.508914  0.000000  1
