# generated using pymatgen
data_CaPm(ZnSi)2
_symmetry_space_group_name_H-M   'P 1'
_cell_length_a   5.94713495
_cell_length_b   5.94713427
_cell_length_c   5.94713600
_cell_angle_alpha   139.23039367
_cell_angle_beta   105.20570633
_cell_angle_gamma   88.87538782
_symmetry_Int_Tables_number   1
_chemical_formula_structural   CaPm(ZnSi)2
_chemical_formula_sum   'Ca1 Pm1 Zn2 Si2'
_cell_volume   127.08695324
_cell_formula_units_Z   1
loop_
 _symmetry_equiv_pos_site_id
 _symmetry_equiv_pos_as_xyz
  1  'x, y, z'
loop_
 _atom_site_type_symbol
 _atom_site_label
 _atom_site_symmetry_multiplicity
 _atom_site_fract_x
 _atom_site_fract_y
 _atom_site_fract_z
 _atom_site_occupancy
  Ca  Ca0  1  0.002867  0.000005  0.002872  1
  Pm  Pm1  1  0.498398  0.499995  0.998393  1
  Zn  Zn2  1  0.586851  0.253867  0.332987  1
  Zn  Zn3  1  0.079121  0.746137  0.332987  1
  Si  Si4  1  0.909189  0.242807  0.666379  1
  Si  Si5  1  0.423574  0.757190  0.666379  1
