# generated using pymatgen
data_Yb3Tm3Al17Si7Os8
_symmetry_space_group_name_H-M   'P 1'
_cell_length_a   8.67333319
_cell_length_b   8.65610186
_cell_length_c   9.54970300
_cell_angle_alpha   90.00000000
_cell_angle_beta   90.00000000
_cell_angle_gamma   120.14433424
_symmetry_Int_Tables_number   1
_chemical_formula_structural   Yb3Tm3Al17Si7Os8
_chemical_formula_sum   'Yb3 Tm3 Al17 Si7 Os8'
_cell_volume   620.00530473
_cell_formula_units_Z   1
loop_
 _symmetry_equiv_pos_site_id
 _symmetry_equiv_pos_as_xyz
  1  'x, y, z'
loop_
 _atom_site_type_symbol
 _atom_site_label
 _atom_site_symmetry_multiplicity
 _atom_site_fract_x
 _atom_site_fract_y
 _atom_site_fract_z
 _atom_site_occupancy
  Yb  Yb0  1  0.806263  0.612813  0.750000  1
  Yb  Yb1  1  0.389723  0.191648  0.750000  1
  Yb  Yb2  1  0.801113  0.192086  0.750000  1
  Tm  Tm3  1  0.194531  0.391579  0.250000  1
  Tm  Tm4  1  0.607521  0.805512  0.250000  1
  Tm  Tm5  1  0.197621  0.803514  0.250000  1
  Al  Al6  1  0.165709  0.332505  0.578399  1
  Al  Al7  1  0.833431  0.669415  0.420933  1
  Al  Al8  1  0.668881  0.834236  0.577788  1
  Al  Al9  1  0.833431  0.669415  0.079067  1
  Al  Al10  1  0.331641  0.166502  0.422389  1
  Al  Al11  1  0.165709  0.332505  0.921601  1
  Al  Al12  1  0.165256  0.833436  0.576608  1
  Al  Al13  1  0.331641  0.166502  0.077611  1
  Al  Al14  1  0.834303  0.164774  0.422070  1
  Al  Al15  1  0.668881  0.834236  0.922212  1
  Al  Al16  1  0.834303  0.164774  0.077930  1
  Al  Al17  1  0.165256  0.833436  0.923392  1
  Al  Al18  1  0.125316  0.565559  0.750000  1
  Al  Al19  1  0.564620  0.434549  0.250000  1
  Al  Al20  1  0.439029  0.565872  0.750000  1
  Al  Al21  1  0.999747  0.999053  0.250000  1
  Al  Al22  1  0.999949  0.001144  0.750000  1
  Si  Si23  1  0.333437  0.664848  0.041705  1
  Si  Si24  1  0.666610  0.335939  0.960648  1
  Si  Si25  1  0.666610  0.335939  0.539352  1
  Si  Si26  1  0.333437  0.664848  0.458295  1
  Si  Si27  1  0.564909  0.124852  0.250000  1
  Si  Si28  1  0.435228  0.871601  0.750000  1
  Si  Si29  1  0.873849  0.434095  0.250000  1
  Os  Os30  1  0.499962  0.998990  0.005264  1
  Os  Os31  1  0.000400  0.500416  0.010526  1
  Os  Os32  1  0.499962  0.998990  0.494736  1
  Os  Os33  1  0.499786  0.501302  0.004020  1
  Os  Os34  1  0.000400  0.500416  0.489474  1
  Os  Os35  1  0.499786  0.501302  0.495980  1
  Os  Os36  1  0.000875  0.000699  0.999246  1
  Os  Os37  1  0.000875  0.000699  0.500754  1
