# generated using pymatgen
data_Y5(Tl2Pt)2
_symmetry_space_group_name_H-M   'P 1'
_cell_length_a   3.64483400
_cell_length_b   8.19588400
_cell_length_c   18.32675800
_cell_angle_alpha   90.00000000
_cell_angle_beta   90.00000000
_cell_angle_gamma   90.00000000
_symmetry_Int_Tables_number   1
_chemical_formula_structural   Y5(Tl2Pt)2
_chemical_formula_sum   'Y10 Tl8 Pt4'
_cell_volume   547.46858295
_cell_formula_units_Z   2
loop_
 _symmetry_equiv_pos_site_id
 _symmetry_equiv_pos_as_xyz
  1  'x, y, z'
loop_
 _atom_site_type_symbol
 _atom_site_label
 _atom_site_symmetry_multiplicity
 _atom_site_fract_x
 _atom_site_fract_y
 _atom_site_fract_z
 _atom_site_occupancy
  Y  Y0  1  0.000000  0.115878  0.414153  1
  Y  Y1  1  0.000000  0.884122  0.585847  1
  Y  Y2  1  0.000000  0.384122  0.914153  1
  Y  Y3  1  0.000000  0.615878  0.085847  1
  Y  Y4  1  0.000000  0.242201  0.219775  1
  Y  Y5  1  0.000000  0.757799  0.780225  1
  Y  Y6  1  0.000000  0.257799  0.719775  1
  Y  Y7  1  0.000000  0.742201  0.280225  1
  Y  Y8  1  0.000000  0.000000  0.000000  1
  Y  Y9  1  0.000000  0.500000  0.500000  1
  Tl  Tl10  1  0.500000  0.420372  0.352274  1
  Tl  Tl11  1  0.500000  0.579628  0.647726  1
  Tl  Tl12  1  0.500000  0.079628  0.852274  1
  Tl  Tl13  1  0.500000  0.920372  0.147726  1
  Tl  Tl14  1  0.500000  0.292724  0.065421  1
  Tl  Tl15  1  0.500000  0.707276  0.934579  1
  Tl  Tl16  1  0.500000  0.207276  0.565421  1
  Tl  Tl17  1  0.500000  0.792724  0.434579  1
  Pt  Pt18  1  0.500000  0.025936  0.303254  1
  Pt  Pt19  1  0.500000  0.974064  0.696746  1
  Pt  Pt20  1  0.500000  0.474064  0.803254  1
  Pt  Pt21  1  0.500000  0.525936  0.196746  1
