# generated using pymatgen
data_Dy4B8Os3Ru
_symmetry_space_group_name_H-M   'P 1'
_cell_length_a   5.91048113
_cell_length_b   5.31774500
_cell_length_c   6.37022986
_cell_angle_alpha   90.00000000
_cell_angle_beta   90.19059414
_cell_angle_gamma   90.00000000
_symmetry_Int_Tables_number   1
_chemical_formula_structural   Dy4B8Os3Ru
_chemical_formula_sum   'Dy4 B8 Os3 Ru1'
_cell_volume   200.21796535
_cell_formula_units_Z   1
loop_
 _symmetry_equiv_pos_site_id
 _symmetry_equiv_pos_as_xyz
  1  'x, y, z'
loop_
 _atom_site_type_symbol
 _atom_site_label
 _atom_site_symmetry_multiplicity
 _atom_site_fract_x
 _atom_site_fract_y
 _atom_site_fract_z
 _atom_site_occupancy
  Dy  Dy0  1  0.010103  0.250000  0.336677  1
  Dy  Dy1  1  0.509518  0.250000  0.163026  1
  Dy  Dy2  1  0.989337  0.750000  0.665045  1
  Dy  Dy3  1  0.490156  0.750000  0.835951  1
  B  B4  1  0.366349  0.083665  0.537642  1
  B  B5  1  0.863896  0.418085  0.959770  1
  B  B6  1  0.635663  0.582142  0.459908  1
  B  B7  1  0.134787  0.917307  0.040218  1
  B  B8  1  0.635663  0.917858  0.459908  1
  B  B9  1  0.134787  0.582693  0.040218  1
  B  B10  1  0.366349  0.416335  0.537642  1
  B  B11  1  0.863896  0.081915  0.959770  1
  Os  Os12  1  0.678956  0.250000  0.681824  1
  Os  Os13  1  0.821655  0.750000  0.182410  1
  Os  Os14  1  0.321292  0.750000  0.319746  1
  Ru  Ru15  1  0.177592  0.250000  0.820246  1
