# generated using pymatgen
data_Er12Ga2Co3Ni
_symmetry_space_group_name_H-M   'P 1'
_cell_length_a   8.20327215
_cell_length_b   8.20327298
_cell_length_c   8.20327266
_cell_angle_alpha   112.40939565
_cell_angle_beta   109.61003555
_cell_angle_gamma   106.44898298
_symmetry_Int_Tables_number   1
_chemical_formula_structural   Er12Ga2Co3Ni
_chemical_formula_sum   'Er12 Ga2 Co3 Ni1'
_cell_volume   423.80290432
_cell_formula_units_Z   1
loop_
 _symmetry_equiv_pos_site_id
 _symmetry_equiv_pos_as_xyz
  1  'x, y, z'
loop_
 _atom_site_type_symbol
 _atom_site_label
 _atom_site_symmetry_multiplicity
 _atom_site_fract_x
 _atom_site_fract_y
 _atom_site_fract_z
 _atom_site_occupancy
  Er  Er0  1  0.041011  0.738407  0.302604  1
  Er  Er1  1  0.957587  0.260723  0.696864  1
  Er  Er2  1  0.563860  0.260723  0.303136  1
  Er  Er3  1  0.435803  0.738407  0.697396  1
  Er  Er4  1  0.674244  0.862297  0.188052  1
  Er  Er5  1  0.330639  0.520552  0.189913  1
  Er  Er6  1  0.330639  0.140725  0.810087  1
  Er  Er7  1  0.674244  0.486191  0.811948  1
  Er  Er8  1  0.179152  0.218911  0.401515  1
  Er  Er9  1  0.817397  0.218911  0.039759  1
  Er  Er10  1  0.179152  0.777638  0.960241  1
  Er  Er11  1  0.817397  0.777638  0.598485  1
  Ga  Ga12  1  0.999604  0.499604  0.500000  1
  Ga  Ga13  1  0.499408  0.999408  0.500000  1
  Co  Co14  1  0.661130  0.498475  0.162655  1
  Co  Co15  1  0.335820  0.498475  0.837345  1
  Co  Co16  1  0.883589  0.883589  0.000000  1
  Ni  Ni17  1  0.119326  0.119326  0.000000  1
