# generated using pymatgen
data_Tb2Y2Al18(NiIr)3
_symmetry_space_group_name_H-M   'P 1'
_cell_length_a   7.50009750
_cell_length_b   7.50043287
_cell_length_c   9.37866701
_cell_angle_alpha   89.93499762
_cell_angle_beta   89.93169829
_cell_angle_gamma   119.24995942
_symmetry_Int_Tables_number   1
_chemical_formula_structural   Tb2Y2Al18(NiIr)3
_chemical_formula_sum   'Tb2 Y2 Al18 Ni3 Ir3'
_cell_volume   460.31679929
_cell_formula_units_Z   1
loop_
 _symmetry_equiv_pos_site_id
 _symmetry_equiv_pos_as_xyz
  1  'x, y, z'
loop_
 _atom_site_type_symbol
 _atom_site_label
 _atom_site_symmetry_multiplicity
 _atom_site_fract_x
 _atom_site_fract_y
 _atom_site_fract_z
 _atom_site_occupancy
  Tb  Tb0  1  0.994234  0.673036  0.249842  1
  Tb  Tb1  1  0.003133  0.324884  0.750180  1
  Y  Y2  1  0.675123  0.996865  0.249828  1
  Y  Y3  1  0.326958  0.005768  0.750153  1
  Al  Al4  1  0.132868  0.132875  0.249588  1
  Al  Al5  1  0.867124  0.867128  0.750412  1
  Al  Al6  1  0.999016  0.338645  0.073340  1
  Al  Al7  1  0.002668  0.663217  0.925979  1
  Al  Al8  1  0.003394  0.663146  0.573834  1
  Al  Al9  1  0.336908  0.996629  0.426178  1
  Al  Al10  1  0.003691  0.338277  0.426074  1
  Al  Al11  1  0.661680  0.996299  0.573910  1
  Al  Al12  1  0.661309  0.000966  0.926678  1
  Al  Al13  1  0.336833  0.997355  0.074005  1
  Al  Al14  1  0.333814  0.335101  0.549601  1
  Al  Al15  1  0.664883  0.666206  0.450400  1
  Al  Al16  1  0.663932  0.664903  0.050060  1
  Al  Al17  1  0.335119  0.336050  0.949943  1
  Al  Al18  1  0.340900  0.556110  0.249656  1
  Al  Al19  1  0.658797  0.448674  0.753259  1
  Al  Al20  1  0.551310  0.341182  0.246739  1
  Al  Al21  1  0.443904  0.659120  0.750342  1
  Ni  Ni22  1  0.670964  0.329039  0.999999  1
  Ni  Ni23  1  0.329121  0.670871  0.000000  1
  Ni  Ni24  1  0.329409  0.670582  0.499999  1
  Ir  Ir25  1  0.672136  0.327840  0.500000  1
  Ir  Ir26  1  0.999754  0.000252  0.000000  1
  Ir  Ir27  1  0.001019  0.998980  0.500001  1
