# generated using pymatgen
data_Tb5Tl2(CdPd)2
_symmetry_space_group_name_H-M   'P 1'
_cell_length_a   7.97653300
_cell_length_b   18.38179600
_cell_length_c   3.66770900
_cell_angle_alpha   90.00000000
_cell_angle_beta   90.00000000
_cell_angle_gamma   90.00000000
_symmetry_Int_Tables_number   1
_chemical_formula_structural   Tb5Tl2(CdPd)2
_chemical_formula_sum   'Tb10 Tl4 Cd4 Pd4'
_cell_volume   537.77050548
_cell_formula_units_Z   2
loop_
 _symmetry_equiv_pos_site_id
 _symmetry_equiv_pos_as_xyz
  1  'x, y, z'
loop_
 _atom_site_type_symbol
 _atom_site_label
 _atom_site_symmetry_multiplicity
 _atom_site_fract_x
 _atom_site_fract_y
 _atom_site_fract_z
 _atom_site_occupancy
  Tb  Tb0  1  0.500000  0.500000  0.000000  1
  Tb  Tb1  1  0.000000  0.000000  0.000000  1
  Tb  Tb2  1  0.744098  0.282134  0.000000  1
  Tb  Tb3  1  0.255902  0.717866  0.000000  1
  Tb  Tb4  1  0.755902  0.782134  0.000000  1
  Tb  Tb5  1  0.244098  0.217866  0.000000  1
  Tb  Tb6  1  0.615169  0.084420  0.000000  1
  Tb  Tb7  1  0.384831  0.915580  0.000000  1
  Tb  Tb8  1  0.884831  0.584420  0.000000  1
  Tb  Tb9  1  0.115169  0.415580  0.000000  1
  Tl  Tl10  1  0.715285  0.933184  0.500000  1
  Tl  Tl11  1  0.284715  0.066816  0.500000  1
  Tl  Tl12  1  0.784715  0.433184  0.500000  1
  Tl  Tl13  1  0.215285  0.566816  0.500000  1
  Cd  Cd14  1  0.578599  0.649736  0.500000  1
  Cd  Cd15  1  0.421401  0.350264  0.500000  1
  Cd  Cd16  1  0.921401  0.149736  0.500000  1
  Cd  Cd17  1  0.078599  0.850264  0.500000  1
  Pd  Pd18  1  0.531334  0.196873  0.500000  1
  Pd  Pd19  1  0.468666  0.803127  0.500000  1
  Pd  Pd20  1  0.968666  0.696873  0.500000  1
  Pd  Pd21  1  0.031334  0.303127  0.500000  1
