# generated using pymatgen
data_Ce2Sc3Tc2
_symmetry_space_group_name_H-M   'P 1'
_cell_length_a   6.15920019
_cell_length_b   6.92704061
_cell_length_c   8.52112700
_cell_angle_alpha   96.09156903
_cell_angle_beta   111.18666916
_cell_angle_gamma   90.00000945
_symmetry_Int_Tables_number   1
_chemical_formula_structural   Ce2Sc3Tc2
_chemical_formula_sum   'Ce4 Sc6 Tc4'
_cell_volume   336.77821967
_cell_formula_units_Z   2
loop_
 _symmetry_equiv_pos_site_id
 _symmetry_equiv_pos_as_xyz
  1  'x, y, z'
loop_
 _atom_site_type_symbol
 _atom_site_label
 _atom_site_symmetry_multiplicity
 _atom_site_fract_x
 _atom_site_fract_y
 _atom_site_fract_z
 _atom_site_occupancy
  Ce  Ce0  1  0.784271  0.094007  0.803625  1
  Ce  Ce1  1  0.980646  0.405993  0.196375  1
  Ce  Ce2  1  0.215729  0.905993  0.196375  1
  Ce  Ce3  1  0.019354  0.594007  0.803625  1
  Sc  Sc4  1  0.208083  0.188831  0.570571  1
  Sc  Sc5  1  0.637513  0.311169  0.429429  1
  Sc  Sc6  1  0.791917  0.811169  0.429429  1
  Sc  Sc7  1  0.362487  0.688831  0.570571  1
  Sc  Sc8  1  0.426940  0.250000  0.000000  1
  Sc  Sc9  1  0.573060  0.750000  0.000000  1
  Tc  Tc10  1  0.627496  0.410059  0.776077  1
  Tc  Tc11  1  0.851418  0.089941  0.223923  1
  Tc  Tc12  1  0.372504  0.589941  0.223923  1
  Tc  Tc13  1  0.148582  0.910059  0.776077  1
