# generated using pymatgen
data_Pr12SiIrI17
_symmetry_space_group_name_H-M   'P 1'
_cell_length_a   10.09901244
_cell_length_b   12.09247365
_cell_length_c   12.04590709
_cell_angle_alpha   93.57396544
_cell_angle_beta   104.48396267
_cell_angle_gamma   114.86289919
_symmetry_Int_Tables_number   1
_chemical_formula_structural   Pr12SiIrI17
_chemical_formula_sum   'Pr12 Si1 Ir1 I17'
_cell_volume   1268.59898722
_cell_formula_units_Z   1
loop_
 _symmetry_equiv_pos_site_id
 _symmetry_equiv_pos_as_xyz
  1  'x, y, z'
loop_
 _atom_site_type_symbol
 _atom_site_label
 _atom_site_symmetry_multiplicity
 _atom_site_fract_x
 _atom_site_fract_y
 _atom_site_fract_z
 _atom_site_occupancy
  Pr  Pr0  1  0.060890  0.516613  0.325283  1
  Pr  Pr1  1  0.986665  0.810124  0.578473  1
  Pr  Pr2  1  0.640688  0.239291  0.285651  1
  Pr  Pr3  1  0.011580  0.188809  0.421889  1
  Pr  Pr4  1  0.220359  0.666368  0.993286  1
  Pr  Pr5  1  0.265747  0.990132  0.897197  1
  Pr  Pr6  1  0.361675  0.760731  0.716424  1
  Pr  Pr7  1  0.940296  0.483638  0.674352  1
  Pr  Pr8  1  0.735129  0.009626  0.104112  1
  Pr  Pr9  1  0.155400  0.288776  0.147481  1
  Pr  Pr10  1  0.778229  0.333850  0.006016  1
  Pr  Pr11  1  0.845598  0.712039  0.853335  1
  Si  Si12  1  0.103650  0.737549  0.784737  1
  Ir  Ir13  1  0.896476  0.262396  0.214324  1
  I  I14  1  0.783698  0.529817  0.420389  1
  I  I15  1  0.639726  0.419354  0.756037  1
  I  I16  1  0.842219  0.894296  0.324279  1
  I  I17  1  0.325810  0.212628  0.368808  1
  I  I18  1  0.157774  0.103221  0.676570  1
  I  I19  1  0.585635  0.052117  0.839473  1
  I  I20  1  0.751627  0.179743  0.539682  1
  I  I21  1  0.543406  0.704030  0.953110  1
  I  I22  1  0.363941  0.583052  0.243557  1
  I  I23  1  0.218015  0.474329  0.584399  1
  I  I24  1  0.056987  0.366858  0.891253  1
  I  I25  1  0.453050  0.295336  0.045850  1
  I  I26  1  0.999998  0.998406  0.998128  1
  I  I27  1  0.247292  0.819795  0.462916  1
  I  I28  1  0.407679  0.942743  0.155884  1
  I  I29  1  0.676827  0.787252  0.631979  1
  I  I30  1  0.943938  0.637083  0.105124  1
