# generated using pymatgen
data_InBi3(Rh2O7)2
_symmetry_space_group_name_H-M   'P 1'
_cell_length_a   7.32464866
_cell_length_b   7.23837029
_cell_length_c   7.32464900
_cell_angle_alpha   59.60491675
_cell_angle_beta   60.00000297
_cell_angle_gamma   59.60491575
_symmetry_Int_Tables_number   1
_chemical_formula_structural   InBi3(Rh2O7)2
_chemical_formula_sum   'In1 Bi3 Rh4 O14'
_cell_volume   272.94803603
_cell_formula_units_Z   1
loop_
 _symmetry_equiv_pos_site_id
 _symmetry_equiv_pos_as_xyz
  1  'x, y, z'
loop_
 _atom_site_type_symbol
 _atom_site_label
 _atom_site_symmetry_multiplicity
 _atom_site_fract_x
 _atom_site_fract_y
 _atom_site_fract_z
 _atom_site_occupancy
  In  In0  1  0.125000  0.625000  0.125000  1
  Bi  Bi1  1  0.125000  0.125000  0.125000  1
  Bi  Bi2  1  0.625000  0.125000  0.125000  1
  Bi  Bi3  1  0.125000  0.125000  0.625000  1
  Rh  Rh4  1  0.625000  0.625000  0.625000  1
  Rh  Rh5  1  0.625000  0.625000  0.125000  1
  Rh  Rh6  1  0.125000  0.625000  0.625000  1
  Rh  Rh7  1  0.625000  0.125000  0.625000  1
  O  O8  1  0.244474  0.266578  0.244474  1
  O  O9  1  0.290142  0.704342  0.290142  1
  O  O10  1  0.958132  0.959223  0.541322  1
  O  O11  1  0.541322  0.959223  0.541322  1
  O  O12  1  0.715374  0.704342  0.290142  1
  O  O13  1  0.959858  0.545658  0.534626  1
  O  O14  1  0.708678  0.290777  0.708678  1
  O  O15  1  0.291868  0.290777  0.708678  1
  O  O16  1  0.708678  0.290777  0.291868  1
  O  O17  1  0.290142  0.704342  0.715374  1
  O  O18  1  0.959858  0.545658  0.959858  1
  O  O19  1  0.534626  0.545658  0.959858  1
  O  O20  1  0.005526  0.983422  0.005526  1
  O  O21  1  0.541322  0.959223  0.958132  1
