# generated using pymatgen
data_La9Pr2In9Pt4
_symmetry_space_group_name_H-M   'P 1'
_cell_length_a   13.68045244
_cell_length_b   13.68045959
_cell_length_c   3.89565400
_cell_angle_alpha   90.00000000
_cell_angle_beta   90.00000000
_cell_angle_gamma   111.80337688
_symmetry_Int_Tables_number   1
_chemical_formula_structural   La9Pr2In9Pt4
_chemical_formula_sum   'La9 Pr2 In9 Pt4'
_cell_volume   676.93437069
_cell_formula_units_Z   1
loop_
 _symmetry_equiv_pos_site_id
 _symmetry_equiv_pos_as_xyz
  1  'x, y, z'
loop_
 _atom_site_type_symbol
 _atom_site_label
 _atom_site_symmetry_multiplicity
 _atom_site_fract_x
 _atom_site_fract_y
 _atom_site_fract_z
 _atom_site_occupancy
  La  La0  1  0.809481  0.809228  0.500000  1
  La  La1  1  0.190772  0.190519  0.500000  1
  La  La2  1  0.572706  0.918307  0.500000  1
  La  La3  1  0.427555  0.081503  0.500000  1
  La  La4  1  0.918498  0.572445  0.500000  1
  La  La5  1  0.081692  0.427294  0.500000  1
  La  La6  1  0.127357  0.872643  0.500000  1
  La  La7  1  0.872514  0.127486  0.500000  1
  La  La8  1  0.340383  0.659616  0.500000  1
  Pr  Pr9  1  0.499697  0.500303  0.500000  1
  Pr  Pr10  1  0.659577  0.340424  0.500000  1
  In  In11  1  0.338255  0.865144  0.000000  1
  In  In12  1  0.661438  0.136026  0.000000  1
  In  In13  1  0.863973  0.338562  0.000000  1
  In  In14  1  0.134857  0.661745  0.000000  1
  In  In15  1  0.575885  0.716948  0.000000  1
  In  In16  1  0.425480  0.283419  0.000000  1
  In  In17  1  0.716582  0.574520  0.000000  1
  In  In18  1  0.283051  0.424115  0.000000  1
  In  In19  1  0.000233  0.999767  0.000000  1
  Pt  Pt20  1  0.745785  0.949071  0.000000  1
  Pt  Pt21  1  0.254017  0.050717  0.000000  1
  Pt  Pt22  1  0.949284  0.745984  0.000000  1
  Pt  Pt23  1  0.050928  0.254214  0.000000  1
