# generated using pymatgen
data_LiHf(TcSn4)2
_symmetry_space_group_name_H-M   'P 1'
_cell_length_a   7.44931296
_cell_length_b   7.44931275
_cell_length_c   7.44931256
_cell_angle_alpha   125.47875987
_cell_angle_beta   125.47876061
_cell_angle_gamma   80.74653742
_symmetry_Int_Tables_number   1
_chemical_formula_structural   LiHf(TcSn4)2
_chemical_formula_sum   'Li1 Hf1 Tc2 Sn8'
_cell_volume   264.28776382
_cell_formula_units_Z   1
loop_
 _symmetry_equiv_pos_site_id
 _symmetry_equiv_pos_as_xyz
  1  'x, y, z'
loop_
 _atom_site_type_symbol
 _atom_site_label
 _atom_site_symmetry_multiplicity
 _atom_site_fract_x
 _atom_site_fract_y
 _atom_site_fract_z
 _atom_site_occupancy
  Li  Li0  1  0.000000  0.000000  0.000000  1
  Hf  Hf1  1  0.500000  0.500000  0.000000  1
  Tc  Tc2  1  0.251802  0.251802  0.000000  1
  Tc  Tc3  1  0.748198  0.748198  0.000000  1
  Sn  Sn4  1  0.708495  0.524161  0.509897  1
  Sn  Sn5  1  0.524161  0.014264  0.815666  1
  Sn  Sn6  1  0.198599  0.708495  0.184334  1
  Sn  Sn7  1  0.801401  0.291505  0.815666  1
  Sn  Sn8  1  0.475839  0.985736  0.184334  1
  Sn  Sn9  1  0.291505  0.475839  0.490103  1
  Sn  Sn10  1  0.985736  0.801401  0.509897  1
  Sn  Sn11  1  0.014264  0.198599  0.490103  1
