# generated using pymatgen
data_Dy9Y3Co4CuSn
_symmetry_space_group_name_H-M   'P 1'
_cell_length_a   8.31779585
_cell_length_b   8.30544532
_cell_length_c   8.30544563
_cell_angle_alpha   107.02768032
_cell_angle_beta   110.22365446
_cell_angle_gamma   111.12665008
_symmetry_Int_Tables_number   1
_chemical_formula_structural   Dy9Y3Co4CuSn
_chemical_formula_sum   'Dy9 Y3 Co4 Cu1 Sn1'
_cell_volume   441.41443290
_cell_formula_units_Z   1
loop_
 _symmetry_equiv_pos_site_id
 _symmetry_equiv_pos_as_xyz
  1  'x, y, z'
loop_
 _atom_site_type_symbol
 _atom_site_label
 _atom_site_symmetry_multiplicity
 _atom_site_fract_x
 _atom_site_fract_y
 _atom_site_fract_z
 _atom_site_occupancy
  Dy  Dy0  1  0.522744  0.707980  0.814764  1
  Dy  Dy1  1  0.306244  0.620919  0.315252  1
  Dy  Dy2  1  0.306244  0.990992  0.685325  1
  Dy  Dy3  1  0.694086  0.379385  0.685337  1
  Dy  Dy4  1  0.694086  0.008749  0.314702  1
  Dy  Dy5  1  0.200451  0.214728  0.414685  1
  Dy  Dy6  1  0.800023  0.786184  0.586878  1
  Dy  Dy7  1  0.200451  0.785765  0.985722  1
  Dy  Dy8  1  0.800023  0.213146  0.013841  1
  Y  Y9  1  0.477746  0.291617  0.186129  1
  Y  Y10  1  0.104583  0.291222  0.813361  1
  Y  Y11  1  0.895497  0.708910  0.186587  1
  Co  Co12  1  0.499065  0.613036  0.111117  1
  Co  Co13  1  0.499065  0.387949  0.886029  1
  Co  Co14  1  0.377287  0.999797  0.377490  1
  Co  Co15  1  0.623075  0.000403  0.622672  1
  Cu  Cu16  1  0.999883  0.999356  0.000527  1
  Sn  Sn17  1  0.999445  0.499862  0.499584  1
