# generated using pymatgen
data_Tb2Ni3Ir
_symmetry_space_group_name_H-M   'P 1'
_cell_length_a   5.22715957
_cell_length_b   5.08395150
_cell_length_c   5.08395200
_cell_angle_alpha   59.99999675
_cell_angle_beta   60.90221585
_cell_angle_gamma   60.90221685
_symmetry_Int_Tables_number   1
_chemical_formula_structural   Tb2Ni3Ir
_chemical_formula_sum   'Tb2 Ni3 Ir1'
_cell_volume   96.81515991
_cell_formula_units_Z   1
loop_
 _symmetry_equiv_pos_site_id
 _symmetry_equiv_pos_as_xyz
  1  'x, y, z'
loop_
 _atom_site_type_symbol
 _atom_site_label
 _atom_site_symmetry_multiplicity
 _atom_site_fract_x
 _atom_site_fract_y
 _atom_site_fract_z
 _atom_site_occupancy
  Tb  Tb0  1  0.253782  0.248739  0.248739  1
  Tb  Tb1  1  0.996218  0.001261  0.001261  1
  Ni  Ni2  1  0.625000  0.625000  0.125000  1
  Ni  Ni3  1  0.625000  0.125000  0.625000  1
  Ni  Ni4  1  0.625000  0.625000  0.625000  1
  Ir  Ir5  1  0.125000  0.625000  0.625000  1
