# generated using pymatgen
data_Ho2Pa2FeCo3B16
_symmetry_space_group_name_H-M   'P 1'
_cell_length_a   3.39130100
_cell_length_b   5.88993939
_cell_length_c   11.42949014
_cell_angle_alpha   89.91240069
_cell_angle_beta   90.00000000
_cell_angle_gamma   90.00000000
_symmetry_Int_Tables_number   1
_chemical_formula_structural   Ho2Pa2FeCo3B16
_chemical_formula_sum   'Ho2 Pa2 Fe1 Co3 B16'
_cell_volume   228.29873958
_cell_formula_units_Z   1
loop_
 _symmetry_equiv_pos_site_id
 _symmetry_equiv_pos_as_xyz
  1  'x, y, z'
loop_
 _atom_site_type_symbol
 _atom_site_label
 _atom_site_symmetry_multiplicity
 _atom_site_fract_x
 _atom_site_fract_y
 _atom_site_fract_z
 _atom_site_occupancy
  Ho  Ho0  1  0.500000  0.127917  0.648262  1
  Ho  Ho1  1  0.500000  0.871867  0.351647  1
  Pa  Pa2  1  0.500000  0.372561  0.151348  1
  Pa  Pa3  1  0.500000  0.627657  0.849177  1
  Fe  Fe4  1  0.500000  0.866951  0.089005  1
  Co  Co5  1  0.500000  0.364989  0.409440  1
  Co  Co6  1  0.500000  0.633995  0.589793  1
  Co  Co7  1  0.500000  0.136879  0.908318  1
  B  B8  1  0.000000  0.109452  0.047256  1
  B  B9  1  0.000000  0.887979  0.955018  1
  B  B10  1  0.000000  0.386930  0.544979  1
  B  B11  1  0.000000  0.613253  0.454906  1
  B  B12  1  0.000000  0.137839  0.467389  1
  B  B13  1  0.000000  0.862280  0.532749  1
  B  B14  1  0.000000  0.361069  0.965792  1
  B  B15  1  0.000000  0.638580  0.034809  1
  B  B16  1  0.000000  0.021140  0.191253  1
  B  B17  1  0.000000  0.978428  0.808820  1
  B  B18  1  0.000000  0.476998  0.688408  1
  B  B19  1  0.000000  0.523071  0.311710  1
  B  B20  1  0.000000  0.216429  0.316676  1
  B  B21  1  0.000000  0.783797  0.683614  1
  B  B22  1  0.000000  0.281621  0.814077  1
  B  B23  1  0.000000  0.718317  0.185554  1
