# generated using pymatgen
data_YTm2Mg(AlPt)4
_symmetry_space_group_name_H-M   'P 1'
_cell_length_a   4.33209600
_cell_length_b   6.80545687
_cell_length_c   7.70982061
_cell_angle_alpha   92.65892589
_cell_angle_beta   90.00000000
_cell_angle_gamma   90.00000000
_symmetry_Int_Tables_number   1
_chemical_formula_structural   YTm2Mg(AlPt)4
_chemical_formula_sum   'Y1 Tm2 Mg1 Al4 Pt4'
_cell_volume   227.05538832
_cell_formula_units_Z   1
loop_
 _symmetry_equiv_pos_site_id
 _symmetry_equiv_pos_as_xyz
  1  'x, y, z'
loop_
 _atom_site_type_symbol
 _atom_site_label
 _atom_site_symmetry_multiplicity
 _atom_site_fract_x
 _atom_site_fract_y
 _atom_site_fract_z
 _atom_site_occupancy
  Y  Y0  1  0.250000  0.526741  0.816439  1
  Tm  Tm1  1  0.750000  0.975090  0.328281  1
  Tm  Tm2  1  0.750000  0.470288  0.181125  1
  Mg  Mg3  1  0.250000  0.026270  0.677524  1
  Al  Al4  1  0.250000  0.139541  0.056575  1
  Al  Al5  1  0.250000  0.649184  0.439018  1
  Al  Al6  1  0.750000  0.858768  0.936490  1
  Al  Al7  1  0.750000  0.354088  0.563537  1
  Pt  Pt8  1  0.250000  0.271840  0.382202  1
  Pt  Pt9  1  0.250000  0.773971  0.126591  1
  Pt  Pt10  1  0.750000  0.732366  0.616687  1
  Pt  Pt11  1  0.750000  0.221855  0.875530  1
