# generated using pymatgen
data_Ba2PrInSe5
_symmetry_space_group_name_H-M   'P 1'
_cell_length_a   9.92639844
_cell_length_b   9.92639841
_cell_length_c   13.49028100
_cell_angle_alpha   90.00000000
_cell_angle_beta   90.00000000
_cell_angle_gamma   154.38027999
_symmetry_Int_Tables_number   1
_chemical_formula_structural   Ba2PrInSe5
_chemical_formula_sum   'Ba4 Pr2 In2 Se10'
_cell_volume   574.75953518
_cell_formula_units_Z   2
loop_
 _symmetry_equiv_pos_site_id
 _symmetry_equiv_pos_as_xyz
  1  'x, y, z'
loop_
 _atom_site_type_symbol
 _atom_site_label
 _atom_site_symmetry_multiplicity
 _atom_site_fract_x
 _atom_site_fract_y
 _atom_site_fract_z
 _atom_site_occupancy
  Ba  Ba0  1  0.870383  0.129617  0.185081  1
  Ba  Ba1  1  0.129617  0.870383  0.685081  1
  Ba  Ba2  1  0.884078  0.115922  0.819814  1
  Ba  Ba3  1  0.115922  0.884078  0.319814  1
  Pr  Pr4  1  0.788685  0.211315  0.482628  1
  Pr  Pr5  1  0.211315  0.788685  0.982628  1
  In  In6  1  0.552758  0.447242  0.062904  1
  In  In7  1  0.447242  0.552758  0.562904  1
  Se  Se8  1  0.640630  0.359370  0.499487  1
  Se  Se9  1  0.359370  0.640630  0.999487  1
  Se  Se10  1  0.709075  0.290925  0.836772  1
  Se  Se11  1  0.290925  0.709075  0.336772  1
  Se  Se12  1  0.684600  0.315400  0.135471  1
  Se  Se13  1  0.315400  0.684600  0.635471  1
  Se  Se14  1  0.495269  0.504731  0.233849  1
  Se  Se15  1  0.504731  0.495269  0.733849  1
  Se  Se16  1  0.951882  0.048118  0.450885  1
  Se  Se17  1  0.048118  0.951882  0.950885  1
