# generated using pymatgen
data_Ta2Ti17Si16W
_symmetry_space_group_name_H-M   'P 1'
_cell_length_a   6.70034060
_cell_length_b   6.70033967
_cell_length_c   12.24852788
_cell_angle_alpha   90.00187614
_cell_angle_beta   89.99812411
_cell_angle_gamma   89.99813249
_symmetry_Int_Tables_number   1
_chemical_formula_structural   Ta2Ti17Si16W
_chemical_formula_sum   'Ta2 Ti17 Si16 W1'
_cell_volume   549.89224302
_cell_formula_units_Z   1
loop_
 _symmetry_equiv_pos_site_id
 _symmetry_equiv_pos_as_xyz
  1  'x, y, z'
loop_
 _atom_site_type_symbol
 _atom_site_label
 _atom_site_symmetry_multiplicity
 _atom_site_fract_x
 _atom_site_fract_y
 _atom_site_fract_z
 _atom_site_occupancy
  Ta  Ta0  1  0.328493  0.670947  0.249674  1
  Ta  Ta1  1  0.670947  0.328493  0.750326  1
  Ti  Ti2  1  0.995218  0.149921  0.621572  1
  Ti  Ti3  1  0.350337  0.494946  0.871625  1
  Ti  Ti4  1  0.649174  0.504957  0.371431  1
  Ti  Ti5  1  0.494946  0.350337  0.128375  1
  Ti  Ti6  1  0.504957  0.649174  0.628569  1
  Ti  Ti7  1  0.005994  0.850039  0.120899  1
  Ti  Ti8  1  0.149921  0.995218  0.378428  1
  Ti  Ti9  1  0.850039  0.005994  0.879101  1
  Ti  Ti10  1  0.004414  0.345273  0.219603  1
  Ti  Ti11  1  0.156697  0.504500  0.468918  1
  Ti  Ti12  1  0.842081  0.495227  0.969564  1
  Ti  Ti13  1  0.504500  0.156697  0.531082  1
  Ti  Ti14  1  0.495227  0.842081  0.030436  1
  Ti  Ti15  1  0.995719  0.656647  0.719952  1
  Ti  Ti16  1  0.345273  0.004414  0.780397  1
  Ti  Ti17  1  0.656647  0.995719  0.280048  1
  Ti  Ti18  1  0.829850  0.829850  0.500000  1
  Si  Si19  1  0.047135  0.300341  0.813345  1
  Si  Si20  1  0.197100  0.542254  0.061709  1
  Si  Si21  1  0.803243  0.457172  0.561353  1
  Si  Si22  1  0.542254  0.197100  0.938291  1
  Si  Si23  1  0.457172  0.803243  0.438647  1
  Si  Si24  1  0.952628  0.699808  0.314184  1
  Si  Si25  1  0.300341  0.047135  0.186655  1
  Si  Si26  1  0.699808  0.952628  0.685816  1
  Si  Si27  1  0.292607  0.358935  0.671782  1
  Si  Si28  1  0.141341  0.794638  0.921674  1
  Si  Si29  1  0.857937  0.205264  0.422794  1
  Si  Si30  1  0.794638  0.141341  0.078326  1
  Si  Si31  1  0.205264  0.857937  0.577206  1
  Si  Si32  1  0.707456  0.641219  0.172180  1
  Si  Si33  1  0.358935  0.292607  0.328218  1
  Si  Si34  1  0.641219  0.707456  0.827820  1
  W  W35  1  0.170481  0.170481  0.000000  1
