# generated using pymatgen
data_Y4Cu3Pd
_symmetry_space_group_name_H-M   'P 1'
_cell_length_a   4.50816000
_cell_length_b   5.46182333
_cell_length_c   7.15754981
_cell_angle_alpha   89.91925200
_cell_angle_beta   90.00000000
_cell_angle_gamma   90.00000000
_symmetry_Int_Tables_number   1
_chemical_formula_structural   Y4Cu3Pd
_chemical_formula_sum   'Y4 Cu3 Pd1'
_cell_volume   176.23855254
_cell_formula_units_Z   1
loop_
 _symmetry_equiv_pos_site_id
 _symmetry_equiv_pos_as_xyz
  1  'x, y, z'
loop_
 _atom_site_type_symbol
 _atom_site_label
 _atom_site_symmetry_multiplicity
 _atom_site_fract_x
 _atom_site_fract_y
 _atom_site_fract_z
 _atom_site_occupancy
  Y  Y0  1  0.250000  0.363041  0.681936  1
  Y  Y1  1  0.250000  0.134951  0.182148  1
  Y  Y2  1  0.750000  0.638009  0.319648  1
  Y  Y3  1  0.750000  0.864467  0.816596  1
  Cu  Cu4  1  0.250000  0.623621  0.033014  1
  Cu  Cu5  1  0.750000  0.136303  0.462794  1
  Cu  Cu6  1  0.750000  0.375254  0.968183  1
  Pd  Pd7  1  0.250000  0.864353  0.535682  1
