# generated using pymatgen
data_Ho5LuAl18(Si3Os4)2
_symmetry_space_group_name_H-M   'P 1'
_cell_length_a   8.69219700
_cell_length_b   8.66843745
_cell_length_c   9.52447000
_cell_angle_alpha   90.00000000
_cell_angle_beta   90.00000000
_cell_angle_gamma   120.09070678
_symmetry_Int_Tables_number   1
_chemical_formula_structural   Ho5LuAl18(Si3Os4)2
_chemical_formula_sum   'Ho5 Lu1 Al18 Si6 Os8'
_cell_volume   620.93215404
_cell_formula_units_Z   1
loop_
 _symmetry_equiv_pos_site_id
 _symmetry_equiv_pos_as_xyz
  1  'x, y, z'
loop_
 _atom_site_type_symbol
 _atom_site_label
 _atom_site_symmetry_multiplicity
 _atom_site_fract_x
 _atom_site_fract_y
 _atom_site_fract_z
 _atom_site_occupancy
  Ho  Ho0  1  0.806582  0.613164  0.750000  1
  Ho  Ho1  1  0.609660  0.807280  0.250000  1
  Ho  Ho2  1  0.390032  0.192307  0.750000  1
  Ho  Ho3  1  0.197621  0.807280  0.250000  1
  Ho  Ho4  1  0.802276  0.192307  0.750000  1
  Lu  Lu5  1  0.194899  0.389798  0.250000  1
  Al  Al6  1  0.164953  0.329905  0.578131  1
  Al  Al7  1  0.834981  0.669962  0.421221  1
  Al  Al8  1  0.670414  0.834555  0.576896  1
  Al  Al9  1  0.834981  0.669962  0.078779  1
  Al  Al10  1  0.329215  0.165521  0.422705  1
  Al  Al11  1  0.164953  0.329905  0.921869  1
  Al  Al12  1  0.164142  0.834555  0.576896  1
  Al  Al13  1  0.329215  0.165521  0.077295  1
  Al  Al14  1  0.836307  0.165521  0.422705  1
  Al  Al15  1  0.670414  0.834555  0.923104  1
  Al  Al16  1  0.836307  0.165521  0.077295  1
  Al  Al17  1  0.164142  0.834555  0.923104  1
  Al  Al18  1  0.873217  0.432960  0.250000  1
  Al  Al19  1  0.127326  0.566738  0.750000  1
  Al  Al20  1  0.559742  0.432960  0.250000  1
  Al  Al21  1  0.439413  0.566738  0.750000  1
  Al  Al22  1  0.000233  0.000467  0.250000  1
  Al  Al23  1  0.000597  0.001193  0.750000  1
  Si  Si24  1  0.331563  0.663125  0.040329  1
  Si  Si25  1  0.667936  0.335872  0.960520  1
  Si  Si26  1  0.667936  0.335872  0.539480  1
  Si  Si27  1  0.331563  0.663125  0.459671  1
  Si  Si28  1  0.563472  0.126945  0.250000  1
  Si  Si29  1  0.436588  0.873173  0.750000  1
  Os  Os30  1  0.499887  0.999775  0.000031  1
  Os  Os31  1  0.000268  0.499775  0.000420  1
  Os  Os32  1  0.499887  0.999775  0.499969  1
  Os  Os33  1  0.499507  0.499775  0.000420  1
  Os  Os34  1  0.000268  0.499775  0.499580  1
  Os  Os35  1  0.499507  0.499775  0.499580  1
  Os  Os36  1  0.000001  0.000002  0.000021  1
  Os  Os37  1  0.000001  0.000002  0.499979  1
