# generated using pymatgen
data_Zr10CuSnPPb5
_symmetry_space_group_name_H-M   'P 1'
_cell_length_a   8.76865737
_cell_length_b   8.76033611
_cell_length_c   5.94616413
_cell_angle_alpha   89.97559352
_cell_angle_beta   90.01219001
_cell_angle_gamma   119.96860324
_symmetry_Int_Tables_number   1
_chemical_formula_structural   Zr10CuSnPPb5
_chemical_formula_sum   'Zr10 Cu1 Sn1 P1 Pb5'
_cell_volume   395.69327372
_cell_formula_units_Z   1
loop_
 _symmetry_equiv_pos_site_id
 _symmetry_equiv_pos_as_xyz
  1  'x, y, z'
loop_
 _atom_site_type_symbol
 _atom_site_label
 _atom_site_symmetry_multiplicity
 _atom_site_fract_x
 _atom_site_fract_y
 _atom_site_fract_z
 _atom_site_occupancy
  Zr  Zr0  1  0.669213  0.333685  0.001060  1
  Zr  Zr1  1  0.330787  0.664474  0.001060  1
  Zr  Zr2  1  0.330905  0.664615  0.499013  1
  Zr  Zr3  1  0.669095  0.333709  0.499013  1
  Zr  Zr4  1  0.746196  0.745991  0.742127  1
  Zr  Zr5  1  0.253804  0.999794  0.742127  1
  Zr  Zr6  1  0.000000  0.255433  0.742802  1
  Zr  Zr7  1  0.251864  0.255779  0.257439  1
  Zr  Zr8  1  0.748136  0.003915  0.257439  1
  Zr  Zr9  1  0.000000  0.742951  0.257437  1
  Cu  Cu10  1  0.000000  0.999545  0.000242  1
  Sn  Sn11  1  0.000000  0.392001  0.245931  1
  P  P12  1  0.000000  0.999500  0.499666  1
  Pb  Pb13  1  0.392136  0.390980  0.754393  1
  Pb  Pb14  1  0.607864  0.998844  0.754393  1
  Pb  Pb15  1  0.000000  0.608447  0.754723  1
  Pb  Pb16  1  0.609189  0.609763  0.245568  1
  Pb  Pb17  1  0.390811  0.000574  0.245568  1
