# generated using pymatgen
data_Tm5Os2C7
_symmetry_space_group_name_H-M   'P 1'
_cell_length_a   8.06512012
_cell_length_b   8.06512093
_cell_length_c   3.46993600
_cell_angle_alpha   90.00000000
_cell_angle_beta   90.00000000
_cell_angle_gamma   121.46454982
_symmetry_Int_Tables_number   1
_chemical_formula_structural   Tm5Os2C7
_chemical_formula_sum   'Tm5 Os2 C7'
_cell_volume   192.51896794
_cell_formula_units_Z   1
loop_
 _symmetry_equiv_pos_site_id
 _symmetry_equiv_pos_as_xyz
  1  'x, y, z'
loop_
 _atom_site_type_symbol
 _atom_site_label
 _atom_site_symmetry_multiplicity
 _atom_site_fract_x
 _atom_site_fract_y
 _atom_site_fract_z
 _atom_site_occupancy
  Tm  Tm0  1  0.500000  0.500000  0.000000  1
  Tm  Tm1  1  0.078009  0.338276  0.500000  1
  Tm  Tm2  1  0.921991  0.661724  0.500000  1
  Tm  Tm3  1  0.661724  0.921991  0.500000  1
  Tm  Tm4  1  0.338276  0.078009  0.500000  1
  Os  Os5  1  0.714138  0.285862  0.000000  1
  Os  Os6  1  0.285862  0.714138  0.000000  1
  C  C7  1  0.629531  0.370469  0.500000  1
  C  C8  1  0.370469  0.629531  0.500000  1
  C  C9  1  0.000000  0.000000  0.000000  1
  C  C10  1  0.172623  0.172623  0.000000  1
  C  C11  1  0.827377  0.827377  0.000000  1
  C  C12  1  0.000000  0.500000  0.000000  1
  C  C13  1  0.500000  0.000000  0.000000  1
