# generated using pymatgen
data_RbZnAsO4
_symmetry_space_group_name_H-M   'P 1'
_cell_length_a   5.71046200
_cell_length_b   9.17610647
_cell_length_c   9.33271025
_cell_angle_alpha   89.42597872
_cell_angle_beta   90.00000000
_cell_angle_gamma   90.00000000
_symmetry_Int_Tables_number   1
_chemical_formula_structural   RbZnAsO4
_chemical_formula_sum   'Rb4 Zn4 As4 O16'
_cell_volume   489.00767672
_cell_formula_units_Z   4
loop_
 _symmetry_equiv_pos_site_id
 _symmetry_equiv_pos_as_xyz
  1  'x, y, z'
loop_
 _atom_site_type_symbol
 _atom_site_label
 _atom_site_symmetry_multiplicity
 _atom_site_fract_x
 _atom_site_fract_y
 _atom_site_fract_z
 _atom_site_occupancy
  Rb  Rb0  1  0.940095  0.996676  0.809852  1
  Rb  Rb1  1  0.440095  0.003324  0.190148  1
  Rb  Rb2  1  0.462721  0.492970  0.316180  1
  Rb  Rb3  1  0.962721  0.507030  0.683820  1
  Zn  Zn4  1  0.467930  0.675694  0.900181  1
  Zn  Zn5  1  0.967930  0.324306  0.099819  1
  Zn  Zn6  1  0.425808  0.173987  0.581022  1
  Zn  Zn7  1  0.925808  0.826013  0.418978  1
  As  As8  1  0.465235  0.307252  0.905721  1
  As  As9  1  0.965235  0.692748  0.094279  1
  As  As10  1  0.429144  0.807421  0.564761  1
  As  As11  1  0.929144  0.192579  0.435239  1
  O  O12  1  0.208607  0.714793  0.477042  1
  O  O13  1  0.708607  0.285207  0.522958  1
  O  O14  1  0.683397  0.713348  0.527184  1
  O  O15  1  0.183397  0.286652  0.472816  1
  O  O16  1  0.307750  0.287342  0.063339  1
  O  O17  1  0.807750  0.712658  0.936661  1
  O  O18  1  0.422920  0.475919  0.827224  1
  O  O19  1  0.922920  0.524081  0.172776  1
  O  O20  1  0.759058  0.274186  0.938011  1
  O  O21  1  0.259058  0.725814  0.061989  1
  O  O22  1  0.456050  0.979840  0.494077  1
  O  O23  1  0.956050  0.020160  0.505923  1
  O  O24  1  0.372660  0.813015  0.746051  1
  O  O25  1  0.872660  0.186985  0.253949  1
  O  O26  1  0.369927  0.174795  0.789707  1
  O  O27  1  0.869927  0.825205  0.210293  1
