# generated using pymatgen
data_Tb18Sm2Si15Pt
_symmetry_space_group_name_H-M   'P 1'
_cell_length_a   7.42025463
_cell_length_b   7.75645424
_cell_length_c   14.68115400
_cell_angle_alpha   89.73352574
_cell_angle_beta   89.97634893
_cell_angle_gamma   89.92654594
_symmetry_Int_Tables_number   1
_chemical_formula_structural   Tb18Sm2Si15Pt
_chemical_formula_sum   'Tb18 Sm2 Si15 Pt1'
_cell_volume   844.96194136
_cell_formula_units_Z   1
loop_
 _symmetry_equiv_pos_site_id
 _symmetry_equiv_pos_as_xyz
  1  'x, y, z'
loop_
 _atom_site_type_symbol
 _atom_site_label
 _atom_site_symmetry_multiplicity
 _atom_site_fract_x
 _atom_site_fract_y
 _atom_site_fract_z
 _atom_site_occupancy
  Tb  Tb0  1  0.812031  0.574815  0.874558  1
  Tb  Tb1  1  0.319014  0.427657  0.126130  1
  Tb  Tb2  1  0.182516  0.928236  0.373371  1
  Tb  Tb3  1  0.682153  0.069788  0.626877  1
  Tb  Tb4  1  0.183244  0.928371  0.627397  1
  Tb  Tb5  1  0.682663  0.069946  0.372214  1
  Tb  Tb6  1  0.813987  0.572470  0.126588  1
  Tb  Tb7  1  0.320304  0.430153  0.873069  1
  Tb  Tb8  1  0.643417  0.233496  0.999684  1
  Tb  Tb9  1  0.155627  0.759948  0.000608  1
  Tb  Tb10  1  0.351412  0.263656  0.499843  1
  Tb  Tb11  1  0.851440  0.734954  0.499894  1
  Tb  Tb12  1  0.475500  0.931732  0.845347  1
  Tb  Tb13  1  0.973555  0.067177  0.153682  1
  Tb  Tb14  1  0.474877  0.931798  0.154451  1
  Tb  Tb15  1  0.972669  0.067791  0.846918  1
  Tb  Tb16  1  0.527969  0.565319  0.652245  1
  Tb  Tb17  1  0.027660  0.433664  0.347371  1
  Sm  Sm18  1  0.524791  0.567470  0.344971  1
  Sm  Sm19  1  0.025142  0.431571  0.654701  1
  Si  Si20  1  0.019709  0.351392  0.999986  1
  Si  Si21  1  0.477249  0.854432  0.500356  1
  Si  Si22  1  0.977610  0.144057  0.499573  1
  Si  Si23  1  0.649383  0.277493  0.789552  1
  Si  Si24  1  0.149211  0.721399  0.210482  1
  Si  Si25  1  0.352726  0.219316  0.289246  1
  Si  Si26  1  0.852946  0.780220  0.711284  1
  Si  Si27  1  0.356940  0.221229  0.709880  1
  Si  Si28  1  0.856675  0.778454  0.289568  1
  Si  Si29  1  0.646290  0.273452  0.208502  1
  Si  Si30  1  0.145286  0.724951  0.791299  1
  Si  Si31  1  0.770636  0.881550  0.000773  1
  Si  Si32  1  0.257984  0.125968  0.999697  1
  Si  Si33  1  0.234999  0.625155  0.500732  1
  Si  Si34  1  0.734367  0.374848  0.499124  1
  Pt  Pt35  1  0.518022  0.656068  0.000027  1
