# generated using pymatgen
data_Ce3Gd7(Sn3N)2
_symmetry_space_group_name_H-M   'P 1'
_cell_length_a   8.96494100
_cell_length_b   8.96494105
_cell_length_c   6.46934200
_cell_angle_alpha   90.00000000
_cell_angle_beta   90.00000000
_cell_angle_gamma   119.99999611
_symmetry_Int_Tables_number   1
_chemical_formula_structural   Ce3Gd7(Sn3N)2
_chemical_formula_sum   'Ce3 Gd7 Sn6 N2'
_cell_volume   450.28308551
_cell_formula_units_Z   1
loop_
 _symmetry_equiv_pos_site_id
 _symmetry_equiv_pos_as_xyz
  1  'x, y, z'
loop_
 _atom_site_type_symbol
 _atom_site_label
 _atom_site_symmetry_multiplicity
 _atom_site_fract_x
 _atom_site_fract_y
 _atom_site_fract_z
 _atom_site_occupancy
  Ce  Ce0  1  0.785130  0.785130  0.750000  1
  Ce  Ce1  1  0.214870  0.000000  0.750000  1
  Ce  Ce2  1  0.000000  0.214870  0.750000  1
  Gd  Gd3  1  0.666667  0.333333  0.000130  1
  Gd  Gd4  1  0.333333  0.666667  0.000130  1
  Gd  Gd5  1  0.333333  0.666667  0.499870  1
  Gd  Gd6  1  0.666667  0.333333  0.499870  1
  Gd  Gd7  1  0.217741  0.217741  0.250000  1
  Gd  Gd8  1  0.782259  0.000000  0.250000  1
  Gd  Gd9  1  0.000000  0.782259  0.250000  1
  Sn  Sn10  1  0.407504  0.407504  0.750000  1
  Sn  Sn11  1  0.592496  0.000000  0.750000  1
  Sn  Sn12  1  0.000000  0.592496  0.750000  1
  Sn  Sn13  1  0.596322  0.596322  0.250000  1
  Sn  Sn14  1  0.403678  0.000000  0.250000  1
  Sn  Sn15  1  0.000000  0.403678  0.250000  1
  N  N16  1  0.000000  0.000000  0.000313  1
  N  N17  1  0.000000  0.000000  0.499687  1
