# generated using pymatgen
data_Pr2Al2Cu2SiGe
_symmetry_space_group_name_H-M   'P 1'
_cell_length_a   9.11869711
_cell_length_b   9.11869654
_cell_length_c   4.15072100
_cell_angle_alpha   90.00000000
_cell_angle_beta   90.00000000
_cell_angle_gamma   153.34834473
_symmetry_Int_Tables_number   1
_chemical_formula_structural   Pr2Al2Cu2SiGe
_chemical_formula_sum   'Pr2 Al2 Cu2 Si1 Ge1'
_cell_volume   154.81552614
_cell_formula_units_Z   1
loop_
 _symmetry_equiv_pos_site_id
 _symmetry_equiv_pos_as_xyz
  1  'x, y, z'
loop_
 _atom_site_type_symbol
 _atom_site_label
 _atom_site_symmetry_multiplicity
 _atom_site_fract_x
 _atom_site_fract_y
 _atom_site_fract_z
 _atom_site_occupancy
  Pr  Pr0  1  0.900798  0.099202  0.750000  1
  Pr  Pr1  1  0.099787  0.900213  0.250000  1
  Al  Al2  1  0.248905  0.751095  0.750000  1
  Al  Al3  1  0.750462  0.249538  0.250000  1
  Cu  Cu4  1  0.671256  0.328744  0.750000  1
  Cu  Cu5  1  0.326441  0.673559  0.250000  1
  Si  Si6  1  0.540035  0.459965  0.750000  1
  Ge  Ge7  1  0.462317  0.537683  0.250000  1
