# generated using pymatgen
data_LaTb2Ir7Rh2
_symmetry_space_group_name_H-M   'P 1'
_cell_length_a   5.35167100
_cell_length_b   5.35166985
_cell_length_c   17.52172300
_cell_angle_alpha   90.00000000
_cell_angle_beta   90.00000000
_cell_angle_gamma   120.00000092
_symmetry_Int_Tables_number   1
_chemical_formula_structural   LaTb2Ir7Rh2
_chemical_formula_sum   'La2 Tb4 Ir14 Rh4'
_cell_volume   434.59643388
_cell_formula_units_Z   2
loop_
 _symmetry_equiv_pos_site_id
 _symmetry_equiv_pos_as_xyz
  1  'x, y, z'
loop_
 _atom_site_type_symbol
 _atom_site_label
 _atom_site_symmetry_multiplicity
 _atom_site_fract_x
 _atom_site_fract_y
 _atom_site_fract_z
 _atom_site_occupancy
  La  La0  1  0.333333  0.666667  0.750000  1
  La  La1  1  0.666667  0.333333  0.250000  1
  Tb  Tb2  1  0.333333  0.666667  0.540746  1
  Tb  Tb3  1  0.666667  0.333333  0.040746  1
  Tb  Tb4  1  0.666667  0.333333  0.459254  1
  Tb  Tb5  1  0.333333  0.666667  0.959254  1
  Ir  Ir6  1  0.167553  0.335106  0.124833  1
  Ir  Ir7  1  0.832447  0.664894  0.624833  1
  Ir  Ir8  1  0.664894  0.832447  0.124833  1
  Ir  Ir9  1  0.167553  0.832447  0.124833  1
  Ir  Ir10  1  0.832447  0.167553  0.624833  1
  Ir  Ir11  1  0.335106  0.167553  0.624833  1
  Ir  Ir12  1  0.832447  0.664894  0.875167  1
  Ir  Ir13  1  0.832447  0.167553  0.875167  1
  Ir  Ir14  1  0.335106  0.167553  0.875167  1
  Ir  Ir15  1  0.664894  0.832447  0.375167  1
  Ir  Ir16  1  0.167553  0.832447  0.375167  1
  Ir  Ir17  1  0.167553  0.335106  0.375167  1
  Ir  Ir18  1  0.000000  0.000000  0.000000  1
  Ir  Ir19  1  0.000000  0.000000  0.500000  1
  Rh  Rh20  1  0.000000  0.000000  0.250000  1
  Rh  Rh21  1  0.000000  0.000000  0.750000  1
  Rh  Rh22  1  0.333333  0.666667  0.250000  1
  Rh  Rh23  1  0.666667  0.333333  0.750000  1
