# generated using pymatgen
data_ScBe4NbRu5
_symmetry_space_group_name_H-M   'P 1'
_cell_length_a   3.19036800
_cell_length_b   8.58496103
_cell_length_c   10.11844207
_cell_angle_alpha   90.50373791
_cell_angle_beta   90.00000000
_cell_angle_gamma   90.00000000
_symmetry_Int_Tables_number   1
_chemical_formula_structural   ScBe4NbRu5
_chemical_formula_sum   'Sc2 Be8 Nb2 Ru10'
_cell_volume   277.12517046
_cell_formula_units_Z   2
loop_
 _symmetry_equiv_pos_site_id
 _symmetry_equiv_pos_as_xyz
  1  'x, y, z'
loop_
 _atom_site_type_symbol
 _atom_site_label
 _atom_site_symmetry_multiplicity
 _atom_site_fract_x
 _atom_site_fract_y
 _atom_site_fract_z
 _atom_site_occupancy
  Sc  Sc0  1  0.500000  0.656838  0.679378  1
  Sc  Sc1  1  0.500000  0.343162  0.320622  1
  Be  Be2  1  0.500000  0.962805  0.594128  1
  Be  Be3  1  0.500000  0.037195  0.405872  1
  Be  Be4  1  0.500000  0.841473  0.903733  1
  Be  Be5  1  0.500000  0.158527  0.096267  1
  Be  Be6  1  0.500000  0.657066  0.405537  1
  Be  Be7  1  0.500000  0.342934  0.594463  1
  Be  Be8  1  0.500000  0.464942  0.904877  1
  Be  Be9  1  0.500000  0.535058  0.095123  1
  Nb  Nb10  1  0.500000  0.842836  0.182854  1
  Nb  Nb11  1  0.500000  0.157164  0.817146  1
  Ru  Ru12  1  0.000000  0.660256  0.955878  1
  Ru  Ru13  1  0.000000  0.339744  0.044122  1
  Ru  Ru14  1  0.000000  0.842553  0.450560  1
  Ru  Ru15  1  0.000000  0.157447  0.549440  1
  Ru  Ru16  1  0.000000  0.000000  0.000000  1
  Ru  Ru17  1  0.000000  0.391166  0.759046  1
  Ru  Ru18  1  0.000000  0.608834  0.240954  1
  Ru  Ru19  1  0.000000  0.500000  0.500000  1
  Ru  Ru20  1  0.000000  0.909323  0.743531  1
  Ru  Ru21  1  0.000000  0.090677  0.256469  1
