# generated using pymatgen
data_Ca2As7Rh12
_symmetry_space_group_name_H-M   'P 1'
_cell_length_a   9.99938500
_cell_length_b   9.99938538
_cell_length_c   3.93606900
_cell_angle_alpha   90.00000000
_cell_angle_beta   90.00000000
_cell_angle_gamma   120.00000868
_symmetry_Int_Tables_number   1
_chemical_formula_structural   Ca2As7Rh12
_chemical_formula_sum   'Ca2 As7 Rh12'
_cell_volume   340.83163133
_cell_formula_units_Z   1
loop_
 _symmetry_equiv_pos_site_id
 _symmetry_equiv_pos_as_xyz
  1  'x, y, z'
loop_
 _atom_site_type_symbol
 _atom_site_label
 _atom_site_symmetry_multiplicity
 _atom_site_fract_x
 _atom_site_fract_y
 _atom_site_fract_z
 _atom_site_occupancy
  Ca  Ca0  1  0.333333  0.666667  0.748165  1
  Ca  Ca1  1  0.666667  0.333333  0.251835  1
  As  As2  1  0.000000  0.000000  0.500000  1
  As  As3  1  0.882767  0.595065  0.752131  1
  As  As4  1  0.404935  0.287702  0.752131  1
  As  As5  1  0.712298  0.117233  0.752131  1
  As  As6  1  0.117233  0.404935  0.247869  1
  As  As7  1  0.595065  0.712298  0.247869  1
  As  As8  1  0.287702  0.882767  0.247869  1
  Rh  Rh9  1  0.617368  0.556010  0.750617  1
  Rh  Rh10  1  0.443990  0.061359  0.750617  1
  Rh  Rh11  1  0.938641  0.382632  0.750617  1
  Rh  Rh12  1  0.382632  0.443990  0.249383  1
  Rh  Rh13  1  0.556010  0.938641  0.249383  1
  Rh  Rh14  1  0.061359  0.617368  0.249383  1
  Rh  Rh15  1  0.113784  0.851582  0.751291  1
  Rh  Rh16  1  0.148418  0.262202  0.751291  1
  Rh  Rh17  1  0.737798  0.886216  0.751291  1
  Rh  Rh18  1  0.886216  0.148418  0.248709  1
  Rh  Rh19  1  0.851582  0.737798  0.248709  1
  Rh  Rh20  1  0.262202  0.113784  0.248709  1
