# generated using pymatgen
data_Zr8FeSi16Ni11
_symmetry_space_group_name_H-M   'P 1'
_cell_length_a   5.20568900
_cell_length_b   6.89577732
_cell_length_c   13.76074435
_cell_angle_alpha   90.21472578
_cell_angle_beta   90.00000000
_cell_angle_gamma   90.00000000
_symmetry_Int_Tables_number   1
_chemical_formula_structural   Zr8FeSi16Ni11
_chemical_formula_sum   'Zr8 Fe1 Si16 Ni11'
_cell_volume   493.96971582
_cell_formula_units_Z   1
loop_
 _symmetry_equiv_pos_site_id
 _symmetry_equiv_pos_as_xyz
  1  'x, y, z'
loop_
 _atom_site_type_symbol
 _atom_site_label
 _atom_site_symmetry_multiplicity
 _atom_site_fract_x
 _atom_site_fract_y
 _atom_site_fract_z
 _atom_site_occupancy
  Zr  Zr0  1  0.247671  0.401773  0.145193  1
  Zr  Zr1  1  0.747602  0.096330  0.145491  1
  Zr  Zr2  1  0.252433  0.099007  0.645791  1
  Zr  Zr3  1  0.752387  0.404244  0.645519  1
  Zr  Zr4  1  0.247671  0.598227  0.354807  1
  Zr  Zr5  1  0.747602  0.903670  0.354509  1
  Zr  Zr6  1  0.252433  0.900993  0.854209  1
  Zr  Zr7  1  0.752387  0.595756  0.854481  1
  Fe  Fe8  1  0.253318  0.500000  0.750000  1
  Si  Si9  1  0.247281  0.020948  0.068103  1
  Si  Si10  1  0.747301  0.524184  0.432434  1
  Si  Si11  1  0.752636  0.024903  0.568432  1
  Si  Si12  1  0.497062  0.750142  0.188602  1
  Si  Si13  1  0.005169  0.251996  0.811075  1
  Si  Si14  1  0.500995  0.251268  0.811082  1
  Si  Si15  1  0.247281  0.979052  0.431897  1
  Si  Si16  1  0.252569  0.520026  0.928343  1
  Si  Si17  1  0.997189  0.749479  0.188611  1
  Si  Si18  1  0.747301  0.475816  0.067566  1
  Si  Si19  1  0.252569  0.479974  0.571657  1
  Si  Si20  1  0.497062  0.249858  0.311398  1
  Si  Si21  1  0.005169  0.748004  0.688925  1
  Si  Si22  1  0.752636  0.975097  0.931568  1
  Si  Si23  1  0.500995  0.748732  0.688918  1
  Si  Si24  1  0.997189  0.250521  0.311389  1
  Ni  Ni25  1  0.998975  0.249126  0.978222  1
  Ni  Ni26  1  0.500187  0.251087  0.478324  1
  Ni  Ni27  1  0.753551  0.000000  0.750000  1
  Ni  Ni28  1  0.500016  0.245949  0.978244  1
  Ni  Ni29  1  0.746771  0.500000  0.250000  1
  Ni  Ni30  1  0.500016  0.754051  0.521756  1
  Ni  Ni31  1  0.000349  0.253889  0.478294  1
  Ni  Ni32  1  0.000349  0.746111  0.021706  1
  Ni  Ni33  1  0.246717  0.000000  0.250000  1
  Ni  Ni34  1  0.500187  0.748913  0.021676  1
  Ni  Ni35  1  0.998975  0.750874  0.521778  1
