# generated using pymatgen
data_Sc5In(Ni7B2)2
_symmetry_space_group_name_H-M   'P 1'
_cell_length_a   4.88364174
_cell_length_b   4.89916444
_cell_length_c   14.03366717
_cell_angle_alpha   89.98546498
_cell_angle_beta   90.00269085
_cell_angle_gamma   120.02298786
_symmetry_Int_Tables_number   1
_chemical_formula_structural   Sc5In(Ni7B2)2
_chemical_formula_sum   'Sc5 In1 Ni14 B4'
_cell_volume   290.71467499
_cell_formula_units_Z   1
loop_
 _symmetry_equiv_pos_site_id
 _symmetry_equiv_pos_as_xyz
  1  'x, y, z'
loop_
 _atom_site_type_symbol
 _atom_site_label
 _atom_site_symmetry_multiplicity
 _atom_site_fract_x
 _atom_site_fract_y
 _atom_site_fract_z
 _atom_site_occupancy
  Sc  Sc0  1  0.666551  0.333190  0.034231  1
  Sc  Sc1  1  0.666775  0.333397  0.468113  1
  Sc  Sc2  1  0.333430  0.666734  0.963433  1
  Sc  Sc3  1  0.333563  0.666730  0.745078  1
  Sc  Sc4  1  0.666491  0.333201  0.250562  1
  In  In5  1  0.333804  0.667035  0.532569  1
  Ni  Ni6  1  0.000197  0.000153  0.999871  1
  Ni  Ni7  1  0.000305  0.000038  0.500516  1
  Ni  Ni8  1  0.166463  0.333378  0.144874  1
  Ni  Ni9  1  0.833885  0.667447  0.647509  1
  Ni  Ni10  1  0.666393  0.833144  0.144559  1
  Ni  Ni11  1  0.166500  0.832990  0.144810  1
  Ni  Ni12  1  0.833756  0.166600  0.647462  1
  Ni  Ni13  1  0.332803  0.166345  0.647239  1
  Ni  Ni14  1  0.833405  0.666379  0.855132  1
  Ni  Ni15  1  0.833060  0.166869  0.855240  1
  Ni  Ni16  1  0.333607  0.166891  0.855453  1
  Ni  Ni17  1  0.667104  0.833428  0.353535  1
  Ni  Ni18  1  0.166027  0.833494  0.353447  1
  Ni  Ni19  1  0.165955  0.332554  0.353357  1
  B  B20  1  0.333490  0.666739  0.249195  1
  B  B21  1  0.666458  0.333209  0.751525  1
  B  B22  1  0.999560  0.999716  0.250642  1
  B  B23  1  0.000423  0.000336  0.751643  1
