# generated using pymatgen
data_Dy3Y5(LuPb3)2
_symmetry_space_group_name_H-M   'P 1'
_cell_length_a   9.04361501
_cell_length_b   9.04347507
_cell_length_c   6.62324900
_cell_angle_alpha   89.99910391
_cell_angle_beta   90.00125006
_cell_angle_gamma   119.99673276
_symmetry_Int_Tables_number   1
_chemical_formula_structural   Dy3Y5(LuPb3)2
_chemical_formula_sum   'Dy3 Y5 Lu2 Pb6'
_cell_volume   469.13023436
_cell_formula_units_Z   1
loop_
 _symmetry_equiv_pos_site_id
 _symmetry_equiv_pos_as_xyz
  1  'x, y, z'
loop_
 _atom_site_type_symbol
 _atom_site_label
 _atom_site_symmetry_multiplicity
 _atom_site_fract_x
 _atom_site_fract_y
 _atom_site_fract_z
 _atom_site_occupancy
  Dy  Dy0  1  0.761726  0.000003  0.750688  1
  Dy  Dy1  1  0.333331  0.666665  0.499992  1
  Dy  Dy2  1  0.666674  0.333336  0.499992  1
  Y  Y3  1  0.238253  0.238290  0.750683  1
  Y  Y4  1  0.238303  0.999998  0.249318  1
  Y  Y5  1  0.999969  0.761711  0.750680  1
  Y  Y6  1  0.761701  0.761719  0.249316  1
  Y  Y7  1  0.999977  0.238281  0.249317  1
  Lu  Lu8  1  0.333332  0.666658  0.000002  1
  Lu  Lu9  1  0.666680  0.333342  0.000006  1
  Pb  Pb10  1  0.000025  0.395529  0.752512  1
  Pb  Pb11  1  0.395509  0.395524  0.247490  1
  Pb  Pb12  1  0.604525  0.000003  0.247492  1
  Pb  Pb13  1  0.604501  0.604472  0.752509  1
  Pb  Pb14  1  0.395509  0.999997  0.752512  1
  Pb  Pb15  1  0.999986  0.604473  0.247491  1
