# generated using pymatgen
data_La20GaBi2Sb5Os4
_symmetry_space_group_name_H-M   'P 1'
_cell_length_a   8.40658760
_cell_length_b   9.22580106
_cell_length_c   12.94724121
_cell_angle_alpha   90.10458673
_cell_angle_beta   90.27831296
_cell_angle_gamma   90.08154030
_symmetry_Int_Tables_number   1
_chemical_formula_structural   La20GaBi2Sb5Os4
_chemical_formula_sum   'La20 Ga1 Bi2 Sb5 Os4'
_cell_volume   1004.14117307
_cell_formula_units_Z   1
loop_
 _symmetry_equiv_pos_site_id
 _symmetry_equiv_pos_as_xyz
  1  'x, y, z'
loop_
 _atom_site_type_symbol
 _atom_site_label
 _atom_site_symmetry_multiplicity
 _atom_site_fract_x
 _atom_site_fract_y
 _atom_site_fract_z
 _atom_site_occupancy
  La  La0  1  0.838563  0.743389  0.794933  1
  La  La1  1  0.154987  0.251220  0.200401  1
  La  La2  1  0.349138  0.256552  0.710284  1
  La  La3  1  0.650922  0.747624  0.293172  1
  La  La4  1  0.381649  0.743504  0.703236  1
  La  La5  1  0.623138  0.252754  0.301361  1
  La  La6  1  0.862825  0.257219  0.800384  1
  La  La7  1  0.128568  0.747549  0.198040  1
  La  La8  1  0.948326  0.746411  0.503512  1
  La  La9  1  0.054302  0.254791  0.497048  1
  La  La10  1  0.456989  0.258195  0.990537  1
  La  La11  1  0.550833  0.741809  0.000323  1
  La  La12  1  0.678320  0.034996  0.565575  1
  La  La13  1  0.323190  0.963756  0.436205  1
  La  La14  1  0.179863  0.968732  0.938873  1
  La  La15  1  0.320980  0.535638  0.436349  1
  La  La16  1  0.814576  0.032253  0.060299  1
  La  La17  1  0.677634  0.462323  0.569040  1
  La  La18  1  0.823952  0.462936  0.062518  1
  La  La19  1  0.181427  0.536285  0.934877  1
  Ga  Ga20  1  0.570872  0.495724  0.831981  1
  Bi  Bi21  1  0.925270  0.008127  0.326815  1
  Bi  Bi22  1  0.074210  0.992596  0.673881  1
  Sb  Sb23  1  0.426297  0.505852  0.170927  1
  Sb  Sb24  1  0.073489  0.507812  0.672621  1
  Sb  Sb25  1  0.426428  0.994457  0.168848  1
  Sb  Sb26  1  0.927420  0.492881  0.327299  1
  Sb  Sb27  1  0.573681  0.005856  0.829841  1
  Os  Os28  1  0.580744  0.748911  0.516688  1
  Os  Os29  1  0.421251  0.249591  0.486107  1
  Os  Os30  1  0.075873  0.250332  0.981483  1
  Os  Os31  1  0.924290  0.749927  0.016540  1
