# generated using pymatgen
data_PaB4Ir
_symmetry_space_group_name_H-M   'P 1'
_cell_length_a   7.01386222
_cell_length_b   7.01390022
_cell_length_c   7.01319208
_cell_angle_alpha   111.80230704
_cell_angle_beta   111.80222011
_cell_angle_gamma   104.90510130
_symmetry_Int_Tables_number   1
_chemical_formula_structural   PaB4Ir
_chemical_formula_sum   'Pa4 B16 Ir4'
_cell_volume   264.33169634
_cell_formula_units_Z   4
loop_
 _symmetry_equiv_pos_site_id
 _symmetry_equiv_pos_as_xyz
  1  'x, y, z'
loop_
 _atom_site_type_symbol
 _atom_site_label
 _atom_site_symmetry_multiplicity
 _atom_site_fract_x
 _atom_site_fract_y
 _atom_site_fract_z
 _atom_site_occupancy
  Pa  Pa0  1  0.204301  0.204300  0.000040  1
  Pa  Pa1  1  0.795699  0.795700  0.999960  1
  Pa  Pa2  1  0.749988  0.250029  0.500003  1
  Pa  Pa3  1  0.250012  0.749971  0.499997  1
  B  B4  1  0.105614  0.261671  0.367276  1
  B  B5  1  0.894386  0.738329  0.632724  1
  B  B6  1  0.894350  0.261687  0.156092  1
  B  B7  1  0.105650  0.738313  0.843908  1
  B  B8  1  0.738213  0.894388  0.632612  1
  B  B9  1  0.261787  0.105612  0.367388  1
  B  B10  1  0.738199  0.105648  0.843789  1
  B  B11  1  0.261801  0.894352  0.156211  1
  B  B12  1  0.416436  0.416443  0.526461  1
  B  B13  1  0.889962  0.889954  0.473514  1
  B  B14  1  0.583548  0.109993  0.000000  1
  B  B15  1  0.109985  0.583542  0.999985  1
  B  B16  1  0.583564  0.583557  0.473539  1
  B  B17  1  0.110038  0.110046  0.526486  1
  B  B18  1  0.890015  0.416458  0.000015  1
  B  B19  1  0.416452  0.890007  0.000000  1
  Ir  Ir20  1  0.499916  0.259803  0.759834  1
  Ir  Ir21  1  0.500084  0.740197  0.240166  1
  Ir  Ir22  1  0.740280  0.500080  0.240251  1
  Ir  Ir23  1  0.259720  0.499920  0.759749  1
