# generated using pymatgen
data_Lu4Al19Os4Rh
_symmetry_space_group_name_H-M   'P 1'
_cell_length_a   7.57045058
_cell_length_b   7.57045054
_cell_length_c   9.48872526
_cell_angle_alpha   89.99619229
_cell_angle_beta   89.99619029
_cell_angle_gamma   119.74382328
_symmetry_Int_Tables_number   1
_chemical_formula_structural   Lu4Al19Os4Rh
_chemical_formula_sum   'Lu4 Al19 Os4 Rh1'
_cell_volume   472.16877996
_cell_formula_units_Z   1
loop_
 _symmetry_equiv_pos_site_id
 _symmetry_equiv_pos_as_xyz
  1  'x, y, z'
loop_
 _atom_site_type_symbol
 _atom_site_label
 _atom_site_symmetry_multiplicity
 _atom_site_fract_x
 _atom_site_fract_y
 _atom_site_fract_z
 _atom_site_occupancy
  Lu  Lu0  1  0.998115  0.672652  0.249464  1
  Lu  Lu1  1  0.001885  0.327348  0.750536  1
  Lu  Lu2  1  0.672652  0.998115  0.249464  1
  Lu  Lu3  1  0.327348  0.001885  0.750536  1
  Al  Al4  1  0.134595  0.134595  0.259709  1
  Al  Al5  1  0.865405  0.865405  0.740291  1
  Al  Al6  1  0.002641  0.346866  0.078821  1
  Al  Al7  1  0.997359  0.653134  0.921179  1
  Al  Al8  1  0.000260  0.663155  0.570288  1
  Al  Al9  1  0.336845  0.999740  0.429712  1
  Al  Al10  1  0.999740  0.336845  0.429712  1
  Al  Al11  1  0.663155  0.000260  0.570288  1
  Al  Al12  1  0.653134  0.997359  0.921179  1
  Al  Al13  1  0.346866  0.002641  0.078821  1
  Al  Al14  1  0.335527  0.335527  0.550287  1
  Al  Al15  1  0.664473  0.664473  0.449713  1
  Al  Al16  1  0.652998  0.652998  0.059143  1
  Al  Al17  1  0.347002  0.347002  0.940857  1
  Al  Al18  1  0.337184  0.551900  0.251263  1
  Al  Al19  1  0.662816  0.448100  0.748737  1
  Al  Al20  1  0.551900  0.337184  0.251263  1
  Al  Al21  1  0.448100  0.662816  0.748737  1
  Al  Al22  1  0.000000  0.000000  0.000000  1
  Os  Os23  1  0.672527  0.327473  0.000000  1
  Os  Os24  1  0.327473  0.672527  0.000000  1
  Os  Os25  1  0.327803  0.672197  0.500000  1
  Os  Os26  1  0.672197  0.327803  0.500000  1
  Rh  Rh27  1  0.000000  0.000000  0.500000  1
