# generated using pymatgen
data_Tb4(PbO4)3
_symmetry_space_group_name_H-M   'P 1'
_cell_length_a   6.60346580
_cell_length_b   6.66442706
_cell_length_c   6.55964733
_cell_angle_alpha   99.84501270
_cell_angle_beta   99.12897860
_cell_angle_gamma   99.35272938
_symmetry_Int_Tables_number   1
_chemical_formula_structural   Tb4(PbO4)3
_chemical_formula_sum   'Tb4 Pb3 O12'
_cell_volume   275.43748321
_cell_formula_units_Z   1
loop_
 _symmetry_equiv_pos_site_id
 _symmetry_equiv_pos_as_xyz
  1  'x, y, z'
loop_
 _atom_site_type_symbol
 _atom_site_label
 _atom_site_symmetry_multiplicity
 _atom_site_fract_x
 _atom_site_fract_y
 _atom_site_fract_z
 _atom_site_occupancy
  Tb  Tb0  1  0.391157  0.863345  0.699544  1
  Tb  Tb1  1  0.304150  0.607460  0.137496  1
  Tb  Tb2  1  0.142634  0.303166  0.607963  1
  Tb  Tb3  1  0.606478  0.132812  0.303121  1
  Pb  Pb4  1  0.684513  0.396506  0.860312  1
  Pb  Pb5  1  0.859128  0.690936  0.397973  1
  Pb  Pb6  1  0.000285  0.005724  0.001977  1
  O  O7  1  0.429500  0.170973  0.577725  1
  O  O8  1  0.591634  0.430553  0.176943  1
  O  O9  1  0.163564  0.588376  0.431617  1
  O  O10  1  0.576584  0.811182  0.416499  1
  O  O11  1  0.426958  0.570915  0.816515  1
  O  O12  1  0.816783  0.421357  0.583261  1
  O  O13  1  0.093333  0.315433  0.943957  1
  O  O14  1  0.683128  0.073353  0.926369  1
  O  O15  1  0.049300  0.925251  0.674814  1
  O  O16  1  0.921637  0.678460  0.059432  1
  O  O17  1  0.317390  0.933705  0.066492  1
  O  O18  1  0.941845  0.080493  0.317990  1
