# generated using pymatgen
data_Cs2NbAuSe4
_symmetry_space_group_name_H-M   'P 1'
_cell_length_a   14.97126476
_cell_length_b   13.32215641
_cell_length_c   8.05624173
_cell_angle_alpha   85.12434613
_cell_angle_beta   62.45259568
_cell_angle_gamma   32.42305157
_symmetry_Int_Tables_number   1
_chemical_formula_structural   Cs2NbAuSe4
_chemical_formula_sum   'Cs4 Nb2 Au2 Se8'
_cell_volume   585.37744901
_cell_formula_units_Z   2
loop_
 _symmetry_equiv_pos_site_id
 _symmetry_equiv_pos_as_xyz
  1  'x, y, z'
loop_
 _atom_site_type_symbol
 _atom_site_label
 _atom_site_symmetry_multiplicity
 _atom_site_fract_x
 _atom_site_fract_y
 _atom_site_fract_z
 _atom_site_occupancy
  Cs  Cs0  1  0.929560  0.929560  0.570440  1
  Cs  Cs1  1  0.570440  0.570440  0.929560  1
  Cs  Cs2  1  0.679560  0.679560  0.320440  1
  Cs  Cs3  1  0.320440  0.320440  0.679560  1
  Nb  Nb4  1  0.750000  0.750000  0.750000  1
  Nb  Nb5  1  0.500000  0.500000  0.500000  1
  Au  Au6  1  0.000000  0.000000  0.000000  1
  Au  Au7  1  0.250000  0.250000  0.250000  1
  Se  Se8  1  0.570352  0.318601  0.234966  1
  Se  Se9  1  0.876081  0.234966  0.318601  1
  Se  Se10  1  0.234966  0.876081  0.570352  1
  Se  Se11  1  0.318601  0.570352  0.876081  1
  Se  Se12  1  0.931399  0.679648  0.373919  1
  Se  Se13  1  0.373919  0.015034  0.931399  1
  Se  Se14  1  0.015034  0.373919  0.679648  1
  Se  Se15  1  0.679648  0.931399  0.015034  1
