# generated using pymatgen
data_YbP12PdRu3
_symmetry_space_group_name_H-M   'P 1'
_cell_length_a   7.04997949
_cell_length_b   7.04997968
_cell_length_c   7.04998000
_cell_angle_alpha   109.46458135
_cell_angle_beta   109.46457329
_cell_angle_gamma   109.46457133
_symmetry_Int_Tables_number   1
_chemical_formula_structural   YbP12PdRu3
_chemical_formula_sum   'Yb1 P12 Pd1 Ru3'
_cell_volume   269.80408385
_cell_formula_units_Z   1
loop_
 _symmetry_equiv_pos_site_id
 _symmetry_equiv_pos_as_xyz
  1  'x, y, z'
loop_
 _atom_site_type_symbol
 _atom_site_label
 _atom_site_symmetry_multiplicity
 _atom_site_fract_x
 _atom_site_fract_y
 _atom_site_fract_z
 _atom_site_occupancy
  Yb  Yb0  1  0.000000  0.000000  0.000000  1
  P  P1  1  0.354774  0.211996  0.856584  1
  P  P2  1  0.645226  0.788004  0.143416  1
  P  P3  1  0.647685  0.501527  0.866134  1
  P  P4  1  0.352315  0.498473  0.133866  1
  P  P5  1  0.211996  0.856584  0.354774  1
  P  P6  1  0.788004  0.143416  0.645226  1
  P  P7  1  0.501527  0.866134  0.647685  1
  P  P8  1  0.498473  0.133866  0.352315  1
  P  P9  1  0.856584  0.354774  0.211996  1
  P  P10  1  0.143416  0.645226  0.788004  1
  P  P11  1  0.866134  0.647685  0.501527  1
  P  P12  1  0.133866  0.352315  0.498473  1
  Pd  Pd13  1  0.500000  0.500000  0.500000  1
  Ru  Ru14  1  0.000000  0.000000  0.500000  1
  Ru  Ru15  1  0.500000  0.000000  0.000000  1
  Ru  Ru16  1  0.000000  0.500000  0.000000  1
