# generated using pymatgen
data_Sr4ErSc(RhO6)2
_symmetry_space_group_name_H-M   'P 1'
_cell_length_a   5.74248282
_cell_length_b   5.75710773
_cell_length_c   9.98834341
_cell_angle_alpha   54.51756591
_cell_angle_beta   90.07916985
_cell_angle_gamma   90.00941349
_symmetry_Int_Tables_number   1
_chemical_formula_structural   Sr4ErSc(RhO6)2
_chemical_formula_sum   'Sr4 Er1 Sc1 Rh2 O12'
_cell_volume   268.89204460
_cell_formula_units_Z   1
loop_
 _symmetry_equiv_pos_site_id
 _symmetry_equiv_pos_as_xyz
  1  'x, y, z'
loop_
 _atom_site_type_symbol
 _atom_site_label
 _atom_site_symmetry_multiplicity
 _atom_site_fract_x
 _atom_site_fract_y
 _atom_site_fract_z
 _atom_site_occupancy
  Sr  Sr0  1  0.479424  0.747426  0.257175  1
  Sr  Sr1  1  0.520576  0.252574  0.742825  1
  Sr  Sr2  1  0.977092  0.239723  0.255404  1
  Sr  Sr3  1  0.022908  0.760277  0.744596  1
  Er  Er4  1  0.000000  0.000000  0.000000  1
  Sc  Sc5  1  0.500000  0.000000  0.500000  1
  Rh  Rh6  1  0.000000  0.500000  0.500000  1
  Rh  Rh7  1  0.500000  0.500000  0.000000  1
  O  O8  1  0.708367  0.200585  0.034031  1
  O  O9  1  0.291633  0.799415  0.965969  1
  O  O10  1  0.221360  0.797029  0.469312  1
  O  O11  1  0.778640  0.202971  0.530688  1
  O  O12  1  0.008629  0.674101  0.263453  1
  O  O13  1  0.991371  0.325899  0.736547  1
  O  O14  1  0.509127  0.317303  0.243320  1
  O  O15  1  0.490873  0.682697  0.756680  1
  O  O16  1  0.232557  0.260068  0.033746  1
  O  O17  1  0.767443  0.739932  0.966254  1
  O  O18  1  0.731957  0.750972  0.468775  1
  O  O19  1  0.268043  0.249028  0.531225  1
