# generated using pymatgen
data_Nd2Ho4TcSb2
_symmetry_space_group_name_H-M   'P 1'
_cell_length_a   8.22131068
_cell_length_b   8.29705973
_cell_length_c   4.29392700
_cell_angle_alpha   90.00000000
_cell_angle_beta   90.00000000
_cell_angle_gamma   120.30525153
_symmetry_Int_Tables_number   1
_chemical_formula_structural   Nd2Ho4TcSb2
_chemical_formula_sum   'Nd2 Ho4 Tc1 Sb2'
_cell_volume   252.87533829
_cell_formula_units_Z   1
loop_
 _symmetry_equiv_pos_site_id
 _symmetry_equiv_pos_as_xyz
  1  'x, y, z'
loop_
 _atom_site_type_symbol
 _atom_site_label
 _atom_site_symmetry_multiplicity
 _atom_site_fract_x
 _atom_site_fract_y
 _atom_site_fract_z
 _atom_site_occupancy
  Nd  Nd0  1  0.599363  0.003624  0.500000  1
  Nd  Nd1  1  0.400637  0.404261  0.500000  1
  Ho  Ho2  1  0.237202  0.001315  0.000000  1
  Ho  Ho3  1  0.762798  0.764112  0.000000  1
  Ho  Ho4  1  0.000000  0.227579  0.000000  1
  Ho  Ho5  1  0.000000  0.605118  0.500000  1
  Tc  Tc6  1  0.000000  0.987977  0.500000  1
  Sb  Sb7  1  0.323384  0.664699  0.000000  1
  Sb  Sb8  1  0.676616  0.341314  0.000000  1
