# generated using pymatgen
data_Ac2(CdAu3)3
_symmetry_space_group_name_H-M   'P 1'
_cell_length_a   5.94663715
_cell_length_b   5.94663699
_cell_length_c   10.38441500
_cell_angle_alpha   90.00000000
_cell_angle_beta   90.00000000
_cell_angle_gamma   123.11320529
_symmetry_Int_Tables_number   1
_chemical_formula_structural   Ac2(CdAu3)3
_chemical_formula_sum   'Ac2 Cd3 Au9'
_cell_volume   307.57983200
_cell_formula_units_Z   1
loop_
 _symmetry_equiv_pos_site_id
 _symmetry_equiv_pos_as_xyz
  1  'x, y, z'
loop_
 _atom_site_type_symbol
 _atom_site_label
 _atom_site_symmetry_multiplicity
 _atom_site_fract_x
 _atom_site_fract_y
 _atom_site_fract_z
 _atom_site_occupancy
  Ac  Ac0  1  0.000000  0.500000  0.753856  1
  Ac  Ac1  1  0.500000  0.000000  0.246144  1
  Cd  Cd2  1  0.000000  0.000000  0.500000  1
  Cd  Cd3  1  0.000000  0.000000  0.000000  1
  Cd  Cd4  1  0.500000  0.500000  0.500000  1
  Au  Au5  1  0.000000  0.500000  0.056276  1
  Au  Au6  1  0.500000  0.000000  0.554598  1
  Au  Au7  1  0.500000  0.000000  0.943724  1
  Au  Au8  1  0.000000  0.500000  0.445402  1
  Au  Au9  1  0.193313  0.307482  0.250571  1
  Au  Au10  1  0.692518  0.806687  0.749429  1
  Au  Au11  1  0.307482  0.193313  0.749429  1
  Au  Au12  1  0.806687  0.692518  0.250571  1
  Au  Au13  1  0.500000  0.500000  0.000000  1
