# generated using pymatgen
data_Sm8Dy9Sc3Si15Ru
_symmetry_space_group_name_H-M   'P 1'
_cell_length_a   7.32279723
_cell_length_b   7.77340653
_cell_length_c   14.58858700
_cell_angle_alpha   90.00000000
_cell_angle_beta   90.00000000
_cell_angle_gamma   90.07696779
_symmetry_Int_Tables_number   1
_chemical_formula_structural   Sm8Dy9Sc3Si15Ru
_chemical_formula_sum   'Sm8 Dy9 Sc3 Si15 Ru1'
_cell_volume   830.42655286
_cell_formula_units_Z   1
loop_
 _symmetry_equiv_pos_site_id
 _symmetry_equiv_pos_as_xyz
  1  'x, y, z'
loop_
 _atom_site_type_symbol
 _atom_site_label
 _atom_site_symmetry_multiplicity
 _atom_site_fract_x
 _atom_site_fract_y
 _atom_site_fract_z
 _atom_site_occupancy
  Sm  Sm0  1  0.018671  0.182588  0.096196  1
  Sm  Sm1  1  0.985630  0.824477  0.900972  1
  Sm  Sm2  1  0.484382  0.680474  0.902763  1
  Sm  Sm3  1  0.985630  0.824477  0.599028  1
  Sm  Sm4  1  0.515776  0.318200  0.096102  1
  Sm  Sm5  1  0.018671  0.182588  0.403804  1
  Sm  Sm6  1  0.515776  0.318200  0.403898  1
  Sm  Sm7  1  0.484382  0.680474  0.597237  1
  Dy  Dy8  1  0.842914  0.486938  0.250000  1
  Dy  Dy9  1  0.312019  0.173205  0.629360  1
  Dy  Dy10  1  0.675565  0.824925  0.375636  1
  Dy  Dy11  1  0.177119  0.681209  0.376329  1
  Dy  Dy12  1  0.675565  0.824925  0.124364  1
  Dy  Dy13  1  0.832312  0.316267  0.628808  1
  Dy  Dy14  1  0.312019  0.173205  0.870640  1
  Dy  Dy15  1  0.832312  0.316267  0.871192  1
  Dy  Dy16  1  0.177119  0.681209  0.123671  1
  Sc  Sc17  1  0.156971  0.513876  0.750000  1
  Sc  Sc18  1  0.340866  0.017019  0.250000  1
  Sc  Sc19  1  0.670154  0.987156  0.750000  1
  Si  Si20  1  0.974590  0.899617  0.250000  1
  Si  Si21  1  0.471291  0.605037  0.250000  1
  Si  Si22  1  0.521198  0.402197  0.750000  1
  Si  Si23  1  0.282106  0.862126  0.750000  1
  Si  Si24  1  0.717070  0.125515  0.250000  1
  Si  Si25  1  0.225884  0.368167  0.250000  1
  Si  Si26  1  0.775198  0.628116  0.750000  1
  Si  Si27  1  0.154072  0.472205  0.539901  1
  Si  Si28  1  0.849151  0.532374  0.463565  1
  Si  Si29  1  0.348607  0.970150  0.461527  1
  Si  Si30  1  0.849151  0.532374  0.036435  1
  Si  Si31  1  0.648913  0.031536  0.540477  1
  Si  Si32  1  0.154072  0.472205  0.960099  1
  Si  Si33  1  0.648913  0.031536  0.959523  1
  Si  Si34  1  0.348607  0.970150  0.038473  1
  Ru  Ru35  1  0.017324  0.089016  0.750000  1
