# generated using pymatgen
data_Th7ReTcOs
_symmetry_space_group_name_H-M   'P 1'
_cell_length_a   10.02297331
_cell_length_b   9.96790539
_cell_length_c   6.35010008
_cell_angle_alpha   90.00000135
_cell_angle_beta   89.95434611
_cell_angle_gamma   119.81841963
_symmetry_Int_Tables_number   1
_chemical_formula_structural   Th7ReTcOs
_chemical_formula_sum   'Th14 Re2 Tc2 Os2'
_cell_volume   550.43144305
_cell_formula_units_Z   2
loop_
 _symmetry_equiv_pos_site_id
 _symmetry_equiv_pos_as_xyz
  1  'x, y, z'
loop_
 _atom_site_type_symbol
 _atom_site_label
 _atom_site_symmetry_multiplicity
 _atom_site_fract_x
 _atom_site_fract_y
 _atom_site_fract_z
 _atom_site_occupancy
  Th  Th0  1  0.460257  0.536581  0.297856  1
  Th  Th1  1  0.076659  0.538329  0.296789  1
  Th  Th2  1  0.919904  0.459952  0.799357  1
  Th  Th3  1  0.252586  0.126293  0.508482  1
  Th  Th4  1  0.541667  0.077605  0.798051  1
  Th  Th5  1  0.750857  0.875428  0.008343  1
  Th  Th6  1  0.666721  0.333360  0.280959  1
  Th  Th7  1  0.125077  0.873539  0.005677  1
  Th  Th8  1  0.460257  0.923677  0.297856  1
  Th  Th9  1  0.541667  0.464063  0.798051  1
  Th  Th10  1  0.873528  0.125554  0.506660  1
  Th  Th11  1  0.125077  0.251538  0.005677  1
  Th  Th12  1  0.873528  0.747974  0.506660  1
  Th  Th13  1  0.332632  0.666316  0.782941  1
  Re  Re14  1  0.626386  0.813193  0.550972  1
  Re  Re15  1  0.369973  0.184986  0.047133  1
  Tc  Tc16  1  0.816835  0.631081  0.047520  1
  Tc  Tc17  1  0.816835  0.185754  0.047520  1
  Os  Os18  1  0.184777  0.373135  0.548746  1
  Os  Os19  1  0.184777  0.811642  0.548746  1
