# generated using pymatgen
data_Tm12InFe3Sn
_symmetry_space_group_name_H-M   'P 1'
_cell_length_a   8.24375376
_cell_length_b   8.24375396
_cell_length_c   8.24375387
_cell_angle_alpha   108.78635631
_cell_angle_beta   108.71540944
_cell_angle_gamma   110.92171769
_symmetry_Int_Tables_number   1
_chemical_formula_structural   Tm12InFe3Sn
_chemical_formula_sum   'Tm12 In1 Fe3 Sn1'
_cell_volume   431.06580291
_cell_formula_units_Z   1
loop_
 _symmetry_equiv_pos_site_id
 _symmetry_equiv_pos_as_xyz
  1  'x, y, z'
loop_
 _atom_site_type_symbol
 _atom_site_label
 _atom_site_symmetry_multiplicity
 _atom_site_fract_x
 _atom_site_fract_y
 _atom_site_fract_z
 _atom_site_occupancy
  Tm  Tm0  1  0.192985  0.428583  0.235598  1
  Tm  Tm1  1  0.807015  0.571417  0.764402  1
  Tm  Tm2  1  0.192985  0.957387  0.764402  1
  Tm  Tm3  1  0.954435  0.191399  0.763036  1
  Tm  Tm4  1  0.807015  0.042613  0.235598  1
  Tm  Tm5  1  0.045565  0.808601  0.236964  1
  Tm  Tm6  1  0.428363  0.191399  0.236964  1
  Tm  Tm7  1  0.571637  0.808601  0.763036  1
  Tm  Tm8  1  0.308140  0.306248  0.614387  1
  Tm  Tm9  1  0.691860  0.693752  0.385613  1
  Tm  Tm10  1  0.691860  0.306248  0.998108  1
  Tm  Tm11  1  0.308140  0.693752  0.001892  1
  In  In12  1  0.500000  0.000000  0.500000  1
  Fe  Fe13  1  0.386019  0.386019  0.000000  1
  Fe  Fe14  1  0.613981  0.613981  0.000000  1
  Fe  Fe15  1  0.000000  0.000000  0.000000  1
  Sn  Sn16  1  0.000000  0.500000  0.500000  1
