# generated using pymatgen
data_La2Lu2ReTcB12
_symmetry_space_group_name_H-M   'P 1'
_cell_length_a   3.73801800
_cell_length_b   9.21200708
_cell_length_c   11.71889022
_cell_angle_alpha   90.02751695
_cell_angle_beta   90.00000000
_cell_angle_gamma   90.00000000
_symmetry_Int_Tables_number   1
_chemical_formula_structural   La2Lu2ReTcB12
_chemical_formula_sum   'La4 Lu4 Re2 Tc2 B24'
_cell_volume   403.53581648
_cell_formula_units_Z   2
loop_
 _symmetry_equiv_pos_site_id
 _symmetry_equiv_pos_as_xyz
  1  'x, y, z'
loop_
 _atom_site_type_symbol
 _atom_site_label
 _atom_site_symmetry_multiplicity
 _atom_site_fract_x
 _atom_site_fract_y
 _atom_site_fract_z
 _atom_site_occupancy
  La  La0  1  0.000000  0.322900  0.414930  1
  La  La1  1  0.000000  0.677100  0.585070  1
  La  La2  1  0.000000  0.822335  0.085337  1
  La  La3  1  0.000000  0.177665  0.914663  1
  Lu  Lu4  1  0.000000  0.941955  0.367469  1
  Lu  Lu5  1  0.000000  0.058045  0.632531  1
  Lu  Lu6  1  0.000000  0.443168  0.132837  1
  Lu  Lu7  1  0.000000  0.556832  0.867163  1
  Re  Re8  1  0.000000  0.140602  0.182177  1
  Re  Re9  1  0.000000  0.859398  0.817823  1
  Tc  Tc10  1  0.000000  0.640810  0.317565  1
  Tc  Tc11  1  0.000000  0.359190  0.682435  1
  B  B12  1  0.500000  0.557180  0.428147  1
  B  B13  1  0.500000  0.442820  0.571853  1
  B  B14  1  0.500000  0.056978  0.071642  1
  B  B15  1  0.500000  0.943022  0.928358  1
  B  B16  1  0.500000  0.751440  0.413931  1
  B  B17  1  0.500000  0.248560  0.586069  1
  B  B18  1  0.500000  0.251873  0.085949  1
  B  B19  1  0.500000  0.748127  0.914051  1
  B  B20  1  0.500000  0.791875  0.265574  1
  B  B21  1  0.500000  0.208125  0.734426  1
  B  B22  1  0.500000  0.292176  0.234783  1
  B  B23  1  0.500000  0.707824  0.765217  1
  B  B24  1  0.500000  0.628667  0.186211  1
  B  B25  1  0.500000  0.371333  0.813789  1
  B  B26  1  0.500000  0.128649  0.314267  1
  B  B27  1  0.500000  0.871351  0.685733  1
  B  B28  1  0.500000  0.984589  0.213928  1
  B  B29  1  0.500000  0.015411  0.786072  1
  B  B30  1  0.500000  0.484815  0.286236  1
  B  B31  1  0.500000  0.515185  0.713764  1
  B  B32  1  0.500000  0.593003  0.025125  1
  B  B33  1  0.500000  0.406997  0.974875  1
  B  B34  1  0.500000  0.093086  0.474658  1
  B  B35  1  0.500000  0.906914  0.525342  1
