# generated using pymatgen
data_Nd4TmRu2
_symmetry_space_group_name_H-M   'P 1'
_cell_length_a   6.56412024
_cell_length_b   7.33551798
_cell_length_c   8.76512962
_cell_angle_alpha   96.01746451
_cell_angle_beta   111.99002752
_cell_angle_gamma   90.00000209
_symmetry_Int_Tables_number   1
_chemical_formula_structural   Nd4TmRu2
_chemical_formula_sum   'Nd8 Tm2 Ru4'
_cell_volume   388.83793506
_cell_formula_units_Z   2
loop_
 _symmetry_equiv_pos_site_id
 _symmetry_equiv_pos_as_xyz
  1  'x, y, z'
loop_
 _atom_site_type_symbol
 _atom_site_label
 _atom_site_symmetry_multiplicity
 _atom_site_fract_x
 _atom_site_fract_y
 _atom_site_fract_z
 _atom_site_occupancy
  Nd  Nd0  1  0.793223  0.083771  0.817726  1
  Nd  Nd1  1  0.975497  0.416229  0.182274  1
  Nd  Nd2  1  0.206777  0.916229  0.182274  1
  Nd  Nd3  1  0.024503  0.583771  0.817726  1
  Nd  Nd4  1  0.208217  0.186368  0.570274  1
  Nd  Nd5  1  0.637942  0.313632  0.429726  1
  Nd  Nd6  1  0.791783  0.813632  0.429726  1
  Nd  Nd7  1  0.362058  0.686368  0.570274  1
  Tm  Tm8  1  0.427927  0.250000  0.000000  1
  Tm  Tm9  1  0.572073  0.750000  0.000000  1
  Ru  Ru10  1  0.600563  0.426849  0.786489  1
  Ru  Ru11  1  0.814072  0.073151  0.213511  1
  Ru  Ru12  1  0.399437  0.573151  0.213511  1
  Ru  Ru13  1  0.185928  0.926849  0.786489  1
