# generated using pymatgen
data_Lu4ScHgBi2
_symmetry_space_group_name_H-M   'P 1'
_cell_length_a   7.93899700
_cell_length_b   9.19585200
_cell_length_c   11.54776700
_cell_angle_alpha   90.00000000
_cell_angle_beta   90.00000000
_cell_angle_gamma   90.00000000
_symmetry_Int_Tables_number   1
_chemical_formula_structural   Lu4ScHgBi2
_chemical_formula_sum   'Lu16 Sc4 Hg4 Bi8'
_cell_volume   843.05444659
_cell_formula_units_Z   4
loop_
 _symmetry_equiv_pos_site_id
 _symmetry_equiv_pos_as_xyz
  1  'x, y, z'
loop_
 _atom_site_type_symbol
 _atom_site_label
 _atom_site_symmetry_multiplicity
 _atom_site_fract_x
 _atom_site_fract_y
 _atom_site_fract_z
 _atom_site_occupancy
  Lu  Lu0  1  0.348042  0.250000  0.292996  1
  Lu  Lu1  1  0.651958  0.750000  0.707004  1
  Lu  Lu2  1  0.151958  0.750000  0.792996  1
  Lu  Lu3  1  0.848042  0.250000  0.207004  1
  Lu  Lu4  1  0.185076  0.250000  0.781570  1
  Lu  Lu5  1  0.814924  0.750000  0.218430  1
  Lu  Lu6  1  0.314924  0.750000  0.281570  1
  Lu  Lu7  1  0.685076  0.250000  0.718430  1
  Lu  Lu8  1  0.191656  0.062152  0.055925  1
  Lu  Lu9  1  0.808344  0.937848  0.944075  1
  Lu  Lu10  1  0.308344  0.937848  0.555925  1
  Lu  Lu11  1  0.808344  0.562152  0.944075  1
  Lu  Lu12  1  0.691656  0.062152  0.444075  1
  Lu  Lu13  1  0.191656  0.437848  0.055925  1
  Lu  Lu14  1  0.691656  0.437848  0.444075  1
  Lu  Lu15  1  0.308344  0.562152  0.555925  1
  Sc  Sc16  1  0.033182  0.250000  0.508857  1
  Sc  Sc17  1  0.966818  0.750000  0.491143  1
  Sc  Sc18  1  0.466818  0.750000  0.008857  1
  Sc  Sc19  1  0.533182  0.250000  0.991143  1
  Hg  Hg20  1  0.403980  0.250000  0.543644  1
  Hg  Hg21  1  0.596020  0.750000  0.456356  1
  Hg  Hg22  1  0.096020  0.750000  0.043644  1
  Hg  Hg23  1  0.903980  0.250000  0.956356  1
  Bi  Bi24  1  0.057368  0.001981  0.325568  1
  Bi  Bi25  1  0.942632  0.998019  0.674432  1
  Bi  Bi26  1  0.442632  0.998019  0.825568  1
  Bi  Bi27  1  0.942632  0.501981  0.674432  1
  Bi  Bi28  1  0.557368  0.001981  0.174432  1
  Bi  Bi29  1  0.057368  0.498019  0.325568  1
  Bi  Bi30  1  0.557368  0.498019  0.174432  1
  Bi  Bi31  1  0.442632  0.501981  0.825568  1
