# generated using pymatgen
data_Lu6ReSnTe
_symmetry_space_group_name_H-M   'P 1'
_cell_length_a   8.01812500
_cell_length_b   8.01812357
_cell_length_c   4.31800500
_cell_angle_alpha   90.00000000
_cell_angle_beta   90.00000000
_cell_angle_gamma   120.00001003
_symmetry_Int_Tables_number   1
_chemical_formula_structural   Lu6ReSnTe
_chemical_formula_sum   'Lu6 Re1 Sn1 Te1'
_cell_volume   240.41374639
_cell_formula_units_Z   1
loop_
 _symmetry_equiv_pos_site_id
 _symmetry_equiv_pos_as_xyz
  1  'x, y, z'
loop_
 _atom_site_type_symbol
 _atom_site_label
 _atom_site_symmetry_multiplicity
 _atom_site_fract_x
 _atom_site_fract_y
 _atom_site_fract_z
 _atom_site_occupancy
  Lu  Lu0  1  0.234839  0.997196  0.500000  1
  Lu  Lu1  1  0.002804  0.237644  0.500000  1
  Lu  Lu2  1  0.762356  0.765161  0.500000  1
  Lu  Lu3  1  0.611814  0.990331  0.000000  1
  Lu  Lu4  1  0.009669  0.621483  0.000000  1
  Lu  Lu5  1  0.378517  0.388186  0.000000  1
  Re  Re6  1  0.000000  0.000000  0.000000  1
  Sn  Sn7  1  0.333333  0.666667  0.500000  1
  Te  Te8  1  0.666667  0.333333  0.500000  1
