# generated using pymatgen
data_Cs3Zr2CuTe10
_symmetry_space_group_name_H-M   'P 1'
_cell_length_a   10.24519239
_cell_length_b   11.29985867
_cell_length_c   11.54176665
_cell_angle_alpha   89.48888933
_cell_angle_beta   89.47051007
_cell_angle_gamma   78.04342189
_symmetry_Int_Tables_number   1
_chemical_formula_structural   Cs3Zr2CuTe10
_chemical_formula_sum   'Cs6 Zr4 Cu2 Te20'
_cell_volume   1307.10344633
_cell_formula_units_Z   2
loop_
 _symmetry_equiv_pos_site_id
 _symmetry_equiv_pos_as_xyz
  1  'x, y, z'
loop_
 _atom_site_type_symbol
 _atom_site_label
 _atom_site_symmetry_multiplicity
 _atom_site_fract_x
 _atom_site_fract_y
 _atom_site_fract_z
 _atom_site_occupancy
  Cs  Cs0  1  0.884470  0.891101  0.261289  1
  Cs  Cs1  1  0.115530  0.108899  0.738711  1
  Cs  Cs2  1  0.444833  0.765332  0.389341  1
  Cs  Cs3  1  0.555167  0.234668  0.610659  1
  Cs  Cs4  1  0.300247  0.625512  0.896328  1
  Cs  Cs5  1  0.699753  0.374488  0.103672  1
  Zr  Zr6  1  0.107937  0.377184  0.364204  1
  Zr  Zr7  1  0.892063  0.622816  0.635796  1
  Zr  Zr8  1  0.308660  0.159080  0.142194  1
  Zr  Zr9  1  0.691340  0.840920  0.857806  1
  Cu  Cu10  1  0.921250  0.377663  0.556089  1
  Cu  Cu11  1  0.078750  0.622337  0.443911  1
  Te  Te12  1  0.844365  0.558350  0.399053  1
  Te  Te13  1  0.155635  0.441650  0.600947  1
  Te  Te14  1  0.929679  0.206463  0.407178  1
  Te  Te15  1  0.070321  0.793537  0.592822  1
  Te  Te16  1  0.192566  0.587677  0.243293  1
  Te  Te17  1  0.807434  0.412323  0.756707  1
  Te  Te18  1  0.213757  0.116898  0.391139  1
  Te  Te19  1  0.786243  0.883102  0.608861  1
  Te  Te20  1  0.078805  0.362030  0.108509  1
  Te  Te21  1  0.921195  0.637970  0.891491  1
  Te  Te22  1  0.391014  0.355855  0.290340  1
  Te  Te23  1  0.608986  0.644145  0.709660  1
  Te  Te24  1  0.043643  0.123100  0.067969  1
  Te  Te25  1  0.956357  0.876900  0.932031  1
  Te  Te26  1  0.523988  0.091049  0.305344  1
  Te  Te27  1  0.476012  0.908951  0.694656  1
  Te  Te28  1  0.332771  0.911231  0.069622  1
  Te  Te29  1  0.667229  0.088769  0.930378  1
  Te  Te30  1  0.410453  0.245364  0.929261  1
  Te  Te31  1  0.589547  0.754636  0.070739  1
