# generated using pymatgen
data_Sc4Pa4Re3B24Mo
_symmetry_space_group_name_H-M   'P 1'
_cell_length_a   3.65309400
_cell_length_b   9.00033302
_cell_length_c   11.37967503
_cell_angle_alpha   90.00822091
_cell_angle_beta   90.00000000
_cell_angle_gamma   90.00000000
_symmetry_Int_Tables_number   1
_chemical_formula_structural   Sc4Pa4Re3B24Mo
_chemical_formula_sum   'Sc4 Pa4 Re3 B24 Mo1'
_cell_volume   374.15304340
_cell_formula_units_Z   1
loop_
 _symmetry_equiv_pos_site_id
 _symmetry_equiv_pos_as_xyz
  1  'x, y, z'
loop_
 _atom_site_type_symbol
 _atom_site_label
 _atom_site_symmetry_multiplicity
 _atom_site_fract_x
 _atom_site_fract_y
 _atom_site_fract_z
 _atom_site_occupancy
  Sc  Sc0  1  0.000000  0.945270  0.374714  1
  Sc  Sc1  1  0.000000  0.054542  0.625194  1
  Sc  Sc2  1  0.000000  0.446172  0.125324  1
  Sc  Sc3  1  0.000000  0.554610  0.874731  1
  Pa  Pa4  1  0.000000  0.320927  0.413296  1
  Pa  Pa5  1  0.000000  0.679973  0.585419  1
  Pa  Pa6  1  0.000000  0.819595  0.087027  1
  Pa  Pa7  1  0.000000  0.179588  0.914107  1
  Re  Re8  1  0.000000  0.359032  0.681234  1
  Re  Re9  1  0.000000  0.140764  0.180413  1
  Re  Re10  1  0.000000  0.859751  0.819144  1
  B  B11  1  0.500000  0.553767  0.433658  1
  B  B12  1  0.500000  0.445395  0.567398  1
  B  B13  1  0.500000  0.054410  0.067010  1
  B  B14  1  0.500000  0.945549  0.933018  1
  B  B15  1  0.500000  0.753539  0.419828  1
  B  B16  1  0.500000  0.246884  0.580836  1
  B  B17  1  0.500000  0.253525  0.080815  1
  B  B18  1  0.500000  0.746516  0.919015  1
  B  B19  1  0.500000  0.795566  0.264467  1
  B  B20  1  0.500000  0.205093  0.735044  1
  B  B21  1  0.500000  0.294346  0.235075  1
  B  B22  1  0.500000  0.705296  0.764883  1
  B  B23  1  0.500000  0.630253  0.182246  1
  B  B24  1  0.500000  0.369799  0.817321  1
  B  B25  1  0.500000  0.129899  0.316998  1
  B  B26  1  0.500000  0.870044  0.682769  1
  B  B27  1  0.500000  0.982018  0.214493  1
  B  B28  1  0.500000  0.018097  0.785314  1
  B  B29  1  0.500000  0.480852  0.285180  1
  B  B30  1  0.500000  0.518031  0.714726  1
  B  B31  1  0.500000  0.600692  0.027026  1
  B  B32  1  0.500000  0.399397  0.972388  1
  B  B33  1  0.500000  0.100580  0.472461  1
  B  B34  1  0.500000  0.899745  0.528169  1
  Mo  Mo35  1  0.000000  0.640483  0.319256  1
