# generated using pymatgen
data_CsK4SiP3
_symmetry_space_group_name_H-M   'P 1'
_cell_length_a   5.23770800
_cell_length_b   14.12136200
_cell_length_c   15.86323500
_cell_angle_alpha   90.00000000
_cell_angle_beta   90.00000000
_cell_angle_gamma   90.00000000
_symmetry_Int_Tables_number   1
_chemical_formula_structural   CsK4SiP3
_chemical_formula_sum   'Cs4 K16 Si4 P12'
_cell_volume   1173.30150374
_cell_formula_units_Z   4
loop_
 _symmetry_equiv_pos_site_id
 _symmetry_equiv_pos_as_xyz
  1  'x, y, z'
loop_
 _atom_site_type_symbol
 _atom_site_label
 _atom_site_symmetry_multiplicity
 _atom_site_fract_x
 _atom_site_fract_y
 _atom_site_fract_z
 _atom_site_occupancy
  Cs  Cs0  1  0.250000  0.128698  0.519682  1
  Cs  Cs1  1  0.750000  0.871302  0.480318  1
  Cs  Cs2  1  0.750000  0.628698  0.980318  1
  Cs  Cs3  1  0.250000  0.371302  0.019682  1
  K  K4  1  0.250000  0.426652  0.564838  1
  K  K5  1  0.750000  0.573348  0.435162  1
  K  K6  1  0.750000  0.926652  0.935162  1
  K  K7  1  0.250000  0.073348  0.064838  1
  K  K8  1  0.250000  0.815643  0.084005  1
  K  K9  1  0.750000  0.184357  0.915995  1
  K  K10  1  0.750000  0.315643  0.415995  1
  K  K11  1  0.250000  0.684357  0.584005  1
  K  K12  1  0.250000  0.232846  0.259461  1
  K  K13  1  0.750000  0.767154  0.740539  1
  K  K14  1  0.750000  0.732846  0.240539  1
  K  K15  1  0.250000  0.267154  0.759461  1
  K  K16  1  0.250000  0.945189  0.290090  1
  K  K17  1  0.750000  0.054811  0.709910  1
  K  K18  1  0.750000  0.445189  0.209910  1
  K  K19  1  0.250000  0.554811  0.790090  1
  Si  Si20  1  0.250000  0.585079  0.293300  1
  Si  Si21  1  0.750000  0.414921  0.706700  1
  Si  Si22  1  0.750000  0.085079  0.206700  1
  Si  Si23  1  0.250000  0.914921  0.793300  1
  P  P24  1  0.250000  0.593505  0.154362  1
  P  P25  1  0.750000  0.406495  0.845638  1
  P  P26  1  0.750000  0.093505  0.345638  1
  P  P27  1  0.250000  0.906495  0.654362  1
  P  P28  1  0.250000  0.444994  0.354690  1
  P  P29  1  0.750000  0.555006  0.645310  1
  P  P30  1  0.750000  0.944994  0.145310  1
  P  P31  1  0.250000  0.055006  0.854690  1
  P  P32  1  0.250000  0.714275  0.372369  1
  P  P33  1  0.750000  0.285725  0.627631  1
  P  P34  1  0.750000  0.214275  0.127631  1
  P  P35  1  0.250000  0.785725  0.872369  1
