# generated using pymatgen
data_Ho3Tm2SnBi2
_symmetry_space_group_name_H-M   'P 1'
_cell_length_a   9.04993024
_cell_length_b   9.01294326
_cell_length_c   6.40246400
_cell_angle_alpha   90.00000000
_cell_angle_beta   90.00000000
_cell_angle_gamma   119.86488959
_symmetry_Int_Tables_number   1
_chemical_formula_structural   Ho3Tm2SnBi2
_chemical_formula_sum   'Ho6 Tm4 Sn2 Bi4'
_cell_volume   452.87600658
_cell_formula_units_Z   2
loop_
 _symmetry_equiv_pos_site_id
 _symmetry_equiv_pos_as_xyz
  1  'x, y, z'
loop_
 _atom_site_type_symbol
 _atom_site_label
 _atom_site_symmetry_multiplicity
 _atom_site_fract_x
 _atom_site_fract_y
 _atom_site_fract_z
 _atom_site_occupancy
  Ho  Ho0  1  0.994384  0.758892  0.750000  1
  Ho  Ho1  1  0.994384  0.235492  0.250000  1
  Ho  Ho2  1  0.756999  0.761918  0.250000  1
  Ho  Ho3  1  0.756999  0.995081  0.750000  1
  Ho  Ho4  1  0.244890  0.245194  0.750000  1
  Ho  Ho5  1  0.244890  0.999695  0.250000  1
  Tm  Tm6  1  0.341202  0.670602  0.500000  1
  Tm  Tm7  1  0.664861  0.332430  0.000000  1
  Tm  Tm8  1  0.664861  0.332430  0.500000  1
  Tm  Tm9  1  0.341202  0.670602  0.000000  1
  Sn  Sn10  1  0.606990  0.604777  0.750000  1
  Sn  Sn11  1  0.606990  0.002214  0.250000  1
  Bi  Bi12  1  0.389414  0.998876  0.750000  1
  Bi  Bi13  1  0.389414  0.390538  0.250000  1
  Bi  Bi14  1  0.001259  0.608697  0.250000  1
  Bi  Bi15  1  0.001259  0.392562  0.750000  1
