# generated using pymatgen
data_Ga12MoIr2Os
_symmetry_space_group_name_H-M   'P 1'
_cell_length_a   6.59412695
_cell_length_b   6.58591359
_cell_length_c   6.91101000
_cell_angle_alpha   90.00000000
_cell_angle_beta   90.00000000
_cell_angle_gamma   89.83727170
_symmetry_Int_Tables_number   1
_chemical_formula_structural   Ga12MoIr2Os
_chemical_formula_sum   'Ga12 Mo1 Ir2 Os1'
_cell_volume   300.13255260
_cell_formula_units_Z   1
loop_
 _symmetry_equiv_pos_site_id
 _symmetry_equiv_pos_as_xyz
  1  'x, y, z'
loop_
 _atom_site_type_symbol
 _atom_site_label
 _atom_site_symmetry_multiplicity
 _atom_site_fract_x
 _atom_site_fract_y
 _atom_site_fract_z
 _atom_site_occupancy
  Ga  Ga0  1  0.999621  0.502164  0.500000  1
  Ga  Ga1  1  0.502142  0.000313  0.000000  1
  Ga  Ga2  1  0.498759  0.998963  0.500000  1
  Ga  Ga3  1  0.001224  0.493855  0.000000  1
  Ga  Ga4  1  0.341920  0.652045  0.237533  1
  Ga  Ga5  1  0.650561  0.345057  0.233240  1
  Ga  Ga6  1  0.162903  0.153344  0.735995  1
  Ga  Ga7  1  0.847833  0.839799  0.733192  1
  Ga  Ga8  1  0.650561  0.345057  0.766760  1
  Ga  Ga9  1  0.341920  0.652045  0.762467  1
  Ga  Ga10  1  0.847833  0.839799  0.266808  1
  Ga  Ga11  1  0.162903  0.153344  0.264005  1
  Mo  Mo12  1  0.154116  0.847218  0.500000  1
  Ir  Ir13  1  0.831012  0.170293  0.500000  1
  Ir  Ir14  1  0.663028  0.662926  0.000000  1
  Os  Os15  1  0.343665  0.343777  0.000000  1
