# generated using pymatgen
data_NdFe3CoB4
_symmetry_space_group_name_H-M   'P 1'
_cell_length_a   7.06737359
_cell_length_b   7.05081769
_cell_length_c   3.79815600
_cell_angle_alpha   90.00000000
_cell_angle_beta   90.00000000
_cell_angle_gamma   89.72289880
_symmetry_Int_Tables_number   1
_chemical_formula_structural   NdFe3CoB4
_chemical_formula_sum   'Nd2 Fe6 Co2 B8'
_cell_volume   189.26279694
_cell_formula_units_Z   2
loop_
 _symmetry_equiv_pos_site_id
 _symmetry_equiv_pos_as_xyz
  1  'x, y, z'
loop_
 _atom_site_type_symbol
 _atom_site_label
 _atom_site_symmetry_multiplicity
 _atom_site_fract_x
 _atom_site_fract_y
 _atom_site_fract_z
 _atom_site_occupancy
  Nd  Nd0  1  0.000000  0.000000  0.998856  1
  Nd  Nd1  1  0.500000  0.500000  0.499065  1
  Fe  Fe2  1  0.887264  0.367580  0.394191  1
  Fe  Fe3  1  0.112736  0.632420  0.394191  1
  Fe  Fe4  1  0.366993  0.112920  0.605477  1
  Fe  Fe5  1  0.633007  0.887080  0.605477  1
  Fe  Fe6  1  0.612215  0.131998  0.105253  1
  Fe  Fe7  1  0.387785  0.868002  0.105253  1
  Co  Co8  1  0.136629  0.387697  0.893826  1
  Co  Co9  1  0.863371  0.612303  0.893826  1
  B  B10  1  0.665032  0.801658  0.106094  1
  B  B11  1  0.334968  0.198342  0.106094  1
  B  B12  1  0.298086  0.835015  0.604091  1
  B  B13  1  0.701914  0.164985  0.604091  1
  B  B14  1  0.836897  0.703378  0.396232  1
  B  B15  1  0.163103  0.296622  0.396232  1
  B  B16  1  0.204738  0.667124  0.895876  1
  B  B17  1  0.795262  0.332876  0.895876  1
