# generated using pymatgen
data_HoTm3Os5Ru3
_symmetry_space_group_name_H-M   'P 1'
_cell_length_a   5.31174553
_cell_length_b   5.17288999
_cell_length_c   8.92964208
_cell_angle_alpha   89.99801593
_cell_angle_beta   90.01411421
_cell_angle_gamma   119.45254631
_symmetry_Int_Tables_number   1
_chemical_formula_structural   HoTm3Os5Ru3
_chemical_formula_sum   'Ho1 Tm3 Os5 Ru3'
_cell_volume   213.65084960
_cell_formula_units_Z   1
loop_
 _symmetry_equiv_pos_site_id
 _symmetry_equiv_pos_as_xyz
  1  'x, y, z'
loop_
 _atom_site_type_symbol
 _atom_site_label
 _atom_site_symmetry_multiplicity
 _atom_site_fract_x
 _atom_site_fract_y
 _atom_site_fract_z
 _atom_site_occupancy
  Ho  Ho0  1  0.668155  0.334290  0.565879  1
  Tm  Tm1  1  0.330721  0.665251  0.433048  1
  Tm  Tm2  1  0.330815  0.665278  0.066517  1
  Tm  Tm3  1  0.668686  0.334555  0.934015  1
  Os  Os4  1  0.171210  0.339659  0.750952  1
  Os  Os5  1  0.173049  0.830719  0.750934  1
  Os  Os6  1  0.657268  0.828529  0.750976  1
  Os  Os7  1  0.834470  0.662971  0.249303  1
  Os  Os8  1  0.832838  0.171680  0.249336  1
  Ru  Ru9  1  0.992660  0.996797  0.499229  1
  Ru  Ru10  1  0.992149  0.996556  0.000534  1
  Ru  Ru11  1  0.347978  0.173712  0.249278  1
