# generated using pymatgen
data_LuTh8(MgAu4)5
_symmetry_space_group_name_H-M   'P 1'
_cell_length_a   8.72540777
_cell_length_b   8.72542629
_cell_length_c   10.32710100
_cell_angle_alpha   89.85011877
_cell_angle_beta   90.14965829
_cell_angle_gamma   108.14083377
_symmetry_Int_Tables_number   1
_chemical_formula_structural   LuTh8(MgAu4)5
_chemical_formula_sum   'Lu1 Th8 Mg5 Au20'
_cell_volume   747.14788232
_cell_formula_units_Z   1
loop_
 _symmetry_equiv_pos_site_id
 _symmetry_equiv_pos_as_xyz
  1  'x, y, z'
loop_
 _atom_site_type_symbol
 _atom_site_label
 _atom_site_symmetry_multiplicity
 _atom_site_fract_x
 _atom_site_fract_y
 _atom_site_fract_z
 _atom_site_occupancy
  Lu  Lu0  1  0.490597  0.990562  0.750075  1
  Th  Th1  1  0.701946  0.302336  0.001042  1
  Th  Th2  1  0.197025  0.797749  0.498802  1
  Th  Th3  1  0.802777  0.800080  0.297326  1
  Th  Th4  1  0.300191  0.302791  0.202723  1
  Th  Th5  1  0.802318  0.201912  0.498972  1
  Th  Th6  1  0.297692  0.697008  0.001206  1
  Th  Th7  1  0.698400  0.695882  0.799612  1
  Th  Th8  1  0.195972  0.198485  0.700335  1
  Mg  Mg9  1  0.510466  0.010431  0.249827  1
  Mg  Mg10  1  0.990004  0.489987  0.750086  1
  Mg  Mg11  1  0.001161  0.000633  0.001166  1
  Mg  Mg12  1  0.011216  0.511142  0.249980  1
  Mg  Mg13  1  0.500594  0.501061  0.498621  1
  Au  Au14  1  0.159058  0.432019  0.481770  1
  Au  Au15  1  0.899719  0.902869  0.596439  1
  Au  Au16  1  0.564637  0.843308  0.511565  1
  Au  Au17  1  0.876368  0.161607  0.208135  1
  Au  Au18  1  0.377380  0.661157  0.290625  1
  Au  Au19  1  0.661714  0.376385  0.291869  1
  Au  Au20  1  0.402852  0.399710  0.903617  1
  Au  Au21  1  0.931963  0.659088  0.018277  1
  Au  Au22  1  0.339719  0.622715  0.707960  1
  Au  Au23  1  0.343282  0.064630  0.988462  1
  Au  Au24  1  0.595432  0.596681  0.096786  1
  Au  Au25  1  0.656238  0.934208  0.015287  1
  Au  Au26  1  0.096654  0.095476  0.403247  1
  Au  Au27  1  0.625290  0.342189  0.707088  1
  Au  Au28  1  0.122694  0.839765  0.792051  1
  Au  Au29  1  0.067056  0.342057  0.982904  1
  Au  Au30  1  0.842049  0.567051  0.517211  1
  Au  Au31  1  0.161082  0.877445  0.209385  1
  Au  Au32  1  0.434224  0.156196  0.484648  1
  Au  Au33  1  0.842227  0.125388  0.792898  1
