# generated using pymatgen
data_TbErLu6Ga3Co
_symmetry_space_group_name_H-M   'P 1'
_cell_length_a   9.80298600
_cell_length_b   9.79543465
_cell_length_c   6.88208500
_cell_angle_alpha   90.01151283
_cell_angle_beta   90.00000000
_cell_angle_gamma   120.02550462
_symmetry_Int_Tables_number   1
_chemical_formula_structural   TbErLu6Ga3Co
_chemical_formula_sum   'Tb2 Er2 Lu12 Ga6 Co2'
_cell_volume   572.16471861
_cell_formula_units_Z   2
loop_
 _symmetry_equiv_pos_site_id
 _symmetry_equiv_pos_as_xyz
  1  'x, y, z'
loop_
 _atom_site_type_symbol
 _atom_site_label
 _atom_site_symmetry_multiplicity
 _atom_site_fract_x
 _atom_site_fract_y
 _atom_site_fract_z
 _atom_site_occupancy
  Tb  Tb0  1  0.000111  0.000222  0.769003  1
  Tb  Tb1  1  0.000081  0.000161  0.268999  1
  Er  Er2  1  0.071583  0.536026  0.291344  1
  Er  Er3  1  0.464441  0.536026  0.291344  1
  Lu  Lu4  1  0.825434  0.650870  0.489839  1
  Lu  Lu5  1  0.349838  0.173965  0.488878  1
  Lu  Lu6  1  0.824126  0.173965  0.488878  1
  Lu  Lu7  1  0.174819  0.349636  0.984936  1
  Lu  Lu8  1  0.650649  0.826042  0.986184  1
  Lu  Lu9  1  0.175394  0.826042  0.986184  1
  Lu  Lu10  1  0.666126  0.332251  0.172486  1
  Lu  Lu11  1  0.333783  0.667566  0.672721  1
  Lu  Lu12  1  0.536984  0.073967  0.793214  1
  Lu  Lu13  1  0.925162  0.462574  0.792774  1
  Lu  Lu14  1  0.537412  0.462574  0.792774  1
  Lu  Lu15  1  0.463419  0.926838  0.292473  1
  Ga  Ga16  1  0.835837  0.671675  0.041570  1
  Ga  Ga17  1  0.328317  0.164474  0.042448  1
  Ga  Ga18  1  0.836156  0.164474  0.042448  1
  Ga  Ga19  1  0.163414  0.326826  0.542815  1
  Ga  Ga20  1  0.672082  0.836174  0.542465  1
  Ga  Ga21  1  0.164092  0.836174  0.542465  1
  Co  Co22  1  0.666565  0.333128  0.555588  1
  Co  Co23  1  0.334175  0.668351  0.054243  1
