# generated using pymatgen
data_YCu3HgRh
_symmetry_space_group_name_H-M   'P 1'
_cell_length_a   5.10010482
_cell_length_b   5.20365384
_cell_length_c   5.10010400
_cell_angle_alpha   60.65610127
_cell_angle_beta   59.99999237
_cell_angle_gamma   60.65609646
_symmetry_Int_Tables_number   1
_chemical_formula_structural   YCu3HgRh
_chemical_formula_sum   'Y1 Cu3 Hg1 Rh1'
_cell_volume   96.64690125
_cell_formula_units_Z   1
loop_
 _symmetry_equiv_pos_site_id
 _symmetry_equiv_pos_as_xyz
  1  'x, y, z'
loop_
 _atom_site_type_symbol
 _atom_site_label
 _atom_site_symmetry_multiplicity
 _atom_site_fract_x
 _atom_site_fract_y
 _atom_site_fract_z
 _atom_site_occupancy
  Y  Y0  1  0.747929  0.756214  0.747929  1
  Cu  Cu1  1  0.375663  0.372119  0.876554  1
  Cu  Cu2  1  0.876554  0.372119  0.375663  1
  Cu  Cu3  1  0.375663  0.372119  0.375663  1
  Hg  Hg4  1  0.998348  0.004956  0.998348  1
  Rh  Rh5  1  0.375843  0.872471  0.375843  1
