# generated using pymatgen
data_TmPu(Ni2B)12
_symmetry_space_group_name_H-M   'P 1'
_cell_length_a   6.01972262
_cell_length_b   6.01972334
_cell_length_c   10.95171600
_cell_angle_alpha   90.12629456
_cell_angle_beta   90.12629458
_cell_angle_gamma   104.60580569
_symmetry_Int_Tables_number   1
_chemical_formula_structural   TmPu(Ni2B)12
_chemical_formula_sum   'Tm1 Pu1 Ni24 B12'
_cell_volume   384.03053323
_cell_formula_units_Z   1
loop_
 _symmetry_equiv_pos_site_id
 _symmetry_equiv_pos_as_xyz
  1  'x, y, z'
loop_
 _atom_site_type_symbol
 _atom_site_label
 _atom_site_symmetry_multiplicity
 _atom_site_fract_x
 _atom_site_fract_y
 _atom_site_fract_z
 _atom_site_occupancy
  Tm  Tm0  1  0.834223  0.834223  0.494286  1
  Pu  Pu1  1  0.167202  0.167202  0.996512  1
  Ni  Ni2  1  0.566968  0.566968  0.918129  1
  Ni  Ni3  1  0.436558  0.436558  0.420454  1
  Ni  Ni4  1  0.780842  0.780842  0.099308  1
  Ni  Ni5  1  0.216219  0.216219  0.597307  1
  Ni  Ni6  1  0.544429  0.804437  0.732392  1
  Ni  Ni7  1  0.804437  0.544429  0.732392  1
  Ni  Ni8  1  0.456320  0.194877  0.234661  1
  Ni  Ni9  1  0.194877  0.456320  0.234661  1
  Ni  Ni10  1  0.145390  0.880619  0.754457  1
  Ni  Ni11  1  0.880619  0.145390  0.754457  1
  Ni  Ni12  1  0.854337  0.117936  0.256081  1
  Ni  Ni13  1  0.117936  0.854337  0.256081  1
  Ni  Ni14  1  0.658979  0.266825  0.567781  1
  Ni  Ni15  1  0.266825  0.658979  0.567781  1
  Ni  Ni16  1  0.342900  0.730339  0.068285  1
  Ni  Ni17  1  0.730339  0.342900  0.068285  1
  Ni  Ni18  1  0.630083  0.997110  0.937162  1
  Ni  Ni19  1  0.997110  0.630083  0.937162  1
  Ni  Ni20  1  0.368688  0.002368  0.437501  1
  Ni  Ni21  1  0.002368  0.368688  0.437501  1
  Ni  Ni22  1  0.473547  0.213112  0.775595  1
  Ni  Ni23  1  0.213112  0.473547  0.775595  1
  Ni  Ni24  1  0.527037  0.788384  0.277901  1
  Ni  Ni25  1  0.788384  0.527037  0.277901  1
  B  B26  1  0.837174  0.837174  0.838067  1
  B  B27  1  0.163830  0.163830  0.339438  1
  B  B28  1  0.487674  0.487674  0.651797  1
  B  B29  1  0.512089  0.512089  0.156111  1
  B  B30  1  0.326986  0.758737  0.884541  1
  B  B31  1  0.758737  0.326986  0.884541  1
  B  B32  1  0.672585  0.239807  0.385418  1
  B  B33  1  0.239807  0.672585  0.385418  1
  B  B34  1  0.400780  0.988125  0.622846  1
  B  B35  1  0.988125  0.400780  0.622846  1
  B  B36  1  0.599425  0.013060  0.122670  1
  B  B37  1  0.013060  0.599425  0.122670  1
