# generated using pymatgen
data_Ca3YbCe2(Si3Ru)8
_symmetry_space_group_name_H-M   'P 1'
_cell_length_a   10.16019714
_cell_length_b   10.16019575
_cell_length_c   8.18101300
_cell_angle_alpha   90.00378576
_cell_angle_beta   90.00378730
_cell_angle_gamma   132.52340296
_symmetry_Int_Tables_number   1
_chemical_formula_structural   Ca3YbCe2(Si3Ru)8
_chemical_formula_sum   'Ca3 Yb1 Ce2 Si24 Ru8'
_cell_volume   622.41429049
_cell_formula_units_Z   1
loop_
 _symmetry_equiv_pos_site_id
 _symmetry_equiv_pos_as_xyz
  1  'x, y, z'
loop_
 _atom_site_type_symbol
 _atom_site_label
 _atom_site_symmetry_multiplicity
 _atom_site_fract_x
 _atom_site_fract_y
 _atom_site_fract_z
 _atom_site_occupancy
  Ca  Ca0  1  0.500121  0.499879  0.500000  1
  Ca  Ca1  1  0.501145  0.001027  0.749980  1
  Ca  Ca2  1  0.998973  0.498855  0.250020  1
  Yb  Yb3  1  0.999942  0.000058  0.000000  1
  Ce  Ce4  1  0.494173  0.994298  0.250048  1
  Ce  Ce5  1  0.005702  0.505827  0.749952  1
  Si  Si6  1  0.796656  0.203344  0.500000  1
  Si  Si7  1  0.295463  0.704537  0.000000  1
  Si  Si8  1  0.204354  0.795646  0.500000  1
  Si  Si9  1  0.703564  0.296436  0.000000  1
  Si  Si10  1  0.329909  0.335905  0.832661  1
  Si  Si11  1  0.664095  0.670091  0.167339  1
  Si  Si12  1  0.169843  0.163874  0.332396  1
  Si  Si13  1  0.836126  0.830157  0.667604  1
  Si  Si14  1  0.122659  0.890035  0.730211  1
  Si  Si15  1  0.109965  0.877341  0.269789  1
  Si  Si16  1  0.606782  0.375026  0.230056  1
  Si  Si17  1  0.624974  0.393218  0.769944  1
  Si  Si18  1  0.874944  0.106251  0.269437  1
  Si  Si19  1  0.893749  0.125056  0.730563  1
  Si  Si20  1  0.389623  0.622686  0.770165  1
  Si  Si21  1  0.377314  0.610377  0.229835  1
  Si  Si22  1  0.346413  0.113282  0.504739  1
  Si  Si23  1  0.886718  0.653587  0.495261  1
  Si  Si24  1  0.384857  0.153996  0.008494  1
  Si  Si25  1  0.846004  0.615143  0.991506  1
  Si  Si26  1  0.653940  0.885107  0.491140  1
  Si  Si27  1  0.114893  0.346060  0.508860  1
  Si  Si28  1  0.613585  0.846441  0.995522  1
  Si  Si29  1  0.153559  0.386415  0.004478  1
  Ru  Ru30  1  0.671097  0.328903  0.500000  1
  Ru  Ru31  1  0.169069  0.830931  0.000000  1
  Ru  Ru32  1  0.330649  0.669351  0.500000  1
  Ru  Ru33  1  0.829207  0.170793  0.000000  1
  Ru  Ru34  1  0.125798  0.124972  0.625611  1
  Ru  Ru35  1  0.875028  0.874202  0.374389  1
  Ru  Ru36  1  0.373729  0.374623  0.125101  1
  Ru  Ru37  1  0.625377  0.626271  0.874899  1
