# generated using pymatgen
data_Li3Ho3IrPd2
_symmetry_space_group_name_H-M   'P 1'
_cell_length_a   7.16023300
_cell_length_b   7.16023353
_cell_length_c   3.97233400
_cell_angle_alpha   90.00000000
_cell_angle_beta   90.00000000
_cell_angle_gamma   119.99999416
_symmetry_Int_Tables_number   1
_chemical_formula_structural   Li3Ho3IrPd2
_chemical_formula_sum   'Li3 Ho3 Ir1 Pd2'
_cell_volume   176.37245362
_cell_formula_units_Z   1
loop_
 _symmetry_equiv_pos_site_id
 _symmetry_equiv_pos_as_xyz
  1  'x, y, z'
loop_
 _atom_site_type_symbol
 _atom_site_label
 _atom_site_symmetry_multiplicity
 _atom_site_fract_x
 _atom_site_fract_y
 _atom_site_fract_z
 _atom_site_occupancy
  Li  Li0  1  0.759960  0.760301  0.500000  1
  Li  Li1  1  0.239699  0.999659  0.500000  1
  Li  Li2  1  0.000341  0.240040  0.500000  1
  Ho  Ho3  1  0.418601  0.407537  0.000000  1
  Ho  Ho4  1  0.592463  0.011064  0.000000  1
  Ho  Ho5  1  0.988936  0.581399  0.000000  1
  Ir  Ir6  1  0.666667  0.333333  0.500000  1
  Pd  Pd7  1  0.000000  0.000000  0.000000  1
  Pd  Pd8  1  0.333333  0.666667  0.500000  1
