# generated using pymatgen
data_Tb2YbErNi8
_symmetry_space_group_name_H-M   'P 1'
_cell_length_a   5.05570213
_cell_length_b   5.05587354
_cell_length_c   8.77219500
_cell_angle_alpha   73.24229742
_cell_angle_beta   90.02204571
_cell_angle_gamma   120.01997704
_symmetry_Int_Tables_number   1
_chemical_formula_structural   Tb2YbErNi8
_chemical_formula_sum   'Tb2 Yb1 Er1 Ni8'
_cell_volume   183.08125074
_cell_formula_units_Z   1
loop_
 _symmetry_equiv_pos_site_id
 _symmetry_equiv_pos_as_xyz
  1  'x, y, z'
loop_
 _atom_site_type_symbol
 _atom_site_label
 _atom_site_symmetry_multiplicity
 _atom_site_fract_x
 _atom_site_fract_y
 _atom_site_fract_z
 _atom_site_occupancy
  Tb  Tb0  1  0.190187  0.880412  0.429541  1
  Tb  Tb1  1  0.685242  0.870512  0.944366  1
  Yb  Yb2  1  0.313631  0.127243  0.059080  1
  Er  Er3  1  0.811381  0.122703  0.565832  1
  Ni  Ni4  1  0.999503  0.499015  0.001481  1
  Ni  Ni5  1  0.499905  0.499813  0.500274  1
  Ni  Ni6  1  0.751204  0.002430  0.250236  1
  Ni  Ni7  1  0.249862  0.999696  0.749561  1
  Ni  Ni8  1  0.751220  0.498506  0.250244  1
  Ni  Ni9  1  0.249851  0.500582  0.749573  1
  Ni  Ni10  1  0.247306  0.498532  0.250229  1
  Ni  Ni11  1  0.750706  0.500554  0.749585  1
