# generated using pymatgen
data_ErTm7Re3TcC8
_symmetry_space_group_name_H-M   'P 1'
_cell_length_a   5.03799800
_cell_length_b   6.51302305
_cell_length_c   9.73732648
_cell_angle_alpha   89.98880059
_cell_angle_beta   90.00000000
_cell_angle_gamma   90.00000000
_symmetry_Int_Tables_number   1
_chemical_formula_structural   ErTm7Re3TcC8
_chemical_formula_sum   'Er1 Tm7 Re3 Tc1 C8'
_cell_volume   319.50696433
_cell_formula_units_Z   1
loop_
 _symmetry_equiv_pos_site_id
 _symmetry_equiv_pos_as_xyz
  1  'x, y, z'
loop_
 _atom_site_type_symbol
 _atom_site_label
 _atom_site_symmetry_multiplicity
 _atom_site_fract_x
 _atom_site_fract_y
 _atom_site_fract_z
 _atom_site_occupancy
  Er  Er0  1  0.250000  0.464645  0.217347  1
  Tm  Tm1  1  0.750000  0.534810  0.782667  1
  Tm  Tm2  1  0.250000  0.964751  0.282728  1
  Tm  Tm3  1  0.750000  0.676937  0.443035  1
  Tm  Tm4  1  0.250000  0.824232  0.942922  1
  Tm  Tm5  1  0.750000  0.176152  0.057514  1
  Tm  Tm6  1  0.250000  0.322877  0.557777  1
  Tm  Tm7  1  0.750000  0.034689  0.717633  1
  Re  Re8  1  0.250000  0.783959  0.631674  1
  Re  Re9  1  0.750000  0.216771  0.368846  1
  Re  Re10  1  0.750000  0.716776  0.131405  1
  Tc  Tc11  1  0.250000  0.283257  0.868396  1
  C  C12  1  0.250000  0.674369  0.446854  1
  C  C13  1  0.250000  0.551981  0.758494  1
  C  C14  1  0.750000  0.449405  0.240903  1
  C  C15  1  0.750000  0.825807  0.946521  1
  C  C16  1  0.250000  0.050757  0.740137  1
  C  C17  1  0.250000  0.172581  0.051922  1
  C  C18  1  0.750000  0.326169  0.553599  1
  C  C19  1  0.750000  0.949074  0.259625  1
