# generated using pymatgen
data_CaLaDy5OsBr12
_symmetry_space_group_name_H-M   'P 1'
_cell_length_a   9.23682853
_cell_length_b   9.40559865
_cell_length_c   9.43435759
_cell_angle_alpha   106.73726632
_cell_angle_beta   106.68244766
_cell_angle_gamma   107.36259161
_symmetry_Int_Tables_number   1
_chemical_formula_structural   CaLaDy5OsBr12
_chemical_formula_sum   'Ca1 La1 Dy5 Os1 Br12'
_cell_volume   683.92532181
_cell_formula_units_Z   1
loop_
 _symmetry_equiv_pos_site_id
 _symmetry_equiv_pos_as_xyz
  1  'x, y, z'
loop_
 _atom_site_type_symbol
 _atom_site_label
 _atom_site_symmetry_multiplicity
 _atom_site_fract_x
 _atom_site_fract_y
 _atom_site_fract_z
 _atom_site_occupancy
  Ca  Ca0  1  0.501386  0.499486  0.497882  1
  La  La1  1  0.692728  0.899535  0.974423  1
  Dy  Dy2  1  0.296849  0.099316  0.026307  1
  Dy  Dy3  1  0.026401  0.319291  0.105150  1
  Dy  Dy4  1  0.107785  0.027857  0.317591  1
  Dy  Dy5  1  0.897538  0.973242  0.685120  1
  Dy  Dy6  1  0.970893  0.680939  0.894609  1
  Os  Os7  1  0.988813  0.996718  0.001127  1
  Br  Br8  1  0.686853  0.236816  0.075308  1
  Br  Br9  1  0.376879  0.449680  0.156942  1
  Br  Br10  1  0.070982  0.680735  0.216912  1
  Br  Br11  1  0.790986  0.933885  0.332845  1
  Br  Br12  1  0.453881  0.157009  0.372318  1
  Br  Br13  1  0.156718  0.376327  0.452780  1
  Br  Br14  1  0.847795  0.624443  0.548491  1
  Br  Br15  1  0.544568  0.838358  0.606520  1
  Br  Br16  1  0.222966  0.071550  0.689410  1
  Br  Br17  1  0.933049  0.320490  0.784047  1
  Br  Br18  1  0.621317  0.530654  0.830662  1
  Br  Br19  1  0.311616  0.783674  0.931558  1
