# generated using pymatgen
data_Dy3Lu9Tc3Os
_symmetry_space_group_name_H-M   'P 1'
_cell_length_a   7.41381439
_cell_length_b   8.87342000
_cell_length_c   6.15841631
_cell_angle_alpha   90.00000000
_cell_angle_beta   89.95567598
_cell_angle_gamma   90.00000000
_symmetry_Int_Tables_number   1
_chemical_formula_structural   Dy3Lu9Tc3Os
_chemical_formula_sum   'Dy3 Lu9 Tc3 Os1'
_cell_volume   405.13676981
_cell_formula_units_Z   1
loop_
 _symmetry_equiv_pos_site_id
 _symmetry_equiv_pos_as_xyz
  1  'x, y, z'
loop_
 _atom_site_type_symbol
 _atom_site_label
 _atom_site_symmetry_multiplicity
 _atom_site_fract_x
 _atom_site_fract_y
 _atom_site_fract_z
 _atom_site_occupancy
  Dy  Dy0  1  0.538110  0.250000  0.879618  1
  Dy  Dy1  1  0.038252  0.250000  0.623513  1
  Dy  Dy2  1  0.459004  0.750000  0.125063  1
  Lu  Lu3  1  0.675553  0.060822  0.343982  1
  Lu  Lu4  1  0.173231  0.438168  0.153894  1
  Lu  Lu5  1  0.326928  0.563395  0.654771  1
  Lu  Lu6  1  0.824385  0.935966  0.843200  1
  Lu  Lu7  1  0.326928  0.936605  0.654771  1
  Lu  Lu8  1  0.824385  0.564034  0.843200  1
  Lu  Lu9  1  0.675553  0.439178  0.343982  1
  Lu  Lu10  1  0.173231  0.061832  0.153894  1
  Lu  Lu11  1  0.962171  0.750000  0.376744  1
  Tc  Tc12  1  0.880468  0.250000  0.047410  1
  Tc  Tc13  1  0.382326  0.250000  0.455664  1
  Tc  Tc14  1  0.117849  0.750000  0.956079  1
  Os  Os15  1  0.621627  0.750000  0.544216  1
