# generated using pymatgen
data_Zr4Pd2PtRh
_symmetry_space_group_name_H-M   'P 1'
_cell_length_a   4.46077600
_cell_length_b   5.49583845
_cell_length_c   6.25935004
_cell_angle_alpha   90.26173802
_cell_angle_beta   90.00000000
_cell_angle_gamma   90.00000000
_symmetry_Int_Tables_number   1
_chemical_formula_structural   Zr4Pd2PtRh
_chemical_formula_sum   'Zr4 Pd2 Pt1 Rh1'
_cell_volume   153.45077345
_cell_formula_units_Z   1
loop_
 _symmetry_equiv_pos_site_id
 _symmetry_equiv_pos_as_xyz
  1  'x, y, z'
loop_
 _atom_site_type_symbol
 _atom_site_label
 _atom_site_symmetry_multiplicity
 _atom_site_fract_x
 _atom_site_fract_y
 _atom_site_fract_z
 _atom_site_occupancy
  Zr  Zr0  1  0.750000  0.867834  0.828563  1
  Zr  Zr1  1  0.250000  0.350699  0.678938  1
  Zr  Zr2  1  0.750000  0.633492  0.326036  1
  Zr  Zr3  1  0.250000  0.152934  0.172395  1
  Pd  Pd4  1  0.250000  0.837279  0.542075  1
  Pd  Pd5  1  0.250000  0.662995  0.044484  1
  Pt  Pt6  1  0.750000  0.152282  0.454105  1
  Rh  Rh7  1  0.750000  0.342484  0.953405  1
