# generated using pymatgen
data_Y11Lu5(ScSb3)4
_symmetry_space_group_name_H-M   'P 1'
_cell_length_a   7.95680064
_cell_length_b   9.16404101
_cell_length_c   11.77244194
_cell_angle_alpha   90.00151434
_cell_angle_beta   90.04583033
_cell_angle_gamma   90.00354294
_symmetry_Int_Tables_number   1
_chemical_formula_structural   Y11Lu5(ScSb3)4
_chemical_formula_sum   'Y11 Lu5 Sc4 Sb12'
_cell_volume   858.40436637
_cell_formula_units_Z   1
loop_
 _symmetry_equiv_pos_site_id
 _symmetry_equiv_pos_as_xyz
  1  'x, y, z'
loop_
 _atom_site_type_symbol
 _atom_site_label
 _atom_site_symmetry_multiplicity
 _atom_site_fract_x
 _atom_site_fract_y
 _atom_site_fract_z
 _atom_site_occupancy
  Y  Y0  1  0.197369  0.560071  0.440475  1
  Y  Y1  1  0.696439  0.939802  0.059259  1
  Y  Y2  1  0.802933  0.060219  0.559628  1
  Y  Y3  1  0.184153  0.750285  0.721556  1
  Y  Y4  1  0.684405  0.749652  0.778642  1
  Y  Y5  1  0.816014  0.250377  0.278374  1
  Y  Y6  1  0.315915  0.250089  0.221110  1
  Y  Y7  1  0.854897  0.750308  0.285786  1
  Y  Y8  1  0.354924  0.750168  0.214151  1
  Y  Y9  1  0.146054  0.251040  0.714596  1
  Y  Y10  1  0.644518  0.250538  0.786193  1
  Lu  Lu11  1  0.302653  0.437467  0.940489  1
  Lu  Lu12  1  0.802970  0.437478  0.559655  1
  Lu  Lu13  1  0.303065  0.062686  0.940594  1
  Lu  Lu14  1  0.197063  0.937451  0.440397  1
  Lu  Lu15  1  0.697109  0.562465  0.059563  1
  Sc  Sc16  1  0.028807  0.749659  0.988830  1
  Sc  Sc17  1  0.528557  0.750575  0.511343  1
  Sc  Sc18  1  0.972152  0.250132  0.011074  1
  Sc  Sc19  1  0.471276  0.250393  0.488925  1
  Sb  Sb20  1  0.934176  0.496305  0.833217  1
  Sb  Sb21  1  0.432915  0.004111  0.667517  1
  Sb  Sb22  1  0.067072  0.996358  0.167089  1
  Sb  Sb23  1  0.566821  0.503926  0.332505  1
  Sb  Sb24  1  0.065686  0.503750  0.166855  1
  Sb  Sb25  1  0.565286  0.996646  0.332346  1
  Sb  Sb26  1  0.934713  0.003942  0.832671  1
  Sb  Sb27  1  0.434321  0.496561  0.667909  1
  Sb  Sb28  1  0.907480  0.747656  0.540981  1
  Sb  Sb29  1  0.406176  0.749090  0.958452  1
  Sb  Sb30  1  0.092403  0.247597  0.459145  1
  Sb  Sb31  1  0.591678  0.253204  0.040671  1
