# generated using pymatgen
data_Dy8Y12Si15Ir
_symmetry_space_group_name_H-M   'P 1'
_cell_length_a   7.44707890
_cell_length_b   7.68664606
_cell_length_c   14.62601029
_cell_angle_alpha   89.73710015
_cell_angle_beta   89.68824430
_cell_angle_gamma   90.18289782
_symmetry_Int_Tables_number   1
_chemical_formula_structural   Dy8Y12Si15Ir
_chemical_formula_sum   'Dy8 Y12 Si15 Ir1'
_cell_volume   837.21203966
_cell_formula_units_Z   1
loop_
 _symmetry_equiv_pos_site_id
 _symmetry_equiv_pos_as_xyz
  1  'x, y, z'
loop_
 _atom_site_type_symbol
 _atom_site_label
 _atom_site_symmetry_multiplicity
 _atom_site_fract_x
 _atom_site_fract_y
 _atom_site_fract_z
 _atom_site_occupancy
  Dy  Dy0  1  0.684550  0.811218  0.882747  1
  Dy  Dy1  1  0.178901  0.681726  0.621622  1
  Dy  Dy2  1  0.817498  0.333196  0.118543  1
  Dy  Dy3  1  0.316041  0.178004  0.376242  1
  Dy  Dy4  1  0.320212  0.178600  0.123444  1
  Dy  Dy5  1  0.819129  0.319209  0.377307  1
  Dy  Dy6  1  0.175532  0.675438  0.878625  1
  Dy  Dy7  1  0.682789  0.819240  0.622228  1
  Y  Y8  1  0.648218  0.993151  0.248596  1
  Y  Y9  1  0.147866  0.510614  0.247772  1
  Y  Y10  1  0.848017  0.488498  0.758124  1
  Y  Y11  1  0.352988  0.010234  0.752478  1
  Y  Y12  1  0.973066  0.815018  0.097040  1
  Y  Y13  1  0.471190  0.682662  0.401475  1
  Y  Y14  1  0.530023  0.323889  0.901555  1
  Y  Y15  1  0.029578  0.184383  0.599331  1
  Y  Y16  1  0.028075  0.186028  0.902532  1
  Y  Y17  1  0.529929  0.318086  0.598604  1
  Y  Y18  1  0.475437  0.680969  0.098621  1
  Y  Y19  1  0.970123  0.817384  0.400740  1
  Si  Si20  1  0.764112  0.628689  0.252111  1
  Si  Si21  1  0.265532  0.873044  0.250668  1
  Si  Si22  1  0.733499  0.122838  0.748282  1
  Si  Si23  1  0.236083  0.374239  0.746408  1
  Si  Si24  1  0.020151  0.105184  0.249051  1
  Si  Si25  1  0.522713  0.396517  0.251444  1
  Si  Si26  1  0.471608  0.606389  0.746074  1
  Si  Si27  1  0.977166  0.898258  0.748122  1
  Si  Si28  1  0.354584  0.971876  0.539674  1
  Si  Si29  1  0.645432  0.027074  0.042039  1
  Si  Si30  1  0.146845  0.470226  0.460162  1
  Si  Si31  1  0.154784  0.472142  0.041007  1
  Si  Si32  1  0.643415  0.028662  0.459640  1
  Si  Si33  1  0.353924  0.969019  0.961544  1
  Si  Si34  1  0.854662  0.528877  0.538792  1
  Ir  Ir35  1  0.856331  0.519418  0.957356  1
