# generated using pymatgen
data_Dy2Ho4Al24Ru7Au
_symmetry_space_group_name_H-M   'P 1'
_cell_length_a   8.84216481
_cell_length_b   8.84016494
_cell_length_c   9.55712904
_cell_angle_alpha   89.85269670
_cell_angle_beta   90.13918473
_cell_angle_gamma   119.90352814
_symmetry_Int_Tables_number   1
_chemical_formula_structural   Dy2Ho4Al24Ru7Au
_chemical_formula_sum   'Dy2 Ho4 Al24 Ru7 Au1'
_cell_volume   647.58473487
_cell_formula_units_Z   1
loop_
 _symmetry_equiv_pos_site_id
 _symmetry_equiv_pos_as_xyz
  1  'x, y, z'
loop_
 _atom_site_type_symbol
 _atom_site_label
 _atom_site_symmetry_multiplicity
 _atom_site_fract_x
 _atom_site_fract_y
 _atom_site_fract_z
 _atom_site_occupancy
  Dy  Dy0  1  0.192407  0.386263  0.249758  1
  Dy  Dy1  1  0.807593  0.613737  0.750242  1
  Ho  Ho2  1  0.613594  0.807597  0.249767  1
  Ho  Ho3  1  0.386406  0.192403  0.750233  1
  Ho  Ho4  1  0.194479  0.805529  0.253112  1
  Ho  Ho5  1  0.805521  0.194471  0.746888  1
  Al  Al6  1  0.328186  0.671923  0.022700  1
  Al  Al7  1  0.671814  0.328077  0.977300  1
  Al  Al8  1  0.666619  0.333250  0.517096  1
  Al  Al9  1  0.333381  0.666750  0.482904  1
  Al  Al10  1  0.162293  0.324049  0.578249  1
  Al  Al11  1  0.837707  0.675951  0.421751  1
  Al  Al12  1  0.675942  0.837772  0.578170  1
  Al  Al13  1  0.849149  0.678316  0.080222  1
  Al  Al14  1  0.324058  0.162228  0.421830  1
  Al  Al15  1  0.150851  0.321684  0.919778  1
  Al  Al16  1  0.162652  0.837464  0.578914  1
  Al  Al17  1  0.321684  0.150819  0.080154  1
  Al  Al18  1  0.837348  0.162536  0.421086  1
  Al  Al19  1  0.678316  0.849181  0.919846  1
  Al  Al20  1  0.837376  0.162519  0.078123  1
  Al  Al21  1  0.162624  0.837481  0.921877  1
  Al  Al22  1  0.560628  0.120920  0.248465  1
  Al  Al23  1  0.439372  0.879080  0.751535  1
  Al  Al24  1  0.878976  0.439401  0.248463  1
  Al  Al25  1  0.121024  0.560599  0.751537  1
  Al  Al26  1  0.563698  0.436430  0.255624  1
  Al  Al27  1  0.436302  0.563570  0.744376  1
  Al  Al28  1  0.999346  0.000499  0.250136  1
  Al  Al29  1  0.000654  0.999501  0.749864  1
  Ru  Ru30  1  0.500000  0.000000  0.000000  1
  Ru  Ru31  1  0.000000  0.500000  0.000000  1
  Ru  Ru32  1  0.500000  0.000000  0.500000  1
  Ru  Ru33  1  0.000000  0.500000  0.500000  1
  Ru  Ru34  1  0.500000  0.500000  0.500000  1
  Ru  Ru35  1  0.000000  0.000000  0.000000  1
  Ru  Ru36  1  0.000000  0.000000  0.500000  1
  Au  Au37  1  0.500000  0.500000  0.000000  1
