# generated using pymatgen
data_Nb10Ga4SiGeC
_symmetry_space_group_name_H-M   'P 1'
_cell_length_a   7.74183685
_cell_length_b   7.74539417
_cell_length_c   5.33066223
_cell_angle_alpha   89.96791664
_cell_angle_beta   90.04064035
_cell_angle_gamma   120.05657893
_symmetry_Int_Tables_number   1
_chemical_formula_structural   Nb10Ga4SiGeC
_chemical_formula_sum   'Nb10 Ga4 Si1 Ge1 C1'
_cell_volume   276.66315732
_cell_formula_units_Z   1
loop_
 _symmetry_equiv_pos_site_id
 _symmetry_equiv_pos_as_xyz
  1  'x, y, z'
loop_
 _atom_site_type_symbol
 _atom_site_label
 _atom_site_symmetry_multiplicity
 _atom_site_fract_x
 _atom_site_fract_y
 _atom_site_fract_z
 _atom_site_occupancy
  Nb  Nb0  1  0.999585  0.764028  0.255760  1
  Nb  Nb1  1  0.237967  0.238026  0.255041  1
  Nb  Nb2  1  0.763844  0.999692  0.255656  1
  Nb  Nb3  1  0.003282  0.236390  0.743428  1
  Nb  Nb4  1  0.763068  0.763449  0.744691  1
  Nb  Nb5  1  0.236302  0.003765  0.744205  1
  Nb  Nb6  1  0.335660  0.664707  0.999544  1
  Nb  Nb7  1  0.662660  0.332669  0.999489  1
  Nb  Nb8  1  0.663079  0.332754  0.500369  1
  Nb  Nb9  1  0.335409  0.665110  0.500427  1
  Ga  Ga10  1  0.999413  0.400982  0.243917  1
  Ga  Ga11  1  0.600836  0.599797  0.244568  1
  Ga  Ga12  1  0.398333  0.998351  0.244852  1
  Ga  Ga13  1  0.000282  0.599260  0.756003  1
  Si  Si14  1  0.400767  0.401160  0.757176  1
  Ge  Ge15  1  0.599830  0.000659  0.756565  1
  C  C16  1  0.999682  0.999200  0.498309  1
