# generated using pymatgen
data_Re4OsRuRh2
_symmetry_space_group_name_H-M   'P 1'
_cell_length_a   5.50282200
_cell_length_b   5.53271059
_cell_length_c   4.39173500
_cell_angle_alpha   90.00000000
_cell_angle_beta   90.00000000
_cell_angle_gamma   119.82145828
_symmetry_Int_Tables_number   1
_chemical_formula_structural   Re4OsRuRh2
_chemical_formula_sum   'Re4 Os1 Ru1 Rh2'
_cell_volume   116.00286354
_cell_formula_units_Z   1
loop_
 _symmetry_equiv_pos_site_id
 _symmetry_equiv_pos_as_xyz
  1  'x, y, z'
loop_
 _atom_site_type_symbol
 _atom_site_label
 _atom_site_symmetry_multiplicity
 _atom_site_fract_x
 _atom_site_fract_y
 _atom_site_fract_z
 _atom_site_occupancy
  Re  Re0  1  0.673253  0.836135  0.250000  1
  Re  Re1  1  0.162883  0.836135  0.250000  1
  Re  Re2  1  0.326497  0.165060  0.750000  1
  Re  Re3  1  0.838561  0.165060  0.750000  1
  Os  Os4  1  0.836840  0.673682  0.750000  1
  Ru  Ru5  1  0.163277  0.326554  0.250000  1
  Rh  Rh6  1  0.332711  0.665422  0.750000  1
  Rh  Rh7  1  0.665977  0.331953  0.250000  1
