# generated using pymatgen
data_LaTh3FeCoB20
_symmetry_space_group_name_H-M   'P 1'
_cell_length_a   4.18850100
_cell_length_b   5.63262211
_cell_length_c   11.24149979
_cell_angle_alpha   90.31824689
_cell_angle_beta   90.00000000
_cell_angle_gamma   90.00000000
_symmetry_Int_Tables_number   1
_chemical_formula_structural   LaTh3FeCoB20
_chemical_formula_sum   'La1 Th3 Fe1 Co1 B20'
_cell_volume   265.20810738
_cell_formula_units_Z   1
loop_
 _symmetry_equiv_pos_site_id
 _symmetry_equiv_pos_as_xyz
  1  'x, y, z'
loop_
 _atom_site_type_symbol
 _atom_site_label
 _atom_site_symmetry_multiplicity
 _atom_site_fract_x
 _atom_site_fract_y
 _atom_site_fract_z
 _atom_site_occupancy
  La  La0  1  0.500000  0.300303  0.865348  1
  Th  Th1  1  0.500000  0.701400  0.133100  1
  Th  Th2  1  0.500000  0.793112  0.631133  1
  Th  Th3  1  0.500000  0.206294  0.368500  1
  Fe  Fe4  1  0.000000  0.500482  0.499446  1
  Co  Co5  1  0.000000  0.997177  0.001570  1
  B  B6  1  0.000000  0.127326  0.539571  1
  B  B7  1  0.000000  0.872585  0.459859  1
  B  B8  1  0.000000  0.626845  0.959869  1
  B  B9  1  0.000000  0.373554  0.041428  1
  B  B10  1  0.000000  0.150607  0.696841  1
  B  B11  1  0.000000  0.849147  0.302544  1
  B  B12  1  0.299442  0.202396  0.114259  1
  B  B13  1  0.299027  0.797589  0.886893  1
  B  B14  1  0.700747  0.703577  0.386549  1
  B  B15  1  0.701143  0.296437  0.612448  1
  B  B16  1  0.700973  0.797589  0.886893  1
  B  B17  1  0.700558  0.202396  0.114259  1
  B  B18  1  0.298857  0.296437  0.612448  1
  B  B19  1  0.299253  0.703577  0.386549  1
  B  B20  1  0.000000  0.037136  0.187730  1
  B  B21  1  0.000000  0.962549  0.812614  1
  B  B22  1  0.000000  0.537021  0.312988  1
  B  B23  1  0.000000  0.463076  0.686662  1
  B  B24  1  0.000000  0.349533  0.197408  1
  B  B25  1  0.000000  0.651858  0.803089  1
