# generated using pymatgen
data_Tb15Er(CoHg)4
_symmetry_space_group_name_H-M   'P 1'
_cell_length_a   9.50238080
_cell_length_b   9.50166358
_cell_length_c   9.50395630
_cell_angle_alpha   60.08248445
_cell_angle_beta   60.08341445
_cell_angle_gamma   60.06922998
_symmetry_Int_Tables_number   1
_chemical_formula_structural   Tb15Er(CoHg)4
_chemical_formula_sum   'Tb15 Er1 Co4 Hg4'
_cell_volume   607.84404343
_cell_formula_units_Z   1
loop_
 _symmetry_equiv_pos_site_id
 _symmetry_equiv_pos_as_xyz
  1  'x, y, z'
loop_
 _atom_site_type_symbol
 _atom_site_label
 _atom_site_symmetry_multiplicity
 _atom_site_fract_x
 _atom_site_fract_y
 _atom_site_fract_z
 _atom_site_occupancy
  Tb  Tb0  1  0.597584  0.597867  0.597911  1
  Tb  Tb1  1  0.189230  0.811228  0.811466  1
  Tb  Tb2  1  0.060850  0.060565  0.437594  1
  Tb  Tb3  1  0.437528  0.060912  0.060812  1
  Tb  Tb4  1  0.811275  0.189272  0.811391  1
  Tb  Tb5  1  0.438913  0.060595  0.438910  1
  Tb  Tb6  1  0.598906  0.204865  0.599193  1
  Tb  Tb7  1  0.811399  0.811302  0.189223  1
  Tb  Tb8  1  0.205015  0.599039  0.599056  1
  Tb  Tb9  1  0.809409  0.189144  0.188976  1
  Tb  Tb10  1  0.060749  0.438931  0.438931  1
  Tb  Tb11  1  0.189096  0.809448  0.188926  1
  Tb  Tb12  1  0.598949  0.599194  0.204568  1
  Tb  Tb13  1  0.189017  0.189030  0.809466  1
  Tb  Tb14  1  0.061060  0.437479  0.060685  1
  Er  Er15  1  0.439093  0.439069  0.060356  1
  Co  Co16  1  0.390838  0.390803  0.390988  1
  Co  Co17  1  0.827337  0.392249  0.392153  1
  Co  Co18  1  0.392182  0.827304  0.392155  1
  Co  Co19  1  0.392160  0.392226  0.827539  1
  Hg  Hg20  1  0.834629  0.834635  0.496634  1
  Hg  Hg21  1  0.833672  0.833658  0.833720  1
  Hg  Hg22  1  0.496638  0.834486  0.834683  1
  Hg  Hg23  1  0.834470  0.496698  0.834661  1
