# generated using pymatgen
data_YLu7In3Ir
_symmetry_space_group_name_H-M   'P 1'
_cell_length_a   10.21704100
_cell_length_b   10.21704257
_cell_length_c   6.96646800
_cell_angle_alpha   90.00000000
_cell_angle_beta   90.00000000
_cell_angle_gamma   120.00000464
_symmetry_Int_Tables_number   1
_chemical_formula_structural   YLu7In3Ir
_chemical_formula_sum   'Y2 Lu14 In6 Ir2'
_cell_volume   629.78686239
_cell_formula_units_Z   2
loop_
 _symmetry_equiv_pos_site_id
 _symmetry_equiv_pos_as_xyz
  1  'x, y, z'
loop_
 _atom_site_type_symbol
 _atom_site_label
 _atom_site_symmetry_multiplicity
 _atom_site_fract_x
 _atom_site_fract_y
 _atom_site_fract_z
 _atom_site_occupancy
  Y  Y0  1  0.000000  0.000000  0.494872  1
  Y  Y1  1  0.000000  0.000000  0.994872  1
  Lu  Lu2  1  0.467097  0.532903  0.481079  1
  Lu  Lu3  1  0.065807  0.532903  0.481079  1
  Lu  Lu4  1  0.467097  0.934193  0.481079  1
  Lu  Lu5  1  0.532903  0.467097  0.981079  1
  Lu  Lu6  1  0.934193  0.467097  0.981079  1
  Lu  Lu7  1  0.532903  0.065807  0.981079  1
  Lu  Lu8  1  0.822307  0.177693  0.274943  1
  Lu  Lu9  1  0.355385  0.177693  0.274943  1
  Lu  Lu10  1  0.822307  0.644615  0.274943  1
  Lu  Lu11  1  0.177693  0.822307  0.774943  1
  Lu  Lu12  1  0.644615  0.822307  0.774943  1
  Lu  Lu13  1  0.177693  0.355385  0.774943  1
  Lu  Lu14  1  0.333333  0.666667  0.099631  1
  Lu  Lu15  1  0.666667  0.333333  0.599631  1
  In  In16  1  0.163440  0.836560  0.234810  1
  In  In17  1  0.673119  0.836560  0.234810  1
  In  In18  1  0.163440  0.326881  0.234810  1
  In  In19  1  0.836560  0.163440  0.734810  1
  In  In20  1  0.326881  0.163440  0.734810  1
  In  In21  1  0.836560  0.673119  0.734810  1
  Ir  Ir22  1  0.333333  0.666667  0.705279  1
  Ir  Ir23  1  0.666667  0.333333  0.205279  1
