# generated using pymatgen
data_Dy2(LuPb)3
_symmetry_space_group_name_H-M   'P 1'
_cell_length_a   8.98350118
_cell_length_b   8.95385123
_cell_length_c   6.52450500
_cell_angle_alpha   90.00000000
_cell_angle_beta   90.00000000
_cell_angle_gamma   120.04652886
_symmetry_Int_Tables_number   1
_chemical_formula_structural   Dy2(LuPb)3
_chemical_formula_sum   'Dy4 Lu6 Pb6'
_cell_volume   454.28656243
_cell_formula_units_Z   2
loop_
 _symmetry_equiv_pos_site_id
 _symmetry_equiv_pos_as_xyz
  1  'x, y, z'
loop_
 _atom_site_type_symbol
 _atom_site_label
 _atom_site_symmetry_multiplicity
 _atom_site_fract_x
 _atom_site_fract_y
 _atom_site_fract_z
 _atom_site_occupancy
  Dy  Dy0  1  0.000221  0.235976  0.250000  1
  Dy  Dy1  1  0.764020  0.764168  0.250000  1
  Dy  Dy2  1  0.235962  0.235818  0.750001  1
  Dy  Dy3  1  0.999788  0.764038  0.750001  1
  Lu  Lu4  1  0.333259  0.666874  0.999993  1
  Lu  Lu5  1  0.666755  0.333127  0.500001  1
  Lu  Lu6  1  0.666755  0.333127  0.999998  1
  Lu  Lu7  1  0.333259  0.666874  0.500006  1
  Lu  Lu8  1  0.236597  0.000292  0.250000  1
  Lu  Lu9  1  0.763400  0.999724  0.750001  1
  Pb  Pb10  1  0.603219  0.999880  0.250000  1
  Pb  Pb11  1  0.396785  0.000107  0.750001  1
  Pb  Pb12  1  0.000689  0.605089  0.250000  1
  Pb  Pb13  1  0.395427  0.394587  0.250000  1
  Pb  Pb14  1  0.604564  0.605410  0.750001  1
  Pb  Pb15  1  0.999299  0.394907  0.750001  1
