# generated using pymatgen
data_Tm4MnRe4Os3
_symmetry_space_group_name_H-M   'P 1'
_cell_length_a   5.27857987
_cell_length_b   5.28382147
_cell_length_c   8.88287600
_cell_angle_alpha   90.00000000
_cell_angle_beta   90.00000000
_cell_angle_gamma   119.36075234
_symmetry_Int_Tables_number   1
_chemical_formula_structural   Tm4MnRe4Os3
_chemical_formula_sum   'Tm4 Mn1 Re4 Os3'
_cell_volume   215.92905193
_cell_formula_units_Z   1
loop_
 _symmetry_equiv_pos_site_id
 _symmetry_equiv_pos_as_xyz
  1  'x, y, z'
loop_
 _atom_site_type_symbol
 _atom_site_label
 _atom_site_symmetry_multiplicity
 _atom_site_fract_x
 _atom_site_fract_y
 _atom_site_fract_z
 _atom_site_occupancy
  Tm  Tm0  1  0.666065  0.335627  0.561532  1
  Tm  Tm1  1  0.332665  0.667060  0.437603  1
  Tm  Tm2  1  0.332665  0.667060  0.062397  1
  Tm  Tm3  1  0.666065  0.335627  0.938468  1
  Mn  Mn4  1  0.830710  0.653566  0.250000  1
  Re  Re5  1  0.168057  0.339060  0.750000  1
  Re  Re6  1  0.170465  0.831353  0.750000  1
  Re  Re7  1  0.658023  0.830618  0.750000  1
  Re  Re8  1  0.829029  0.161839  0.250000  1
  Os  Os9  1  0.996962  0.006814  0.493780  1
  Os  Os10  1  0.996962  0.006814  0.006220  1
  Os  Os11  1  0.352332  0.164566  0.250000  1
