# generated using pymatgen
data_Y5Er(LuAu2)2
_symmetry_space_group_name_H-M   'P 1'
_cell_length_a   4.91391400
_cell_length_b   7.15869753
_cell_length_c   8.91599100
_cell_angle_alpha   89.84697785
_cell_angle_beta   90.00000000
_cell_angle_gamma   90.00000000
_symmetry_Int_Tables_number   1
_chemical_formula_structural   Y5Er(LuAu2)2
_chemical_formula_sum   'Y5 Er1 Lu2 Au4'
_cell_volume   313.63869419
_cell_formula_units_Z   1
loop_
 _symmetry_equiv_pos_site_id
 _symmetry_equiv_pos_as_xyz
  1  'x, y, z'
loop_
 _atom_site_type_symbol
 _atom_site_label
 _atom_site_symmetry_multiplicity
 _atom_site_fract_x
 _atom_site_fract_y
 _atom_site_fract_z
 _atom_site_occupancy
  Y  Y0  1  0.250000  0.486035  0.174834  1
  Y  Y1  1  0.750000  0.515349  0.823099  1
  Y  Y2  1  0.250000  0.987412  0.324507  1
  Y  Y3  1  0.750000  0.015676  0.678033  1
  Y  Y4  1  0.750000  0.648780  0.419929  1
  Er  Er5  1  0.750000  0.147888  0.079231  1
  Lu  Lu6  1  0.250000  0.352351  0.579548  1
  Lu  Lu7  1  0.250000  0.853046  0.921143  1
  Au  Au8  1  0.250000  0.250393  0.897016  1
  Au  Au9  1  0.750000  0.748193  0.095601  1
  Au  Au10  1  0.250000  0.750776  0.605563  1
  Au  Au11  1  0.750000  0.244099  0.401498  1
