# generated using pymatgen
data_NdAg6BrO8
_symmetry_space_group_name_H-M   'P 1'
_cell_length_a   7.17870038
_cell_length_b   7.17869941
_cell_length_c   7.17869900
_cell_angle_alpha   59.99999730
_cell_angle_beta   60.00000173
_cell_angle_gamma   59.99999140
_symmetry_Int_Tables_number   1
_chemical_formula_structural   NdAg6BrO8
_chemical_formula_sum   'Nd1 Ag6 Br1 O8'
_cell_volume   261.59070646
_cell_formula_units_Z   1
loop_
 _symmetry_equiv_pos_site_id
 _symmetry_equiv_pos_as_xyz
  1  'x, y, z'
loop_
 _atom_site_type_symbol
 _atom_site_label
 _atom_site_symmetry_multiplicity
 _atom_site_fract_x
 _atom_site_fract_y
 _atom_site_fract_z
 _atom_site_occupancy
  Nd  Nd0  1  0.000000  0.000000  0.000000  1
  Ag  Ag1  1  0.000000  0.000000  0.500000  1
  Ag  Ag2  1  0.500000  0.000000  0.500000  1
  Ag  Ag3  1  0.000000  0.500000  0.500000  1
  Ag  Ag4  1  0.500000  0.500000  0.000000  1
  Ag  Ag5  1  0.000000  0.500000  0.000000  1
  Ag  Ag6  1  0.500000  0.000000  0.000000  1
  Br  Br7  1  0.500000  0.500000  0.500000  1
  O  O8  1  0.859388  0.859388  0.421834  1
  O  O9  1  0.859388  0.421834  0.859388  1
  O  O10  1  0.421834  0.859388  0.859388  1
  O  O11  1  0.859388  0.859388  0.859388  1
  O  O12  1  0.140612  0.140612  0.578166  1
  O  O13  1  0.140612  0.578166  0.140612  1
  O  O14  1  0.578166  0.140612  0.140612  1
  O  O15  1  0.140612  0.140612  0.140612  1
