# generated using pymatgen
data_Tb17Ho3Ir11Ru
_symmetry_space_group_name_H-M   'P 1'
_cell_length_a   10.90402800
_cell_length_b   10.90395900
_cell_length_c   6.41091800
_cell_angle_alpha   90.00000000
_cell_angle_beta   90.00000000
_cell_angle_gamma   90.00212285
_symmetry_Int_Tables_number   1
_chemical_formula_structural   Tb17Ho3Ir11Ru
_chemical_formula_sum   'Tb17 Ho3 Ir11 Ru1'
_cell_volume   762.23939317
_cell_formula_units_Z   1
loop_
 _symmetry_equiv_pos_site_id
 _symmetry_equiv_pos_as_xyz
  1  'x, y, z'
loop_
 _atom_site_type_symbol
 _atom_site_label
 _atom_site_symmetry_multiplicity
 _atom_site_fract_x
 _atom_site_fract_y
 _atom_site_fract_z
 _atom_site_occupancy
  Tb  Tb0  1  0.292184  0.087115  0.376849  1
  Tb  Tb1  1  0.292330  0.912823  0.879830  1
  Tb  Tb2  1  0.707670  0.087177  0.879830  1
  Tb  Tb3  1  0.707816  0.912885  0.376849  1
  Tb  Tb4  1  0.587156  0.792234  0.879751  1
  Tb  Tb5  1  0.587022  0.208100  0.376927  1
  Tb  Tb6  1  0.412978  0.791900  0.376927  1
  Tb  Tb7  1  0.412844  0.207766  0.879751  1
  Tb  Tb8  1  0.209547  0.411865  0.621871  1
  Tb  Tb9  1  0.209490  0.588039  0.121526  1
  Tb  Tb10  1  0.790510  0.411961  0.121526  1
  Tb  Tb11  1  0.790453  0.588135  0.621871  1
  Tb  Tb12  1  0.911949  0.709393  0.121447  1
  Tb  Tb13  1  0.911753  0.290734  0.621937  1
  Tb  Tb14  1  0.088247  0.709266  0.621937  1
  Tb  Tb15  1  0.088051  0.290607  0.121447  1
  Tb  Tb16  1  0.000000  0.000000  0.499305  1
  Ho  Ho17  1  0.000000  0.000000  0.999242  1
  Ho  Ho18  1  0.500000  0.500000  0.999266  1
  Ho  Ho19  1  0.500000  0.500000  0.499291  1
  Ir  Ir20  1  0.847307  0.153470  0.249387  1
  Ir  Ir21  1  0.847394  0.846910  0.750355  1
  Ir  Ir22  1  0.152606  0.153090  0.750355  1
  Ir  Ir23  1  0.152693  0.846530  0.249387  1
  Ir  Ir24  1  0.652700  0.347784  0.749695  1
  Ir  Ir25  1  0.653068  0.652297  0.250007  1
  Ir  Ir26  1  0.346932  0.347703  0.250007  1
  Ir  Ir27  1  0.347300  0.652216  0.749695  1
  Ir  Ir28  1  0.500000  0.000000  0.622633  1
  Ir  Ir29  1  0.000000  0.500000  0.878852  1
  Ir  Ir30  1  0.000000  0.500000  0.379049  1
  Ru  Ru31  1  0.500000  0.000000  0.123205  1
