# generated using pymatgen
data_La6Sm2Sc12Si15Hg
_symmetry_space_group_name_H-M   'P 1'
_cell_length_a   7.31232252
_cell_length_b   7.56918137
_cell_length_c   14.38097135
_cell_angle_alpha   89.82614755
_cell_angle_beta   89.71960581
_cell_angle_gamma   90.38679292
_symmetry_Int_Tables_number   1
_chemical_formula_structural   La6Sm2Sc12Si15Hg
_chemical_formula_sum   'La6 Sm2 Sc12 Si15 Hg1'
_cell_volume   795.93083807
_cell_formula_units_Z   1
loop_
 _symmetry_equiv_pos_site_id
 _symmetry_equiv_pos_as_xyz
  1  'x, y, z'
loop_
 _atom_site_type_symbol
 _atom_site_label
 _atom_site_symmetry_multiplicity
 _atom_site_fract_x
 _atom_site_fract_y
 _atom_site_fract_z
 _atom_site_occupancy
  La  La0  1  0.011560  0.171353  0.098593  1
  La  La1  1  0.988249  0.829693  0.902608  1
  La  La2  1  0.489660  0.671295  0.903523  1
  La  La3  1  0.988690  0.833915  0.597411  1
  La  La4  1  0.510285  0.328901  0.096663  1
  La  La5  1  0.007279  0.168469  0.399238  1
  Sm  Sm6  1  0.510909  0.323971  0.398080  1
  Sm  Sm7  1  0.498037  0.681050  0.601365  1
  Sc  Sc8  1  0.161273  0.498830  0.753696  1
  Sc  Sc9  1  0.837994  0.502082  0.251073  1
  Sc  Sc10  1  0.339252  0.993988  0.249946  1
  Sc  Sc11  1  0.664799  0.003941  0.751200  1
  Sc  Sc12  1  0.343051  0.168990  0.629078  1
  Sc  Sc13  1  0.663613  0.822995  0.373398  1
  Sc  Sc14  1  0.170078  0.675414  0.372007  1
  Sc  Sc15  1  0.669134  0.825225  0.126009  1
  Sc  Sc16  1  0.821169  0.327612  0.624679  1
  Sc  Sc17  1  0.329687  0.172739  0.873907  1
  Sc  Sc18  1  0.829105  0.325013  0.875026  1
  Sc  Sc19  1  0.169580  0.674822  0.126187  1
  Si  Si20  1  0.033870  0.133720  0.749861  1
  Si  Si21  1  0.964382  0.870632  0.249676  1
  Si  Si22  1  0.465369  0.623830  0.249586  1
  Si  Si23  1  0.534156  0.378311  0.750551  1
  Si  Si24  1  0.290565  0.880424  0.749954  1
  Si  Si25  1  0.706563  0.117618  0.249370  1
  Si  Si26  1  0.210776  0.381989  0.250667  1
  Si  Si27  1  0.791147  0.618497  0.749817  1
  Si  Si28  1  0.833628  0.539670  0.457860  1
  Si  Si29  1  0.348999  0.960883  0.460399  1
  Si  Si30  1  0.851193  0.537548  0.039510  1
  Si  Si31  1  0.649089  0.038927  0.536847  1
  Si  Si32  1  0.148671  0.461916  0.961508  1
  Si  Si33  1  0.649283  0.037598  0.960197  1
  Si  Si34  1  0.349334  0.962024  0.039850  1
  Hg  Hg35  1  0.169573  0.456117  0.540662  1
