# generated using pymatgen
data_La16Cd4Os3Pd
_symmetry_space_group_name_H-M   'P 1'
_cell_length_a   10.08055006
_cell_length_b   10.16647453
_cell_length_c   10.16647500
_cell_angle_alpha   60.00000173
_cell_angle_beta   59.71763426
_cell_angle_gamma   59.71763403
_symmetry_Int_Tables_number   1
_chemical_formula_structural   La16Cd4Os3Pd
_chemical_formula_sum   'La16 Cd4 Os3 Pd1'
_cell_volume   733.57279448
_cell_formula_units_Z   1
loop_
 _symmetry_equiv_pos_site_id
 _symmetry_equiv_pos_as_xyz
  1  'x, y, z'
loop_
 _atom_site_type_symbol
 _atom_site_label
 _atom_site_symmetry_multiplicity
 _atom_site_fract_x
 _atom_site_fract_y
 _atom_site_fract_z
 _atom_site_occupancy
  La  La0  1  0.342008  0.350771  0.350771  1
  La  La1  1  0.342008  0.350771  0.956448  1
  La  La2  1  0.342008  0.956448  0.350771  1
  La  La3  1  0.962746  0.345751  0.345751  1
  La  La4  1  0.817892  0.190610  0.190610  1
  La  La5  1  0.188637  0.812024  0.812024  1
  La  La6  1  0.188637  0.812024  0.187314  1
  La  La7  1  0.817892  0.190610  0.800889  1
  La  La8  1  0.188637  0.187314  0.812024  1
  La  La9  1  0.817892  0.800889  0.190610  1
  La  La10  1  0.940086  0.558898  0.558898  1
  La  La11  1  0.556218  0.939804  0.939804  1
  La  La12  1  0.556218  0.939804  0.564173  1
  La  La13  1  0.940086  0.558898  0.942117  1
  La  La14  1  0.556218  0.564173  0.939804  1
  La  La15  1  0.940086  0.942117  0.558898  1
  Cd  Cd16  1  0.579455  0.580031  0.580031  1
  Cd  Cd17  1  0.579455  0.580031  0.260485  1
  Cd  Cd18  1  0.579455  0.260485  0.580031  1
  Cd  Cd19  1  0.260740  0.579754  0.579754  1
  Os  Os20  1  0.141929  0.137966  0.137966  1
  Os  Os21  1  0.141929  0.137966  0.582139  1
  Os  Os22  1  0.141929  0.582139  0.137966  1
  Pd  Pd23  1  0.577838  0.140721  0.140721  1
