# generated using pymatgen
data_VNi7RhS8
_symmetry_space_group_name_H-M   'P 1'
_cell_length_a   7.11933799
_cell_length_b   7.19550100
_cell_length_c   7.19550000
_cell_angle_alpha   60.00000462
_cell_angle_beta   59.64548061
_cell_angle_gamma   59.64547384
_symmetry_Int_Tables_number   1
_chemical_formula_structural   VNi7RhS8
_chemical_formula_sum   'V1 Ni7 Rh1 S8'
_cell_volume   259.23791820
_cell_formula_units_Z   1
loop_
 _symmetry_equiv_pos_site_id
 _symmetry_equiv_pos_as_xyz
  1  'x, y, z'
loop_
 _atom_site_type_symbol
 _atom_site_label
 _atom_site_symmetry_multiplicity
 _atom_site_fract_x
 _atom_site_fract_y
 _atom_site_fract_z
 _atom_site_occupancy
  V  V0  1  0.608738  0.130421  0.130421  1
  Ni  Ni1  1  0.127479  0.627696  0.122413  1
  Ni  Ni2  1  0.127479  0.122413  0.627696  1
  Ni  Ni3  1  0.127479  0.122413  0.122413  1
  Ni  Ni4  1  0.392221  0.869259  0.869259  1
  Ni  Ni5  1  0.878925  0.377465  0.871804  1
  Ni  Ni6  1  0.878925  0.871804  0.377465  1
  Ni  Ni7  1  0.878925  0.871804  0.871804  1
  Rh  Rh8  1  0.485684  0.504772  0.504772  1
  S  S9  1  0.234271  0.255243  0.255243  1
  S  S10  1  0.767075  0.744308  0.744308  1
  S  S11  1  0.736005  0.257185  0.257185  1
  S  S12  1  0.736005  0.257185  0.749626  1
  S  S13  1  0.736005  0.749626  0.257185  1
  S  S14  1  0.261595  0.742753  0.742753  1
  S  S15  1  0.261595  0.742753  0.252898  1
  S  S16  1  0.261595  0.252898  0.742753  1
