# generated using pymatgen
data_ErTm9(TlPb2)2
_symmetry_space_group_name_H-M   'P 1'
_cell_length_a   6.58775600
_cell_length_b   8.92925602
_cell_length_c   8.91701000
_cell_angle_alpha   120.04544412
_cell_angle_beta   90.00022613
_cell_angle_gamma   89.99955953
_symmetry_Int_Tables_number   1
_chemical_formula_structural   ErTm9(TlPb2)2
_chemical_formula_sum   'Er1 Tm9 Tl2 Pb4'
_cell_volume   454.04992605
_cell_formula_units_Z   1
loop_
 _symmetry_equiv_pos_site_id
 _symmetry_equiv_pos_as_xyz
  1  'x, y, z'
loop_
 _atom_site_type_symbol
 _atom_site_label
 _atom_site_symmetry_multiplicity
 _atom_site_fract_x
 _atom_site_fract_y
 _atom_site_fract_z
 _atom_site_occupancy
  Er  Er0  1  0.750032  0.235500  0.000000  1
  Tm  Tm1  1  0.496101  0.333130  0.663130  1
  Tm  Tm2  1  0.496101  0.670000  0.336870  1
  Tm  Tm3  1  0.003889  0.669993  0.336862  1
  Tm  Tm4  1  0.003889  0.333130  0.663138  1
  Tm  Tm5  1  0.749983  0.764828  0.764566  1
  Tm  Tm6  1  0.749983  0.000262  0.235434  1
  Tm  Tm7  1  0.250012  0.765870  0.000000  1
  Tm  Tm8  1  0.250010  0.234291  0.239172  1
  Tm  Tm9  1  0.250010  0.995120  0.760828  1
  Tl  Tl10  1  0.249993  0.602339  0.603053  1
  Tl  Tl11  1  0.249993  0.999285  0.396947  1
  Pb  Pb12  1  0.749999  0.602595  0.000000  1
  Pb  Pb13  1  0.749991  0.398515  0.396903  1
  Pb  Pb14  1  0.749991  0.001613  0.603097  1
  Pb  Pb15  1  0.250021  0.393527  0.000000  1
