# generated using pymatgen
data_Tm4Si4TcOs
_symmetry_space_group_name_H-M   'P 1'
_cell_length_a   5.69481805
_cell_length_b   5.69481754
_cell_length_c   9.91159798
_cell_angle_alpha   116.21636763
_cell_angle_beta   116.21636291
_cell_angle_gamma   43.09338408
_symmetry_Int_Tables_number   1
_chemical_formula_structural   Tm4Si4TcOs
_chemical_formula_sum   'Tm4 Si4 Tc1 Os1'
_cell_volume   193.25592843
_cell_formula_units_Z   1
loop_
 _symmetry_equiv_pos_site_id
 _symmetry_equiv_pos_as_xyz
  1  'x, y, z'
loop_
 _atom_site_type_symbol
 _atom_site_label
 _atom_site_symmetry_multiplicity
 _atom_site_fract_x
 _atom_site_fract_y
 _atom_site_fract_z
 _atom_site_occupancy
  Tm  Tm0  1  0.005242  0.005242  0.177596  1
  Tm  Tm1  1  0.815303  0.815303  0.390469  1
  Tm  Tm2  1  0.186264  0.186264  0.612272  1
  Tm  Tm3  1  0.992356  0.992356  0.821628  1
  Si  Si4  1  0.640075  0.640075  0.057894  1
  Si  Si5  1  0.505199  0.505199  0.378888  1
  Si  Si6  1  0.496504  0.496504  0.624493  1
  Si  Si7  1  0.358145  0.358145  0.938068  1
  Tc  Tc8  1  0.270851  0.270851  0.128513  1
  Os  Os9  1  0.730062  0.730062  0.870180  1
