# generated using pymatgen
data_Y10Co2Br15
_symmetry_space_group_name_H-M   'P 1'
_cell_length_a   9.24622596
_cell_length_b   10.10000397
_cell_length_c   10.88918604
_cell_angle_alpha   92.20075496
_cell_angle_beta   114.21727429
_cell_angle_gamma   110.59550070
_symmetry_Int_Tables_number   1
_chemical_formula_structural   Y10Co2Br15
_chemical_formula_sum   'Y10 Co2 Br15'
_cell_volume   848.03017505
_cell_formula_units_Z   1
loop_
 _symmetry_equiv_pos_site_id
 _symmetry_equiv_pos_as_xyz
  1  'x, y, z'
loop_
 _atom_site_type_symbol
 _atom_site_label
 _atom_site_symmetry_multiplicity
 _atom_site_fract_x
 _atom_site_fract_y
 _atom_site_fract_z
 _atom_site_occupancy
  Y  Y0  1  0.798206  0.400311  0.270323  1
  Y  Y1  1  0.201794  0.599689  0.729677  1
  Y  Y2  1  0.668108  0.751430  0.822656  1
  Y  Y3  1  0.331892  0.248570  0.177344  1
  Y  Y4  1  0.527751  0.707306  0.100508  1
  Y  Y5  1  0.472249  0.292694  0.899492  1
  Y  Y6  1  0.592386  0.046317  0.335418  1
  Y  Y7  1  0.407614  0.953683  0.664582  1
  Y  Y8  1  0.731343  0.078588  0.049639  1
  Y  Y9  1  0.268657  0.921412  0.950361  1
  Co  Co10  1  0.467915  0.830324  0.882715  1
  Co  Co11  1  0.532085  0.169676  0.117285  1
  Br  Br12  1  0.000000  0.000000  0.000000  1
  Br  Br13  1  0.639157  0.886032  0.584893  1
  Br  Br14  1  0.360843  0.113968  0.415107  1
  Br  Br15  1  0.889506  0.306616  0.527737  1
  Br  Br16  1  0.110494  0.693384  0.472263  1
  Br  Br17  1  0.299008  0.764622  0.188875  1
  Br  Br18  1  0.700992  0.235378  0.811125  1
  Br  Br19  1  0.062603  0.340481  0.224860  1
  Br  Br20  1  0.166592  0.059051  0.696662  1
  Br  Br21  1  0.833408  0.940949  0.303338  1
  Br  Br22  1  0.243128  0.414163  0.946556  1
  Br  Br23  1  0.756872  0.585837  0.053444  1
  Br  Br24  1  0.408156  0.466769  0.669092  1
  Br  Br25  1  0.591844  0.533231  0.330908  1
  Br  Br26  1  0.937397  0.659519  0.775140  1
