# generated using pymatgen
data_Dy8Ti2Si16Tc9Mo
_symmetry_space_group_name_H-M   'P 1'
_cell_length_a   6.77631613
_cell_length_b   6.77631512
_cell_length_c   12.95836993
_cell_angle_alpha   90.00360061
_cell_angle_beta   89.99639803
_cell_angle_gamma   88.99907292
_symmetry_Int_Tables_number   1
_chemical_formula_structural   Dy8Ti2Si16Tc9Mo
_chemical_formula_sum   'Dy8 Ti2 Si16 Tc9 Mo1'
_cell_volume   594.93750989
_cell_formula_units_Z   1
loop_
 _symmetry_equiv_pos_site_id
 _symmetry_equiv_pos_as_xyz
  1  'x, y, z'
loop_
 _atom_site_type_symbol
 _atom_site_label
 _atom_site_symmetry_multiplicity
 _atom_site_fract_x
 _atom_site_fract_y
 _atom_site_fract_z
 _atom_site_occupancy
  Dy  Dy0  1  0.998357  0.663038  0.027337  1
  Dy  Dy1  1  0.001630  0.337195  0.527993  1
  Dy  Dy2  1  0.663038  0.998357  0.972663  1
  Dy  Dy3  1  0.178259  0.488883  0.783258  1
  Dy  Dy4  1  0.821645  0.511154  0.283006  1
  Dy  Dy5  1  0.488883  0.178259  0.216742  1
  Dy  Dy6  1  0.511154  0.821645  0.716994  1
  Dy  Dy7  1  0.337195  0.001630  0.472007  1
  Ti  Ti8  1  0.843360  0.156921  0.749714  1
  Ti  Ti9  1  0.156921  0.843360  0.250286  1
  Si  Si10  1  0.015001  0.736898  0.444490  1
  Si  Si11  1  0.982424  0.263527  0.944055  1
  Si  Si12  1  0.736898  0.015001  0.555510  1
  Si  Si13  1  0.196842  0.471352  0.182871  1
  Si  Si14  1  0.803184  0.529000  0.683182  1
  Si  Si15  1  0.471352  0.196842  0.817129  1
  Si  Si16  1  0.529000  0.803184  0.316818  1
  Si  Si17  1  0.263527  0.982424  0.055945  1
  Si  Si18  1  0.788387  0.882723  0.182442  1
  Si  Si19  1  0.318755  0.601751  0.559003  1
  Si  Si20  1  0.685093  0.396567  0.060271  1
  Si  Si21  1  0.601751  0.318755  0.440997  1
  Si  Si22  1  0.396567  0.685093  0.939729  1
  Si  Si23  1  0.117027  0.211668  0.317521  1
  Si  Si24  1  0.211668  0.117027  0.682479  1
  Si  Si25  1  0.882723  0.788387  0.817558  1
  Tc  Tc26  1  0.307188  0.526501  0.366248  1
  Tc  Tc27  1  0.817916  0.017883  0.364885  1
  Tc  Tc28  1  0.981996  0.180251  0.136103  1
  Tc  Tc29  1  0.017883  0.817916  0.635115  1
  Tc  Tc30  1  0.526501  0.307188  0.633752  1
  Tc  Tc31  1  0.180251  0.981996  0.863897  1
  Tc  Tc32  1  0.666016  0.666016  0.500000  1
  Tc  Tc33  1  0.475475  0.692126  0.134261  1
  Tc  Tc34  1  0.692126  0.475475  0.865739  1
  Mo  Mo35  1  0.334006  0.334006  0.000000  1
