# generated using pymatgen
data_YCo2MoP3Ir2
_symmetry_space_group_name_H-M   'P 1'
_cell_length_a   3.86961000
_cell_length_b   10.59369700
_cell_length_c   12.27546400
_cell_angle_alpha   90.00000000
_cell_angle_beta   90.00000000
_cell_angle_gamma   90.00000000
_symmetry_Int_Tables_number   1
_chemical_formula_structural   YCo2MoP3Ir2
_chemical_formula_sum   'Y4 Co8 Mo4 P12 Ir8'
_cell_volume   503.21393701
_cell_formula_units_Z   4
loop_
 _symmetry_equiv_pos_site_id
 _symmetry_equiv_pos_as_xyz
  1  'x, y, z'
loop_
 _atom_site_type_symbol
 _atom_site_label
 _atom_site_symmetry_multiplicity
 _atom_site_fract_x
 _atom_site_fract_y
 _atom_site_fract_z
 _atom_site_occupancy
  Y  Y0  1  0.250000  0.917404  0.210327  1
  Y  Y1  1  0.750000  0.082596  0.789673  1
  Y  Y2  1  0.750000  0.417404  0.289673  1
  Y  Y3  1  0.250000  0.582596  0.710327  1
  Co  Co4  1  0.250000  0.614468  0.195501  1
  Co  Co5  1  0.750000  0.385532  0.804499  1
  Co  Co6  1  0.750000  0.114468  0.304499  1
  Co  Co7  1  0.250000  0.885532  0.695501  1
  Co  Co8  1  0.250000  0.036139  0.434927  1
  Co  Co9  1  0.750000  0.963861  0.565073  1
  Co  Co10  1  0.750000  0.536139  0.065073  1
  Co  Co11  1  0.250000  0.463861  0.934927  1
  Mo  Mo12  1  0.250000  0.792048  0.486087  1
  Mo  Mo13  1  0.750000  0.207952  0.513913  1
  Mo  Mo14  1  0.750000  0.292048  0.013913  1
  Mo  Mo15  1  0.250000  0.707952  0.986087  1
  P  P16  1  0.250000  0.070443  0.611138  1
  P  P17  1  0.750000  0.929557  0.388862  1
  P  P18  1  0.750000  0.570443  0.888862  1
  P  P19  1  0.250000  0.429557  0.111138  1
  P  P20  1  0.250000  0.226985  0.368988  1
  P  P21  1  0.750000  0.773015  0.631012  1
  P  P22  1  0.750000  0.726985  0.131012  1
  P  P23  1  0.250000  0.273015  0.868988  1
  P  P24  1  0.250000  0.899813  0.883225  1
  P  P25  1  0.750000  0.100187  0.116775  1
  P  P26  1  0.750000  0.399813  0.616775  1
  P  P27  1  0.250000  0.600187  0.383225  1
  Ir  Ir28  1  0.250000  0.094253  0.979040  1
  Ir  Ir29  1  0.750000  0.905747  0.020960  1
  Ir  Ir30  1  0.750000  0.594253  0.520960  1
  Ir  Ir31  1  0.250000  0.405747  0.479040  1
  Ir  Ir32  1  0.250000  0.274501  0.680382  1
  Ir  Ir33  1  0.750000  0.725499  0.319618  1
  Ir  Ir34  1  0.750000  0.774501  0.819618  1
  Ir  Ir35  1  0.250000  0.225499  0.180382  1
