# generated using pymatgen
data_Dy14HoEr5Sn16
_symmetry_space_group_name_H-M   'P 1'
_cell_length_a   8.02089707
_cell_length_b   8.16460505
_cell_length_c   15.44385107
_cell_angle_alpha   90.01080519
_cell_angle_beta   89.99911493
_cell_angle_gamma   90.00430589
_symmetry_Int_Tables_number   1
_chemical_formula_structural   Dy14HoEr5Sn16
_chemical_formula_sum   'Dy14 Ho1 Er5 Sn16'
_cell_volume   1011.37850701
_cell_formula_units_Z   1
loop_
 _symmetry_equiv_pos_site_id
 _symmetry_equiv_pos_as_xyz
  1  'x, y, z'
loop_
 _atom_site_type_symbol
 _atom_site_label
 _atom_site_symmetry_multiplicity
 _atom_site_fract_x
 _atom_site_fract_y
 _atom_site_fract_z
 _atom_site_occupancy
  Dy  Dy0  1  0.632167  0.163914  0.378214  1
  Dy  Dy1  1  0.132170  0.336096  0.121776  1
  Dy  Dy2  1  0.632150  0.163981  0.121926  1
  Dy  Dy3  1  0.132149  0.336039  0.378067  1
  Dy  Dy4  1  0.367927  0.836126  0.621960  1
  Dy  Dy5  1  0.867874  0.663934  0.878053  1
  Dy  Dy6  1  0.521170  0.320233  0.902292  1
  Dy  Dy7  1  0.021134  0.179751  0.597712  1
  Dy  Dy8  1  0.478814  0.679792  0.402312  1
  Dy  Dy9  1  0.978809  0.820209  0.097685  1
  Dy  Dy10  1  0.478808  0.679759  0.097553  1
  Dy  Dy11  1  0.978818  0.820228  0.402444  1
  Dy  Dy12  1  0.521238  0.320356  0.597764  1
  Dy  Dy13  1  0.021201  0.179633  0.902241  1
  Ho  Ho14  1  0.198515  0.502954  0.750048  1
  Er  Er15  1  0.367772  0.836194  0.877927  1
  Er  Er16  1  0.867658  0.663876  0.622091  1
  Er  Er17  1  0.698458  0.996991  0.749983  1
  Er  Er18  1  0.801490  0.497294  0.250018  1
  Er  Er19  1  0.301479  0.002718  0.249939  1
  Sn  Sn20  1  0.292395  0.034609  0.041532  1
  Sn  Sn21  1  0.792385  0.465410  0.458461  1
  Sn  Sn22  1  0.708300  0.964076  0.542238  1
  Sn  Sn23  1  0.208314  0.535905  0.957888  1
  Sn  Sn24  1  0.706956  0.964639  0.957829  1
  Sn  Sn25  1  0.206953  0.535340  0.542052  1
  Sn  Sn26  1  0.292173  0.035087  0.457950  1
  Sn  Sn27  1  0.792144  0.464919  0.042039  1
  Sn  Sn28  1  0.565348  0.619667  0.749999  1
  Sn  Sn29  1  0.064815  0.880650  0.750019  1
  Sn  Sn30  1  0.435078  0.381063  0.249994  1
  Sn  Sn31  1  0.935035  0.118907  0.250001  1
  Sn  Sn32  1  0.329797  0.147049  0.750184  1
  Sn  Sn33  1  0.829656  0.352549  0.749816  1
  Sn  Sn34  1  0.670438  0.852362  0.249986  1
  Sn  Sn35  1  0.170411  0.647690  0.250006  1
