# generated using pymatgen
data_Cs11RbGa3FeSe12
_symmetry_space_group_name_H-M   'P 1'
_cell_length_a   11.09528662
_cell_length_b   11.09307843
_cell_length_c   14.19487015
_cell_angle_alpha   89.92282717
_cell_angle_beta   89.91034759
_cell_angle_gamma   139.89046757
_symmetry_Int_Tables_number   1
_chemical_formula_structural   Cs11RbGa3FeSe12
_chemical_formula_sum   'Cs11 Rb1 Ga3 Fe1 Se12'
_cell_volume   1125.57163180
_cell_formula_units_Z   1
loop_
 _symmetry_equiv_pos_site_id
 _symmetry_equiv_pos_as_xyz
  1  'x, y, z'
loop_
 _atom_site_type_symbol
 _atom_site_label
 _atom_site_symmetry_multiplicity
 _atom_site_fract_x
 _atom_site_fract_y
 _atom_site_fract_z
 _atom_site_occupancy
  Cs  Cs0  1  0.141309  0.141221  0.326935  1
  Cs  Cs1  1  0.641714  0.641858  0.170509  1
  Cs  Cs2  1  0.358754  0.358915  0.824297  1
  Cs  Cs3  1  0.162921  0.517484  0.127516  1
  Cs  Cs4  1  0.485071  0.835656  0.874412  1
  Cs  Cs5  1  0.981498  0.335743  0.629016  1
  Cs  Cs6  1  0.664162  0.015069  0.374106  1
  Cs  Cs7  1  0.836110  0.485319  0.874140  1
  Cs  Cs8  1  0.517250  0.162466  0.127731  1
  Cs  Cs9  1  0.015591  0.664650  0.374221  1
  Cs  Cs10  1  0.335247  0.981029  0.628946  1
  Rb  Rb11  1  0.850017  0.850108  0.664627  1
  Ga  Ga12  1  0.921274  0.085462  0.998712  1
  Ga  Ga13  1  0.416011  0.576404  0.501327  1
  Ga  Ga14  1  0.085451  0.921299  0.998702  1
  Fe  Fe15  1  0.576119  0.416785  0.501158  1
  Se  Se16  1  0.288810  0.287459  0.570815  1
  Se  Se17  1  0.699342  0.698142  0.428515  1
  Se  Se18  1  0.203001  0.203006  0.070583  1
  Se  Se19  1  0.809026  0.808930  0.921543  1
  Se  Se20  1  0.706354  0.999073  0.116538  1
  Se  Se21  1  0.004561  0.302513  0.884841  1
  Se  Se22  1  0.504369  0.791189  0.619355  1
  Se  Se23  1  0.204604  0.499539  0.385417  1
  Se  Se24  1  0.302541  0.004616  0.884766  1
  Se  Se25  1  0.999050  0.706366  0.116602  1
  Se  Se26  1  0.502711  0.208871  0.388019  1
  Se  Se27  1  0.787135  0.500829  0.616651  1
