# generated using pymatgen
data_Ba2YLu3(Si3O10)2
_symmetry_space_group_name_H-M   'P 1'
_cell_length_a   12.28109810
_cell_length_b   5.41846641
_cell_length_c   6.84023480
_cell_angle_alpha   73.46164532
_cell_angle_beta   90.10042665
_cell_angle_gamma   90.13165332
_symmetry_Int_Tables_number   1
_chemical_formula_structural   Ba2YLu3(Si3O10)2
_chemical_formula_sum   'Ba2 Y1 Lu3 Si6 O20'
_cell_volume   436.34892043
_cell_formula_units_Z   1
loop_
 _symmetry_equiv_pos_site_id
 _symmetry_equiv_pos_as_xyz
  1  'x, y, z'
loop_
 _atom_site_type_symbol
 _atom_site_label
 _atom_site_symmetry_multiplicity
 _atom_site_fract_x
 _atom_site_fract_y
 _atom_site_fract_z
 _atom_site_occupancy
  Ba  Ba0  1  0.252069  0.240753  0.015515  1
  Ba  Ba1  1  0.748887  0.759302  0.983325  1
  Y  Y2  1  0.099110  0.846380  0.681346  1
  Lu  Lu3  1  0.600519  0.155601  0.319324  1
  Lu  Lu4  1  0.897639  0.154816  0.317936  1
  Lu  Lu5  1  0.401482  0.846169  0.679844  1
  Si  Si6  1  0.251501  0.423557  0.486330  1
  Si  Si7  1  0.750232  0.578599  0.513446  1
  Si  Si8  1  0.057820  0.692170  0.215054  1
  Si  Si9  1  0.558784  0.304101  0.788198  1
  Si  Si10  1  0.939294  0.302456  0.788200  1
  Si  Si11  1  0.442489  0.698714  0.210288  1
  O  O12  1  0.252999  0.637185  0.612891  1
  O  O13  1  0.749748  0.365101  0.386137  1
  O  O14  1  0.254824  0.126406  0.632862  1
  O  O15  1  0.749166  0.876435  0.366908  1
  O  O16  1  0.141180  0.452382  0.343415  1
  O  O17  1  0.644753  0.542389  0.667776  1
  O  O18  1  0.857541  0.547897  0.664502  1
  O  O19  1  0.354802  0.462344  0.327254  1
  O  O20  1  0.944142  0.550980  0.192094  1
  O  O21  1  0.445318  0.448437  0.804005  1
  O  O22  1  0.056432  0.432500  0.806870  1
  O  O23  1  0.555854  0.552656  0.196451  1
  O  O24  1  0.120962  0.837171  0.004381  1
  O  O25  1  0.616792  0.156085  0.004326  1
  O  O26  1  0.879014  0.158060  0.002537  1
  O  O27  1  0.385556  0.848469  0.993769  1
  O  O28  1  0.041972  0.897022  0.351749  1
  O  O29  1  0.546753  0.105630  0.644027  1
  O  O30  1  0.947354  0.103521  0.644515  1
  O  O31  1  0.455011  0.896713  0.354725  1
