# generated using pymatgen
data_Tb2Dy10ZnGaCo4
_symmetry_space_group_name_H-M   'P 1'
_cell_length_a   8.27708482
_cell_length_b   8.27708456
_cell_length_c   8.28948797
_cell_angle_alpha   107.01054392
_cell_angle_beta   109.38803754
_cell_angle_gamma   111.99664342
_symmetry_Int_Tables_number   1
_chemical_formula_structural   Tb2Dy10ZnGaCo4
_chemical_formula_sum   'Tb2 Dy10 Zn1 Ga1 Co4'
_cell_volume   436.65772129
_cell_formula_units_Z   1
loop_
 _symmetry_equiv_pos_site_id
 _symmetry_equiv_pos_as_xyz
  1  'x, y, z'
loop_
 _atom_site_type_symbol
 _atom_site_label
 _atom_site_symmetry_multiplicity
 _atom_site_fract_x
 _atom_site_fract_y
 _atom_site_fract_z
 _atom_site_occupancy
  Tb  Tb0  1  0.304590  0.263542  0.568130  1
  Tb  Tb1  1  0.695410  0.736458  0.431870  1
  Dy  Dy2  1  0.304316  0.736410  0.040726  1
  Dy  Dy3  1  0.695684  0.263590  0.959274  1
  Dy  Dy4  1  0.186866  0.514318  0.326532  1
  Dy  Dy5  1  0.187786  0.860334  0.673468  1
  Dy  Dy6  1  0.813134  0.485682  0.673468  1
  Dy  Dy7  1  0.812214  0.139666  0.326532  1
  Dy  Dy8  1  0.397938  0.218193  0.179141  1
  Dy  Dy9  1  0.039051  0.218797  0.820859  1
  Dy  Dy10  1  0.960949  0.781203  0.179141  1
  Dy  Dy11  1  0.602062  0.781807  0.820859  1
  Zn  Zn12  1  0.500000  0.500000  0.000000  1
  Ga  Ga13  1  0.500000  0.000000  0.500000  1
  Co  Co14  1  0.165636  0.500182  0.665818  1
  Co  Co15  1  0.834364  0.499818  0.334182  1
  Co  Co16  1  0.999553  0.114527  0.114080  1
  Co  Co17  1  0.000447  0.885473  0.885920  1
