# generated using pymatgen
data_DyPuB10Ir
_symmetry_space_group_name_H-M   'P 1'
_cell_length_a   4.18123000
_cell_length_b   5.70099317
_cell_length_c   11.35935843
_cell_angle_alpha   89.80556742
_cell_angle_beta   90.00000000
_cell_angle_gamma   90.00000000
_symmetry_Int_Tables_number   1
_chemical_formula_structural   DyPuB10Ir
_chemical_formula_sum   'Dy2 Pu2 B20 Ir2'
_cell_volume   270.77332688
_cell_formula_units_Z   2
loop_
 _symmetry_equiv_pos_site_id
 _symmetry_equiv_pos_as_xyz
  1  'x, y, z'
loop_
 _atom_site_type_symbol
 _atom_site_label
 _atom_site_symmetry_multiplicity
 _atom_site_fract_x
 _atom_site_fract_y
 _atom_site_fract_z
 _atom_site_occupancy
  Dy  Dy0  1  0.500000  0.293438  0.866382  1
  Dy  Dy1  1  0.500000  0.706562  0.133618  1
  Pu  Pu2  1  0.500000  0.201568  0.363118  1
  Pu  Pu3  1  0.500000  0.798432  0.636882  1
  B  B4  1  0.000000  0.381500  0.042473  1
  B  B5  1  0.000000  0.618500  0.957527  1
  B  B6  1  0.000000  0.118820  0.542511  1
  B  B7  1  0.000000  0.881180  0.457489  1
  B  B8  1  0.000000  0.362511  0.197307  1
  B  B9  1  0.000000  0.637489  0.802693  1
  B  B10  1  0.000000  0.136635  0.697075  1
  B  B11  1  0.000000  0.863365  0.302925  1
  B  B12  1  0.000000  0.055619  0.193018  1
  B  B13  1  0.000000  0.944381  0.806982  1
  B  B14  1  0.000000  0.445484  0.693417  1
  B  B15  1  0.000000  0.554516  0.306583  1
  B  B16  1  0.301846  0.220862  0.118184  1
  B  B17  1  0.698154  0.779138  0.881816  1
  B  B18  1  0.301846  0.779138  0.881816  1
  B  B19  1  0.697913  0.281997  0.619125  1
  B  B20  1  0.698154  0.220862  0.118184  1
  B  B21  1  0.302087  0.718003  0.380875  1
  B  B22  1  0.697913  0.718003  0.380875  1
  B  B23  1  0.302087  0.281997  0.619125  1
  Ir  Ir24  1  0.000000  0.000000  0.000000  1
  Ir  Ir25  1  0.000000  0.500000  0.500000  1
