# generated using pymatgen
data_Y5Er3(P3Ir4)4
_symmetry_space_group_name_H-M   'P 1'
_cell_length_a   12.97616900
_cell_length_b   12.97617012
_cell_length_c   4.00804100
_cell_angle_alpha   90.00000000
_cell_angle_beta   90.00000000
_cell_angle_gamma   119.99999970
_symmetry_Int_Tables_number   1
_chemical_formula_structural   Y5Er3(P3Ir4)4
_chemical_formula_sum   'Y5 Er3 P12 Ir16'
_cell_volume   584.46137049
_cell_formula_units_Z   1
loop_
 _symmetry_equiv_pos_site_id
 _symmetry_equiv_pos_as_xyz
  1  'x, y, z'
loop_
 _atom_site_type_symbol
 _atom_site_label
 _atom_site_symmetry_multiplicity
 _atom_site_fract_x
 _atom_site_fract_y
 _atom_site_fract_z
 _atom_site_occupancy
  Y  Y0  1  0.333333  0.666667  0.500000  1
  Y  Y1  1  0.666667  0.333333  0.500000  1
  Y  Y2  1  0.000000  0.814801  0.000000  1
  Y  Y3  1  0.185199  0.185199  0.000000  1
  Y  Y4  1  0.814801  0.000000  0.000000  1
  Er  Er5  1  0.000000  0.446525  0.500000  1
  Er  Er6  1  0.553475  0.553475  0.500000  1
  Er  Er7  1  0.446525  0.000000  0.500000  1
  P  P8  1  0.000000  0.652752  0.500000  1
  P  P9  1  0.347248  0.347248  0.500000  1
  P  P10  1  0.652752  0.000000  0.500000  1
  P  P11  1  0.516761  0.688353  0.000000  1
  P  P12  1  0.311647  0.828408  0.000000  1
  P  P13  1  0.171592  0.483239  0.000000  1
  P  P14  1  0.483239  0.171592  0.000000  1
  P  P15  1  0.688353  0.516761  0.000000  1
  P  P16  1  0.828408  0.311647  0.000000  1
  P  P17  1  0.000000  0.176668  0.500000  1
  P  P18  1  0.823332  0.823332  0.500000  1
  P  P19  1  0.176668  0.000000  0.500000  1
  Ir  Ir20  1  0.509477  0.865754  0.000000  1
  Ir  Ir21  1  0.134246  0.643723  0.000000  1
  Ir  Ir22  1  0.356277  0.490523  0.000000  1
  Ir  Ir23  1  0.490523  0.356277  0.000000  1
  Ir  Ir24  1  0.865754  0.509477  0.000000  1
  Ir  Ir25  1  0.643723  0.134246  0.000000  1
  Ir  Ir26  1  0.000000  0.275023  0.000000  1
  Ir  Ir27  1  0.724977  0.724977  0.000000  1
  Ir  Ir28  1  0.275023  0.000000  0.000000  1
  Ir  Ir29  1  0.630287  0.809006  0.500000  1
  Ir  Ir30  1  0.190994  0.821283  0.500000  1
  Ir  Ir31  1  0.178717  0.369713  0.500000  1
  Ir  Ir32  1  0.369713  0.178717  0.500000  1
  Ir  Ir33  1  0.809006  0.630287  0.500000  1
  Ir  Ir34  1  0.821283  0.190994  0.500000  1
  Ir  Ir35  1  0.000000  0.000000  0.500000  1
