# generated using pymatgen
data_Er8Tm12Sn3Pb13
_symmetry_space_group_name_H-M   'P 1'
_cell_length_a   8.11681302
_cell_length_b   8.15788919
_cell_length_c   15.44106200
_cell_angle_alpha   90.00000000
_cell_angle_beta   90.00000000
_cell_angle_gamma   89.81739764
_symmetry_Int_Tables_number   1
_chemical_formula_structural   Er8Tm12Sn3Pb13
_chemical_formula_sum   'Er8 Tm12 Sn3 Pb13'
_cell_volume   1022.44111365
_cell_formula_units_Z   1
loop_
 _symmetry_equiv_pos_site_id
 _symmetry_equiv_pos_as_xyz
  1  'x, y, z'
loop_
 _atom_site_type_symbol
 _atom_site_label
 _atom_site_symmetry_multiplicity
 _atom_site_fract_x
 _atom_site_fract_y
 _atom_site_fract_z
 _atom_site_occupancy
  Er  Er0  1  0.538271  0.327378  0.898320  1
  Er  Er1  1  0.037795  0.172249  0.601709  1
  Er  Er2  1  0.462262  0.672228  0.399544  1
  Er  Er3  1  0.962140  0.824151  0.099886  1
  Er  Er4  1  0.462262  0.672228  0.100456  1
  Er  Er5  1  0.962140  0.824151  0.400114  1
  Er  Er6  1  0.538271  0.327378  0.601680  1
  Er  Er7  1  0.037795  0.172249  0.898291  1
  Tm  Tm8  1  0.379513  0.838891  0.876498  1
  Tm  Tm9  1  0.878847  0.661716  0.623441  1
  Tm  Tm10  1  0.618572  0.161790  0.377641  1
  Tm  Tm11  1  0.123368  0.340799  0.121295  1
  Tm  Tm12  1  0.618572  0.161790  0.122359  1
  Tm  Tm13  1  0.123368  0.340799  0.378705  1
  Tm  Tm14  1  0.379513  0.838891  0.623502  1
  Tm  Tm15  1  0.878847  0.661716  0.876559  1
  Tm  Tm16  1  0.211202  0.507786  0.750000  1
  Tm  Tm17  1  0.711412  0.992511  0.750000  1
  Tm  Tm18  1  0.787666  0.494277  0.250000  1
  Tm  Tm19  1  0.290862  0.006801  0.250000  1
  Sn  Sn20  1  0.574623  0.624346  0.750000  1
  Sn  Sn21  1  0.074327  0.875629  0.750000  1
  Sn  Sn22  1  0.425150  0.375682  0.250000  1
  Pb  Pb23  1  0.281486  0.031833  0.041596  1
  Pb  Pb24  1  0.781956  0.467097  0.458574  1
  Pb  Pb25  1  0.717760  0.967884  0.541870  1
  Pb  Pb26  1  0.217929  0.533020  0.957379  1
  Pb  Pb27  1  0.717760  0.967884  0.958130  1
  Pb  Pb28  1  0.217929  0.533020  0.542621  1
  Pb  Pb29  1  0.281486  0.031833  0.458404  1
  Pb  Pb30  1  0.781956  0.467097  0.041426  1
  Pb  Pb31  1  0.926913  0.125501  0.250000  1
  Pb  Pb32  1  0.349275  0.153555  0.750000  1
  Pb  Pb33  1  0.848383  0.346883  0.750000  1
  Pb  Pb34  1  0.649902  0.845481  0.250000  1
  Pb  Pb35  1  0.150482  0.653476  0.250000  1
