# generated using pymatgen
data_FeCoMo3N
_symmetry_space_group_name_H-M   'P 1'
_cell_length_a   6.69842700
_cell_length_b   6.69842700
_cell_length_c   6.69842700
_cell_angle_alpha   90.00000000
_cell_angle_beta   90.00000000
_cell_angle_gamma   90.00000000
_symmetry_Int_Tables_number   1
_chemical_formula_structural   FeCoMo3N
_chemical_formula_sum   'Fe4 Co4 Mo12 N4'
_cell_volume   300.55121382
_cell_formula_units_Z   4
loop_
 _symmetry_equiv_pos_site_id
 _symmetry_equiv_pos_as_xyz
  1  'x, y, z'
loop_
 _atom_site_type_symbol
 _atom_site_label
 _atom_site_symmetry_multiplicity
 _atom_site_fract_x
 _atom_site_fract_y
 _atom_site_fract_z
 _atom_site_occupancy
  Fe  Fe0  1  0.178778  0.821222  0.321222  1
  Fe  Fe1  1  0.321222  0.178778  0.821222  1
  Fe  Fe2  1  0.821222  0.321222  0.178778  1
  Fe  Fe3  1  0.678778  0.678778  0.678778  1
  Co  Co4  1  0.568611  0.431389  0.931389  1
  Co  Co5  1  0.431389  0.931389  0.568611  1
  Co  Co6  1  0.931389  0.568611  0.431389  1
  Co  Co7  1  0.068611  0.068611  0.068611  1
  Mo  Mo8  1  0.797538  0.952481  0.375282  1
  Mo  Mo9  1  0.702462  0.047519  0.875282  1
  Mo  Mo10  1  0.202462  0.452481  0.124718  1
  Mo  Mo11  1  0.297538  0.547519  0.624718  1
  Mo  Mo12  1  0.952481  0.375282  0.797538  1
  Mo  Mo13  1  0.047519  0.875282  0.702462  1
  Mo  Mo14  1  0.452481  0.124718  0.202462  1
  Mo  Mo15  1  0.547519  0.624718  0.297538  1
  Mo  Mo16  1  0.375282  0.797538  0.952481  1
  Mo  Mo17  1  0.875282  0.702462  0.047519  1
  Mo  Mo18  1  0.124718  0.202462  0.452481  1
  Mo  Mo19  1  0.624718  0.297538  0.547519  1
  N  N20  1  0.874658  0.125342  0.625342  1
  N  N21  1  0.625342  0.874658  0.125342  1
  N  N22  1  0.125342  0.625342  0.874658  1
  N  N23  1  0.374658  0.374658  0.374658  1
