# generated using pymatgen
data_Er5LuZn23As
_symmetry_space_group_name_H-M   'P 1'
_cell_length_a   9.02736129
_cell_length_b   9.02837733
_cell_length_c   9.02837806
_cell_angle_alpha   59.99255397
_cell_angle_beta   60.00371640
_cell_angle_gamma   60.00372143
_symmetry_Int_Tables_number   1
_chemical_formula_structural   Er5LuZn23As
_chemical_formula_sum   'Er5 Lu1 Zn23 As1'
_cell_volume   520.31365822
_cell_formula_units_Z   1
loop_
 _symmetry_equiv_pos_site_id
 _symmetry_equiv_pos_as_xyz
  1  'x, y, z'
loop_
 _atom_site_type_symbol
 _atom_site_label
 _atom_site_symmetry_multiplicity
 _atom_site_fract_x
 _atom_site_fract_y
 _atom_site_fract_z
 _atom_site_occupancy
  Er  Er0  1  0.715561  0.284439  0.715410  1
  Er  Er1  1  0.715561  0.715410  0.284439  1
  Er  Er2  1  0.284496  0.715504  0.715504  1
  Er  Er3  1  0.284590  0.715410  0.284439  1
  Er  Er4  1  0.284590  0.284439  0.715410  1
  Lu  Lu5  1  0.715079  0.284921  0.284921  1
  Zn  Zn6  1  0.622897  0.125984  0.125984  1
  Zn  Zn7  1  0.125757  0.622680  0.125807  1
  Zn  Zn8  1  0.125757  0.125807  0.622680  1
  Zn  Zn9  1  0.125136  0.125984  0.125984  1
  Zn  Zn10  1  0.377320  0.874243  0.874243  1
  Zn  Zn11  1  0.874016  0.377103  0.874864  1
  Zn  Zn12  1  0.874016  0.874864  0.377103  1
  Zn  Zn13  1  0.874193  0.874243  0.874243  1
  Zn  Zn14  1  0.500080  0.999920  0.999920  1
  Zn  Zn15  1  0.500186  0.000132  0.499814  1
  Zn  Zn16  1  0.500186  0.499814  0.000132  1
  Zn  Zn17  1  0.000080  0.499920  0.499920  1
  Zn  Zn18  1  0.999868  0.499814  0.000132  1
  Zn  Zn19  1  0.999868  0.000132  0.499814  1
  Zn  Zn20  1  0.999980  0.000020  0.000020  1
  Zn  Zn21  1  0.008141  0.330505  0.330505  1
  Zn  Zn22  1  0.330511  0.008494  0.330483  1
  Zn  Zn23  1  0.330511  0.330483  0.008494  1
  Zn  Zn24  1  0.330848  0.330505  0.330505  1
  Zn  Zn25  1  0.991506  0.669489  0.669489  1
  Zn  Zn26  1  0.669495  0.991859  0.669152  1
  Zn  Zn27  1  0.669495  0.669152  0.991859  1
  Zn  Zn28  1  0.669517  0.669489  0.669489  1
  As  As29  1  0.500760  0.499240  0.499240  1
