# generated using pymatgen
data_PrNd(Fe8P5)2
_symmetry_space_group_name_H-M   'P 1'
_cell_length_a   3.59237300
_cell_length_b   9.12277100
_cell_length_c   10.56865700
_cell_angle_alpha   90.00000000
_cell_angle_beta   90.00000000
_cell_angle_gamma   90.00000000
_symmetry_Int_Tables_number   1
_chemical_formula_structural   PrNd(Fe8P5)2
_chemical_formula_sum   'Pr1 Nd1 Fe16 P10'
_cell_volume   346.36021478
_cell_formula_units_Z   1
loop_
 _symmetry_equiv_pos_site_id
 _symmetry_equiv_pos_as_xyz
  1  'x, y, z'
loop_
 _atom_site_type_symbol
 _atom_site_label
 _atom_site_symmetry_multiplicity
 _atom_site_fract_x
 _atom_site_fract_y
 _atom_site_fract_z
 _atom_site_occupancy
  Pr  Pr0  1  0.500000  0.181640  0.500000  1
  Nd  Nd1  1  0.000000  0.818094  0.000000  1
  Fe  Fe2  1  0.000000  0.518614  0.170516  1
  Fe  Fe3  1  0.000000  0.456224  0.500000  1
  Fe  Fe4  1  0.500000  0.890572  0.258909  1
  Fe  Fe5  1  0.500000  0.481627  0.329348  1
  Fe  Fe6  1  0.500000  0.846826  0.500000  1
  Fe  Fe7  1  0.500000  0.307167  0.144138  1
  Fe  Fe8  1  0.500000  0.544186  0.000000  1
  Fe  Fe9  1  0.000000  0.692854  0.644196  1
  Fe  Fe10  1  0.000000  0.152871  0.000000  1
  Fe  Fe11  1  0.000000  0.692854  0.355804  1
  Fe  Fe12  1  0.500000  0.481627  0.670652  1
  Fe  Fe13  1  0.500000  0.307167  0.855862  1
  Fe  Fe14  1  0.000000  0.109281  0.240856  1
  Fe  Fe15  1  0.500000  0.890572  0.741091  1
  Fe  Fe16  1  0.000000  0.518614  0.829484  1
  Fe  Fe17  1  0.000000  0.109281  0.759144  1
  P  P18  1  0.000000  0.338101  0.688906  1
  P  P19  1  0.000000  0.933857  0.380720  1
  P  P20  1  0.000000  0.390510  0.000000  1
  P  P21  1  0.500000  0.662141  0.188521  1
  P  P22  1  0.500000  0.065847  0.119107  1
  P  P23  1  0.500000  0.662141  0.811479  1
  P  P24  1  0.000000  0.933857  0.619280  1
  P  P25  1  0.000000  0.338101  0.311094  1
  P  P26  1  0.500000  0.609528  0.500000  1
  P  P27  1  0.500000  0.065847  0.880893  1
