# generated using pymatgen
data_Tb8Dy4Co3Si8Ni
_symmetry_space_group_name_H-M   'P 1'
_cell_length_a   4.12210700
_cell_length_b   11.17319224
_cell_length_c   11.38529813
_cell_angle_alpha   90.06904557
_cell_angle_beta   90.00000000
_cell_angle_gamma   90.00000000
_symmetry_Int_Tables_number   1
_chemical_formula_structural   Tb8Dy4Co3Si8Ni
_chemical_formula_sum   'Tb8 Dy4 Co3 Si8 Ni1'
_cell_volume   524.37336442
_cell_formula_units_Z   1
loop_
 _symmetry_equiv_pos_site_id
 _symmetry_equiv_pos_as_xyz
  1  'x, y, z'
loop_
 _atom_site_type_symbol
 _atom_site_label
 _atom_site_symmetry_multiplicity
 _atom_site_fract_x
 _atom_site_fract_y
 _atom_site_fract_z
 _atom_site_occupancy
  Tb  Tb0  1  0.250000  0.125483  0.557693  1
  Tb  Tb1  1  0.250000  0.372867  0.057818  1
  Tb  Tb2  1  0.750000  0.873681  0.441849  1
  Tb  Tb3  1  0.750000  0.623790  0.943369  1
  Tb  Tb4  1  0.250000  0.803221  0.714702  1
  Tb  Tb5  1  0.250000  0.698581  0.217667  1
  Tb  Tb6  1  0.750000  0.199313  0.282407  1
  Tb  Tb7  1  0.750000  0.301396  0.782769  1
  Dy  Dy8  1  0.250000  0.060053  0.882078  1
  Dy  Dy9  1  0.250000  0.441035  0.382420  1
  Dy  Dy10  1  0.750000  0.942058  0.118309  1
  Dy  Dy11  1  0.750000  0.558533  0.618616  1
  Co  Co12  1  0.250000  0.363866  0.630122  1
  Co  Co13  1  0.250000  0.135278  0.129919  1
  Co  Co14  1  0.750000  0.635028  0.370449  1
  Si  Si15  1  0.250000  0.815756  0.973881  1
  Si  Si16  1  0.250000  0.683252  0.474321  1
  Si  Si17  1  0.750000  0.182674  0.025563  1
  Si  Si18  1  0.750000  0.317053  0.526344  1
  Si  Si19  1  0.250000  0.495375  0.800995  1
  Si  Si20  1  0.250000  0.005272  0.300806  1
  Si  Si21  1  0.750000  0.504715  0.199085  1
  Si  Si22  1  0.750000  0.995923  0.697879  1
  Ni  Ni23  1  0.750000  0.865799  0.870940  1
