# generated using pymatgen
data_YbMo13P9
_symmetry_space_group_name_H-M   'P 1'
_cell_length_a   10.89640200
_cell_length_b   10.89640118
_cell_length_c   3.31348100
_cell_angle_alpha   90.00000000
_cell_angle_beta   90.00000000
_cell_angle_gamma   120.00000248
_symmetry_Int_Tables_number   1
_chemical_formula_structural   YbMo13P9
_chemical_formula_sum   'Yb1 Mo13 P9'
_cell_volume   340.70719692
_cell_formula_units_Z   1
loop_
 _symmetry_equiv_pos_site_id
 _symmetry_equiv_pos_as_xyz
  1  'x, y, z'
loop_
 _atom_site_type_symbol
 _atom_site_label
 _atom_site_symmetry_multiplicity
 _atom_site_fract_x
 _atom_site_fract_y
 _atom_site_fract_z
 _atom_site_occupancy
  Yb  Yb0  1  0.666667  0.333333  0.000000  1
  Mo  Mo1  1  0.240351  0.480701  0.500000  1
  Mo  Mo2  1  0.240351  0.759649  0.500000  1
  Mo  Mo3  1  0.524364  0.048729  0.500000  1
  Mo  Mo4  1  0.524364  0.475636  0.500000  1
  Mo  Mo5  1  0.951271  0.475636  0.500000  1
  Mo  Mo6  1  0.995560  0.277837  0.000000  1
  Mo  Mo7  1  0.722163  0.717722  0.000000  1
  Mo  Mo8  1  0.722163  0.004440  0.000000  1
  Mo  Mo9  1  0.995560  0.717722  0.000000  1
  Mo  Mo10  1  0.282278  0.277837  0.000000  1
  Mo  Mo11  1  0.000000  0.000000  0.000000  1
  Mo  Mo12  1  0.519299  0.759649  0.500000  1
  Mo  Mo13  1  0.282278  0.004440  0.000000  1
  P  P14  1  0.416741  0.208370  0.500000  1
  P  P15  1  0.130032  0.565017  0.000000  1
  P  P16  1  0.434983  0.565017  0.000000  1
  P  P17  1  0.434983  0.869968  0.000000  1
  P  P18  1  0.806849  0.903425  0.500000  1
  P  P19  1  0.096575  0.903425  0.500000  1
  P  P20  1  0.096575  0.193151  0.500000  1
  P  P21  1  0.791630  0.208370  0.500000  1
  P  P22  1  0.791630  0.583259  0.500000  1
