# generated using pymatgen
data_Dy3Ho(TiAl3)2
_symmetry_space_group_name_H-M   'P 1'
_cell_length_a   9.53882738
_cell_length_b   9.53882740
_cell_length_c   9.53882795
_cell_angle_alpha   34.69645113
_cell_angle_beta   34.69644988
_cell_angle_gamma   34.69645347
_symmetry_Int_Tables_number   1
_chemical_formula_structural   Dy3Ho(TiAl3)2
_chemical_formula_sum   'Dy3 Ho1 Ti2 Al6'
_cell_volume   250.97328396
_cell_formula_units_Z   1
loop_
 _symmetry_equiv_pos_site_id
 _symmetry_equiv_pos_as_xyz
  1  'x, y, z'
loop_
 _atom_site_type_symbol
 _atom_site_label
 _atom_site_symmetry_multiplicity
 _atom_site_fract_x
 _atom_site_fract_y
 _atom_site_fract_z
 _atom_site_occupancy
  Dy  Dy0  1  0.313231  0.313231  0.313231  1
  Dy  Dy1  1  0.686831  0.686831  0.686831  1
  Dy  Dy2  1  0.186638  0.186638  0.186638  1
  Ho  Ho3  1  0.813473  0.813473  0.813473  1
  Ti  Ti4  1  0.499909  0.499909  0.499909  1
  Ti  Ti5  1  0.999912  0.999912  0.999912  1
  Al  Al6  1  0.249984  0.249984  0.750296  1
  Al  Al7  1  0.750148  0.750148  0.249446  1
  Al  Al8  1  0.249984  0.750296  0.249984  1
  Al  Al9  1  0.750148  0.249446  0.750148  1
  Al  Al10  1  0.750296  0.249984  0.249984  1
  Al  Al11  1  0.249446  0.750148  0.750148  1
