# generated using pymatgen
data_NaNdHoGa8Ag3
_symmetry_space_group_name_H-M   'P 1'
_cell_length_a   4.36786030
_cell_length_b   8.37706704
_cell_length_c   8.37706809
_cell_angle_alpha   71.33902408
_cell_angle_beta   74.88819233
_cell_angle_gamma   74.88819092
_symmetry_Int_Tables_number   1
_chemical_formula_structural   NaNdHoGa8Ag3
_chemical_formula_sum   'Na1 Nd1 Ho1 Ga8 Ag3'
_cell_volume   275.04251045
_cell_formula_units_Z   1
loop_
 _symmetry_equiv_pos_site_id
 _symmetry_equiv_pos_as_xyz
  1  'x, y, z'
loop_
 _atom_site_type_symbol
 _atom_site_label
 _atom_site_symmetry_multiplicity
 _atom_site_fract_x
 _atom_site_fract_y
 _atom_site_fract_z
 _atom_site_occupancy
  Na  Na0  1  0.193778  0.806222  0.806222  1
  Nd  Nd1  1  0.498005  0.501995  0.501995  1
  Ho  Ho2  1  0.800545  0.199455  0.199455  1
  Ga  Ga3  1  0.360222  0.357629  0.921926  1
  Ga  Ga4  1  0.644803  0.634544  0.075851  1
  Ga  Ga5  1  0.360222  0.921926  0.357629  1
  Ga  Ga6  1  0.644803  0.075851  0.634544  1
  Ga  Ga7  1  0.161056  0.466988  0.210901  1
  Ga  Ga8  1  0.835154  0.532441  0.797252  1
  Ga  Ga9  1  0.161056  0.210901  0.466988  1
  Ga  Ga10  1  0.835154  0.797252  0.532441  1
  Ag  Ag11  1  0.501001  0.998999  0.998999  1
  Ag  Ag12  1  0.002101  0.799650  0.196148  1
  Ag  Ag13  1  0.002101  0.196148  0.799650  1
