# generated using pymatgen
data_Ba6Eu2(ReO6)3
_symmetry_space_group_name_H-M   'P 1'
_cell_length_a   10.52204772
_cell_length_b   10.52204807
_cell_length_c   10.52204900
_cell_angle_alpha   146.58023765
_cell_angle_beta   131.84693775
_cell_angle_gamma   59.88077744
_symmetry_Int_Tables_number   1
_chemical_formula_structural   Ba6Eu2(ReO6)3
_chemical_formula_sum   'Ba6 Eu2 Re3 O18'
_cell_volume   473.63370644
_cell_formula_units_Z   1
loop_
 _symmetry_equiv_pos_site_id
 _symmetry_equiv_pos_as_xyz
  1  'x, y, z'
loop_
 _atom_site_type_symbol
 _atom_site_label
 _atom_site_symmetry_multiplicity
 _atom_site_fract_x
 _atom_site_fract_y
 _atom_site_fract_z
 _atom_site_occupancy
  Ba  Ba0  1  0.777576  0.500001  0.277574  1
  Ba  Ba1  1  0.387647  0.153645  0.234003  1
  Ba  Ba2  1  0.080360  0.846355  0.234005  1
  Ba  Ba3  1  0.222424  0.499999  0.722426  1
  Ba  Ba4  1  0.919640  0.153645  0.765995  1
  Ba  Ba5  1  0.612353  0.846355  0.765997  1
  Eu  Eu6  1  0.665980  0.665980  0.000000  1
  Eu  Eu7  1  0.334020  0.334020  0.000000  1
  Re  Re8  1  0.500000  0.000000  0.500000  1
  Re  Re9  1  0.169989  0.669988  0.500000  1
  Re  Re10  1  0.830011  0.330012  0.500000  1
  O  O11  1  0.720281  0.000000  0.720282  1
  O  O12  1  0.395458  0.668825  0.726632  1
  O  O13  1  0.057805  0.331174  0.726630  1
  O  O14  1  0.576145  0.849782  0.273639  1
  O  O15  1  0.243993  0.517171  0.273180  1
  O  O16  1  0.904600  0.182781  0.278179  1
  O  O17  1  0.423855  0.697495  0.273637  1
  O  O18  1  0.095400  0.373579  0.278180  1
  O  O19  1  0.756007  0.029188  0.273179  1
  O  O20  1  0.279719  0.000000  0.279718  1
  O  O21  1  0.942195  0.668826  0.273370  1
  O  O22  1  0.604542  0.331175  0.273368  1
  O  O23  1  0.423855  0.150218  0.726361  1
  O  O24  1  0.095400  0.817219  0.721821  1
  O  O25  1  0.756007  0.482829  0.726820  1
  O  O26  1  0.576145  0.302505  0.726363  1
  O  O27  1  0.243993  0.970812  0.726821  1
  O  O28  1  0.904600  0.626422  0.721820  1
