# generated using pymatgen
data_Tb5Nd5B2Cl15
_symmetry_space_group_name_H-M   'P 1'
_cell_length_a   8.96398213
_cell_length_b   9.68662560
_cell_length_c   10.44677986
_cell_angle_alpha   90.90198281
_cell_angle_beta   114.21713451
_cell_angle_gamma   111.31538866
_symmetry_Int_Tables_number   1
_chemical_formula_structural   Tb5Nd5B2Cl15
_chemical_formula_sum   'Tb5 Nd5 B2 Cl15'
_cell_volume   756.03741377
_cell_formula_units_Z   1
loop_
 _symmetry_equiv_pos_site_id
 _symmetry_equiv_pos_as_xyz
  1  'x, y, z'
loop_
 _atom_site_type_symbol
 _atom_site_label
 _atom_site_symmetry_multiplicity
 _atom_site_fract_x
 _atom_site_fract_y
 _atom_site_fract_z
 _atom_site_occupancy
  Tb  Tb0  1  0.475106  0.299238  0.902370  1
  Tb  Tb1  1  0.587414  0.038524  0.328746  1
  Tb  Tb2  1  0.410263  0.961355  0.668655  1
  Tb  Tb3  1  0.728331  0.076723  0.047920  1
  Tb  Tb4  1  0.271858  0.923060  0.951966  1
  Nd  Nd5  1  0.810044  0.420344  0.280261  1
  Nd  Nd6  1  0.188825  0.579861  0.717775  1
  Nd  Nd7  1  0.679271  0.743762  0.814286  1
  Nd  Nd8  1  0.320535  0.256201  0.185342  1
  Nd  Nd9  1  0.527378  0.698531  0.102985  1
  B  B10  1  0.465656  0.822874  0.874386  1
  B  B11  1  0.532548  0.178685  0.121299  1
  Cl  Cl12  1  0.999434  0.000196  0.998912  1
  Cl  Cl13  1  0.628854  0.890429  0.579879  1
  Cl  Cl14  1  0.371704  0.111289  0.420091  1
  Cl  Cl15  1  0.876309  0.290260  0.522939  1
  Cl  Cl16  1  0.123164  0.710196  0.475044  1
  Cl  Cl17  1  0.294261  0.772652  0.180371  1
  Cl  Cl18  1  0.697233  0.231500  0.819984  1
  Cl  Cl19  1  0.046818  0.337463  0.220414  1
  Cl  Cl20  1  0.179904  0.059266  0.711230  1
  Cl  Cl21  1  0.830161  0.952260  0.294363  1
  Cl  Cl22  1  0.236688  0.404235  0.942340  1
  Cl  Cl23  1  0.760939  0.584195  0.048383  1
  Cl  Cl24  1  0.407043  0.456695  0.662427  1
  Cl  Cl25  1  0.596409  0.536367  0.349261  1
  Cl  Cl26  1  0.953852  0.663835  0.778371  1
