# generated using pymatgen
data_Ho6CoP12Ir15Rh2
_symmetry_space_group_name_H-M   'P 1'
_cell_length_a   3.93826200
_cell_length_b   11.16856800
_cell_length_c   12.75912200
_cell_angle_alpha   90.00000000
_cell_angle_beta   90.00000000
_cell_angle_gamma   90.00000000
_symmetry_Int_Tables_number   1
_chemical_formula_structural   Ho6CoP12Ir15Rh2
_chemical_formula_sum   'Ho6 Co1 P12 Ir15 Rh2'
_cell_volume   561.20675246
_cell_formula_units_Z   1
loop_
 _symmetry_equiv_pos_site_id
 _symmetry_equiv_pos_as_xyz
  1  'x, y, z'
loop_
 _atom_site_type_symbol
 _atom_site_label
 _atom_site_symmetry_multiplicity
 _atom_site_fract_x
 _atom_site_fract_y
 _atom_site_fract_z
 _atom_site_occupancy
  Ho  Ho0  1  0.000000  0.500000  0.522160  1
  Ho  Ho1  1  0.500000  0.000000  0.477677  1
  Ho  Ho2  1  0.500000  0.819023  0.202454  1
  Ho  Ho3  1  0.500000  0.180977  0.202454  1
  Ho  Ho4  1  0.000000  0.688026  0.797933  1
  Ho  Ho5  1  0.000000  0.311974  0.797933  1
  Co  Co6  1  0.500000  0.000000  0.023915  1
  P  P7  1  0.500000  0.315193  0.618552  1
  P  P8  1  0.500000  0.684807  0.618552  1
  P  P9  1  0.000000  0.184694  0.381309  1
  P  P10  1  0.000000  0.815306  0.381309  1
  P  P11  1  0.500000  0.500000  0.877009  1
  P  P12  1  0.000000  0.000000  0.120930  1
  P  P13  1  0.500000  0.853735  0.896327  1
  P  P14  1  0.500000  0.146265  0.896327  1
  P  P15  1  0.000000  0.657661  0.106219  1
  P  P16  1  0.000000  0.342339  0.106219  1
  P  P17  1  0.500000  0.500000  0.356304  1
  P  P18  1  0.000000  0.000000  0.642001  1
  Ir  Ir19  1  0.000000  0.500000  0.973267  1
  Ir  Ir20  1  0.500000  0.294201  0.429725  1
  Ir  Ir21  1  0.500000  0.705799  0.429725  1
  Ir  Ir22  1  0.000000  0.207034  0.569799  1
  Ir  Ir23  1  0.000000  0.792966  0.569799  1
  Ir  Ir24  1  0.500000  0.870724  0.713275  1
  Ir  Ir25  1  0.500000  0.129276  0.713275  1
  Ir  Ir26  1  0.000000  0.630230  0.285850  1
  Ir  Ir27  1  0.000000  0.369770  0.285850  1
  Ir  Ir28  1  0.500000  0.332378  0.999588  1
  Ir  Ir29  1  0.500000  0.667622  0.999588  1
  Ir  Ir30  1  0.000000  0.158230  0.002881  1
  Ir  Ir31  1  0.000000  0.841770  0.002881  1
  Ir  Ir32  1  0.500000  0.500000  0.700227  1
  Ir  Ir33  1  0.000000  0.000000  0.299622  1
  Rh  Rh34  1  0.500000  0.500000  0.177688  1
  Rh  Rh35  1  0.000000  0.000000  0.821370  1
