# generated using pymatgen
data_Tm10Si16Pd
_symmetry_space_group_name_H-M   'P 1'
_cell_length_a   10.98800392
_cell_length_b   10.97929768
_cell_length_c   10.98800339
_cell_angle_alpha   144.52697446
_cell_angle_beta   136.76854785
_cell_angle_gamma   57.12783950
_symmetry_Int_Tables_number   1
_chemical_formula_structural   Tm10Si16Pd
_chemical_formula_sum   'Tm10 Si16 Pd1'
_cell_volume   522.62474662
_cell_formula_units_Z   1
loop_
 _symmetry_equiv_pos_site_id
 _symmetry_equiv_pos_as_xyz
  1  'x, y, z'
loop_
 _atom_site_type_symbol
 _atom_site_label
 _atom_site_symmetry_multiplicity
 _atom_site_fract_x
 _atom_site_fract_y
 _atom_site_fract_z
 _atom_site_occupancy
  Tm  Tm0  1  0.755412  0.753951  0.499993  1
  Tm  Tm1  1  0.459158  0.959425  0.010406  1
  Tm  Tm2  1  0.854769  0.360795  0.013844  1
  Tm  Tm3  1  0.949019  0.959425  0.500266  1
  Tm  Tm4  1  0.153305  0.169066  0.517735  1
  Tm  Tm5  1  0.346951  0.360795  0.506026  1
  Tm  Tm6  1  0.253958  0.753951  0.998540  1
  Tm  Tm7  1  0.551733  0.566618  0.505821  1
  Tm  Tm8  1  0.060795  0.566618  0.014884  1
  Tm  Tm9  1  0.651331  0.169066  0.015761  1
  Si  Si10  1  0.203445  0.580679  0.377235  1
  Si  Si11  1  0.993933  0.055712  0.061780  1
  Si  Si12  1  0.699507  0.283108  0.583600  1
  Si  Si13  1  0.806574  0.225323  0.418752  1
  Si  Si14  1  0.903977  0.547154  0.643177  1
  Si  Si15  1  0.419847  0.871128  0.451282  1
  Si  Si16  1  0.106282  0.706436  0.600154  1
  Si  Si17  1  0.304171  0.898122  0.593952  1
  Si  Si18  1  0.583634  0.036290  0.452656  1
  Si  Si19  1  0.000944  0.419306  0.418362  1
  Si  Si20  1  0.820912  0.889584  0.068674  1
  Si  Si21  1  0.402953  0.496718  0.093767  1
  Si  Si22  1  0.119221  0.074256  0.955034  1
  Si  Si23  1  0.288068  0.237491  0.949425  1
  Si  Si24  1  0.502584  0.385523  0.882939  1
  Si  Si25  1  0.600952  0.699090  0.098139  1
  Pd  Pd26  1  0.706571  0.635866  0.929295  1
