# generated using pymatgen
data_Zr10In2BiPb5
_symmetry_space_group_name_H-M   'P 1'
_cell_length_a   8.98738724
_cell_length_b   8.98738758
_cell_length_c   5.99931000
_cell_angle_alpha   90.00000000
_cell_angle_beta   90.00000000
_cell_angle_gamma   119.85453453
_symmetry_Int_Tables_number   1
_chemical_formula_structural   Zr10In2BiPb5
_chemical_formula_sum   'Zr10 In2 Bi1 Pb5'
_cell_volume   420.27503016
_cell_formula_units_Z   1
loop_
 _symmetry_equiv_pos_site_id
 _symmetry_equiv_pos_as_xyz
  1  'x, y, z'
loop_
 _atom_site_type_symbol
 _atom_site_label
 _atom_site_symmetry_multiplicity
 _atom_site_fract_x
 _atom_site_fract_y
 _atom_site_fract_z
 _atom_site_occupancy
  Zr  Zr0  1  0.666976  0.333385  0.000471  1
  Zr  Zr1  1  0.333385  0.666976  0.000471  1
  Zr  Zr2  1  0.333385  0.666976  0.499529  1
  Zr  Zr3  1  0.666976  0.333385  0.499529  1
  Zr  Zr4  1  0.719903  0.719903  0.750000  1
  Zr  Zr5  1  0.280008  0.999410  0.750000  1
  Zr  Zr6  1  0.999410  0.280008  0.750000  1
  Zr  Zr7  1  0.280004  0.280004  0.250000  1
  Zr  Zr8  1  0.719509  0.999758  0.250000  1
  Zr  Zr9  1  0.999758  0.719509  0.250000  1
  In  In10  1  0.999569  0.999569  0.000060  1
  In  In11  1  0.999569  0.999569  0.499940  1
  Bi  Bi12  1  0.384025  0.384025  0.750000  1
  Pb  Pb13  1  0.617194  0.000111  0.750000  1
  Pb  Pb14  1  0.000111  0.617194  0.750000  1
  Pb  Pb15  1  0.617624  0.617624  0.250000  1
  Pb  Pb16  1  0.382888  0.999706  0.250000  1
  Pb  Pb17  1  0.999706  0.382888  0.250000  1
