# generated using pymatgen
data_Dy2Zn2Ag5
_symmetry_space_group_name_H-M   'P 1'
_cell_length_a   5.39531582
_cell_length_b   5.32097837
_cell_length_c   14.08197600
_cell_angle_alpha   90.00000000
_cell_angle_beta   90.00000000
_cell_angle_gamma   119.25984687
_symmetry_Int_Tables_number   1
_chemical_formula_structural   Dy2Zn2Ag5
_chemical_formula_sum   'Dy4 Zn4 Ag10'
_cell_volume   352.69037352
_cell_formula_units_Z   2
loop_
 _symmetry_equiv_pos_site_id
 _symmetry_equiv_pos_as_xyz
  1  'x, y, z'
loop_
 _atom_site_type_symbol
 _atom_site_label
 _atom_site_symmetry_multiplicity
 _atom_site_fract_x
 _atom_site_fract_y
 _atom_site_fract_z
 _atom_site_occupancy
  Dy  Dy0  1  0.313991  0.318824  0.121593  1
  Dy  Dy1  1  0.686009  0.681176  0.621593  1
  Dy  Dy2  1  0.313991  0.318824  0.378407  1
  Dy  Dy3  1  0.686009  0.681176  0.878407  1
  Zn  Zn4  1  0.821882  0.825229  0.250000  1
  Zn  Zn5  1  0.178118  0.174771  0.750000  1
  Zn  Zn6  1  0.819663  0.328842  0.250000  1
  Zn  Zn7  1  0.180337  0.671158  0.750000  1
  Ag  Ag8  1  0.325799  0.825540  0.250000  1
  Ag  Ag9  1  0.674201  0.174460  0.750000  1
  Ag  Ag10  1  0.972052  0.654916  0.076264  1
  Ag  Ag11  1  0.027948  0.345084  0.576264  1
  Ag  Ag12  1  0.664458  0.986862  0.424754  1
  Ag  Ag13  1  0.335542  0.013138  0.924754  1
  Ag  Ag14  1  0.027948  0.345084  0.923736  1
  Ag  Ag15  1  0.972052  0.654916  0.423736  1
  Ag  Ag16  1  0.335542  0.013138  0.575246  1
  Ag  Ag17  1  0.664458  0.986862  0.075246  1
