# generated using pymatgen
data_Tb7HoSc11Si16Os
_symmetry_space_group_name_H-M   'P 1'
_cell_length_a   7.02751508
_cell_length_b   7.36563014
_cell_length_c   13.89662427
_cell_angle_alpha   89.97734599
_cell_angle_beta   90.00244579
_cell_angle_gamma   90.09482652
_symmetry_Int_Tables_number   1
_chemical_formula_structural   Tb7HoSc11Si16Os
_chemical_formula_sum   'Tb7 Ho1 Sc11 Si16 Os1'
_cell_volume   719.31709223
_cell_formula_units_Z   1
loop_
 _symmetry_equiv_pos_site_id
 _symmetry_equiv_pos_as_xyz
  1  'x, y, z'
loop_
 _atom_site_type_symbol
 _atom_site_label
 _atom_site_symmetry_multiplicity
 _atom_site_fract_x
 _atom_site_fract_y
 _atom_site_fract_z
 _atom_site_occupancy
  Tb  Tb0  1  0.011995  0.177445  0.092668  1
  Tb  Tb1  1  0.993816  0.820057  0.900331  1
  Tb  Tb2  1  0.489681  0.672032  0.902403  1
  Tb  Tb3  1  0.993799  0.819999  0.599438  1
  Tb  Tb4  1  0.511670  0.324134  0.094579  1
  Tb  Tb5  1  0.012080  0.177423  0.407483  1
  Tb  Tb6  1  0.511687  0.324073  0.405659  1
  Ho  Ho7  1  0.489639  0.672313  0.597948  1
  Sc  Sc8  1  0.842095  0.496592  0.249988  1
  Sc  Sc9  1  0.342130  0.002851  0.250012  1
  Sc  Sc10  1  0.657074  0.995856  0.749902  1
  Sc  Sc11  1  0.325805  0.176128  0.627436  1
  Sc  Sc12  1  0.672196  0.824640  0.374519  1
  Sc  Sc13  1  0.172290  0.673840  0.377229  1
  Sc  Sc14  1  0.672232  0.824813  0.125567  1
  Sc  Sc15  1  0.824630  0.332073  0.628395  1
  Sc  Sc16  1  0.325686  0.176081  0.872428  1
  Sc  Sc17  1  0.824784  0.331912  0.871378  1
  Sc  Sc18  1  0.172292  0.673866  0.122850  1
  Si  Si19  1  0.028354  0.121857  0.749880  1
  Si  Si20  1  0.972444  0.884474  0.250031  1
  Si  Si21  1  0.468581  0.616404  0.250076  1
  Si  Si22  1  0.513566  0.394421  0.749663  1
  Si  Si23  1  0.287589  0.861144  0.749646  1
  Si  Si24  1  0.717086  0.128213  0.250039  1
  Si  Si25  1  0.214969  0.372632  0.250049  1
  Si  Si26  1  0.795446  0.629404  0.749715  1
  Si  Si27  1  0.156441  0.465881  0.550103  1
  Si  Si28  1  0.843166  0.536801  0.463972  1
  Si  Si29  1  0.346541  0.963591  0.463223  1
  Si  Si30  1  0.843449  0.536733  0.036160  1
  Si  Si31  1  0.657895  0.033661  0.540334  1
  Si  Si32  1  0.155284  0.465239  0.950122  1
  Si  Si33  1  0.658189  0.034539  0.959859  1
  Si  Si34  1  0.346365  0.964383  0.037065  1
  Os  Os35  1  0.149053  0.494495  0.749849  1
