# generated using pymatgen
data_HoEr3(Si2Pt3)2
_symmetry_space_group_name_H-M   'P 1'
_cell_length_a   4.16970600
_cell_length_b   6.64614224
_cell_length_c   8.91418132
_cell_angle_alpha   90.03072415
_cell_angle_beta   90.00000000
_cell_angle_gamma   90.00000000
_symmetry_Int_Tables_number   1
_chemical_formula_structural   HoEr3(Si2Pt3)2
_chemical_formula_sum   'Ho1 Er3 Si4 Pt6'
_cell_volume   247.03385036
_cell_formula_units_Z   1
loop_
 _symmetry_equiv_pos_site_id
 _symmetry_equiv_pos_as_xyz
  1  'x, y, z'
loop_
 _atom_site_type_symbol
 _atom_site_label
 _atom_site_symmetry_multiplicity
 _atom_site_fract_x
 _atom_site_fract_y
 _atom_site_fract_z
 _atom_site_occupancy
  Ho  Ho0  1  0.000000  0.888371  0.329277  1
  Er  Er1  1  0.000000  0.111657  0.670763  1
  Er  Er2  1  0.000000  0.388397  0.170737  1
  Er  Er3  1  0.000000  0.611511  0.829293  1
  Si  Si4  1  0.500000  0.573887  0.355580  1
  Si  Si5  1  0.500000  0.425871  0.644505  1
  Si  Si6  1  0.500000  0.074201  0.144283  1
  Si  Si7  1  0.500000  0.925931  0.855503  1
  Pt  Pt8  1  0.500000  0.694070  0.088910  1
  Pt  Pt9  1  0.500000  0.305951  0.910971  1
  Pt  Pt10  1  0.500000  0.194335  0.411092  1
  Pt  Pt11  1  0.500000  0.805951  0.589156  1
  Pt  Pt12  1  0.000000  0.499798  0.500058  1
  Pt  Pt13  1  0.000000  0.000069  0.999872  1
