# generated using pymatgen
data_Hf3Al2TcN
_symmetry_space_group_name_H-M   'P 1'
_cell_length_a   8.53515917
_cell_length_b   8.53515969
_cell_length_c   8.53516000
_cell_angle_alpha   60.00000655
_cell_angle_beta   60.00000452
_cell_angle_gamma   60.00000057
_symmetry_Int_Tables_number   1
_chemical_formula_structural   Hf3Al2TcN
_chemical_formula_sum   'Hf12 Al8 Tc4 N4'
_cell_volume   439.66306442
_cell_formula_units_Z   4
loop_
 _symmetry_equiv_pos_site_id
 _symmetry_equiv_pos_as_xyz
  1  'x, y, z'
loop_
 _atom_site_type_symbol
 _atom_site_label
 _atom_site_symmetry_multiplicity
 _atom_site_fract_x
 _atom_site_fract_y
 _atom_site_fract_z
 _atom_site_occupancy
  Hf  Hf0  1  0.809650  0.809650  0.190350  1
  Hf  Hf1  1  0.190350  0.190350  0.809650  1
  Hf  Hf2  1  0.809650  0.190350  0.809650  1
  Hf  Hf3  1  0.190350  0.809650  0.190350  1
  Hf  Hf4  1  0.190350  0.809650  0.809650  1
  Hf  Hf5  1  0.809650  0.190350  0.190350  1
  Hf  Hf6  1  0.440350  0.440350  0.059650  1
  Hf  Hf7  1  0.059650  0.059650  0.440350  1
  Hf  Hf8  1  0.440350  0.059650  0.440350  1
  Hf  Hf9  1  0.059650  0.440350  0.059650  1
  Hf  Hf10  1  0.059650  0.440350  0.440350  1
  Hf  Hf11  1  0.440350  0.059650  0.059650  1
  Al  Al12  1  0.748230  0.417257  0.417257  1
  Al  Al13  1  0.417257  0.748230  0.417257  1
  Al  Al14  1  0.417257  0.417257  0.748230  1
  Al  Al15  1  0.417257  0.417257  0.417257  1
  Al  Al16  1  0.501770  0.832743  0.832743  1
  Al  Al17  1  0.832743  0.501770  0.832743  1
  Al  Al18  1  0.832743  0.832743  0.501770  1
  Al  Al19  1  0.832743  0.832743  0.832743  1
  Tc  Tc20  1  0.125000  0.625000  0.625000  1
  Tc  Tc21  1  0.625000  0.125000  0.625000  1
  Tc  Tc22  1  0.625000  0.625000  0.125000  1
  Tc  Tc23  1  0.625000  0.625000  0.625000  1
  N  N24  1  0.625000  0.125000  0.125000  1
  N  N25  1  0.125000  0.625000  0.125000  1
  N  N26  1  0.125000  0.125000  0.625000  1
  N  N27  1  0.125000  0.125000  0.125000  1
