# generated using pymatgen
data_Dy7Er(SiPd)8
_symmetry_space_group_name_H-M   'P 1'
_cell_length_a   4.32663300
_cell_length_b   7.48920300
_cell_length_c   13.87180400
_cell_angle_alpha   89.99934206
_cell_angle_beta   90.00000000
_cell_angle_gamma   90.00000000
_symmetry_Int_Tables_number   1
_chemical_formula_structural   Dy7Er(SiPd)8
_chemical_formula_sum   'Dy7 Er1 Si8 Pd8'
_cell_volume   449.48852061
_cell_formula_units_Z   1
loop_
 _symmetry_equiv_pos_site_id
 _symmetry_equiv_pos_as_xyz
  1  'x, y, z'
loop_
 _atom_site_type_symbol
 _atom_site_label
 _atom_site_symmetry_multiplicity
 _atom_site_fract_x
 _atom_site_fract_y
 _atom_site_fract_z
 _atom_site_occupancy
  Dy  Dy0  1  0.999994  0.299621  0.999787  1
  Dy  Dy1  1  0.500006  0.700443  0.500248  1
  Dy  Dy2  1  0.999992  0.290764  0.500147  1
  Dy  Dy3  1  0.500006  0.709438  0.999793  1
  Dy  Dy4  1  0.999992  0.209733  0.248948  1
  Dy  Dy5  1  0.500013  0.790251  0.251037  1
  Dy  Dy6  1  0.999991  0.209336  0.751037  1
  Er  Er7  1  0.499991  0.789263  0.748935  1
  Si  Si8  1  0.999987  0.909042  0.593796  1
  Si  Si9  1  0.500013  0.090728  0.906276  1
  Si  Si10  1  0.999989  0.909049  0.406723  1
  Si  Si11  1  0.500014  0.090854  0.093325  1
  Si  Si12  1  0.999991  0.591248  0.144295  1
  Si  Si13  1  0.500012  0.408769  0.355703  1
  Si  Si14  1  0.999988  0.591822  0.855429  1
  Si  Si15  1  0.500012  0.408872  0.644346  1
  Pd  Pd16  1  0.499985  0.075262  0.609133  1
  Pd  Pd17  1  0.000014  0.923345  0.890733  1
  Pd  Pd18  1  0.499983  0.076259  0.391718  1
  Pd  Pd19  1  0.000015  0.923769  0.108318  1
  Pd  Pd20  1  0.499986  0.420437  0.156851  1
  Pd  Pd21  1  0.000018  0.579593  0.343159  1
  Pd  Pd22  1  0.499986  0.421309  0.842719  1
  Pd  Pd23  1  0.000019  0.580792  0.657541  1
