# generated using pymatgen
data_FeSn2(BO3)2
_symmetry_space_group_name_H-M   'P 1'
_cell_length_a   4.91893306
_cell_length_b   15.29568602
_cell_length_c   4.88704167
_cell_angle_alpha   80.53854531
_cell_angle_beta   59.87381639
_cell_angle_gamma   80.26275328
_symmetry_Int_Tables_number   1
_chemical_formula_structural   FeSn2(BO3)2
_chemical_formula_sum   'Fe2 Sn4 B4 O12'
_cell_volume   312.07873043
_cell_formula_units_Z   2
loop_
 _symmetry_equiv_pos_site_id
 _symmetry_equiv_pos_as_xyz
  1  'x, y, z'
loop_
 _atom_site_type_symbol
 _atom_site_label
 _atom_site_symmetry_multiplicity
 _atom_site_fract_x
 _atom_site_fract_y
 _atom_site_fract_z
 _atom_site_occupancy
  Fe  Fe0  1  0.500000  0.500000  0.500000  1
  Fe  Fe1  1  0.000000  0.000000  0.000000  1
  Sn  Sn2  1  0.888846  0.334800  0.887486  1
  Sn  Sn3  1  0.388846  0.834800  0.387486  1
  Sn  Sn4  1  0.611154  0.165200  0.612514  1
  Sn  Sn5  1  0.111154  0.665200  0.112514  1
  B  B6  1  0.195875  0.413294  0.193523  1
  B  B7  1  0.695875  0.913294  0.693523  1
  B  B8  1  0.304125  0.086706  0.306477  1
  B  B9  1  0.804125  0.586706  0.806477  1
  O  O10  1  0.909013  0.411632  0.205672  1
  O  O11  1  0.409013  0.911632  0.705672  1
  O  O12  1  0.292105  0.089052  0.028299  1
  O  O13  1  0.792105  0.589052  0.528299  1
  O  O14  1  0.026585  0.086796  0.596393  1
  O  O15  1  0.526585  0.586796  0.096393  1
  O  O16  1  0.473415  0.413204  0.903607  1
  O  O17  1  0.973415  0.913204  0.403607  1
  O  O18  1  0.207895  0.410948  0.471701  1
  O  O19  1  0.707895  0.910948  0.971701  1
  O  O20  1  0.590987  0.088368  0.294328  1
  O  O21  1  0.090987  0.588368  0.794328  1
