# generated using pymatgen
data_Lu9Sc(SiSb)4
_symmetry_space_group_name_H-M   'P 1'
_cell_length_a   8.31652767
_cell_length_b   8.31652694
_cell_length_c   7.66764612
_cell_angle_alpha   89.98847937
_cell_angle_beta   89.98848218
_cell_angle_gamma   125.31539165
_symmetry_Int_Tables_number   1
_chemical_formula_structural   Lu9Sc(SiSb)4
_chemical_formula_sum   'Lu9 Sc1 Si4 Sb4'
_cell_volume   432.73976792
_cell_formula_units_Z   1
loop_
 _symmetry_equiv_pos_site_id
 _symmetry_equiv_pos_as_xyz
  1  'x, y, z'
loop_
 _atom_site_type_symbol
 _atom_site_label
 _atom_site_symmetry_multiplicity
 _atom_site_fract_x
 _atom_site_fract_y
 _atom_site_fract_z
 _atom_site_occupancy
  Lu  Lu0  1  0.539759  0.789244  0.166425  1
  Lu  Lu1  1  0.291592  0.041723  0.335951  1
  Lu  Lu2  1  0.210756  0.460241  0.833575  1
  Lu  Lu3  1  0.958277  0.708408  0.664049  1
  Lu  Lu4  1  0.708408  0.958277  0.664049  1
  Lu  Lu5  1  0.460241  0.210756  0.833575  1
  Lu  Lu6  1  0.789244  0.539759  0.166425  1
  Lu  Lu7  1  0.041723  0.291592  0.335951  1
  Lu  Lu8  1  0.000000  0.000000  0.000000  1
  Sc  Sc9  1  0.500000  0.500000  0.500000  1
  Si  Si10  1  0.632546  0.632546  0.866147  1
  Si  Si11  1  0.134764  0.134764  0.631358  1
  Si  Si12  1  0.865236  0.865236  0.368642  1
  Si  Si13  1  0.367454  0.367454  0.133853  1
  Sb  Sb14  1  0.295740  0.704260  0.500000  1
  Sb  Sb15  1  0.206100  0.793900  0.000000  1
  Sb  Sb16  1  0.704260  0.295740  0.500000  1
  Sb  Sb17  1  0.793900  0.206100  0.000000  1
