# generated using pymatgen
data_K3NpF8
_symmetry_space_group_name_H-M   'P 1'
_cell_length_a   8.61979500
_cell_length_b   8.61979523
_cell_length_c   6.52004100
_cell_angle_alpha   90.00000000
_cell_angle_beta   90.00000000
_cell_angle_gamma   119.99999528
_symmetry_Int_Tables_number   1
_chemical_formula_structural   K3NpF8
_chemical_formula_sum   'K6 Np2 F16'
_cell_volume   419.54144084
_cell_formula_units_Z   2
loop_
 _symmetry_equiv_pos_site_id
 _symmetry_equiv_pos_as_xyz
  1  'x, y, z'
loop_
 _atom_site_type_symbol
 _atom_site_label
 _atom_site_symmetry_multiplicity
 _atom_site_fract_x
 _atom_site_fract_y
 _atom_site_fract_z
 _atom_site_occupancy
  K  K0  1  0.149096  0.298192  0.241413  1
  K  K1  1  0.850904  0.701808  0.741414  1
  K  K2  1  0.701808  0.850904  0.241413  1
  K  K3  1  0.149096  0.850904  0.241413  1
  K  K4  1  0.850904  0.149096  0.741414  1
  K  K5  1  0.298192  0.149096  0.741414  1
  Np  Np6  1  0.333333  0.666667  0.731430  1
  Np  Np7  1  0.666667  0.333333  0.231430  1
  F  F8  1  0.000000  0.000000  0.007402  1
  F  F9  1  0.000000  0.000000  0.507402  1
  F  F10  1  0.443704  0.556296  0.526807  1
  F  F11  1  0.556296  0.443704  0.026807  1
  F  F12  1  0.443704  0.887409  0.526807  1
  F  F13  1  0.112591  0.556296  0.526807  1
  F  F14  1  0.887409  0.443704  0.026807  1
  F  F15  1  0.556296  0.112591  0.026807  1
  F  F16  1  0.333333  0.666667  0.070155  1
  F  F17  1  0.666667  0.333333  0.570155  1
  F  F18  1  0.194761  0.805239  0.823836  1
  F  F19  1  0.805239  0.194761  0.323836  1
  F  F20  1  0.194761  0.389521  0.823836  1
  F  F21  1  0.610479  0.805239  0.823836  1
  F  F22  1  0.389521  0.194761  0.323836  1
  F  F23  1  0.805239  0.610479  0.323836  1
