# generated using pymatgen
data_Dy7Ho3Er6(Ga3Os)2
_symmetry_space_group_name_H-M   'P 1'
_cell_length_a   9.97533305
_cell_length_b   9.97505317
_cell_length_c   7.08068005
_cell_angle_alpha   89.98860475
_cell_angle_beta   90.01141174
_cell_angle_gamma   119.99737393
_symmetry_Int_Tables_number   1
_chemical_formula_structural   Dy7Ho3Er6(Ga3Os)2
_chemical_formula_sum   'Dy7 Ho3 Er6 Ga6 Os2'
_cell_volume   610.18244191
_cell_formula_units_Z   1
loop_
 _symmetry_equiv_pos_site_id
 _symmetry_equiv_pos_as_xyz
  1  'x, y, z'
loop_
 _atom_site_type_symbol
 _atom_site_label
 _atom_site_symmetry_multiplicity
 _atom_site_fract_x
 _atom_site_fract_y
 _atom_site_fract_z
 _atom_site_occupancy
  Dy  Dy0  1  0.069501  0.534658  0.205172  1
  Dy  Dy1  1  0.465352  0.930523  0.205163  1
  Dy  Dy2  1  0.534769  0.465240  0.705129  1
  Dy  Dy3  1  0.930404  0.465187  0.705274  1
  Dy  Dy4  1  0.534806  0.069579  0.705254  1
  Dy  Dy5  1  0.999954  0.000043  0.234566  1
  Dy  Dy6  1  0.000009  0.000002  0.734588  1
  Ho  Ho7  1  0.333447  0.666563  0.838240  1
  Ho  Ho8  1  0.666526  0.333475  0.338100  1
  Ho  Ho9  1  0.465030  0.534960  0.204956  1
  Er  Er10  1  0.171564  0.828443  0.511631  1
  Er  Er11  1  0.656742  0.828256  0.511456  1
  Er  Er12  1  0.171757  0.343267  0.511440  1
  Er  Er13  1  0.828521  0.171455  0.011684  1
  Er  Er14  1  0.343138  0.171737  0.011932  1
  Er  Er15  1  0.828259  0.656851  0.011938  1
  Ga  Ga16  1  0.163740  0.836273  0.955673  1
  Ga  Ga17  1  0.672416  0.836132  0.955769  1
  Ga  Ga18  1  0.163852  0.327585  0.955670  1
  Ga  Ga19  1  0.836279  0.163714  0.455599  1
  Ga  Ga20  1  0.327479  0.163700  0.455568  1
  Ga  Ga21  1  0.836291  0.672540  0.455486  1
  Os  Os22  1  0.333487  0.666536  0.447088  1
  Os  Os23  1  0.666675  0.333285  0.947460  1
