# generated using pymatgen
data_RbGaCoF6
_symmetry_space_group_name_H-M   'P 1'
_cell_length_a   7.37729866
_cell_length_b   7.37729901
_cell_length_c   7.37729920
_cell_angle_alpha   120.71526952
_cell_angle_beta   119.81298614
_cell_angle_gamma   89.54491160
_symmetry_Int_Tables_number   1
_chemical_formula_structural   RbGaCoF6
_chemical_formula_sum   'Rb2 Ga2 Co2 F12'
_cell_volume   282.74245115
_cell_formula_units_Z   2
loop_
 _symmetry_equiv_pos_site_id
 _symmetry_equiv_pos_as_xyz
  1  'x, y, z'
loop_
 _atom_site_type_symbol
 _atom_site_label
 _atom_site_symmetry_multiplicity
 _atom_site_fract_x
 _atom_site_fract_y
 _atom_site_fract_z
 _atom_site_occupancy
  Rb  Rb0  1  0.367348  0.617348  0.750000  1
  Rb  Rb1  1  0.632652  0.382652  0.250000  1
  Ga  Ga2  1  0.000000  0.000000  0.000000  1
  Ga  Ga3  1  0.500000  0.000000  0.500000  1
  Co  Co4  1  0.000000  0.000000  0.500000  1
  Co  Co5  1  0.000000  0.500000  0.000000  1
  F  F6  1  0.311106  0.061106  0.250000  1
  F  F7  1  0.919147  0.669147  0.250000  1
  F  F8  1  0.333533  0.690728  0.267660  1
  F  F9  1  0.923068  0.065874  0.232340  1
  F  F10  1  0.333533  0.065874  0.642806  1
  F  F11  1  0.923068  0.690728  0.857194  1
  F  F12  1  0.688894  0.938894  0.750000  1
  F  F13  1  0.080853  0.330853  0.750000  1
  F  F14  1  0.666467  0.309272  0.732340  1
  F  F15  1  0.076932  0.934126  0.767660  1
  F  F16  1  0.666467  0.934126  0.357194  1
  F  F17  1  0.076932  0.309272  0.142806  1
