# generated using pymatgen
data_Ca10HgIr
_symmetry_space_group_name_H-M   'P 1'
_cell_length_a   7.90199200
_cell_length_b   15.91593400
_cell_length_c   6.90094900
_cell_angle_alpha   90.00000000
_cell_angle_beta   90.00000000
_cell_angle_gamma   90.00000000
_symmetry_Int_Tables_number   1
_chemical_formula_structural   Ca10HgIr
_chemical_formula_sum   'Ca20 Hg2 Ir2'
_cell_volume   867.91567711
_cell_formula_units_Z   2
loop_
 _symmetry_equiv_pos_site_id
 _symmetry_equiv_pos_as_xyz
  1  'x, y, z'
loop_
 _atom_site_type_symbol
 _atom_site_label
 _atom_site_symmetry_multiplicity
 _atom_site_fract_x
 _atom_site_fract_y
 _atom_site_fract_z
 _atom_site_occupancy
  Ca  Ca0  1  0.056752  0.860233  0.324479  1
  Ca  Ca1  1  0.443249  0.139768  0.824479  1
  Ca  Ca2  1  0.519932  0.640836  0.159457  1
  Ca  Ca3  1  0.980069  0.359163  0.659457  1
  Ca  Ca4  1  0.980069  0.140837  0.659457  1
  Ca  Ca5  1  0.519932  0.859164  0.159457  1
  Ca  Ca6  1  0.443249  0.360232  0.824479  1
  Ca  Ca7  1  0.056752  0.639767  0.324479  1
  Ca  Ca8  1  0.317014  0.433682  0.351690  1
  Ca  Ca9  1  0.182986  0.566318  0.851688  1
  Ca  Ca10  1  0.811287  0.057080  0.146411  1
  Ca  Ca11  1  0.688713  0.942920  0.646410  1
  Ca  Ca12  1  0.688713  0.557080  0.646410  1
  Ca  Ca13  1  0.811287  0.442920  0.146411  1
  Ca  Ca14  1  0.182986  0.933682  0.851688  1
  Ca  Ca15  1  0.317014  0.066318  0.351690  1
  Ca  Ca16  1  0.909586  0.750000  0.873975  1
  Ca  Ca17  1  0.590415  0.250000  0.373975  1
  Ca  Ca18  1  0.388907  0.750000  0.662616  1
  Ca  Ca19  1  0.111092  0.250000  0.162616  1
  Hg  Hg20  1  0.743955  0.750000  0.456913  1
  Hg  Hg21  1  0.756046  0.250000  0.956915  1
  Ir  Ir22  1  0.235677  0.750000  0.042419  1
  Ir  Ir23  1  0.264324  0.250000  0.542420  1
