# generated using pymatgen
data_Ho2Co10Si7Ru2
_symmetry_space_group_name_H-M   'P 1'
_cell_length_a   3.70494500
_cell_length_b   9.13268491
_cell_length_c   9.16927696
_cell_angle_alpha   120.27752648
_cell_angle_beta   90.00000000
_cell_angle_gamma   90.00000000
_symmetry_Int_Tables_number   1
_chemical_formula_structural   Ho2Co10Si7Ru2
_chemical_formula_sum   'Ho2 Co10 Si7 Ru2'
_cell_volume   267.93202969
_cell_formula_units_Z   1
loop_
 _symmetry_equiv_pos_site_id
 _symmetry_equiv_pos_as_xyz
  1  'x, y, z'
loop_
 _atom_site_type_symbol
 _atom_site_label
 _atom_site_symmetry_multiplicity
 _atom_site_fract_x
 _atom_site_fract_y
 _atom_site_fract_z
 _atom_site_occupancy
  Ho  Ho0  1  0.000000  0.668096  0.334741  1
  Ho  Ho1  1  0.500000  0.334113  0.667334  1
  Co  Co2  1  0.000000  0.566568  0.945032  1
  Co  Co3  1  0.000000  0.378082  0.431817  1
  Co  Co4  1  0.000000  0.054797  0.622670  1
  Co  Co5  1  0.500000  0.102736  0.879405  1
  Co  Co6  1  0.000000  0.872541  0.155893  1
  Co  Co7  1  0.000000  0.281891  0.124978  1
  Co  Co8  1  0.000000  0.848336  0.718737  1
  Co  Co9  1  0.500000  0.947474  0.384552  1
  Co  Co10  1  0.500000  0.430926  0.049183  1
  Co  Co11  1  0.500000  0.617218  0.565731  1
  Si  Si12  1  0.000000  0.001820  0.998936  1
  Si  Si13  1  0.500000  0.705540  0.111860  1
  Si  Si14  1  0.500000  0.402844  0.290584  1
  Si  Si15  1  0.500000  0.890882  0.600198  1
  Si  Si16  1  0.000000  0.596550  0.707123  1
  Si  Si17  1  0.000000  0.112838  0.406360  1
  Si  Si18  1  0.000000  0.288894  0.886843  1
  Ru  Ru19  1  0.500000  0.784978  0.901531  1
  Ru  Ru20  1  0.500000  0.112877  0.216495  1
