# generated using pymatgen
data_Ho4Zr4Ir3Pt
_symmetry_space_group_name_H-M   'P 1'
_cell_length_a   4.63057200
_cell_length_b   7.10052404
_cell_length_c   8.24131119
_cell_angle_alpha   90.28738627
_cell_angle_beta   90.00000000
_cell_angle_gamma   90.00000000
_symmetry_Int_Tables_number   1
_chemical_formula_structural   Ho4Zr4Ir3Pt
_chemical_formula_sum   'Ho4 Zr4 Ir3 Pt1'
_cell_volume   270.96668238
_cell_formula_units_Z   1
loop_
 _symmetry_equiv_pos_site_id
 _symmetry_equiv_pos_as_xyz
  1  'x, y, z'
loop_
 _atom_site_type_symbol
 _atom_site_label
 _atom_site_symmetry_multiplicity
 _atom_site_fract_x
 _atom_site_fract_y
 _atom_site_fract_z
 _atom_site_occupancy
  Ho  Ho0  1  0.250000  0.019289  0.822147  1
  Ho  Ho1  1  0.250000  0.513849  0.674221  1
  Ho  Ho2  1  0.750000  0.984996  0.177551  1
  Ho  Ho3  1  0.750000  0.482912  0.326350  1
  Zr  Zr4  1  0.250000  0.142966  0.424139  1
  Zr  Zr5  1  0.250000  0.642969  0.079774  1
  Zr  Zr6  1  0.750000  0.856546  0.574658  1
  Zr  Zr7  1  0.750000  0.352564  0.925274  1
  Ir  Ir8  1  0.250000  0.767947  0.406540  1
  Ir  Ir9  1  0.250000  0.269634  0.091777  1
  Ir  Ir10  1  0.750000  0.232295  0.593412  1
  Pt  Pt11  1  0.750000  0.734033  0.904158  1
