# generated using pymatgen
data_Ca9Dy(Si3H)2
_symmetry_space_group_name_H-M   'P 1'
_cell_length_a   9.02039706
_cell_length_b   9.02039710
_cell_length_c   9.01657421
_cell_angle_alpha   129.97751385
_cell_angle_beta   129.97751274
_cell_angle_gamma   73.51348563
_symmetry_Int_Tables_number   1
_chemical_formula_structural   Ca9Dy(Si3H)2
_chemical_formula_sum   'Ca9 Dy1 Si6 H2'
_cell_volume   420.28687081
_cell_formula_units_Z   1
loop_
 _symmetry_equiv_pos_site_id
 _symmetry_equiv_pos_as_xyz
  1  'x, y, z'
loop_
 _atom_site_type_symbol
 _atom_site_label
 _atom_site_symmetry_multiplicity
 _atom_site_fract_x
 _atom_site_fract_y
 _atom_site_fract_z
 _atom_site_occupancy
  Ca  Ca0  1  0.497152  0.503109  0.000239  1
  Ca  Ca1  1  0.003109  0.997152  0.000239  1
  Ca  Ca2  1  0.181602  0.681602  0.161688  1
  Ca  Ca3  1  0.017716  0.181654  0.498646  1
  Ca  Ca4  1  0.681654  0.517716  0.498646  1
  Ca  Ca5  1  0.481400  0.981400  0.168465  1
  Ca  Ca6  1  0.814797  0.314797  0.834303  1
  Ca  Ca7  1  0.980785  0.816251  0.498580  1
  Ca  Ca8  1  0.316251  0.480785  0.498580  1
  Dy  Dy9  1  0.524733  0.024733  0.839805  1
  Si  Si10  1  0.257267  0.242433  0.993420  1
  Si  Si11  1  0.742433  0.757267  0.993420  1
  Si  Si12  1  0.882256  0.382256  0.266897  1
  Si  Si13  1  0.108652  0.608652  0.718280  1
  Si  Si14  1  0.387544  0.112599  0.507636  1
  Si  Si15  1  0.612599  0.887544  0.507636  1
  H  H16  1  0.259819  0.759819  0.510736  1
  H  H17  1  0.750231  0.250231  0.502785  1
