# generated using pymatgen
data_Tm6RuRh
_symmetry_space_group_name_H-M   'P 1'
_cell_length_a   6.27811628
_cell_length_b   7.17758780
_cell_length_c   9.05626100
_cell_angle_alpha   90.00000000
_cell_angle_beta   90.00000000
_cell_angle_gamma   90.09949337
_symmetry_Int_Tables_number   1
_chemical_formula_structural   Tm6RuRh
_chemical_formula_sum   'Tm12 Ru2 Rh2'
_cell_volume   408.09018046
_cell_formula_units_Z   2
loop_
 _symmetry_equiv_pos_site_id
 _symmetry_equiv_pos_as_xyz
  1  'x, y, z'
loop_
 _atom_site_type_symbol
 _atom_site_label
 _atom_site_symmetry_multiplicity
 _atom_site_fract_x
 _atom_site_fract_y
 _atom_site_fract_z
 _atom_site_occupancy
  Tm  Tm0  1  0.627029  0.037292  0.250000  1
  Tm  Tm1  1  0.372971  0.962708  0.750000  1
  Tm  Tm2  1  0.128507  0.464067  0.750000  1
  Tm  Tm3  1  0.871493  0.535933  0.250000  1
  Tm  Tm4  1  0.169854  0.176546  0.061523  1
  Tm  Tm5  1  0.830146  0.823454  0.938477  1
  Tm  Tm6  1  0.676290  0.319095  0.935903  1
  Tm  Tm7  1  0.830146  0.823454  0.561523  1
  Tm  Tm8  1  0.323710  0.680905  0.064097  1
  Tm  Tm9  1  0.169854  0.176546  0.438477  1
  Tm  Tm10  1  0.323710  0.680905  0.435903  1
  Tm  Tm11  1  0.676290  0.319095  0.564097  1
  Ru  Ru12  1  0.965778  0.114121  0.750000  1
  Ru  Ru13  1  0.034222  0.885879  0.250000  1
  Rh  Rh14  1  0.457557  0.388420  0.250000  1
  Rh  Rh15  1  0.542443  0.611580  0.750000  1
