# generated using pymatgen
data_Y4(Al8Pd3)3
_symmetry_space_group_name_H-M   'P 1'
_cell_length_a   7.54014415
_cell_length_b   7.56764477
_cell_length_c   13.18696054
_cell_angle_alpha   84.58573383
_cell_angle_beta   79.12066068
_cell_angle_gamma   60.00872478
_symmetry_Int_Tables_number   1
_chemical_formula_structural   Y4(Al8Pd3)3
_chemical_formula_sum   'Y4 Al24 Pd9'
_cell_volume   639.99599390
_cell_formula_units_Z   1
loop_
 _symmetry_equiv_pos_site_id
 _symmetry_equiv_pos_as_xyz
  1  'x, y, z'
loop_
 _atom_site_type_symbol
 _atom_site_label
 _atom_site_symmetry_multiplicity
 _atom_site_fract_x
 _atom_site_fract_y
 _atom_site_fract_z
 _atom_site_occupancy
  Y  Y0  1  0.393194  0.168903  0.808680  1
  Y  Y1  1  0.606806  0.831097  0.191320  1
  Y  Y2  1  0.733758  0.498202  0.808579  1
  Y  Y3  1  0.266242  0.501798  0.191421  1
  Al  Al4  1  0.684720  0.833718  0.944892  1
  Al  Al5  1  0.315280  0.166282  0.055108  1
  Al  Al6  1  0.146293  0.833078  0.561166  1
  Al  Al7  1  0.853707  0.166922  0.438834  1
  Al  Al8  1  0.479247  0.166608  0.558756  1
  Al  Al9  1  0.520753  0.833392  0.441244  1
  Al  Al10  1  0.216516  0.165255  0.329831  1
  Al  Al11  1  0.783484  0.834745  0.670169  1
  Al  Al12  1  0.437096  0.506675  0.670217  1
  Al  Al13  1  0.562904  0.493325  0.329783  1
  Al  Al14  1  0.109427  0.159396  0.669241  1
  Al  Al15  1  0.890573  0.840604  0.330759  1
  Al  Al16  1  0.352640  0.499827  0.945079  1
  Al  Al17  1  0.647360  0.500173  0.054921  1
  Al  Al18  1  0.015216  0.167388  0.953943  1
  Al  Al19  1  0.984784  0.832612  0.046057  1
  Al  Al20  1  0.186937  0.499316  0.441044  1
  Al  Al21  1  0.813063  0.500684  0.558956  1
  Al  Al22  1  0.733668  0.163899  0.183533  1
  Al  Al23  1  0.266332  0.836101  0.816467  1
  Al  Al24  1  0.061762  0.631167  0.815216  1
  Al  Al25  1  0.938238  0.368833  0.184784  1
  Al  Al26  1  0.855094  0.041610  0.815966  1
  Al  Al27  1  0.144906  0.958390  0.184034  1
  Pd  Pd28  1  0.119726  0.492668  0.638291  1
  Pd  Pd29  1  0.880274  0.507332  0.361709  1
  Pd  Pd30  1  0.657371  0.171118  0.999773  1
  Pd  Pd31  1  0.342629  0.828882  0.000227  1
  Pd  Pd32  1  0.538211  0.167008  0.361607  1
  Pd  Pd33  1  0.461789  0.832992  0.638393  1
  Pd  Pd34  1  0.778415  0.174586  0.637587  1
  Pd  Pd35  1  0.221585  0.825414  0.362413  1
  Pd  Pd36  1  0.000000  0.500000  0.000000  1
