# generated using pymatgen
data_Dy2Y10Co3Si8Ni
_symmetry_space_group_name_H-M   'P 1'
_cell_length_a   4.09540700
_cell_length_b   11.21962859
_cell_length_c   11.34673716
_cell_angle_alpha   90.07622195
_cell_angle_beta   90.00000000
_cell_angle_gamma   90.00000000
_symmetry_Int_Tables_number   1
_chemical_formula_structural   Dy2Y10Co3Si8Ni
_chemical_formula_sum   'Dy2 Y10 Co3 Si8 Ni1'
_cell_volume   521.37014548
_cell_formula_units_Z   1
loop_
 _symmetry_equiv_pos_site_id
 _symmetry_equiv_pos_as_xyz
  1  'x, y, z'
loop_
 _atom_site_type_symbol
 _atom_site_label
 _atom_site_symmetry_multiplicity
 _atom_site_fract_x
 _atom_site_fract_y
 _atom_site_fract_z
 _atom_site_occupancy
  Dy  Dy0  1  0.750000  0.199009  0.282697  1
  Dy  Dy1  1  0.750000  0.301218  0.783281  1
  Y  Y2  1  0.250000  0.060405  0.882012  1
  Y  Y3  1  0.250000  0.440270  0.382854  1
  Y  Y4  1  0.750000  0.941920  0.118260  1
  Y  Y5  1  0.750000  0.559109  0.618162  1
  Y  Y6  1  0.250000  0.125074  0.558103  1
  Y  Y7  1  0.250000  0.373075  0.057982  1
  Y  Y8  1  0.750000  0.873456  0.441537  1
  Y  Y9  1  0.750000  0.623917  0.942957  1
  Y  Y10  1  0.250000  0.804089  0.713762  1
  Y  Y11  1  0.250000  0.698924  0.216393  1
  Co  Co12  1  0.250000  0.363973  0.631750  1
  Co  Co13  1  0.250000  0.135524  0.131329  1
  Co  Co14  1  0.750000  0.634475  0.369610  1
  Si  Si15  1  0.250000  0.814913  0.973943  1
  Si  Si16  1  0.250000  0.684085  0.474023  1
  Si  Si17  1  0.750000  0.183902  0.025273  1
  Si  Si18  1  0.750000  0.315797  0.526301  1
  Si  Si19  1  0.250000  0.493983  0.801195  1
  Si  Si20  1  0.250000  0.006076  0.301293  1
  Si  Si21  1  0.750000  0.506204  0.198929  1
  Si  Si22  1  0.750000  0.995265  0.697611  1
  Ni  Ni23  1  0.750000  0.865339  0.870743  1
