# generated using pymatgen
data_TbYb7(Si3Au)4
_symmetry_space_group_name_H-M   'P 1'
_cell_length_a   8.28734200
_cell_length_b   8.28734189
_cell_length_c   8.33729700
_cell_angle_alpha   90.00000000
_cell_angle_beta   90.00000000
_cell_angle_gamma   120.00000841
_symmetry_Int_Tables_number   1
_chemical_formula_structural   TbYb7(Si3Au)4
_chemical_formula_sum   'Tb1 Yb7 Si12 Au4'
_cell_volume   495.89118127
_cell_formula_units_Z   1
loop_
 _symmetry_equiv_pos_site_id
 _symmetry_equiv_pos_as_xyz
  1  'x, y, z'
loop_
 _atom_site_type_symbol
 _atom_site_label
 _atom_site_symmetry_multiplicity
 _atom_site_fract_x
 _atom_site_fract_y
 _atom_site_fract_z
 _atom_site_occupancy
  Tb  Tb0  1  0.000000  0.000000  0.750207  1
  Yb  Yb1  1  0.500627  0.001252  0.250722  1
  Yb  Yb2  1  0.500233  0.000469  0.749370  1
  Yb  Yb3  1  0.998748  0.499373  0.250722  1
  Yb  Yb4  1  0.999531  0.499767  0.749370  1
  Yb  Yb5  1  0.500627  0.499373  0.250722  1
  Yb  Yb6  1  0.500233  0.499767  0.749370  1
  Yb  Yb7  1  0.000000  0.000000  0.250065  1
  Si  Si8  1  0.162090  0.324182  0.998218  1
  Si  Si9  1  0.838060  0.676121  0.998100  1
  Si  Si10  1  0.675818  0.837910  0.998218  1
  Si  Si11  1  0.838098  0.676197  0.501963  1
  Si  Si12  1  0.323879  0.161940  0.998100  1
  Si  Si13  1  0.162067  0.324132  0.501613  1
  Si  Si14  1  0.162090  0.837910  0.998218  1
  Si  Si15  1  0.323803  0.161902  0.501963  1
  Si  Si16  1  0.838060  0.161940  0.998100  1
  Si  Si17  1  0.675868  0.837933  0.501613  1
  Si  Si18  1  0.838098  0.161902  0.501963  1
  Si  Si19  1  0.162067  0.837933  0.501613  1
  Au  Au20  1  0.666667  0.333333  0.000592  1
  Au  Au21  1  0.666667  0.333333  0.500144  1
  Au  Au22  1  0.333333  0.666667  0.498020  1
  Au  Au23  1  0.333333  0.666667  0.001005  1
