# generated using pymatgen
data_Yb2PrTiMnC6
_symmetry_space_group_name_H-M   'P 1'
_cell_length_a   8.27419138
_cell_length_b   8.25588741
_cell_length_c   5.19951800
_cell_angle_alpha   90.00000000
_cell_angle_beta   90.00000000
_cell_angle_gamma   119.74503739
_symmetry_Int_Tables_number   1
_chemical_formula_structural   Yb2PrTiMnC6
_chemical_formula_sum   'Yb4 Pr2 Ti2 Mn2 C12'
_cell_volume   308.38489312
_cell_formula_units_Z   2
loop_
 _symmetry_equiv_pos_site_id
 _symmetry_equiv_pos_as_xyz
  1  'x, y, z'
loop_
 _atom_site_type_symbol
 _atom_site_label
 _atom_site_symmetry_multiplicity
 _atom_site_fract_x
 _atom_site_fract_y
 _atom_site_fract_z
 _atom_site_occupancy
  Yb  Yb0  1  0.612984  0.689814  0.750000  1
  Yb  Yb1  1  0.926875  0.612850  0.250000  1
  Yb  Yb2  1  0.681643  0.073408  0.250000  1
  Yb  Yb3  1  0.318916  0.924516  0.750000  1
  Pr  Pr4  1  0.073223  0.399473  0.750000  1
  Pr  Pr5  1  0.401056  0.323314  0.250000  1
  Ti  Ti6  1  0.000692  0.999495  0.500054  1
  Ti  Ti7  1  0.000692  0.999495  0.999946  1
  Mn  Mn8  1  0.664632  0.330062  0.750000  1
  Mn  Mn9  1  0.331313  0.664789  0.250000  1
  C  C10  1  0.952696  0.758835  0.750000  1
  C  C11  1  0.189851  0.950934  0.250000  1
  C  C12  1  0.760331  0.807916  0.250000  1
  C  C13  1  0.237514  0.188755  0.750000  1
  C  C14  1  0.809824  0.045332  0.750000  1
  C  C15  1  0.044958  0.235992  0.250000  1
  C  C16  1  0.848350  0.571675  0.750000  1
  C  C17  1  0.281075  0.852891  0.250000  1
  C  C18  1  0.573710  0.725418  0.250000  1
  C  C19  1  0.427007  0.276057  0.750000  1
  C  C20  1  0.145303  0.426480  0.250000  1
  C  C21  1  0.717355  0.142503  0.750000  1
