# generated using pymatgen
data_CaNb8FeSe16
_symmetry_space_group_name_H-M   'P 1'
_cell_length_a   6.99651800
_cell_length_b   6.99651995
_cell_length_c   13.74818100
_cell_angle_alpha   90.00000000
_cell_angle_beta   90.00000000
_cell_angle_gamma   120.00000024
_symmetry_Int_Tables_number   1
_chemical_formula_structural   CaNb8FeSe16
_chemical_formula_sum   'Ca1 Nb8 Fe1 Se16'
_cell_volume   582.82732442
_cell_formula_units_Z   1
loop_
 _symmetry_equiv_pos_site_id
 _symmetry_equiv_pos_as_xyz
  1  'x, y, z'
loop_
 _atom_site_type_symbol
 _atom_site_label
 _atom_site_symmetry_multiplicity
 _atom_site_fract_x
 _atom_site_fract_y
 _atom_site_fract_z
 _atom_site_occupancy
  Ca  Ca0  1  0.000000  0.000000  0.500000  1
  Nb  Nb1  1  0.000000  0.000000  0.222772  1
  Nb  Nb2  1  0.000000  0.000000  0.777228  1
  Nb  Nb3  1  0.505998  0.011995  0.220605  1
  Nb  Nb4  1  0.988005  0.494002  0.220605  1
  Nb  Nb5  1  0.505998  0.494002  0.220605  1
  Nb  Nb6  1  0.494002  0.988005  0.779395  1
  Nb  Nb7  1  0.011995  0.505998  0.779395  1
  Nb  Nb8  1  0.494002  0.505998  0.779395  1
  Fe  Fe9  1  0.000000  0.000000  0.000000  1
  Se  Se10  1  0.333333  0.666667  0.903535  1
  Se  Se11  1  0.666667  0.333333  0.096465  1
  Se  Se12  1  0.666667  0.333333  0.346822  1
  Se  Se13  1  0.333333  0.666667  0.653178  1
  Se  Se14  1  0.168524  0.831476  0.343447  1
  Se  Se15  1  0.168524  0.337046  0.343447  1
  Se  Se16  1  0.662954  0.831476  0.343447  1
  Se  Se17  1  0.831476  0.168524  0.656553  1
  Se  Se18  1  0.831476  0.662954  0.656553  1
  Se  Se19  1  0.337046  0.168524  0.656553  1
  Se  Se20  1  0.834789  0.165211  0.897699  1
  Se  Se21  1  0.834789  0.669581  0.897699  1
  Se  Se22  1  0.330419  0.165211  0.897699  1
  Se  Se23  1  0.165211  0.834789  0.102301  1
  Se  Se24  1  0.165211  0.330419  0.102301  1
  Se  Se25  1  0.669581  0.834789  0.102301  1
