# generated using pymatgen
data_Dy5Tl3S
_symmetry_space_group_name_H-M   'P 1'
_cell_length_a   9.14150300
_cell_length_b   9.14150240
_cell_length_c   6.66738000
_cell_angle_alpha   90.00000000
_cell_angle_beta   90.00000000
_cell_angle_gamma   119.99999132
_symmetry_Int_Tables_number   1
_chemical_formula_structural   Dy5Tl3S
_chemical_formula_sum   'Dy10 Tl6 S2'
_cell_volume   482.52637994
_cell_formula_units_Z   2
loop_
 _symmetry_equiv_pos_site_id
 _symmetry_equiv_pos_as_xyz
  1  'x, y, z'
loop_
 _atom_site_type_symbol
 _atom_site_label
 _atom_site_symmetry_multiplicity
 _atom_site_fract_x
 _atom_site_fract_y
 _atom_site_fract_z
 _atom_site_occupancy
  Dy  Dy0  1  0.241482  0.000000  0.250000  1
  Dy  Dy1  1  0.758518  0.000000  0.750000  1
  Dy  Dy2  1  0.000000  0.241482  0.250000  1
  Dy  Dy3  1  0.000000  0.758518  0.750000  1
  Dy  Dy4  1  0.758518  0.758518  0.250000  1
  Dy  Dy5  1  0.241482  0.241482  0.750000  1
  Dy  Dy6  1  0.333333  0.666667  0.000000  1
  Dy  Dy7  1  0.666667  0.333333  0.000000  1
  Dy  Dy8  1  0.666667  0.333333  0.500000  1
  Dy  Dy9  1  0.333333  0.666667  0.500000  1
  Tl  Tl10  1  0.596540  0.000000  0.250000  1
  Tl  Tl11  1  0.403460  0.000000  0.750000  1
  Tl  Tl12  1  0.000000  0.596540  0.250000  1
  Tl  Tl13  1  0.000000  0.403460  0.750000  1
  Tl  Tl14  1  0.403460  0.403460  0.250000  1
  Tl  Tl15  1  0.596540  0.596540  0.750000  1
  S  S16  1  0.000000  0.000000  0.000000  1
  S  S17  1  0.000000  0.000000  0.500000  1
