# generated using pymatgen
data_Mg4As6Ir5RuRh
_symmetry_space_group_name_H-M   'P 1'
_cell_length_a   7.07279908
_cell_length_b   7.07292393
_cell_length_c   7.07279866
_cell_angle_alpha   109.52095766
_cell_angle_beta   109.52054739
_cell_angle_gamma   109.37150099
_symmetry_Int_Tables_number   1
_chemical_formula_structural   Mg4As6Ir5RuRh
_chemical_formula_sum   'Mg4 As6 Ir5 Ru1 Rh1'
_cell_volume   272.37201969
_cell_formula_units_Z   1
loop_
 _symmetry_equiv_pos_site_id
 _symmetry_equiv_pos_as_xyz
  1  'x, y, z'
loop_
 _atom_site_type_symbol
 _atom_site_label
 _atom_site_symmetry_multiplicity
 _atom_site_fract_x
 _atom_site_fract_y
 _atom_site_fract_z
 _atom_site_occupancy
  Mg  Mg0  1  0.000009  0.999993  0.500001  1
  Mg  Mg1  1  0.499992  0.999993  0.999984  1
  Mg  Mg2  1  0.000007  0.500008  0.000015  1
  Mg  Mg3  1  0.499993  0.500008  0.500001  1
  As  As4  1  0.688861  0.688841  0.999979  1
  As  As5  1  0.311138  0.311158  0.000019  1
  As  As6  1  0.000192  0.688775  0.688583  1
  As  As7  1  0.000235  0.311652  0.311417  1
  As  As8  1  0.688369  0.999787  0.688584  1
  As  As9  1  0.311203  0.999787  0.311418  1
  Ir  Ir10  1  0.249931  0.499988  0.749946  1
  Ir  Ir11  1  0.750001  0.250019  0.500018  1
  Ir  Ir12  1  0.500029  0.249973  0.749944  1
  Ir  Ir13  1  0.499998  0.750051  0.250053  1
  Ir  Ir14  1  0.750042  0.499988  0.250056  1
  Ru  Ru15  1  0.000000  0.999999  0.999999  1
  Rh  Rh16  1  0.250001  0.749984  0.499983  1
