# generated using pymatgen
data_Ca(NdPb)4
_symmetry_space_group_name_H-M   'P 1'
_cell_length_a   8.37676600
_cell_length_b   8.49216400
_cell_length_c   16.11565900
_cell_angle_alpha   90.00000000
_cell_angle_beta   90.00000000
_cell_angle_gamma   90.00000000
_symmetry_Int_Tables_number   1
_chemical_formula_structural   Ca(NdPb)4
_chemical_formula_sum   'Ca4 Nd16 Pb16'
_cell_volume   1146.41754991
_cell_formula_units_Z   4
loop_
 _symmetry_equiv_pos_site_id
 _symmetry_equiv_pos_as_xyz
  1  'x, y, z'
loop_
 _atom_site_type_symbol
 _atom_site_label
 _atom_site_symmetry_multiplicity
 _atom_site_fract_x
 _atom_site_fract_y
 _atom_site_fract_z
 _atom_site_occupancy
  Ca  Ca0  1  0.795275  0.497721  0.750000  1
  Ca  Ca1  1  0.295275  0.002279  0.750000  1
  Ca  Ca2  1  0.204725  0.502279  0.250000  1
  Ca  Ca3  1  0.704725  0.997721  0.250000  1
  Nd  Nd4  1  0.623381  0.161375  0.618953  1
  Nd  Nd5  1  0.123381  0.338625  0.881047  1
  Nd  Nd6  1  0.376619  0.838625  0.118953  1
  Nd  Nd7  1  0.876619  0.661375  0.381047  1
  Nd  Nd8  1  0.376619  0.838625  0.381047  1
  Nd  Nd9  1  0.876619  0.661375  0.118953  1
  Nd  Nd10  1  0.623381  0.161375  0.881047  1
  Nd  Nd11  1  0.123381  0.338625  0.618953  1
  Nd  Nd12  1  0.475063  0.680229  0.597830  1
  Nd  Nd13  1  0.975063  0.819771  0.902170  1
  Nd  Nd14  1  0.524937  0.319771  0.097830  1
  Nd  Nd15  1  0.024937  0.180229  0.402170  1
  Nd  Nd16  1  0.524937  0.319771  0.402170  1
  Nd  Nd17  1  0.024937  0.180229  0.097830  1
  Nd  Nd18  1  0.475063  0.680229  0.902170  1
  Nd  Nd19  1  0.975063  0.819771  0.597830  1
  Pb  Pb20  1  0.715602  0.965206  0.457906  1
  Pb  Pb21  1  0.215602  0.534794  0.042094  1
  Pb  Pb22  1  0.284398  0.034794  0.957906  1
  Pb  Pb23  1  0.784398  0.465206  0.542094  1
  Pb  Pb24  1  0.284398  0.034794  0.542094  1
  Pb  Pb25  1  0.784398  0.465206  0.957906  1
  Pb  Pb26  1  0.715602  0.965206  0.042094  1
  Pb  Pb27  1  0.215602  0.534794  0.457906  1
  Pb  Pb28  1  0.427078  0.385748  0.750000  1
  Pb  Pb29  1  0.927078  0.114252  0.750000  1
  Pb  Pb30  1  0.572922  0.614252  0.250000  1
  Pb  Pb31  1  0.072922  0.885748  0.250000  1
  Pb  Pb32  1  0.666768  0.853884  0.750000  1
  Pb  Pb33  1  0.166768  0.646116  0.750000  1
  Pb  Pb34  1  0.333232  0.146116  0.250000  1
  Pb  Pb35  1  0.833232  0.353884  0.250000  1
