# generated using pymatgen
data_CeHo2(InNi)3
_symmetry_space_group_name_H-M   'P 1'
_cell_length_a   7.47787600
_cell_length_b   7.37982224
_cell_length_c   3.85032700
_cell_angle_alpha   90.00000000
_cell_angle_beta   90.00000000
_cell_angle_gamma   120.44050375
_symmetry_Int_Tables_number   1
_chemical_formula_structural   CeHo2(InNi)3
_chemical_formula_sum   'Ce1 Ho2 In3 Ni3'
_cell_volume   183.19241666
_cell_formula_units_Z   1
loop_
 _symmetry_equiv_pos_site_id
 _symmetry_equiv_pos_as_xyz
  1  'x, y, z'
loop_
 _atom_site_type_symbol
 _atom_site_label
 _atom_site_symmetry_multiplicity
 _atom_site_fract_x
 _atom_site_fract_y
 _atom_site_fract_z
 _atom_site_occupancy
  Ce  Ce0  1  0.585273  0.000000  0.000000  1
  Ho  Ho1  1  0.001552  0.590754  0.000000  1
  Ho  Ho2  1  0.410797  0.409246  0.000000  1
  In  In3  1  0.747913  0.741071  0.500000  1
  In  In4  1  0.006842  0.258929  0.500000  1
  In  In5  1  0.245048  0.000000  0.500000  1
  Ni  Ni6  1  0.343950  0.679322  0.500000  1
  Ni  Ni7  1  0.993996  0.000000  0.000000  1
  Ni  Ni8  1  0.664629  0.320678  0.500000  1
