# generated using pymatgen
data_Ho16Sc4Rh11Au
_symmetry_space_group_name_H-M   'P 1'
_cell_length_a   10.73357935
_cell_length_b   10.73357941
_cell_length_c   6.26005400
_cell_angle_alpha   90.02871841
_cell_angle_beta   90.02871841
_cell_angle_gamma   90.00607092
_symmetry_Int_Tables_number   1
_chemical_formula_structural   Ho16Sc4Rh11Au
_chemical_formula_sum   'Ho16 Sc4 Rh11 Au1'
_cell_volume   721.21892255
_cell_formula_units_Z   1
loop_
 _symmetry_equiv_pos_site_id
 _symmetry_equiv_pos_as_xyz
  1  'x, y, z'
loop_
 _atom_site_type_symbol
 _atom_site_label
 _atom_site_symmetry_multiplicity
 _atom_site_fract_x
 _atom_site_fract_y
 _atom_site_fract_z
 _atom_site_occupancy
  Ho  Ho0  1  0.287156  0.087131  0.378421  1
  Ho  Ho1  1  0.286692  0.917744  0.879192  1
  Ho  Ho2  1  0.712637  0.086382  0.877598  1
  Ho  Ho3  1  0.712943  0.913665  0.378747  1
  Ho  Ho4  1  0.590687  0.789631  0.879956  1
  Ho  Ho5  1  0.587145  0.212130  0.377418  1
  Ho  Ho6  1  0.415722  0.791403  0.369357  1
  Ho  Ho7  1  0.412961  0.213017  0.877422  1
  Ho  Ho8  1  0.210369  0.409313  0.620044  1
  Ho  Ho9  1  0.208597  0.584278  0.130643  1
  Ho  Ho10  1  0.787870  0.412855  0.122582  1
  Ho  Ho11  1  0.786983  0.587039  0.622578  1
  Ho  Ho12  1  0.912869  0.712844  0.121579  1
  Ho  Ho13  1  0.913618  0.287363  0.622402  1
  Ho  Ho14  1  0.082256  0.713308  0.620808  1
  Ho  Ho15  1  0.086335  0.287057  0.121253  1
  Sc  Sc16  1  0.999863  0.000351  0.499496  1
  Sc  Sc17  1  0.999649  0.000137  0.000504  1
  Sc  Sc18  1  0.503737  0.496252  0.003770  1
  Sc  Sc19  1  0.503748  0.496263  0.496230  1
  Rh  Rh20  1  0.851329  0.148671  0.250000  1
  Rh  Rh21  1  0.851470  0.851816  0.749905  1
  Rh  Rh22  1  0.148184  0.148530  0.750095  1
  Rh  Rh23  1  0.149105  0.850895  0.250000  1
  Rh  Rh24  1  0.648242  0.351758  0.750000  1
  Rh  Rh25  1  0.647607  0.648079  0.249586  1
  Rh  Rh26  1  0.351921  0.352393  0.250414  1
  Rh  Rh27  1  0.499505  0.000055  0.122210  1
  Rh  Rh28  1  0.500002  0.999838  0.623223  1
  Rh  Rh29  1  0.000162  0.499998  0.876777  1
  Rh  Rh30  1  0.999945  0.500495  0.377790  1
  Au  Au31  1  0.350693  0.649307  0.750000  1
