# generated using pymatgen
data_Li3SmHfNi9As7
_symmetry_space_group_name_H-M   'P 1'
_cell_length_a   9.53640865
_cell_length_b   9.53769598
_cell_length_c   3.86563100
_cell_angle_alpha   90.00000000
_cell_angle_beta   90.00000000
_cell_angle_gamma   119.91767992
_symmetry_Int_Tables_number   1
_chemical_formula_structural   Li3SmHfNi9As7
_chemical_formula_sum   'Li3 Sm1 Hf1 Ni9 As7'
_cell_volume   304.74669878
_cell_formula_units_Z   1
loop_
 _symmetry_equiv_pos_site_id
 _symmetry_equiv_pos_as_xyz
  1  'x, y, z'
loop_
 _atom_site_type_symbol
 _atom_site_label
 _atom_site_symmetry_multiplicity
 _atom_site_fract_x
 _atom_site_fract_y
 _atom_site_fract_z
 _atom_site_occupancy
  Li  Li0  1  0.443725  0.220651  0.500000  1
  Li  Li1  1  0.774054  0.218712  0.500000  1
  Li  Li2  1  0.003283  0.007029  0.500000  1
  Sm  Sm3  1  0.327340  0.666183  0.000000  1
  Hf  Hf4  1  0.772658  0.552460  0.500000  1
  Ni  Ni5  1  0.272016  0.374193  0.500000  1
  Ni  Ni6  1  0.627162  0.900410  0.500000  1
  Ni  Ni7  1  0.106104  0.723414  0.500000  1
  Ni  Ni8  1  0.501154  0.454982  0.000000  1
  Ni  Ni9  1  0.547331  0.040469  0.000000  1
  Ni  Ni10  1  0.953573  0.498648  0.000000  1
  Ni  Ni11  1  0.723994  0.759610  0.000000  1
  Ni  Ni12  1  0.247481  0.969701  0.000000  1
  Ni  Ni13  1  0.038736  0.278291  0.000000  1
  As  As14  1  0.979268  0.766613  0.000000  1
  As  As15  1  0.244432  0.214702  0.000000  1
  As  As16  1  0.789715  0.030612  0.000000  1
  As  As17  1  0.663158  0.325379  0.000000  1
  As  As18  1  0.534933  0.620310  0.500000  1
  As  As19  1  0.382106  0.928862  0.500000  1
  As  As20  1  0.067778  0.448768  0.500000  1
