# generated using pymatgen
data_Ca4SiSnRh4
_symmetry_space_group_name_H-M   'P 1'
_cell_length_a   5.81907045
_cell_length_b   5.81906916
_cell_length_c   7.64789596
_cell_angle_alpha   78.93579364
_cell_angle_beta   78.93579928
_cell_angle_gamma   59.38520988
_symmetry_Int_Tables_number   1
_chemical_formula_structural   Ca4SiSnRh4
_chemical_formula_sum   'Ca4 Si1 Sn1 Rh4'
_cell_volume   217.36560020
_cell_formula_units_Z   1
loop_
 _symmetry_equiv_pos_site_id
 _symmetry_equiv_pos_as_xyz
  1  'x, y, z'
loop_
 _atom_site_type_symbol
 _atom_site_label
 _atom_site_symmetry_multiplicity
 _atom_site_fract_x
 _atom_site_fract_y
 _atom_site_fract_z
 _atom_site_occupancy
  Ca  Ca0  1  0.777827  0.510371  0.354277  1
  Ca  Ca1  1  0.489629  0.222173  0.145723  1
  Ca  Ca2  1  0.217618  0.486649  0.641443  1
  Ca  Ca3  1  0.513351  0.782382  0.858557  1
  Si  Si4  1  0.085021  0.914979  0.250000  1
  Sn  Sn5  1  0.888096  0.111904  0.750000  1
  Rh  Rh6  1  0.018665  0.727886  0.028297  1
  Rh  Rh7  1  0.272114  0.981335  0.471703  1
  Rh  Rh8  1  0.007763  0.270085  0.011187  1
  Rh  Rh9  1  0.729915  0.992237  0.488813  1
