# generated using pymatgen
data_KBaMnN3
_symmetry_space_group_name_H-M   'P 1'
_cell_length_a   6.54434047
_cell_length_b   6.54433993
_cell_length_c   12.85388900
_cell_angle_alpha   90.00000000
_cell_angle_beta   90.00000000
_cell_angle_gamma   128.39376171
_symmetry_Int_Tables_number   1
_chemical_formula_structural   KBaMnN3
_chemical_formula_sum   'K4 Ba4 Mn4 N12'
_cell_volume   431.46937456
_cell_formula_units_Z   4
loop_
 _symmetry_equiv_pos_site_id
 _symmetry_equiv_pos_as_xyz
  1  'x, y, z'
loop_
 _atom_site_type_symbol
 _atom_site_label
 _atom_site_symmetry_multiplicity
 _atom_site_fract_x
 _atom_site_fract_y
 _atom_site_fract_z
 _atom_site_occupancy
  K  K0  1  0.550808  0.449192  0.643025  1
  K  K1  1  0.449192  0.550808  0.356975  1
  K  K2  1  0.949192  0.050808  0.143025  1
  K  K3  1  0.050808  0.949192  0.856975  1
  Ba  Ba4  1  0.852183  0.147817  0.584097  1
  Ba  Ba5  1  0.147817  0.852183  0.415903  1
  Ba  Ba6  1  0.647817  0.352183  0.084097  1
  Ba  Ba7  1  0.352183  0.647817  0.915903  1
  Mn  Mn8  1  0.728301  0.271699  0.829548  1
  Mn  Mn9  1  0.271699  0.728301  0.170452  1
  Mn  Mn10  1  0.771699  0.228301  0.329548  1
  Mn  Mn11  1  0.228301  0.771699  0.670452  1
  N  N12  1  0.816232  0.183768  0.935254  1
  N  N13  1  0.183768  0.816232  0.064746  1
  N  N14  1  0.683768  0.316232  0.435254  1
  N  N15  1  0.316232  0.683768  0.564746  1
  N  N16  1  0.592880  0.407120  0.867981  1
  N  N17  1  0.407120  0.592880  0.132019  1
  N  N18  1  0.907120  0.092880  0.367981  1
  N  N19  1  0.092880  0.907120  0.632019  1
  N  N20  1  0.509657  0.990343  0.750000  1
  N  N21  1  0.990343  0.509657  0.250000  1
  N  N22  1  0.490343  0.009657  0.250000  1
  N  N23  1  0.009657  0.490343  0.750000  1
