# generated using pymatgen
data_RbNd6IrI12
_symmetry_space_group_name_H-M   'P 1'
_cell_length_a   10.08818813
_cell_length_b   10.08818729
_cell_length_c   10.08818747
_cell_angle_alpha   105.20897241
_cell_angle_beta   105.20896439
_cell_angle_gamma   105.20895355
_symmetry_Int_Tables_number   1
_chemical_formula_structural   RbNd6IrI12
_chemical_formula_sum   'Rb1 Nd6 Ir1 I12'
_cell_volume   893.52922056
_cell_formula_units_Z   1
loop_
 _symmetry_equiv_pos_site_id
 _symmetry_equiv_pos_as_xyz
  1  'x, y, z'
loop_
 _atom_site_type_symbol
 _atom_site_label
 _atom_site_symmetry_multiplicity
 _atom_site_fract_x
 _atom_site_fract_y
 _atom_site_fract_z
 _atom_site_occupancy
  Rb  Rb0  1  0.500000  0.500000  0.500000  1
  Nd  Nd1  1  0.092301  0.298148  0.015426  1
  Nd  Nd2  1  0.298148  0.015427  0.092300  1
  Nd  Nd3  1  0.015427  0.092300  0.298149  1
  Nd  Nd4  1  0.984574  0.907700  0.701852  1
  Nd  Nd5  1  0.701852  0.984574  0.907700  1
  Nd  Nd6  1  0.907699  0.701852  0.984574  1
  Ir  Ir7  1  0.000000  0.000000  0.000000  1
  I  I8  1  0.224545  0.676317  0.077387  1
  I  I9  1  0.430700  0.346269  0.110909  1
  I  I10  1  0.676318  0.077387  0.224545  1
  I  I11  1  0.922614  0.775455  0.323683  1
  I  I12  1  0.110909  0.430700  0.346269  1
  I  I13  1  0.346269  0.110909  0.430700  1
  I  I14  1  0.653731  0.889091  0.569301  1
  I  I15  1  0.889092  0.569300  0.653731  1
  I  I16  1  0.077387  0.224545  0.676318  1
  I  I17  1  0.323683  0.922614  0.775455  1
  I  I18  1  0.569300  0.653731  0.889092  1
  I  I19  1  0.775455  0.323683  0.922613  1
