# generated using pymatgen
data_Lu5TcRuO12
_symmetry_space_group_name_H-M   'P 1'
_cell_length_a   6.70429785
_cell_length_b   6.70429826
_cell_length_c   7.33017812
_cell_angle_alpha   73.92035383
_cell_angle_beta   73.92035409
_cell_angle_gamma   49.32860018
_symmetry_Int_Tables_number   1
_chemical_formula_structural   Lu5TcRuO12
_chemical_formula_sum   'Lu5 Tc1 Ru1 O12'
_cell_volume   238.00366419
_cell_formula_units_Z   1
loop_
 _symmetry_equiv_pos_site_id
 _symmetry_equiv_pos_as_xyz
  1  'x, y, z'
loop_
 _atom_site_type_symbol
 _atom_site_label
 _atom_site_symmetry_multiplicity
 _atom_site_fract_x
 _atom_site_fract_y
 _atom_site_fract_z
 _atom_site_occupancy
  Lu  Lu0  1  0.704547  0.692256  0.640842  1
  Lu  Lu1  1  0.307744  0.295453  0.359158  1
  Lu  Lu2  1  0.687640  0.683202  0.176409  1
  Lu  Lu3  1  0.316798  0.312360  0.823591  1
  Lu  Lu4  1  0.001968  0.998032  0.500000  1
  Tc  Tc5  1  0.211138  0.788862  0.000000  1
  Ru  Ru6  1  0.774716  0.225284  0.000000  1
  O  O7  1  0.003322  0.001190  0.205905  1
  O  O8  1  0.998810  0.996678  0.794095  1
  O  O9  1  0.569760  0.086336  0.087942  1
  O  O10  1  0.418918  0.910557  0.912563  1
  O  O11  1  0.913664  0.430240  0.912058  1
  O  O12  1  0.089443  0.581082  0.087437  1
  O  O13  1  0.496322  0.501869  0.182628  1
  O  O14  1  0.498131  0.503678  0.817372  1
  O  O15  1  0.404531  0.897693  0.430493  1
  O  O16  1  0.596056  0.095814  0.573983  1
  O  O17  1  0.102307  0.595469  0.569507  1
  O  O18  1  0.904186  0.403944  0.426017  1
