# generated using pymatgen
data_Ho2ReTcC3
_symmetry_space_group_name_H-M   'P 1'
_cell_length_a   6.05083830
_cell_length_b   6.05083900
_cell_length_c   5.65380528
_cell_angle_alpha   67.46146775
_cell_angle_beta   67.46146488
_cell_angle_gamma   31.79216635
_symmetry_Int_Tables_number   1
_chemical_formula_structural   Ho2ReTcC3
_chemical_formula_sum   'Ho2 Re1 Tc1 C3'
_cell_volume   100.02076674
_cell_formula_units_Z   1
loop_
 _symmetry_equiv_pos_site_id
 _symmetry_equiv_pos_as_xyz
  1  'x, y, z'
loop_
 _atom_site_type_symbol
 _atom_site_label
 _atom_site_symmetry_multiplicity
 _atom_site_fract_x
 _atom_site_fract_y
 _atom_site_fract_z
 _atom_site_occupancy
  Ho  Ho0  1  0.609163  0.609163  0.181690  1
  Ho  Ho1  1  0.390576  0.390576  0.823228  1
  Re  Re2  1  0.157666  0.157666  0.677436  1
  Tc  Tc3  1  0.843524  0.843524  0.319119  1
  C  C4  1  0.751990  0.751990  0.731738  1
  C  C5  1  0.246329  0.246329  0.269686  1
  C  C6  1  0.000751  0.000751  0.997104  1
