# generated using pymatgen
data_Y10IrPt5
_symmetry_space_group_name_H-M   'P 1'
_cell_length_a   11.08798700
_cell_length_b   11.08798700
_cell_length_c   6.44296600
_cell_angle_alpha   90.00000000
_cell_angle_beta   90.00000000
_cell_angle_gamma   90.00000000
_symmetry_Int_Tables_number   1
_chemical_formula_structural   Y10IrPt5
_chemical_formula_sum   'Y20 Ir2 Pt10'
_cell_volume   792.12050508
_cell_formula_units_Z   2
loop_
 _symmetry_equiv_pos_site_id
 _symmetry_equiv_pos_as_xyz
  1  'x, y, z'
loop_
 _atom_site_type_symbol
 _atom_site_label
 _atom_site_symmetry_multiplicity
 _atom_site_fract_x
 _atom_site_fract_y
 _atom_site_fract_z
 _atom_site_occupancy
  Y  Y0  1  0.292604  0.088511  0.377255  1
  Y  Y1  1  0.292604  0.911489  0.877255  1
  Y  Y2  1  0.707396  0.088511  0.877255  1
  Y  Y3  1  0.707396  0.911489  0.377255  1
  Y  Y4  1  0.588511  0.792604  0.877255  1
  Y  Y5  1  0.588511  0.207396  0.377255  1
  Y  Y6  1  0.411489  0.792604  0.377255  1
  Y  Y7  1  0.411489  0.207396  0.877255  1
  Y  Y8  1  0.205079  0.412138  0.623345  1
  Y  Y9  1  0.205079  0.587862  0.123345  1
  Y  Y10  1  0.794921  0.412138  0.123345  1
  Y  Y11  1  0.794921  0.587862  0.623345  1
  Y  Y12  1  0.912138  0.705079  0.123345  1
  Y  Y13  1  0.912138  0.294921  0.623345  1
  Y  Y14  1  0.087862  0.705079  0.623345  1
  Y  Y15  1  0.087862  0.294921  0.123345  1
  Y  Y16  1  0.000000  0.000000  0.500461  1
  Y  Y17  1  0.000000  0.000000  0.000461  1
  Y  Y18  1  0.500000  0.500000  0.000461  1
  Y  Y19  1  0.500000  0.500000  0.500461  1
  Ir  Ir20  1  0.000000  0.500000  0.877688  1
  Ir  Ir21  1  0.000000  0.500000  0.377688  1
  Pt  Pt22  1  0.845838  0.153064  0.249865  1
  Pt  Pt23  1  0.845838  0.846936  0.749865  1
  Pt  Pt24  1  0.154162  0.153064  0.749865  1
  Pt  Pt25  1  0.154162  0.846936  0.249865  1
  Pt  Pt26  1  0.653064  0.345838  0.749865  1
  Pt  Pt27  1  0.653064  0.654162  0.249865  1
  Pt  Pt28  1  0.346936  0.345838  0.249865  1
  Pt  Pt29  1  0.346936  0.654162  0.749865  1
  Pt  Pt30  1  0.500000  0.000000  0.119528  1
  Pt  Pt31  1  0.500000  0.000000  0.619528  1
