# generated using pymatgen
data_Dy2Lu2CrB12Rh
_symmetry_space_group_name_H-M   'P 1'
_cell_length_a   3.58337200
_cell_length_b   9.08648555
_cell_length_c   11.48301901
_cell_angle_alpha   90.22480094
_cell_angle_beta   90.00000000
_cell_angle_gamma   90.00000000
_symmetry_Int_Tables_number   1
_chemical_formula_structural   Dy2Lu2CrB12Rh
_chemical_formula_sum   'Dy4 Lu4 Cr2 B24 Rh2'
_cell_volume   373.88718271
_cell_formula_units_Z   2
loop_
 _symmetry_equiv_pos_site_id
 _symmetry_equiv_pos_as_xyz
  1  'x, y, z'
loop_
 _atom_site_type_symbol
 _atom_site_label
 _atom_site_symmetry_multiplicity
 _atom_site_fract_x
 _atom_site_fract_y
 _atom_site_fract_z
 _atom_site_occupancy
  Dy  Dy0  1  0.500000  0.318720  0.411699  1
  Dy  Dy1  1  0.500000  0.681280  0.588301  1
  Dy  Dy2  1  0.500000  0.174039  0.916786  1
  Dy  Dy3  1  0.500000  0.825961  0.083214  1
  Lu  Lu4  1  0.500000  0.441239  0.126834  1
  Lu  Lu5  1  0.500000  0.558761  0.873166  1
  Lu  Lu6  1  0.500000  0.052339  0.628975  1
  Lu  Lu7  1  0.500000  0.947661  0.371025  1
  Cr  Cr8  1  0.500000  0.140827  0.182129  1
  Cr  Cr9  1  0.500000  0.859173  0.817871  1
  B  B10  1  0.000000  0.104903  0.472174  1
  B  B11  1  0.000000  0.895097  0.527826  1
  B  B12  1  0.000000  0.395716  0.971190  1
  B  B13  1  0.000000  0.604284  0.028810  1
  B  B14  1  0.000000  0.132225  0.315424  1
  B  B15  1  0.000000  0.867775  0.684576  1
  B  B16  1  0.000000  0.368452  0.817011  1
  B  B17  1  0.000000  0.631548  0.182989  1
  B  B18  1  0.000000  0.054173  0.067936  1
  B  B19  1  0.000000  0.945827  0.932064  1
  B  B20  1  0.000000  0.445446  0.566658  1
  B  B21  1  0.000000  0.554554  0.433342  1
  B  B22  1  0.000000  0.482554  0.286395  1
  B  B23  1  0.000000  0.517446  0.713605  1
  B  B24  1  0.000000  0.016187  0.787089  1
  B  B25  1  0.000000  0.983813  0.212911  1
  B  B26  1  0.000000  0.249001  0.081514  1
  B  B27  1  0.000000  0.750999  0.918486  1
  B  B28  1  0.000000  0.248074  0.579982  1
  B  B29  1  0.000000  0.751926  0.420018  1
  B  B30  1  0.000000  0.293552  0.234478  1
  B  B31  1  0.000000  0.706448  0.765522  1
  B  B32  1  0.000000  0.206318  0.735088  1
  B  B33  1  0.000000  0.793682  0.264912  1
  Rh  Rh34  1  0.500000  0.360601  0.679568  1
  Rh  Rh35  1  0.500000  0.639399  0.320432  1
