# generated using pymatgen
data_DyY7(Sc3Ge4)4
_symmetry_space_group_name_H-M   'P 1'
_cell_length_a   7.49343922
_cell_length_b   7.49342221
_cell_length_c   13.64904105
_cell_angle_alpha   90.00449500
_cell_angle_beta   89.98938119
_cell_angle_gamma   89.97428642
_symmetry_Int_Tables_number   1
_chemical_formula_structural   DyY7(Sc3Ge4)4
_chemical_formula_sum   'Dy1 Y7 Sc12 Ge16'
_cell_volume   766.41408885
_cell_formula_units_Z   1
loop_
 _symmetry_equiv_pos_site_id
 _symmetry_equiv_pos_as_xyz
  1  'x, y, z'
loop_
 _atom_site_type_symbol
 _atom_site_label
 _atom_site_symmetry_multiplicity
 _atom_site_fract_x
 _atom_site_fract_y
 _atom_site_fract_z
 _atom_site_occupancy
  Dy  Dy0  1  0.346801  0.998705  0.465534  1
  Y  Y1  1  0.001192  0.653402  0.034329  1
  Y  Y2  1  0.998931  0.346631  0.534282  1
  Y  Y3  1  0.653326  0.001146  0.965663  1
  Y  Y4  1  0.153338  0.498780  0.784299  1
  Y  Y5  1  0.846705  0.501151  0.284392  1
  Y  Y6  1  0.498897  0.153405  0.215718  1
  Y  Y7  1  0.501142  0.846706  0.715681  1
  Sc  Sc8  1  0.344000  0.498938  0.376260  1
  Sc  Sc9  1  0.843989  0.001113  0.373704  1
  Sc  Sc10  1  0.998835  0.155981  0.126335  1
  Sc  Sc11  1  0.001137  0.844055  0.626218  1
  Sc  Sc12  1  0.498761  0.343891  0.623659  1
  Sc  Sc13  1  0.156043  0.998917  0.873695  1
  Sc  Sc14  1  0.672885  0.673028  0.500009  1
  Sc  Sc15  1  0.827047  0.173003  0.749935  1
  Sc  Sc16  1  0.173011  0.827046  0.250083  1
  Sc  Sc17  1  0.326991  0.327026  0.000010  1
  Sc  Sc18  1  0.501160  0.655962  0.123807  1
  Sc  Sc19  1  0.656029  0.501132  0.876242  1
  Ge  Ge20  1  0.040234  0.707972  0.431893  1
  Ge  Ge21  1  0.959883  0.292237  0.931887  1
  Ge  Ge22  1  0.707426  0.040047  0.568039  1
  Ge  Ge23  1  0.207776  0.459888  0.181883  1
  Ge  Ge24  1  0.792202  0.540045  0.681815  1
  Ge  Ge25  1  0.459941  0.207783  0.818131  1
  Ge  Ge26  1  0.539844  0.792490  0.318335  1
  Ge  Ge27  1  0.292179  0.959873  0.068156  1
  Ge  Ge28  1  0.798844  0.865561  0.176634  1
  Ge  Ge29  1  0.298965  0.634717  0.573365  1
  Ge  Ge30  1  0.701187  0.365582  0.073382  1
  Ge  Ge31  1  0.634140  0.298551  0.426517  1
  Ge  Ge32  1  0.365620  0.701177  0.926570  1
  Ge  Ge33  1  0.134734  0.200933  0.323678  1
  Ge  Ge34  1  0.201172  0.134278  0.676441  1
  Ge  Ge35  1  0.865632  0.798849  0.823419  1
