# generated using pymatgen
data_Ho2Er3Os2
_symmetry_space_group_name_H-M   'P 1'
_cell_length_a   6.31078321
_cell_length_b   7.33368220
_cell_length_c   8.37578631
_cell_angle_alpha   96.94831001
_cell_angle_beta   112.13113796
_cell_angle_gamma   89.99999951
_symmetry_Int_Tables_number   1
_chemical_formula_structural   Ho2Er3Os2
_chemical_formula_sum   'Ho4 Er6 Os4'
_cell_volume   356.00691104
_cell_formula_units_Z   2
loop_
 _symmetry_equiv_pos_site_id
 _symmetry_equiv_pos_as_xyz
  1  'x, y, z'
loop_
 _atom_site_type_symbol
 _atom_site_label
 _atom_site_symmetry_multiplicity
 _atom_site_fract_x
 _atom_site_fract_y
 _atom_site_fract_z
 _atom_site_occupancy
  Ho  Ho0  1  0.792121  0.584045  0.815794  1
  Ho  Ho1  1  0.976327  0.915955  0.184206  1
  Ho  Ho2  1  0.207879  0.415955  0.184206  1
  Ho  Ho3  1  0.023673  0.084045  0.815794  1
  Er  Er4  1  0.204138  0.683820  0.564387  1
  Er  Er5  1  0.639751  0.816180  0.435613  1
  Er  Er6  1  0.795862  0.316180  0.435613  1
  Er  Er7  1  0.360249  0.183820  0.564387  1
  Er  Er8  1  0.420048  0.750000  0.000000  1
  Er  Er9  1  0.579952  0.250000  0.000000  1
  Os  Os10  1  0.601945  0.923210  0.780074  1
  Os  Os11  1  0.821871  0.576790  0.219926  1
  Os  Os12  1  0.398055  0.076790  0.219926  1
  Os  Os13  1  0.178129  0.423210  0.780074  1
