# generated using pymatgen
data_Pr6VCo17P12
_symmetry_space_group_name_H-M   'P 1'
_cell_length_a   3.77340600
_cell_length_b   10.68822500
_cell_length_c   12.42965500
_cell_angle_alpha   90.00000000
_cell_angle_beta   90.00000000
_cell_angle_gamma   90.00000000
_symmetry_Int_Tables_number   1
_chemical_formula_structural   Pr6VCo17P12
_chemical_formula_sum   'Pr6 V1 Co17 P12'
_cell_volume   501.30056924
_cell_formula_units_Z   1
loop_
 _symmetry_equiv_pos_site_id
 _symmetry_equiv_pos_as_xyz
  1  'x, y, z'
loop_
 _atom_site_type_symbol
 _atom_site_label
 _atom_site_symmetry_multiplicity
 _atom_site_fract_x
 _atom_site_fract_y
 _atom_site_fract_z
 _atom_site_occupancy
  Pr  Pr0  1  0.000000  0.500000  0.522447  1
  Pr  Pr1  1  0.500000  0.000000  0.478992  1
  Pr  Pr2  1  0.500000  0.818318  0.206525  1
  Pr  Pr3  1  0.500000  0.181682  0.206525  1
  Pr  Pr4  1  0.000000  0.682618  0.795497  1
  Pr  Pr5  1  0.000000  0.317382  0.795497  1
  V  V6  1  0.500000  0.500000  0.151202  1
  Co  Co7  1  0.000000  0.000000  0.842177  1
  Co  Co8  1  0.500000  0.500000  0.704259  1
  Co  Co9  1  0.000000  0.000000  0.294967  1
  Co  Co10  1  0.000000  0.500000  0.987914  1
  Co  Co11  1  0.500000  0.000000  0.012640  1
  Co  Co12  1  0.500000  0.332167  0.994659  1
  Co  Co13  1  0.500000  0.667833  0.994659  1
  Co  Co14  1  0.000000  0.165772  0.004548  1
  Co  Co15  1  0.000000  0.834228  0.004548  1
  Co  Co16  1  0.500000  0.296444  0.430629  1
  Co  Co17  1  0.500000  0.703556  0.430629  1
  Co  Co18  1  0.000000  0.203254  0.569791  1
  Co  Co19  1  0.000000  0.796746  0.569791  1
  Co  Co20  1  0.500000  0.881983  0.710583  1
  Co  Co21  1  0.500000  0.118017  0.710583  1
  Co  Co22  1  0.000000  0.618835  0.289790  1
  Co  Co23  1  0.000000  0.381165  0.289790  1
  P  P24  1  0.500000  0.500000  0.886860  1
  P  P25  1  0.000000  0.000000  0.112448  1
  P  P26  1  0.500000  0.500000  0.341000  1
  P  P27  1  0.000000  0.000000  0.661872  1
  P  P28  1  0.500000  0.305148  0.614379  1
  P  P29  1  0.500000  0.694852  0.614379  1
  P  P30  1  0.000000  0.194525  0.386990  1
  P  P31  1  0.000000  0.805475  0.386990  1
  P  P32  1  0.500000  0.850560  0.894638  1
  P  P33  1  0.500000  0.149440  0.894638  1
  P  P34  1  0.000000  0.653045  0.103582  1
  P  P35  1  0.000000  0.346955  0.103582  1
