# generated using pymatgen
data_Ta12Cr5Os7C3N
_symmetry_space_group_name_H-M   'P 1'
_cell_length_a   8.26916869
_cell_length_b   8.26916941
_cell_length_c   8.26916802
_cell_angle_alpha   59.89010120
_cell_angle_beta   59.89009855
_cell_angle_gamma   59.89010116
_symmetry_Int_Tables_number   1
_chemical_formula_structural   Ta12Cr5Os7C3N
_chemical_formula_sum   'Ta12 Cr5 Os7 C3 N1'
_cell_volume   398.82863255
_cell_formula_units_Z   1
loop_
 _symmetry_equiv_pos_site_id
 _symmetry_equiv_pos_as_xyz
  1  'x, y, z'
loop_
 _atom_site_type_symbol
 _atom_site_label
 _atom_site_symmetry_multiplicity
 _atom_site_fract_x
 _atom_site_fract_y
 _atom_site_fract_z
 _atom_site_occupancy
  Ta  Ta0  1  0.808120  0.808120  0.187769  1
  Ta  Ta1  1  0.193087  0.193087  0.805264  1
  Ta  Ta2  1  0.808120  0.187769  0.808120  1
  Ta  Ta3  1  0.193087  0.805264  0.193087  1
  Ta  Ta4  1  0.187769  0.808120  0.808120  1
  Ta  Ta5  1  0.805264  0.193087  0.193087  1
  Ta  Ta6  1  0.443079  0.443079  0.057065  1
  Ta  Ta7  1  0.057634  0.057634  0.442786  1
  Ta  Ta8  1  0.443079  0.057065  0.443079  1
  Ta  Ta9  1  0.057634  0.442786  0.057634  1
  Ta  Ta10  1  0.057065  0.443079  0.443079  1
  Ta  Ta11  1  0.442786  0.057634  0.057634  1
  Cr  Cr12  1  0.117730  0.631884  0.631884  1
  Cr  Cr13  1  0.631884  0.117730  0.631884  1
  Cr  Cr14  1  0.631884  0.631884  0.117730  1
  Cr  Cr15  1  0.625174  0.625174  0.625174  1
  Cr  Cr16  1  0.829841  0.829841  0.829841  1
  Os  Os17  1  0.745903  0.417170  0.417170  1
  Os  Os18  1  0.417170  0.745903  0.417170  1
  Os  Os19  1  0.417170  0.417170  0.745903  1
  Os  Os20  1  0.417713  0.417713  0.417713  1
  Os  Os21  1  0.502233  0.833750  0.833750  1
  Os  Os22  1  0.833750  0.502233  0.833750  1
  Os  Os23  1  0.833750  0.833750  0.502233  1
  C  C24  1  0.624800  0.124809  0.124809  1
  C  C25  1  0.124809  0.624800  0.124809  1
  C  C26  1  0.124809  0.124809  0.624800  1
  N  N27  1  0.124655  0.124655  0.124655  1
