# generated using pymatgen
data_Ce4BiSbRh4
_symmetry_space_group_name_H-M   'P 1'
_cell_length_a   7.67753700
_cell_length_b   7.67753700
_cell_length_c   3.77711700
_cell_angle_alpha   90.00000000
_cell_angle_beta   90.00000000
_cell_angle_gamma   90.00000000
_symmetry_Int_Tables_number   1
_chemical_formula_structural   Ce4BiSbRh4
_chemical_formula_sum   'Ce4 Bi1 Sb1 Rh4'
_cell_volume   222.64055397
_cell_formula_units_Z   1
loop_
 _symmetry_equiv_pos_site_id
 _symmetry_equiv_pos_as_xyz
  1  'x, y, z'
loop_
 _atom_site_type_symbol
 _atom_site_label
 _atom_site_symmetry_multiplicity
 _atom_site_fract_x
 _atom_site_fract_y
 _atom_site_fract_z
 _atom_site_occupancy
  Ce  Ce0  1  0.670134  0.181254  0.500000  1
  Ce  Ce1  1  0.329866  0.818746  0.500000  1
  Ce  Ce2  1  0.181254  0.329866  0.500000  1
  Ce  Ce3  1  0.818746  0.670134  0.500000  1
  Bi  Bi4  1  0.000000  0.000000  0.000000  1
  Sb  Sb5  1  0.500000  0.500000  0.000000  1
  Rh  Rh6  1  0.136430  0.627503  0.000000  1
  Rh  Rh7  1  0.863570  0.372497  0.000000  1
  Rh  Rh8  1  0.627503  0.863570  0.000000  1
  Rh  Rh9  1  0.372497  0.136430  0.000000  1
