# generated using pymatgen
data_Er8Ti8Nb3Si16Hg
_symmetry_space_group_name_H-M   'P 1'
_cell_length_a   7.05513983
_cell_length_b   7.05514000
_cell_length_c   12.90252810
_cell_angle_alpha   90.18252111
_cell_angle_beta   89.81747671
_cell_angle_gamma   89.64000748
_symmetry_Int_Tables_number   1
_chemical_formula_structural   Er8Ti8Nb3Si16Hg
_chemical_formula_sum   'Er8 Ti8 Nb3 Si16 Hg1'
_cell_volume   642.20409135
_cell_formula_units_Z   1
loop_
 _symmetry_equiv_pos_site_id
 _symmetry_equiv_pos_as_xyz
  1  'x, y, z'
loop_
 _atom_site_type_symbol
 _atom_site_label
 _atom_site_symmetry_multiplicity
 _atom_site_fract_x
 _atom_site_fract_y
 _atom_site_fract_z
 _atom_site_occupancy
  Er  Er0  1  0.342201  0.000332  0.467040  1
  Er  Er1  1  0.498242  0.841081  0.716139  1
  Er  Er2  1  0.500945  0.156037  0.215700  1
  Er  Er3  1  0.841081  0.498242  0.283861  1
  Er  Er4  1  0.156037  0.500945  0.784300  1
  Er  Er5  1  0.657242  0.001677  0.968423  1
  Er  Er6  1  0.000332  0.342201  0.532960  1
  Er  Er7  1  0.001677  0.657242  0.031577  1
  Ti  Ti8  1  0.146448  0.009037  0.876143  1
  Ti  Ti9  1  0.496307  0.650115  0.123070  1
  Ti  Ti10  1  0.507475  0.351775  0.623735  1
  Ti  Ti11  1  0.650115  0.496307  0.876930  1
  Ti  Ti12  1  0.351775  0.507475  0.376265  1
  Ti  Ti13  1  0.848652  0.990301  0.373645  1
  Ti  Ti14  1  0.009037  0.146448  0.123857  1
  Ti  Ti15  1  0.990301  0.848652  0.626355  1
  Nb  Nb16  1  0.173226  0.826157  0.250599  1
  Nb  Nb17  1  0.826157  0.173226  0.749401  1
  Nb  Nb18  1  0.672789  0.672789  0.500000  1
  Si  Si19  1  0.202522  0.132685  0.683211  1
  Si  Si20  1  0.373604  0.725755  0.926002  1
  Si  Si21  1  0.632039  0.292603  0.432245  1
  Si  Si22  1  0.725755  0.373604  0.073998  1
  Si  Si23  1  0.292603  0.632039  0.567755  1
  Si  Si24  1  0.797215  0.866295  0.182348  1
  Si  Si25  1  0.132685  0.202522  0.316789  1
  Si  Si26  1  0.866295  0.797215  0.817652  1
  Si  Si27  1  0.288330  0.934002  0.065990  1
  Si  Si28  1  0.547390  0.791999  0.313312  1
  Si  Si29  1  0.456312  0.206271  0.805637  1
  Si  Si30  1  0.791999  0.547390  0.686688  1
  Si  Si31  1  0.206271  0.456312  0.194363  1
  Si  Si32  1  0.707691  0.047452  0.562938  1
  Si  Si33  1  0.934002  0.288330  0.934010  1
  Si  Si34  1  0.047452  0.707691  0.437062  1
  Hg  Hg35  1  0.327797  0.327797  0.000000  1
