# generated using pymatgen
data_Ba12PdPt
_symmetry_space_group_name_H-M   'P 1'
_cell_length_a   7.89354801
_cell_length_b   7.89345274
_cell_length_c   14.90535001
_cell_angle_alpha   89.99976844
_cell_angle_beta   90.00059428
_cell_angle_gamma   120.00152566
_symmetry_Int_Tables_number   1
_chemical_formula_structural   Ba12PdPt
_chemical_formula_sum   'Ba12 Pd1 Pt1'
_cell_volume   804.27654023
_cell_formula_units_Z   1
loop_
 _symmetry_equiv_pos_site_id
 _symmetry_equiv_pos_as_xyz
  1  'x, y, z'
loop_
 _atom_site_type_symbol
 _atom_site_label
 _atom_site_symmetry_multiplicity
 _atom_site_fract_x
 _atom_site_fract_y
 _atom_site_fract_z
 _atom_site_occupancy
  Ba  Ba0  1  0.668023  0.007975  0.119901  1
  Ba  Ba1  1  0.991977  0.659996  0.119902  1
  Ba  Ba2  1  0.340004  0.331893  0.119893  1
  Ba  Ba3  1  0.005383  0.336992  0.378900  1
  Ba  Ba4  1  0.663019  0.668512  0.378904  1
  Ba  Ba5  1  0.331481  0.994638  0.378926  1
  Ba  Ba6  1  0.005361  0.668476  0.621099  1
  Ba  Ba7  1  0.663062  0.994642  0.621101  1
  Ba  Ba8  1  0.331492  0.336965  0.621102  1
  Ba  Ba9  1  0.340032  0.008005  0.880088  1
  Ba  Ba10  1  0.668106  0.659979  0.880103  1
  Ba  Ba11  1  0.992025  0.331916  0.880124  1
  Pd  Pd12  1  0.333311  0.666706  0.500012  1
  Pt  Pt13  1  0.666705  0.333284  0.000001  1
