# generated using pymatgen
data_NaTbNi9P7Ir3
_symmetry_space_group_name_H-M   'P 1'
_cell_length_a   9.20203900
_cell_length_b   9.20203828
_cell_length_c   3.74278300
_cell_angle_alpha   90.00000000
_cell_angle_beta   90.00000000
_cell_angle_gamma   119.99999899
_symmetry_Int_Tables_number   1
_chemical_formula_structural   NaTbNi9P7Ir3
_chemical_formula_sum   'Na1 Tb1 Ni9 P7 Ir3'
_cell_volume   274.46905659
_cell_formula_units_Z   1
loop_
 _symmetry_equiv_pos_site_id
 _symmetry_equiv_pos_as_xyz
  1  'x, y, z'
loop_
 _atom_site_type_symbol
 _atom_site_label
 _atom_site_symmetry_multiplicity
 _atom_site_fract_x
 _atom_site_fract_y
 _atom_site_fract_z
 _atom_site_occupancy
  Na  Na0  1  0.666667  0.333333  0.000000  1
  Tb  Tb1  1  0.333333  0.666667  0.500000  1
  Ni  Ni2  1  0.063778  0.633611  0.000000  1
  Ni  Ni3  1  0.569833  0.936222  0.000000  1
  Ni  Ni4  1  0.366389  0.430167  0.000000  1
  Ni  Ni5  1  0.272922  0.120052  0.000000  1
  Ni  Ni6  1  0.847130  0.727078  0.000000  1
  Ni  Ni7  1  0.879948  0.152870  0.000000  1
  Ni  Ni8  1  0.073379  0.877811  0.500000  1
  Ni  Ni9  1  0.804432  0.926621  0.500000  1
  Ni  Ni10  1  0.122189  0.195568  0.500000  1
  P  P11  1  0.292531  0.881694  0.000000  1
  P  P12  1  0.589163  0.707469  0.000000  1
  P  P13  1  0.118306  0.410837  0.000000  1
  P  P14  1  0.402228  0.292428  0.500000  1
  P  P15  1  0.890200  0.597772  0.500000  1
  P  P16  1  0.707572  0.109800  0.500000  1
  P  P17  1  0.000000  0.000000  0.000000  1
  Ir  Ir18  1  0.426425  0.041810  0.500000  1
  Ir  Ir19  1  0.615385  0.573575  0.500000  1
  Ir  Ir20  1  0.958190  0.384615  0.500000  1
