# generated using pymatgen
data_LiTh4ReSi6
_symmetry_space_group_name_H-M   'P 1'
_cell_length_a   8.22950200
_cell_length_b   8.22950031
_cell_length_c   8.46214900
_cell_angle_alpha   90.00000000
_cell_angle_beta   90.00000000
_cell_angle_gamma   119.99999070
_symmetry_Int_Tables_number   1
_chemical_formula_structural   LiTh4ReSi6
_chemical_formula_sum   'Li2 Th8 Re2 Si12'
_cell_volume   496.31609791
_cell_formula_units_Z   2
loop_
 _symmetry_equiv_pos_site_id
 _symmetry_equiv_pos_as_xyz
  1  'x, y, z'
loop_
 _atom_site_type_symbol
 _atom_site_label
 _atom_site_symmetry_multiplicity
 _atom_site_fract_x
 _atom_site_fract_y
 _atom_site_fract_z
 _atom_site_occupancy
  Li  Li0  1  0.333333  0.666667  0.002122  1
  Li  Li1  1  0.666667  0.333333  0.997878  1
  Th  Th2  1  0.500366  0.000733  0.260198  1
  Th  Th3  1  0.499634  0.999267  0.739802  1
  Th  Th4  1  0.999267  0.499634  0.260198  1
  Th  Th5  1  0.000733  0.500366  0.739802  1
  Th  Th6  1  0.500366  0.499634  0.260198  1
  Th  Th7  1  0.499634  0.500366  0.739802  1
  Th  Th8  1  0.000000  0.000000  0.247193  1
  Th  Th9  1  0.000000  0.000000  0.752807  1
  Re  Re10  1  0.666667  0.333333  0.500289  1
  Re  Re11  1  0.333333  0.666667  0.499711  1
  Si  Si12  1  0.166582  0.333164  0.999622  1
  Si  Si13  1  0.833418  0.666836  0.000378  1
  Si  Si14  1  0.666836  0.833418  0.999622  1
  Si  Si15  1  0.835633  0.671269  0.500964  1
  Si  Si16  1  0.333164  0.166582  0.000378  1
  Si  Si17  1  0.164367  0.328731  0.499036  1
  Si  Si18  1  0.166582  0.833418  0.999622  1
  Si  Si19  1  0.328731  0.164367  0.500964  1
  Si  Si20  1  0.833418  0.166582  0.000378  1
  Si  Si21  1  0.671269  0.835633  0.499036  1
  Si  Si22  1  0.835633  0.164367  0.500964  1
  Si  Si23  1  0.164367  0.835633  0.499036  1
