# generated using pymatgen
data_Y7HoTi3Si16W9
_symmetry_space_group_name_H-M   'P 1'
_cell_length_a   6.90669101
_cell_length_b   6.90560973
_cell_length_c   12.81992910
_cell_angle_alpha   89.97018385
_cell_angle_beta   90.02347611
_cell_angle_gamma   89.87886328
_symmetry_Int_Tables_number   1
_chemical_formula_structural   Y7HoTi3Si16W9
_chemical_formula_sum   'Y7 Ho1 Ti3 Si16 W9'
_cell_volume   611.44389772
_cell_formula_units_Z   1
loop_
 _symmetry_equiv_pos_site_id
 _symmetry_equiv_pos_as_xyz
  1  'x, y, z'
loop_
 _atom_site_type_symbol
 _atom_site_label
 _atom_site_symmetry_multiplicity
 _atom_site_fract_x
 _atom_site_fract_y
 _atom_site_fract_z
 _atom_site_occupancy
  Y  Y0  1  0.339547  0.001782  0.468518  1
  Y  Y1  1  0.496917  0.838315  0.719107  1
  Y  Y2  1  0.499616  0.161431  0.217477  1
  Y  Y3  1  0.838502  0.497052  0.280850  1
  Y  Y4  1  0.161497  0.499760  0.782566  1
  Y  Y5  1  0.659936  0.998883  0.968806  1
  Y  Y6  1  0.001896  0.339591  0.531398  1
  Ho  Ho7  1  0.999323  0.659690  0.031197  1
  Ti  Ti8  1  0.170605  0.831367  0.248459  1
  Ti  Ti9  1  0.831430  0.170681  0.751436  1
  Ti  Ti10  1  0.669097  0.669171  0.499971  1
  Si  Si11  1  0.200220  0.129350  0.683404  1
  Si  Si12  1  0.372660  0.698068  0.933749  1
  Si  Si13  1  0.628962  0.299233  0.433639  1
  Si  Si14  1  0.698460  0.373346  0.066344  1
  Si  Si15  1  0.299274  0.628993  0.566392  1
  Si  Si16  1  0.797741  0.871356  0.183841  1
  Si  Si17  1  0.129314  0.199969  0.316573  1
  Si  Si18  1  0.871824  0.797107  0.816101  1
  Si  Si19  1  0.288339  0.962397  0.062287  1
  Si  Si20  1  0.539979  0.791165  0.313800  1
  Si  Si21  1  0.458838  0.209808  0.814161  1
  Si  Si22  1  0.791172  0.540257  0.686164  1
  Si  Si23  1  0.209453  0.459448  0.185673  1
  Si  Si24  1  0.709930  0.040974  0.563813  1
  Si  Si25  1  0.962865  0.289083  0.937893  1
  Si  Si26  1  0.041064  0.710000  0.436055  1
  W  W27  1  0.331210  0.331772  0.000035  1
  W  W28  1  0.157753  0.002765  0.873608  1
  W  W29  1  0.494307  0.664918  0.124982  1
  W  W30  1  0.506047  0.340596  0.624796  1
  W  W31  1  0.665021  0.494450  0.875219  1
  W  W32  1  0.340568  0.506123  0.375181  1
  W  W33  1  0.840059  0.993445  0.374197  1
  W  W34  1  0.003078  0.157731  0.126549  1
  W  W35  1  0.993497  0.839923  0.625760  1
