# generated using pymatgen
data_LiAc6Sn6Ir5
_symmetry_space_group_name_H-M   'P 1'
_cell_length_a   7.70566600
_cell_length_b   7.70566593
_cell_length_c   8.66641900
_cell_angle_alpha   90.00000000
_cell_angle_beta   90.00000000
_cell_angle_gamma   119.99999174
_symmetry_Int_Tables_number   1
_chemical_formula_structural   LiAc6Sn6Ir5
_chemical_formula_sum   'Li1 Ac6 Sn6 Ir5'
_cell_volume   445.64671273
_cell_formula_units_Z   1
loop_
 _symmetry_equiv_pos_site_id
 _symmetry_equiv_pos_as_xyz
  1  'x, y, z'
loop_
 _atom_site_type_symbol
 _atom_site_label
 _atom_site_symmetry_multiplicity
 _atom_site_fract_x
 _atom_site_fract_y
 _atom_site_fract_z
 _atom_site_occupancy
  Li  Li0  1  0.000000  0.000000  0.250000  1
  Ac  Ac1  1  0.999849  0.414771  0.750000  1
  Ac  Ac2  1  0.585229  0.585078  0.750000  1
  Ac  Ac3  1  0.414922  0.000151  0.750000  1
  Ac  Ac4  1  0.999876  0.423396  0.250000  1
  Ac  Ac5  1  0.576604  0.576478  0.250000  1
  Ac  Ac6  1  0.423522  0.000124  0.250000  1
  Sn  Sn7  1  0.244323  0.244569  0.502288  1
  Sn  Sn8  1  0.000246  0.755677  0.502288  1
  Sn  Sn9  1  0.000246  0.755677  0.997712  1
  Sn  Sn10  1  0.755431  0.999754  0.502288  1
  Sn  Sn11  1  0.755431  0.999754  0.997712  1
  Sn  Sn12  1  0.244323  0.244569  0.997712  1
  Ir  Ir13  1  0.333333  0.666667  0.502386  1
  Ir  Ir14  1  0.666667  0.333333  0.502141  1
  Ir  Ir15  1  0.333333  0.666667  0.997614  1
  Ir  Ir16  1  0.000000  0.000000  0.750000  1
  Ir  Ir17  1  0.666667  0.333333  0.997859  1
