# generated using pymatgen
data_Nd2Dy4Cd23As
_symmetry_space_group_name_H-M   'P 1'
_cell_length_a   10.03703540
_cell_length_b   10.03703463
_cell_length_c   9.86643600
_cell_angle_alpha   60.56067856
_cell_angle_beta   60.56068103
_cell_angle_gamma   59.36095790
_symmetry_Int_Tables_number   1
_chemical_formula_structural   Nd2Dy4Cd23As
_chemical_formula_sum   'Nd2 Dy4 Cd23 As1'
_cell_volume   705.19529916
_cell_formula_units_Z   1
loop_
 _symmetry_equiv_pos_site_id
 _symmetry_equiv_pos_as_xyz
  1  'x, y, z'
loop_
 _atom_site_type_symbol
 _atom_site_label
 _atom_site_symmetry_multiplicity
 _atom_site_fract_x
 _atom_site_fract_y
 _atom_site_fract_z
 _atom_site_occupancy
  Nd  Nd0  1  0.790383  0.209617  0.791521  1
  Nd  Nd1  1  0.209617  0.790383  0.791521  1
  Dy  Dy2  1  0.800185  0.800185  0.199392  1
  Dy  Dy3  1  0.206941  0.793059  0.206768  1
  Dy  Dy4  1  0.793059  0.206941  0.206768  1
  Dy  Dy5  1  0.199815  0.199815  0.799763  1
  Cd  Cd6  1  0.839873  0.839873  0.483069  1
  Cd  Cd7  1  0.832524  0.493045  0.839212  1
  Cd  Cd8  1  0.493045  0.832524  0.839212  1
  Cd  Cd9  1  0.835292  0.835292  0.835458  1
  Cd  Cd10  1  0.164708  0.164708  0.506041  1
  Cd  Cd11  1  0.167476  0.506955  0.164780  1
  Cd  Cd12  1  0.506955  0.167476  0.164780  1
  Cd  Cd13  1  0.160127  0.160127  0.162813  1
  Cd  Cd14  1  0.622663  0.622663  0.138531  1
  Cd  Cd15  1  0.617871  0.133562  0.621308  1
  Cd  Cd16  1  0.133562  0.617871  0.621308  1
  Cd  Cd17  1  0.627551  0.627551  0.614614  1
  Cd  Cd18  1  0.372449  0.372449  0.869717  1
  Cd  Cd19  1  0.382129  0.866438  0.372741  1
  Cd  Cd20  1  0.866438  0.382129  0.372741  1
  Cd  Cd21  1  0.377337  0.377337  0.383857  1
  Cd  Cd22  1  0.000000  0.000000  0.499711  1
  Cd  Cd23  1  0.500190  0.999304  0.501114  1
  Cd  Cd24  1  0.999304  0.500190  0.501114  1
  Cd  Cd25  1  0.500000  0.500000  0.000775  1
  Cd  Cd26  1  0.000696  0.499810  0.000609  1
  Cd  Cd27  1  0.499810  0.000696  0.000609  1
  Cd  Cd28  1  0.500000  0.500000  0.505315  1
  As  As29  1  0.000000  0.000000  0.004838  1
