# generated using pymatgen
data_Ti12Al7Si(PtN)4
_symmetry_space_group_name_H-M   'P 1'
_cell_length_a   8.17157788
_cell_length_b   8.16543777
_cell_length_c   8.17157700
_cell_angle_alpha   59.97512164
_cell_angle_beta   59.99999952
_cell_angle_gamma   59.97512414
_symmetry_Int_Tables_number   1
_chemical_formula_structural   Ti12Al7Si(PtN)4
_chemical_formula_sum   'Ti12 Al7 Si1 Pt4 N4'
_cell_volume   385.40102979
_cell_formula_units_Z   1
loop_
 _symmetry_equiv_pos_site_id
 _symmetry_equiv_pos_as_xyz
  1  'x, y, z'
loop_
 _atom_site_type_symbol
 _atom_site_label
 _atom_site_symmetry_multiplicity
 _atom_site_fract_x
 _atom_site_fract_y
 _atom_site_fract_z
 _atom_site_occupancy
  Ti  Ti0  1  0.816864  0.816765  0.183185  1
  Ti  Ti1  1  0.067625  0.432545  0.432204  1
  Ti  Ti2  1  0.433049  0.063411  0.070490  1
  Ti  Ti3  1  0.070490  0.063411  0.433049  1
  Ti  Ti4  1  0.067625  0.432545  0.067625  1
  Ti  Ti5  1  0.433049  0.063411  0.433049  1
  Ti  Ti6  1  0.183185  0.816765  0.183185  1
  Ti  Ti7  1  0.183185  0.816765  0.816864  1
  Ti  Ti8  1  0.816868  0.183091  0.183174  1
  Ti  Ti9  1  0.816868  0.183091  0.816868  1
  Ti  Ti10  1  0.432204  0.432545  0.067625  1
  Ti  Ti11  1  0.183174  0.183091  0.816868  1
  Al  Al12  1  0.834946  0.835148  0.494962  1
  Al  Al13  1  0.494962  0.835148  0.834946  1
  Al  Al14  1  0.834946  0.835148  0.834946  1
  Al  Al15  1  0.756333  0.413216  0.415225  1
  Al  Al16  1  0.415225  0.413216  0.415225  1
  Al  Al17  1  0.415225  0.413216  0.756333  1
  Al  Al18  1  0.834132  0.497607  0.834132  1
  Si  Si19  1  0.413794  0.758615  0.413794  1
  Pt  Pt20  1  0.624826  0.125522  0.624826  1
  Pt  Pt21  1  0.621719  0.628111  0.128450  1
  Pt  Pt22  1  0.128450  0.628111  0.621719  1
  Pt  Pt23  1  0.621719  0.628111  0.621719  1
  N  N24  1  0.124710  0.625869  0.124710  1
  N  N25  1  0.124961  0.125175  0.624902  1
  N  N26  1  0.624902  0.125175  0.124961  1
  N  N27  1  0.124961  0.125175  0.124961  1
