# generated using pymatgen
data_Lu12GaNi4Hg
_symmetry_space_group_name_H-M   'P 1'
_cell_length_a   8.18111033
_cell_length_b   8.18110975
_cell_length_c   8.18110938
_cell_angle_alpha   112.49004278
_cell_angle_beta   110.00309398
_cell_angle_gamma   105.98622636
_symmetry_Int_Tables_number   1
_chemical_formula_structural   Lu12GaNi4Hg
_chemical_formula_sum   'Lu12 Ga1 Ni4 Hg1'
_cell_volume   420.14475217
_cell_formula_units_Z   1
loop_
 _symmetry_equiv_pos_site_id
 _symmetry_equiv_pos_as_xyz
  1  'x, y, z'
loop_
 _atom_site_type_symbol
 _atom_site_label
 _atom_site_symmetry_multiplicity
 _atom_site_fract_x
 _atom_site_fract_y
 _atom_site_fract_z
 _atom_site_occupancy
  Lu  Lu0  1  0.432805  0.236332  0.196474  1
  Lu  Lu1  1  0.567195  0.763668  0.803526  1
  Lu  Lu2  1  0.039858  0.236332  0.803526  1
  Lu  Lu3  1  0.960142  0.763668  0.196474  1
  Lu  Lu4  1  0.180176  0.285580  0.465756  1
  Lu  Lu5  1  0.819824  0.714420  0.534244  1
  Lu  Lu6  1  0.180176  0.714420  0.894596  1
  Lu  Lu7  1  0.819824  0.285580  0.105404  1
  Lu  Lu8  1  0.326581  0.633189  0.306609  1
  Lu  Lu9  1  0.673419  0.366811  0.693391  1
  Lu  Lu10  1  0.326581  0.019971  0.693391  1
  Lu  Lu11  1  0.673419  0.980029  0.306609  1
  Ga  Ga12  1  0.000000  0.000000  0.000000  1
  Ni  Ni13  1  0.346248  0.000000  0.346248  1
  Ni  Ni14  1  0.653752  0.000000  0.653752  1
  Ni  Ni15  1  0.123580  0.623580  0.500000  1
  Ni  Ni16  1  0.876420  0.376420  0.500000  1
  Hg  Hg17  1  0.500000  0.500000  0.000000  1
