# generated using pymatgen
data_Nb12ReSn3
_symmetry_space_group_name_H-M   'P 1'
_cell_length_a   5.30488500
_cell_length_b   5.30436400
_cell_length_c   10.58841000
_cell_angle_alpha   90.00000000
_cell_angle_beta   90.00000000
_cell_angle_gamma   90.00000000
_symmetry_Int_Tables_number   1
_chemical_formula_structural   Nb12ReSn3
_chemical_formula_sum   'Nb12 Re1 Sn3'
_cell_volume   297.94770331
_cell_formula_units_Z   1
loop_
 _symmetry_equiv_pos_site_id
 _symmetry_equiv_pos_as_xyz
  1  'x, y, z'
loop_
 _atom_site_type_symbol
 _atom_site_label
 _atom_site_symmetry_multiplicity
 _atom_site_fract_x
 _atom_site_fract_y
 _atom_site_fract_z
 _atom_site_occupancy
  Nb  Nb0  1  0.000000  0.500000  0.382535  1
  Nb  Nb1  1  0.000000  0.500000  0.871362  1
  Nb  Nb2  1  0.500000  0.251105  0.000000  1
  Nb  Nb3  1  0.500000  0.241994  0.500000  1
  Nb  Nb4  1  0.755230  0.000000  0.258958  1
  Nb  Nb5  1  0.755230  0.000000  0.741042  1
  Nb  Nb6  1  0.000000  0.500000  0.128638  1
  Nb  Nb7  1  0.000000  0.500000  0.617465  1
  Nb  Nb8  1  0.500000  0.748895  0.000000  1
  Nb  Nb9  1  0.500000  0.758006  0.500000  1
  Nb  Nb10  1  0.244770  0.000000  0.258958  1
  Nb  Nb11  1  0.244770  0.000000  0.741042  1
  Re  Re12  1  0.000000  0.000000  0.500000  1
  Sn  Sn13  1  0.500000  0.500000  0.249671  1
  Sn  Sn14  1  0.500000  0.500000  0.750329  1
  Sn  Sn15  1  0.000000  0.000000  0.000000  1
