# generated using pymatgen
data_Tm2ThSi5PPd20
_symmetry_space_group_name_H-M   'P 1'
_cell_length_a   8.72472549
_cell_length_b   8.72229405
_cell_length_c   8.72229400
_cell_angle_alpha   60.03471112
_cell_angle_beta   59.99076914
_cell_angle_gamma   59.99077473
_symmetry_Int_Tables_number   1
_chemical_formula_structural   Tm2ThSi5PPd20
_chemical_formula_sum   'Tm2 Th1 Si5 P1 Pd20'
_cell_volume   469.40898131
_cell_formula_units_Z   1
loop_
 _symmetry_equiv_pos_site_id
 _symmetry_equiv_pos_as_xyz
  1  'x, y, z'
loop_
 _atom_site_type_symbol
 _atom_site_label
 _atom_site_symmetry_multiplicity
 _atom_site_fract_x
 _atom_site_fract_y
 _atom_site_fract_z
 _atom_site_occupancy
  Tm  Tm0  1  0.749122  0.750878  0.750878  1
  Tm  Tm1  1  0.001002  0.998998  0.998998  1
  Th  Th2  1  0.249444  0.250556  0.250556  1
  Si  Si3  1  0.266703  0.733297  0.733297  1
  Si  Si4  1  0.264838  0.735015  0.266462  1
  Si  Si5  1  0.733685  0.266462  0.735015  1
  Si  Si6  1  0.264838  0.266462  0.735015  1
  Si  Si7  1  0.733685  0.735015  0.266462  1
  P  P8  1  0.735046  0.264954  0.264954  1
  Pd  Pd9  1  0.387045  0.384800  0.384800  1
  Pd  Pd10  1  0.617872  0.617647  0.617647  1
  Pd  Pd11  1  0.384976  0.384625  0.845425  1
  Pd  Pd12  1  0.384976  0.845425  0.384625  1
  Pd  Pd13  1  0.617825  0.615835  0.148514  1
  Pd  Pd14  1  0.617825  0.148514  0.615835  1
  Pd  Pd15  1  0.843355  0.384800  0.384800  1
  Pd  Pd16  1  0.146833  0.617647  0.617647  1
  Pd  Pd17  1  0.346047  0.999868  0.999868  1
  Pd  Pd18  1  0.654219  0.999868  0.999868  1
  Pd  Pd19  1  0.001992  0.344114  0.651904  1
  Pd  Pd20  1  0.001992  0.651904  0.344114  1
  Pd  Pd21  1  0.998921  0.344471  0.002804  1
  Pd  Pd22  1  0.653805  0.002804  0.344471  1
  Pd  Pd23  1  0.001091  0.653572  0.000814  1
  Pd  Pd24  1  0.344524  0.000814  0.653572  1
  Pd  Pd25  1  0.998921  0.002804  0.344471  1
  Pd  Pd26  1  0.001091  0.000814  0.653572  1
  Pd  Pd27  1  0.653805  0.344471  0.002804  1
  Pd  Pd28  1  0.344524  0.653572  0.000814  1
