# generated using pymatgen
data_Zr10Ge5AsC
_symmetry_space_group_name_H-M   'P 1'
_cell_length_a   8.08286109
_cell_length_b   8.07834029
_cell_length_c   5.66979773
_cell_angle_alpha   90.14771883
_cell_angle_beta   89.92618854
_cell_angle_gamma   119.98149979
_symmetry_Int_Tables_number   1
_chemical_formula_structural   Zr10Ge5AsC
_chemical_formula_sum   'Zr10 Ge5 As1 C1'
_cell_volume   320.67488194
_cell_formula_units_Z   1
loop_
 _symmetry_equiv_pos_site_id
 _symmetry_equiv_pos_as_xyz
  1  'x, y, z'
loop_
 _atom_site_type_symbol
 _atom_site_label
 _atom_site_symmetry_multiplicity
 _atom_site_fract_x
 _atom_site_fract_y
 _atom_site_fract_z
 _atom_site_occupancy
  Zr  Zr0  1  0.000000  0.759778  0.261426  1
  Zr  Zr1  1  0.241060  0.240624  0.259936  1
  Zr  Zr2  1  0.758940  0.999565  0.259936  1
  Zr  Zr3  1  0.000000  0.241015  0.739272  1
  Zr  Zr4  1  0.759356  0.759656  0.739740  1
  Zr  Zr5  1  0.240644  0.000300  0.739740  1
  Zr  Zr6  1  0.332340  0.665738  0.999714  1
  Zr  Zr7  1  0.667660  0.333397  0.999714  1
  Zr  Zr8  1  0.667398  0.333367  0.500250  1
  Zr  Zr9  1  0.332602  0.665971  0.500250  1
  Ge  Ge10  1  0.603658  0.603627  0.247998  1
  Ge  Ge11  1  0.396342  0.999969  0.247998  1
  Ge  Ge12  1  0.000000  0.605851  0.751762  1
  Ge  Ge13  1  0.397056  0.396196  0.752591  1
  Ge  Ge14  1  0.602944  0.999141  0.752591  1
  As  As15  1  0.000000  0.395182  0.247254  1
  C  C16  1  0.000000  0.000624  0.499830  1
