# generated using pymatgen
data_Tm9Th3OsRu3
_symmetry_space_group_name_H-M   'P 1'
_cell_length_a   6.27441295
_cell_length_b   7.22330533
_cell_length_c   9.33410100
_cell_angle_alpha   90.00000000
_cell_angle_beta   90.00000000
_cell_angle_gamma   89.63584297
_symmetry_Int_Tables_number   1
_chemical_formula_structural   Tm9Th3OsRu3
_chemical_formula_sum   'Tm9 Th3 Os1 Ru3'
_cell_volume   423.03158561
_cell_formula_units_Z   1
loop_
 _symmetry_equiv_pos_site_id
 _symmetry_equiv_pos_as_xyz
  1  'x, y, z'
loop_
 _atom_site_type_symbol
 _atom_site_label
 _atom_site_symmetry_multiplicity
 _atom_site_fract_x
 _atom_site_fract_y
 _atom_site_fract_z
 _atom_site_occupancy
  Tm  Tm0  1  0.861688  0.535852  0.250000  1
  Tm  Tm1  1  0.167829  0.175726  0.067005  1
  Tm  Tm2  1  0.835792  0.822610  0.937042  1
  Tm  Tm3  1  0.663383  0.325923  0.937484  1
  Tm  Tm4  1  0.835792  0.822610  0.562958  1
  Tm  Tm5  1  0.329959  0.675160  0.069075  1
  Tm  Tm6  1  0.167829  0.175726  0.432995  1
  Tm  Tm7  1  0.329959  0.675160  0.430925  1
  Tm  Tm8  1  0.663383  0.325923  0.562516  1
  Th  Th9  1  0.651199  0.042956  0.250000  1
  Th  Th10  1  0.351618  0.952701  0.750000  1
  Th  Th11  1  0.146060  0.454486  0.750000  1
  Os  Os12  1  0.457991  0.373109  0.250000  1
  Ru  Ru13  1  0.539795  0.630455  0.750000  1
  Ru  Ru14  1  0.963126  0.131121  0.750000  1
  Ru  Ru15  1  0.034596  0.880481  0.250000  1
