# generated using pymatgen
data_Eu4Mn(Si2Pt)5
_symmetry_space_group_name_H-M   'P 1'
_cell_length_a   8.30744097
_cell_length_b   8.30744089
_cell_length_c   8.30744116
_cell_angle_alpha   138.27857610
_cell_angle_beta   105.22210356
_cell_angle_gamma   89.48714696
_symmetry_Int_Tables_number   1
_chemical_formula_structural   Eu4Mn(Si2Pt)5
_chemical_formula_sum   'Eu4 Mn1 Si10 Pt5'
_cell_volume   352.20736453
_cell_formula_units_Z   1
loop_
 _symmetry_equiv_pos_site_id
 _symmetry_equiv_pos_as_xyz
  1  'x, y, z'
loop_
 _atom_site_type_symbol
 _atom_site_label
 _atom_site_symmetry_multiplicity
 _atom_site_fract_x
 _atom_site_fract_y
 _atom_site_fract_z
 _atom_site_occupancy
  Eu  Eu0  1  0.103402  0.871998  0.234738  1
  Eu  Eu1  1  0.896598  0.131336  0.768596  1
  Eu  Eu2  1  0.637260  0.368664  0.265262  1
  Eu  Eu3  1  0.362740  0.628002  0.731404  1
  Mn  Mn4  1  0.500000  0.750000  0.250000  1
  Si  Si5  1  0.000000  0.750000  0.750000  1
  Si  Si6  1  0.000000  0.250000  0.250000  1
  Si  Si7  1  0.274185  0.024185  0.750000  1
  Si  Si8  1  0.725815  0.475815  0.750000  1
  Si  Si9  1  0.723352  0.973352  0.250000  1
  Si  Si10  1  0.276648  0.526648  0.250000  1
  Si  Si11  1  0.752783  0.621980  0.164930  1
  Si  Si12  1  0.247217  0.412148  0.869198  1
  Si  Si13  1  0.457050  0.087852  0.335070  1
  Si  Si14  1  0.542950  0.878020  0.630802  1
  Pt  Pt15  1  0.500000  0.250000  0.750000  1
  Pt  Pt16  1  0.025572  0.637213  0.386884  1
  Pt  Pt17  1  0.974428  0.361312  0.611641  1
  Pt  Pt18  1  0.250329  0.138688  0.113116  1
  Pt  Pt19  1  0.749671  0.862787  0.888359  1
