# generated using pymatgen
data_TmMnBr
_symmetry_space_group_name_H-M   'P 1'
_cell_length_a   3.78215800
_cell_length_b   3.78215771
_cell_length_c   11.75018100
_cell_angle_alpha   90.00000000
_cell_angle_beta   90.00000000
_cell_angle_gamma   120.00002001
_symmetry_Int_Tables_number   1
_chemical_formula_structural   TmMnBr
_chemical_formula_sum   'Tm2 Mn2 Br2'
_cell_volume   145.56414133
_cell_formula_units_Z   2
loop_
 _symmetry_equiv_pos_site_id
 _symmetry_equiv_pos_as_xyz
  1  'x, y, z'
loop_
 _atom_site_type_symbol
 _atom_site_label
 _atom_site_symmetry_multiplicity
 _atom_site_fract_x
 _atom_site_fract_y
 _atom_site_fract_z
 _atom_site_occupancy
  Tm  Tm0  1  0.000000  0.000000  0.175476  1
  Tm  Tm1  1  0.000000  0.000000  0.824524  1
  Mn  Mn2  1  0.666668  0.333335  0.006693  1
  Mn  Mn3  1  0.333333  0.666666  0.993307  1
  Br  Br4  1  0.333333  0.666666  0.338454  1
  Br  Br5  1  0.666668  0.333335  0.661546  1
