# generated using pymatgen
data_CaEu3Hf3WO14
_symmetry_space_group_name_H-M   'P 1'
_cell_length_a   7.52760470
_cell_length_b   7.54380280
_cell_length_c   7.57165525
_cell_angle_alpha   60.12160588
_cell_angle_beta   60.18738155
_cell_angle_gamma   59.92878988
_symmetry_Int_Tables_number   1
_chemical_formula_structural   CaEu3Hf3WO14
_chemical_formula_sum   'Ca1 Eu3 Hf3 W1 O14'
_cell_volume   304.57730570
_cell_formula_units_Z   1
loop_
 _symmetry_equiv_pos_site_id
 _symmetry_equiv_pos_as_xyz
  1  'x, y, z'
loop_
 _atom_site_type_symbol
 _atom_site_label
 _atom_site_symmetry_multiplicity
 _atom_site_fract_x
 _atom_site_fract_y
 _atom_site_fract_z
 _atom_site_occupancy
  Ca  Ca0  1  0.625000  0.125000  0.125000  1
  Eu  Eu1  1  0.125000  0.625000  0.125000  1
  Eu  Eu2  1  0.125000  0.125000  0.625000  1
  Eu  Eu3  1  0.125000  0.125000  0.125000  1
  Hf  Hf4  1  0.125000  0.625000  0.625000  1
  Hf  Hf5  1  0.625000  0.125000  0.625000  1
  Hf  Hf6  1  0.625000  0.625000  0.625000  1
  W  W7  1  0.625000  0.625000  0.125000  1
  O  O8  1  0.248538  0.252803  0.245855  1
  O  O9  1  0.001462  0.997197  0.004145  1
  O  O10  1  0.692908  0.690703  0.297302  1
  O  O11  1  0.292792  0.293568  0.714696  1
  O  O12  1  0.699288  0.294706  0.711299  1
  O  O13  1  0.316809  0.693521  0.296150  1
  O  O14  1  0.292792  0.698944  0.714696  1
  O  O15  1  0.692908  0.319086  0.297302  1
  O  O16  1  0.557092  0.559297  0.952698  1
  O  O17  1  0.957208  0.956432  0.535304  1
  O  O18  1  0.550712  0.955294  0.538701  1
  O  O19  1  0.933191  0.556479  0.953850  1
  O  O20  1  0.957208  0.551056  0.535304  1
  O  O21  1  0.557092  0.930914  0.952698  1
