# generated using pymatgen
data_Dy2LuCu3(Ni5B)2
_symmetry_space_group_name_H-M   'P 1'
_cell_length_a   4.95558000
_cell_length_b   4.95558022
_cell_length_c   10.90282500
_cell_angle_alpha   90.00000000
_cell_angle_beta   90.00000000
_cell_angle_gamma   119.99998519
_symmetry_Int_Tables_number   1
_chemical_formula_structural   Dy2LuCu3(Ni5B)2
_chemical_formula_sum   'Dy2 Lu1 Cu3 Ni10 B2'
_cell_volume   231.87756977
_cell_formula_units_Z   1
loop_
 _symmetry_equiv_pos_site_id
 _symmetry_equiv_pos_as_xyz
  1  'x, y, z'
loop_
 _atom_site_type_symbol
 _atom_site_label
 _atom_site_symmetry_multiplicity
 _atom_site_fract_x
 _atom_site_fract_y
 _atom_site_fract_z
 _atom_site_occupancy
  Dy  Dy0  1  0.000000  0.000000  0.333473  1
  Dy  Dy1  1  0.000000  0.000000  0.672502  1
  Lu  Lu2  1  0.000000  0.000000  0.000160  1
  Cu  Cu3  1  0.333333  0.666667  0.316551  1
  Cu  Cu4  1  0.666667  0.333333  0.316332  1
  Cu  Cu5  1  0.666667  0.333333  0.683271  1
  Ni  Ni6  1  0.499477  0.998954  0.500440  1
  Ni  Ni7  1  0.499477  0.500523  0.500440  1
  Ni  Ni8  1  0.001046  0.500523  0.500440  1
  Ni  Ni9  1  0.333333  0.666667  0.681183  1
  Ni  Ni10  1  0.499922  0.999845  0.129087  1
  Ni  Ni11  1  0.499922  0.500078  0.129087  1
  Ni  Ni12  1  0.000155  0.500078  0.129087  1
  Ni  Ni13  1  0.498890  0.997781  0.869687  1
  Ni  Ni14  1  0.498890  0.501110  0.869687  1
  Ni  Ni15  1  0.002219  0.501110  0.869687  1
  B  B16  1  0.333333  0.666667  0.999836  1
  B  B17  1  0.666667  0.333333  0.999045  1
