# generated using pymatgen
data_TaBeNb3Co4P3
_symmetry_space_group_name_H-M   'P 1'
_cell_length_a   3.55378200
_cell_length_b   6.09166027
_cell_length_c   6.96244550
_cell_angle_alpha   89.92165657
_cell_angle_beta   90.00000000
_cell_angle_gamma   90.00000000
_symmetry_Int_Tables_number   1
_chemical_formula_structural   TaBeNb3Co4P3
_chemical_formula_sum   'Ta1 Be1 Nb3 Co4 P3'
_cell_volume   150.72589124
_cell_formula_units_Z   1
loop_
 _symmetry_equiv_pos_site_id
 _symmetry_equiv_pos_as_xyz
  1  'x, y, z'
loop_
 _atom_site_type_symbol
 _atom_site_label
 _atom_site_symmetry_multiplicity
 _atom_site_fract_x
 _atom_site_fract_y
 _atom_site_fract_z
 _atom_site_occupancy
  Ta  Ta0  1  0.750000  0.968889  0.184192  1
  Be  Be1  1  0.250000  0.774481  0.380653  1
  Nb  Nb2  1  0.250000  0.023746  0.823263  1
  Nb  Nb3  1  0.250000  0.529159  0.671808  1
  Nb  Nb4  1  0.750000  0.484192  0.325827  1
  Co  Co5  1  0.250000  0.141176  0.436325  1
  Co  Co6  1  0.250000  0.642619  0.059050  1
  Co  Co7  1  0.750000  0.860155  0.559050  1
  Co  Co8  1  0.750000  0.354659  0.939432  1
  P  P9  1  0.250000  0.273391  0.124211  1
  P  P10  1  0.750000  0.223265  0.617051  1
  P  P11  1  0.750000  0.724269  0.879138  1
