# generated using pymatgen
data_La5Nd(SnRu)4
_symmetry_space_group_name_H-M   'P 1'
_cell_length_a   5.98376900
_cell_length_b   8.62954800
_cell_length_c   13.99143100
_cell_angle_alpha   90.00000000
_cell_angle_beta   90.00000000
_cell_angle_gamma   90.00000000
_symmetry_Int_Tables_number   1
_chemical_formula_structural   La5Nd(SnRu)4
_chemical_formula_sum   'La10 Nd2 Sn8 Ru8'
_cell_volume   722.47862594
_cell_formula_units_Z   2
loop_
 _symmetry_equiv_pos_site_id
 _symmetry_equiv_pos_as_xyz
  1  'x, y, z'
loop_
 _atom_site_type_symbol
 _atom_site_label
 _atom_site_symmetry_multiplicity
 _atom_site_fract_x
 _atom_site_fract_y
 _atom_site_fract_z
 _atom_site_occupancy
  La  La0  1  0.835931  0.908114  0.590801  1
  La  La1  1  0.164141  0.408582  0.909323  1
  La  La2  1  0.835931  0.591886  0.090801  1
  La  La3  1  0.622547  0.282813  0.750000  1
  La  La4  1  0.622547  0.217187  0.250000  1
  La  La5  1  0.835931  0.591886  0.409199  1
  La  La6  1  0.164141  0.091418  0.090677  1
  La  La7  1  0.164141  0.091418  0.409323  1
  La  La8  1  0.164141  0.408582  0.590677  1
  La  La9  1  0.835931  0.908114  0.909199  1
  Nd  Nd10  1  0.375848  0.719562  0.250000  1
  Nd  Nd11  1  0.375848  0.780438  0.750000  1
  Sn  Sn12  1  0.367108  0.750000  0.500000  1
  Sn  Sn13  1  0.367108  0.750000  0.000000  1
  Sn  Sn14  1  0.122544  0.117426  0.750000  1
  Sn  Sn15  1  0.632904  0.250000  0.500000  1
  Sn  Sn16  1  0.122544  0.382574  0.250000  1
  Sn  Sn17  1  0.878183  0.876871  0.250000  1
  Sn  Sn18  1  0.878183  0.623129  0.750000  1
  Sn  Sn19  1  0.632904  0.250000  0.000000  1
  Ru  Ru20  1  0.350639  0.031226  0.912311  1
  Ru  Ru21  1  0.350639  0.468774  0.087689  1
  Ru  Ru22  1  0.649723  0.968493  0.088307  1
  Ru  Ru23  1  0.649723  0.531507  0.911693  1
  Ru  Ru24  1  0.649723  0.968493  0.411693  1
  Ru  Ru25  1  0.649723  0.531507  0.588307  1
  Ru  Ru26  1  0.350639  0.468774  0.412311  1
  Ru  Ru27  1  0.350639  0.031226  0.587689  1
