# generated using pymatgen
data_Tb3Ce2Pr3(CdRu)2
_symmetry_space_group_name_H-M   'P 1'
_cell_length_a   9.78518270
_cell_length_b   9.78518237
_cell_length_c   9.78518300
_cell_angle_alpha   60.00000124
_cell_angle_beta   60.00000236
_cell_angle_gamma   60.00000045
_symmetry_Int_Tables_number   1
_chemical_formula_structural   Tb3Ce2Pr3(CdRu)2
_chemical_formula_sum   'Tb6 Ce4 Pr6 Cd4 Ru4'
_cell_volume   662.50907317
_cell_formula_units_Z   2
loop_
 _symmetry_equiv_pos_site_id
 _symmetry_equiv_pos_as_xyz
  1  'x, y, z'
loop_
 _atom_site_type_symbol
 _atom_site_label
 _atom_site_symmetry_multiplicity
 _atom_site_fract_x
 _atom_site_fract_y
 _atom_site_fract_z
 _atom_site_occupancy
  Tb  Tb0  1  0.187627  0.187627  0.812373  1
  Tb  Tb1  1  0.812373  0.187627  0.812373  1
  Tb  Tb2  1  0.187626  0.812374  0.812373  1
  Tb  Tb3  1  0.812373  0.812374  0.187627  1
  Tb  Tb4  1  0.187626  0.812373  0.187626  1
  Tb  Tb5  1  0.812373  0.187627  0.187627  1
  Ce  Ce6  1  0.344670  0.344670  0.965990  1
  Ce  Ce7  1  0.344670  0.965990  0.344670  1
  Ce  Ce8  1  0.965990  0.344670  0.344670  1
  Ce  Ce9  1  0.344670  0.344670  0.344670  1
  Pr  Pr10  1  0.558423  0.558423  0.941577  1
  Pr  Pr11  1  0.941577  0.558423  0.941577  1
  Pr  Pr12  1  0.558423  0.941577  0.941577  1
  Pr  Pr13  1  0.941577  0.941577  0.558423  1
  Pr  Pr14  1  0.558423  0.941577  0.558423  1
  Pr  Pr15  1  0.941577  0.558423  0.558423  1
  Cd  Cd16  1  0.579308  0.579308  0.262077  1
  Cd  Cd17  1  0.579308  0.262077  0.579308  1
  Cd  Cd18  1  0.262077  0.579308  0.579308  1
  Cd  Cd19  1  0.579308  0.579308  0.579308  1
  Ru  Ru20  1  0.144820  0.144820  0.565539  1
  Ru  Ru21  1  0.144820  0.565539  0.144820  1
  Ru  Ru22  1  0.565539  0.144820  0.144820  1
  Ru  Ru23  1  0.144820  0.144820  0.144820  1
