# generated using pymatgen
data_Er4InPd2Pt9
_symmetry_space_group_name_H-M   'P 1'
_cell_length_a   4.18198600
_cell_length_b   5.82070984
_cell_length_c   11.63143538
_cell_angle_alpha   87.67289421
_cell_angle_beta   90.00000000
_cell_angle_gamma   90.00000000
_symmetry_Int_Tables_number   1
_chemical_formula_structural   Er4InPd2Pt9
_chemical_formula_sum   'Er4 In1 Pd2 Pt9'
_cell_volume   282.90037643
_cell_formula_units_Z   1
loop_
 _symmetry_equiv_pos_site_id
 _symmetry_equiv_pos_as_xyz
  1  'x, y, z'
loop_
 _atom_site_type_symbol
 _atom_site_label
 _atom_site_symmetry_multiplicity
 _atom_site_fract_x
 _atom_site_fract_y
 _atom_site_fract_z
 _atom_site_occupancy
  Er  Er0  1  0.500000  0.752516  0.375958  1
  Er  Er1  1  0.500000  0.720826  0.861762  1
  Er  Er2  1  0.500000  0.279174  0.138238  1
  Er  Er3  1  0.500000  0.247484  0.624042  1
  In  In4  1  0.000000  0.000000  0.000000  1
  Pd  Pd5  1  0.000000  0.500000  0.500000  1
  Pd  Pd6  1  0.000000  0.000000  0.500000  1
  Pt  Pt7  1  0.000000  0.011222  0.249794  1
  Pt  Pt8  1  0.000000  0.988778  0.750206  1
  Pt  Pt9  1  0.000000  0.500000  0.000000  1
  Pt  Pt10  1  0.000000  0.513644  0.250476  1
  Pt  Pt11  1  0.000000  0.486356  0.749524  1
  Pt  Pt12  1  0.500000  0.251043  0.377350  1
  Pt  Pt13  1  0.500000  0.231851  0.880539  1
  Pt  Pt14  1  0.500000  0.768149  0.119461  1
  Pt  Pt15  1  0.500000  0.748957  0.622650  1
