# generated using pymatgen
data_Sm3Lu4Th(B6Ru)4
_symmetry_space_group_name_H-M   'P 1'
_cell_length_a   3.67814300
_cell_length_b   9.13979829
_cell_length_c   11.53875063
_cell_angle_alpha   89.93906254
_cell_angle_beta   90.00000000
_cell_angle_gamma   90.00000000
_symmetry_Int_Tables_number   1
_chemical_formula_structural   Sm3Lu4Th(B6Ru)4
_chemical_formula_sum   'Sm3 Lu4 Th1 B24 Ru4'
_cell_volume   387.90355816
_cell_formula_units_Z   1
loop_
 _symmetry_equiv_pos_site_id
 _symmetry_equiv_pos_as_xyz
  1  'x, y, z'
loop_
 _atom_site_type_symbol
 _atom_site_label
 _atom_site_symmetry_multiplicity
 _atom_site_fract_x
 _atom_site_fract_y
 _atom_site_fract_z
 _atom_site_occupancy
  Sm  Sm0  1  0.000000  0.321956  0.413806  1
  Sm  Sm1  1  0.000000  0.678466  0.585239  1
  Sm  Sm2  1  0.000000  0.820011  0.086964  1
  Lu  Lu3  1  0.000000  0.943973  0.373283  1
  Lu  Lu4  1  0.000000  0.055050  0.625604  1
  Lu  Lu5  1  0.000000  0.446155  0.127724  1
  Lu  Lu6  1  0.000000  0.556675  0.873172  1
  Th  Th7  1  0.000000  0.177443  0.914124  1
  B  B8  1  0.500000  0.555978  0.431297  1
  B  B9  1  0.500000  0.444176  0.568705  1
  B  B10  1  0.500000  0.055384  0.070135  1
  B  B11  1  0.500000  0.942631  0.930819  1
  B  B12  1  0.500000  0.750905  0.418197  1
  B  B13  1  0.500000  0.249066  0.581033  1
  B  B14  1  0.500000  0.251554  0.083174  1
  B  B15  1  0.500000  0.748156  0.918175  1
  B  B16  1  0.500000  0.792024  0.266431  1
  B  B17  1  0.500000  0.208180  0.732570  1
  B  B18  1  0.500000  0.292439  0.234596  1
  B  B19  1  0.500000  0.707663  0.766019  1
  B  B20  1  0.500000  0.630825  0.184497  1
  B  B21  1  0.500000  0.370298  0.814979  1
  B  B22  1  0.500000  0.130631  0.316090  1
  B  B23  1  0.500000  0.868886  0.683539  1
  B  B24  1  0.500000  0.984411  0.215458  1
  B  B25  1  0.500000  0.013986  0.784530  1
  B  B26  1  0.500000  0.484675  0.285721  1
  B  B27  1  0.500000  0.516219  0.713946  1
  B  B28  1  0.500000  0.603652  0.028032  1
  B  B29  1  0.500000  0.398834  0.972612  1
  B  B30  1  0.500000  0.103469  0.471731  1
  B  B31  1  0.500000  0.896454  0.527803  1
  Ru  Ru32  1  0.000000  0.639807  0.319279  1
  Ru  Ru33  1  0.000000  0.359759  0.681542  1
  Ru  Ru34  1  0.000000  0.139795  0.179822  1
  Ru  Ru35  1  0.000000  0.860415  0.819352  1
