# generated using pymatgen
data_K4TiS4
_symmetry_space_group_name_H-M   'P 1'
_cell_length_a   7.50721865
_cell_length_b   7.67773958
_cell_length_c   11.46663986
_cell_angle_alpha   72.10259597
_cell_angle_beta   80.08103564
_cell_angle_gamma   67.33285879
_symmetry_Int_Tables_number   1
_chemical_formula_structural   K4TiS4
_chemical_formula_sum   'K8 Ti2 S8'
_cell_volume   579.26578588
_cell_formula_units_Z   2
loop_
 _symmetry_equiv_pos_site_id
 _symmetry_equiv_pos_as_xyz
  1  'x, y, z'
loop_
 _atom_site_type_symbol
 _atom_site_label
 _atom_site_symmetry_multiplicity
 _atom_site_fract_x
 _atom_site_fract_y
 _atom_site_fract_z
 _atom_site_occupancy
  K  K0  1  0.269316  0.040096  0.388400  1
  K  K1  1  0.264314  0.574085  0.164024  1
  K  K2  1  0.219115  0.492712  0.570093  1
  K  K3  1  0.243430  0.229148  0.971748  1
  K  K4  1  0.756570  0.770852  0.028252  1
  K  K5  1  0.780885  0.507288  0.429907  1
  K  K6  1  0.735686  0.425915  0.835976  1
  K  K7  1  0.730684  0.959904  0.611600  1
  Ti  Ti8  1  0.227708  0.842186  0.748530  1
  Ti  Ti9  1  0.772292  0.157814  0.251470  1
  S  S10  1  0.039310  0.153423  0.651609  1
  S  S11  1  0.038104  0.652180  0.807045  1
  S  S12  1  0.622286  0.169280  0.091630  1
  S  S13  1  0.530602  0.293177  0.383551  1
  S  S14  1  0.469398  0.706823  0.616449  1
  S  S15  1  0.377714  0.830720  0.908370  1
  S  S16  1  0.961896  0.347820  0.192955  1
  S  S17  1  0.960690  0.846577  0.348391  1
