# generated using pymatgen
data_Tm20(IrRh3)3
_symmetry_space_group_name_H-M   'P 1'
_cell_length_a   10.72945728
_cell_length_b   10.72945728
_cell_length_c   6.31117317
_cell_angle_alpha   90.01872915
_cell_angle_beta   90.01872915
_cell_angle_gamma   89.82763244
_symmetry_Int_Tables_number   1
_chemical_formula_structural   Tm20(IrRh3)3
_chemical_formula_sum   'Tm20 Ir3 Rh9'
_cell_volume   726.54680132
_cell_formula_units_Z   1
loop_
 _symmetry_equiv_pos_site_id
 _symmetry_equiv_pos_as_xyz
  1  'x, y, z'
loop_
 _atom_site_type_symbol
 _atom_site_label
 _atom_site_symmetry_multiplicity
 _atom_site_fract_x
 _atom_site_fract_y
 _atom_site_fract_z
 _atom_site_occupancy
  Tm  Tm0  1  0.291234  0.088874  0.377102  1
  Tm  Tm1  1  0.291764  0.911052  0.877172  1
  Tm  Tm2  1  0.708476  0.087438  0.877029  1
  Tm  Tm3  1  0.708434  0.910889  0.376737  1
  Tm  Tm4  1  0.586692  0.790450  0.877860  1
  Tm  Tm5  1  0.586069  0.208584  0.376841  1
  Tm  Tm6  1  0.413746  0.791223  0.377100  1
  Tm  Tm7  1  0.411454  0.208778  0.877823  1
  Tm  Tm8  1  0.209550  0.413308  0.622140  1
  Tm  Tm9  1  0.208777  0.586254  0.122900  1
  Tm  Tm10  1  0.791416  0.413931  0.123159  1
  Tm  Tm11  1  0.791222  0.588546  0.622177  1
  Tm  Tm12  1  0.911126  0.708766  0.122898  1
  Tm  Tm13  1  0.912562  0.291524  0.622971  1
  Tm  Tm14  1  0.088948  0.708236  0.622828  1
  Tm  Tm15  1  0.089111  0.291566  0.123263  1
  Tm  Tm16  1  0.999910  0.000019  0.499331  1
  Tm  Tm17  1  0.999981  0.000090  0.000669  1
  Tm  Tm18  1  0.500160  0.499851  0.999468  1
  Tm  Tm19  1  0.500149  0.499840  0.500532  1
  Ir  Ir20  1  0.654442  0.653580  0.249980  1
  Ir  Ir21  1  0.346420  0.345558  0.250020  1
  Ir  Ir22  1  0.345264  0.654736  0.750000  1
  Rh  Rh23  1  0.845737  0.154263  0.250000  1
  Rh  Rh24  1  0.846296  0.846744  0.750146  1
  Rh  Rh25  1  0.153256  0.153704  0.749854  1
  Rh  Rh26  1  0.153503  0.846497  0.250000  1
  Rh  Rh27  1  0.654910  0.345090  0.750000  1
  Rh  Rh28  1  0.500216  0.000507  0.122114  1
  Rh  Rh29  1  0.500275  0.000594  0.622614  1
  Rh  Rh30  1  0.999406  0.499725  0.877386  1
  Rh  Rh31  1  0.999493  0.499784  0.377886  1
