# generated using pymatgen
data_Er4MnV2ReB16
_symmetry_space_group_name_H-M   'P 1'
_cell_length_a   3.48325300
_cell_length_b   5.93957574
_cell_length_c   11.47609300
_cell_angle_alpha   89.91886285
_cell_angle_beta   90.00000000
_cell_angle_gamma   90.00000000
_symmetry_Int_Tables_number   1
_chemical_formula_structural   Er4MnV2ReB16
_chemical_formula_sum   'Er4 Mn1 V2 Re1 B16'
_cell_volume   237.42916688
_cell_formula_units_Z   1
loop_
 _symmetry_equiv_pos_site_id
 _symmetry_equiv_pos_as_xyz
  1  'x, y, z'
loop_
 _atom_site_type_symbol
 _atom_site_label
 _atom_site_symmetry_multiplicity
 _atom_site_fract_x
 _atom_site_fract_y
 _atom_site_fract_z
 _atom_site_occupancy
  Er  Er0  1  0.000000  0.625431  0.351922  1
  Er  Er1  1  0.000000  0.375657  0.649857  1
  Er  Er2  1  0.000000  0.126016  0.151723  1
  Er  Er3  1  0.000000  0.874731  0.847061  1
  Mn  Mn4  1  0.000000  0.875450  0.580351  1
  V  V5  1  0.000000  0.371879  0.915832  1
  V  V6  1  0.000000  0.124783  0.420032  1
  Re  Re7  1  0.000000  0.627823  0.083154  1
  B  B8  1  0.500000  0.785474  0.186643  1
  B  B9  1  0.500000  0.213812  0.812418  1
  B  B10  1  0.500000  0.284603  0.315647  1
  B  B11  1  0.500000  0.719737  0.682194  1
  B  B12  1  0.500000  0.866469  0.031904  1
  B  B13  1  0.500000  0.134146  0.966950  1
  B  B14  1  0.500000  0.365181  0.469427  1
  B  B15  1  0.500000  0.637983  0.533433  1
  B  B16  1  0.500000  0.884147  0.455410  1
  B  B17  1  0.500000  0.110301  0.548956  1
  B  B18  1  0.500000  0.384790  0.046644  1
  B  B19  1  0.500000  0.614375  0.951577  1
  B  B20  1  0.500000  0.975190  0.308940  1
  B  B21  1  0.500000  0.021266  0.690881  1
  B  B22  1  0.500000  0.474531  0.193666  1
  B  B23  1  0.500000  0.526225  0.805380  1
