# generated using pymatgen
data_YTmMg(Si3Pd10)2
_symmetry_space_group_name_H-M   'P 1'
_cell_length_a   8.67321207
_cell_length_b   8.67321215
_cell_length_c   8.67321200
_cell_angle_alpha   60.00000057
_cell_angle_beta   60.00000025
_cell_angle_gamma   59.99999828
_symmetry_Int_Tables_number   1
_chemical_formula_structural   YTmMg(Si3Pd10)2
_chemical_formula_sum   'Y1 Tm1 Mg1 Si6 Pd20'
_cell_volume   461.34402046
_cell_formula_units_Z   1
loop_
 _symmetry_equiv_pos_site_id
 _symmetry_equiv_pos_as_xyz
  1  'x, y, z'
loop_
 _atom_site_type_symbol
 _atom_site_label
 _atom_site_symmetry_multiplicity
 _atom_site_fract_x
 _atom_site_fract_y
 _atom_site_fract_z
 _atom_site_occupancy
  Y  Y0  1  0.250000  0.250000  0.250000  1
  Tm  Tm1  1  0.750000  0.750000  0.750000  1
  Mg  Mg2  1  0.000000  0.000000  0.000000  1
  Si  Si3  1  0.732720  0.267280  0.267280  1
  Si  Si4  1  0.267280  0.732720  0.732720  1
  Si  Si5  1  0.267280  0.732720  0.267280  1
  Si  Si6  1  0.732720  0.267280  0.732720  1
  Si  Si7  1  0.267280  0.267280  0.732720  1
  Si  Si8  1  0.732720  0.732720  0.267280  1
  Pd  Pd9  1  0.383524  0.383524  0.383524  1
  Pd  Pd10  1  0.617077  0.617077  0.617077  1
  Pd  Pd11  1  0.383524  0.383524  0.849432  1
  Pd  Pd12  1  0.383524  0.849432  0.383524  1
  Pd  Pd13  1  0.617077  0.617077  0.148767  1
  Pd  Pd14  1  0.617077  0.148767  0.617077  1
  Pd  Pd15  1  0.849432  0.383524  0.383524  1
  Pd  Pd16  1  0.148767  0.617077  0.617077  1
  Pd  Pd17  1  0.343273  0.000125  0.000125  1
  Pd  Pd18  1  0.656476  0.000125  0.000125  1
  Pd  Pd19  1  0.000125  0.343273  0.656476  1
  Pd  Pd20  1  0.000125  0.656476  0.343273  1
  Pd  Pd21  1  0.000125  0.343273  0.000125  1
  Pd  Pd22  1  0.656476  0.000125  0.343273  1
  Pd  Pd23  1  0.000125  0.656476  0.000125  1
  Pd  Pd24  1  0.343273  0.000125  0.656476  1
  Pd  Pd25  1  0.000125  0.000125  0.343273  1
  Pd  Pd26  1  0.000125  0.000125  0.656476  1
  Pd  Pd27  1  0.656476  0.343273  0.000125  1
  Pd  Pd28  1  0.343273  0.656476  0.000125  1
