# generated using pymatgen
data_Fe2Sb12PtRh
_symmetry_space_group_name_H-M   'P 1'
_cell_length_a   8.04383750
_cell_length_b   8.04352297
_cell_length_c   9.28333025
_cell_angle_alpha   54.74276821
_cell_angle_beta   54.72612599
_cell_angle_gamma   70.49284634
_symmetry_Int_Tables_number   1
_chemical_formula_structural   Fe2Sb12PtRh
_chemical_formula_sum   'Fe2 Sb12 Pt1 Rh1'
_cell_volume   400.41422103
_cell_formula_units_Z   1
loop_
 _symmetry_equiv_pos_site_id
 _symmetry_equiv_pos_as_xyz
  1  'x, y, z'
loop_
 _atom_site_type_symbol
 _atom_site_label
 _atom_site_symmetry_multiplicity
 _atom_site_fract_x
 _atom_site_fract_y
 _atom_site_fract_z
 _atom_site_occupancy
  Fe  Fe0  1  0.000000  0.500000  0.000000  1
  Fe  Fe1  1  0.500000  0.000000  0.000000  1
  Sb  Sb2  1  0.670703  0.670848  0.168874  1
  Sb  Sb3  1  0.329297  0.329152  0.831126  1
  Sb  Sb4  1  0.657455  0.650937  0.498308  1
  Sb  Sb5  1  0.342545  0.349063  0.501692  1
  Sb  Sb6  1  0.854246  0.165791  0.328670  1
  Sb  Sb7  1  0.145754  0.834209  0.671330  1
  Sb  Sb8  1  0.164463  0.849080  0.328508  1
  Sb  Sb9  1  0.835537  0.150920  0.671492  1
  Sb  Sb10  1  0.493902  0.817245  0.854063  1
  Sb  Sb11  1  0.506098  0.182755  0.145937  1
  Sb  Sb12  1  0.177485  0.507480  0.151283  1
  Sb  Sb13  1  0.822515  0.492520  0.848717  1
  Pt  Pt14  1  0.500000  0.000000  0.500000  1
  Rh  Rh15  1  0.000000  0.500000  0.500000  1
