# generated using pymatgen
data_KNb2Br11
_symmetry_space_group_name_H-M   'P 1'
_cell_length_a   7.50154874
_cell_length_b   7.56073072
_cell_length_c   18.79209549
_cell_angle_alpha   79.06807785
_cell_angle_beta   78.84326674
_cell_angle_gamma   87.51558481
_symmetry_Int_Tables_number   1
_chemical_formula_structural   KNb2Br11
_chemical_formula_sum   'K2 Nb4 Br22'
_cell_volume   1026.69177692
_cell_formula_units_Z   2
loop_
 _symmetry_equiv_pos_site_id
 _symmetry_equiv_pos_as_xyz
  1  'x, y, z'
loop_
 _atom_site_type_symbol
 _atom_site_label
 _atom_site_symmetry_multiplicity
 _atom_site_fract_x
 _atom_site_fract_y
 _atom_site_fract_z
 _atom_site_occupancy
  K  K0  1  0.746956  0.747459  0.503481  1
  K  K1  1  0.253044  0.252541  0.496519  1
  Nb  Nb2  1  0.325236  0.822870  0.337721  1
  Nb  Nb3  1  0.674764  0.177130  0.662279  1
  Nb  Nb4  1  0.827745  0.326453  0.088561  1
  Nb  Nb5  1  0.172255  0.673547  0.911439  1
  Br  Br6  1  0.252912  0.772491  0.487431  1
  Br  Br7  1  0.747088  0.227509  0.512569  1
  Br  Br8  1  0.577190  0.028003  0.346011  1
  Br  Br9  1  0.422810  0.971997  0.653989  1
  Br  Br10  1  0.543016  0.554438  0.352456  1
  Br  Br11  1  0.456984  0.445562  0.647544  1
  Br  Br12  1  0.386580  0.860699  0.202645  1
  Br  Br13  1  0.613420  0.139301  0.797355  1
  Br  Br14  1  0.062955  0.604635  0.353886  1
  Br  Br15  1  0.937045  0.395365  0.646114  1
  Br  Br16  1  0.102932  0.084542  0.339958  1
  Br  Br17  1  0.897068  0.915458  0.660042  1
  Br  Br18  1  0.898299  0.024038  0.149979  1
  Br  Br19  1  0.101701  0.975962  0.850021  1
  Br  Br20  1  0.519510  0.377025  0.152784  1
  Br  Br21  1  0.480490  0.622975  0.847216  1
  Br  Br22  1  0.718720  0.214571  0.987598  1
  Br  Br23  1  0.281280  0.785429  0.012402  1
  Br  Br24  1  0.971257  0.477608  0.170581  1
  Br  Br25  1  0.028743  0.522392  0.829419  1
  Br  Br26  1  0.170177  0.337405  0.999494  1
  Br  Br27  1  0.829823  0.662595  0.000506  1
