# generated using pymatgen
data_Ho4Cu3Ni
_symmetry_space_group_name_H-M   'P 1'
_cell_length_a   4.41726200
_cell_length_b   5.33443637
_cell_length_c   7.03339300
_cell_angle_alpha   89.91244198
_cell_angle_beta   90.00000000
_cell_angle_gamma   90.00000000
_symmetry_Int_Tables_number   1
_chemical_formula_structural   Ho4Cu3Ni
_chemical_formula_sum   'Ho4 Cu3 Ni1'
_cell_volume   165.73188749
_cell_formula_units_Z   1
loop_
 _symmetry_equiv_pos_site_id
 _symmetry_equiv_pos_as_xyz
  1  'x, y, z'
loop_
 _atom_site_type_symbol
 _atom_site_label
 _atom_site_symmetry_multiplicity
 _atom_site_fract_x
 _atom_site_fract_y
 _atom_site_fract_z
 _atom_site_occupancy
  Ho  Ho0  1  0.000000  0.634091  0.322995  1
  Ho  Ho1  1  0.000000  0.869475  0.813249  1
  Ho  Ho2  1  0.500000  0.358725  0.675226  1
  Ho  Ho3  1  0.500000  0.137371  0.190166  1
  Cu  Cu4  1  0.000000  0.376618  0.966520  1
  Cu  Cu5  1  0.500000  0.867985  0.534853  1
  Cu  Cu6  1  0.500000  0.627868  0.030532  1
  Ni  Ni7  1  0.000000  0.127867  0.466459  1
