# generated using pymatgen
data_Sr8TiMo3O16
_symmetry_space_group_name_H-M   'P 1'
_cell_length_a   5.71511418
_cell_length_b   5.71511455
_cell_length_c   12.69129870
_cell_angle_alpha   89.98512092
_cell_angle_beta   90.01487550
_cell_angle_gamma   89.37086659
_symmetry_Int_Tables_number   1
_chemical_formula_structural   Sr8TiMo3O16
_chemical_formula_sum   'Sr8 Ti1 Mo3 O16'
_cell_volume   414.50493495
_cell_formula_units_Z   1
loop_
 _symmetry_equiv_pos_site_id
 _symmetry_equiv_pos_as_xyz
  1  'x, y, z'
loop_
 _atom_site_type_symbol
 _atom_site_label
 _atom_site_symmetry_multiplicity
 _atom_site_fract_x
 _atom_site_fract_y
 _atom_site_fract_z
 _atom_site_occupancy
  Sr  Sr0  1  0.260346  0.758183  0.106321  1
  Sr  Sr1  1  0.261433  0.238567  0.600147  1
  Sr  Sr2  1  0.739285  0.760715  0.598191  1
  Sr  Sr3  1  0.741817  0.239654  0.106321  1
  Sr  Sr4  1  0.758183  0.260346  0.393679  1
  Sr  Sr5  1  0.760715  0.739285  0.901809  1
  Sr  Sr6  1  0.238567  0.261433  0.899853  1
  Sr  Sr7  1  0.239654  0.741817  0.393679  1
  Ti  Ti8  1  0.750000  0.750000  0.250000  1
  Mo  Mo9  1  0.250000  0.750000  0.750000  1
  Mo  Mo10  1  0.250000  0.250000  0.250000  1
  Mo  Mo11  1  0.750000  0.250000  0.750000  1
  O  O12  1  0.280050  0.219950  0.089290  1
  O  O13  1  0.284084  0.784259  0.585126  1
  O  O14  1  0.500235  0.999765  0.779899  1
  O  O15  1  0.502398  0.997602  0.267623  1
  O  O16  1  0.499553  0.499553  0.750000  1
  O  O17  1  0.508876  0.508876  0.250000  1
  O  O18  1  0.715741  0.215916  0.585126  1
  O  O19  1  0.719710  0.780290  0.093205  1
  O  O20  1  0.784259  0.284084  0.914874  1
  O  O21  1  0.780290  0.719710  0.406795  1
  O  O22  1  0.991124  0.991124  0.250000  1
  O  O23  1  0.997602  0.502398  0.232377  1
  O  O24  1  0.000447  0.000447  0.750000  1
  O  O25  1  0.999765  0.500235  0.720101  1
  O  O26  1  0.215916  0.715741  0.914874  1
  O  O27  1  0.219950  0.280050  0.410710  1
