# generated using pymatgen
data_Lu4Sc16GaBi11
_symmetry_space_group_name_H-M   'P 1'
_cell_length_a   7.80076761
_cell_length_b   9.02567900
_cell_length_c   11.43924703
_cell_angle_alpha   90.00000000
_cell_angle_beta   89.68504487
_cell_angle_gamma   90.00000000
_symmetry_Int_Tables_number   1
_chemical_formula_structural   Lu4Sc16GaBi11
_chemical_formula_sum   'Lu4 Sc16 Ga1 Bi11'
_cell_volume   805.39346457
_cell_formula_units_Z   1
loop_
 _symmetry_equiv_pos_site_id
 _symmetry_equiv_pos_as_xyz
  1  'x, y, z'
loop_
 _atom_site_type_symbol
 _atom_site_label
 _atom_site_symmetry_multiplicity
 _atom_site_fract_x
 _atom_site_fract_y
 _atom_site_fract_z
 _atom_site_occupancy
  Lu  Lu0  1  0.195041  0.250000  0.775120  1
  Lu  Lu1  1  0.810423  0.750000  0.218035  1
  Lu  Lu2  1  0.312924  0.750000  0.281890  1
  Lu  Lu3  1  0.673378  0.250000  0.709378  1
  Sc  Sc4  1  0.032260  0.250000  0.510263  1
  Sc  Sc5  1  0.984412  0.750000  0.490615  1
  Sc  Sc6  1  0.481237  0.750000  0.011426  1
  Sc  Sc7  1  0.521293  0.250000  0.988802  1
  Sc  Sc8  1  0.350838  0.250000  0.293345  1
  Sc  Sc9  1  0.656190  0.750000  0.719442  1
  Sc  Sc10  1  0.150743  0.750000  0.779865  1
  Sc  Sc11  1  0.848014  0.250000  0.217229  1
  Sc  Sc12  1  0.193907  0.068118  0.061452  1
  Sc  Sc13  1  0.806705  0.932575  0.940453  1
  Sc  Sc14  1  0.308413  0.948495  0.558895  1
  Sc  Sc15  1  0.806705  0.567425  0.940453  1
  Sc  Sc16  1  0.683783  0.074778  0.444063  1
  Sc  Sc17  1  0.193907  0.431882  0.061452  1
  Sc  Sc18  1  0.683783  0.425222  0.444063  1
  Sc  Sc19  1  0.308413  0.551505  0.558895  1
  Ga  Ga20  1  0.403289  0.250000  0.534788  1
  Bi  Bi21  1  0.596105  0.750000  0.464775  1
  Bi  Bi22  1  0.098066  0.750000  0.036462  1
  Bi  Bi23  1  0.905725  0.250000  0.959218  1
  Bi  Bi24  1  0.059473  0.007591  0.325897  1
  Bi  Bi25  1  0.938072  0.994132  0.673587  1
  Bi  Bi26  1  0.438712  0.990994  0.826167  1
  Bi  Bi27  1  0.938072  0.505868  0.673587  1
  Bi  Bi28  1  0.560967  0.009294  0.174159  1
  Bi  Bi29  1  0.059473  0.492409  0.325897  1
  Bi  Bi30  1  0.560967  0.490706  0.174159  1
  Bi  Bi31  1  0.438712  0.509006  0.826167  1
