# generated using pymatgen
data_Ce2YPa3(Al3Os)8
_symmetry_space_group_name_H-M   'P 1'
_cell_length_a   8.89067644
_cell_length_b   8.89067635
_cell_length_c   9.47710000
_cell_angle_alpha   90.00000000
_cell_angle_beta   90.00000000
_cell_angle_gamma   119.99402469
_symmetry_Int_Tables_number   1
_chemical_formula_structural   Ce2YPa3(Al3Os)8
_chemical_formula_sum   'Ce2 Y1 Pa3 Al24 Os8'
_cell_volume   648.78656352
_cell_formula_units_Z   1
loop_
 _symmetry_equiv_pos_site_id
 _symmetry_equiv_pos_as_xyz
  1  'x, y, z'
loop_
 _atom_site_type_symbol
 _atom_site_label
 _atom_site_symmetry_multiplicity
 _atom_site_fract_x
 _atom_site_fract_y
 _atom_site_fract_z
 _atom_site_occupancy
  Ce  Ce0  1  0.803734  0.613448  0.750000  1
  Ce  Ce1  1  0.386552  0.196266  0.750000  1
  Y  Y2  1  0.807049  0.192951  0.750000  1
  Pa  Pa3  1  0.196519  0.395313  0.250000  1
  Pa  Pa4  1  0.604687  0.803481  0.250000  1
  Pa  Pa5  1  0.198579  0.801421  0.250000  1
  Al  Al6  1  0.334208  0.665792  0.014554  1
  Al  Al7  1  0.668530  0.331470  0.983112  1
  Al  Al8  1  0.668530  0.331470  0.516888  1
  Al  Al9  1  0.334208  0.665792  0.485446  1
  Al  Al10  1  0.161527  0.325201  0.577253  1
  Al  Al11  1  0.837531  0.675330  0.421629  1
  Al  Al12  1  0.674799  0.838473  0.577253  1
  Al  Al13  1  0.837531  0.675330  0.078371  1
  Al  Al14  1  0.324670  0.162469  0.421629  1
  Al  Al15  1  0.161527  0.325201  0.922747  1
  Al  Al16  1  0.162591  0.837409  0.579252  1
  Al  Al17  1  0.324670  0.162469  0.078371  1
  Al  Al18  1  0.837696  0.162304  0.421878  1
  Al  Al19  1  0.674799  0.838473  0.922747  1
  Al  Al20  1  0.837696  0.162304  0.078122  1
  Al  Al21  1  0.162591  0.837409  0.920748  1
  Al  Al22  1  0.564009  0.127983  0.250000  1
  Al  Al23  1  0.440524  0.880158  0.750000  1
  Al  Al24  1  0.872017  0.435991  0.250000  1
  Al  Al25  1  0.119842  0.559476  0.750000  1
  Al  Al26  1  0.562714  0.437286  0.250000  1
  Al  Al27  1  0.437269  0.562731  0.750000  1
  Al  Al28  1  0.999966  0.000034  0.250000  1
  Al  Al29  1  0.000058  0.999942  0.750000  1
  Os  Os30  1  0.497720  0.995150  0.007143  1
  Os  Os31  1  0.004850  0.502280  0.007143  1
  Os  Os32  1  0.497720  0.995150  0.492857  1
  Os  Os33  1  0.499519  0.500481  0.003439  1
  Os  Os34  1  0.004850  0.502280  0.492857  1
  Os  Os35  1  0.499519  0.500481  0.496561  1
  Os  Os36  1  0.999597  0.000403  0.999587  1
  Os  Os37  1  0.999597  0.000403  0.500413  1
