# generated using pymatgen
data_Dy18Ho2Si15Rh
_symmetry_space_group_name_H-M   'P 1'
_cell_length_a   7.44305448
_cell_length_b   7.68083342
_cell_length_c   14.58143118
_cell_angle_alpha   89.67475502
_cell_angle_beta   89.65419121
_cell_angle_gamma   90.20301070
_symmetry_Int_Tables_number   1
_chemical_formula_structural   Dy18Ho2Si15Rh
_chemical_formula_sum   'Dy18 Ho2 Si15 Rh1'
_cell_volume   833.56987275
_cell_formula_units_Z   1
loop_
 _symmetry_equiv_pos_site_id
 _symmetry_equiv_pos_as_xyz
  1  'x, y, z'
loop_
 _atom_site_type_symbol
 _atom_site_label
 _atom_site_symmetry_multiplicity
 _atom_site_fract_x
 _atom_site_fract_y
 _atom_site_fract_z
 _atom_site_occupancy
  Dy  Dy0  1  0.649199  0.992676  0.248939  1
  Dy  Dy1  1  0.148319  0.510496  0.247491  1
  Dy  Dy2  1  0.846811  0.488049  0.758015  1
  Dy  Dy3  1  0.351686  0.010382  0.752234  1
  Dy  Dy4  1  0.974836  0.816710  0.097538  1
  Dy  Dy5  1  0.471756  0.682424  0.401603  1
  Dy  Dy6  1  0.527358  0.321827  0.900747  1
  Dy  Dy7  1  0.028916  0.184293  0.599718  1
  Dy  Dy8  1  0.027675  0.184307  0.901793  1
  Dy  Dy9  1  0.529129  0.318140  0.598882  1
  Dy  Dy10  1  0.474597  0.682066  0.099245  1
  Dy  Dy11  1  0.970324  0.817319  0.400683  1
  Dy  Dy12  1  0.682978  0.811972  0.882146  1
  Dy  Dy13  1  0.178359  0.681641  0.621964  1
  Dy  Dy14  1  0.818115  0.333704  0.117924  1
  Dy  Dy15  1  0.316196  0.177968  0.376343  1
  Dy  Dy16  1  0.322051  0.179371  0.123340  1
  Dy  Dy17  1  0.819632  0.319158  0.377598  1
  Ho  Ho18  1  0.175914  0.675608  0.878077  1
  Ho  Ho19  1  0.682845  0.819042  0.622802  1
  Si  Si20  1  0.765225  0.628905  0.251726  1
  Si  Si21  1  0.265850  0.872487  0.250755  1
  Si  Si22  1  0.732347  0.123381  0.748522  1
  Si  Si23  1  0.234800  0.373267  0.746612  1
  Si  Si24  1  0.020897  0.106928  0.248774  1
  Si  Si25  1  0.523842  0.396722  0.251702  1
  Si  Si26  1  0.471616  0.606623  0.746926  1
  Si  Si27  1  0.976159  0.896733  0.748458  1
  Si  Si28  1  0.354887  0.971562  0.540099  1
  Si  Si29  1  0.647419  0.027657  0.041485  1
  Si  Si30  1  0.147696  0.470694  0.460165  1
  Si  Si31  1  0.156531  0.472063  0.040472  1
  Si  Si32  1  0.644072  0.028143  0.459888  1
  Si  Si33  1  0.351965  0.968208  0.961421  1
  Si  Si34  1  0.853624  0.529347  0.538806  1
  Rh  Rh35  1  0.856371  0.520128  0.957108  1
