# generated using pymatgen
data_NdEu3(AlIr)4
_symmetry_space_group_name_H-M   'P 1'
_cell_length_a   4.23933000
_cell_length_b   7.30084915
_cell_length_c   8.12294959
_cell_angle_alpha   90.26447442
_cell_angle_beta   90.00000000
_cell_angle_gamma   90.00000000
_symmetry_Int_Tables_number   1
_chemical_formula_structural   NdEu3(AlIr)4
_chemical_formula_sum   'Nd1 Eu3 Al4 Ir4'
_cell_volume   251.40836890
_cell_formula_units_Z   1
loop_
 _symmetry_equiv_pos_site_id
 _symmetry_equiv_pos_as_xyz
  1  'x, y, z'
loop_
 _atom_site_type_symbol
 _atom_site_label
 _atom_site_symmetry_multiplicity
 _atom_site_fract_x
 _atom_site_fract_y
 _atom_site_fract_z
 _atom_site_occupancy
  Nd  Nd0  1  0.250000  0.528442  0.819783  1
  Eu  Eu1  1  0.750000  0.473155  0.181241  1
  Eu  Eu2  1  0.250000  0.025858  0.678919  1
  Eu  Eu3  1  0.750000  0.974534  0.320393  1
  Al  Al4  1  0.750000  0.860706  0.937434  1
  Al  Al5  1  0.250000  0.640302  0.436595  1
  Al  Al6  1  0.750000  0.356968  0.562641  1
  Al  Al7  1  0.250000  0.141332  0.062776  1
  Ir  Ir8  1  0.750000  0.711571  0.616035  1
  Ir  Ir9  1  0.750000  0.216238  0.885245  1
  Ir  Ir10  1  0.250000  0.286273  0.386887  1
  Ir  Ir11  1  0.250000  0.784621  0.112051  1
