# generated using pymatgen
data_Dy8Er11ScSi15Pt
_symmetry_space_group_name_H-M   'P 1'
_cell_length_a   7.30422111
_cell_length_b   7.70044715
_cell_length_c   14.49096700
_cell_angle_alpha   90.00000000
_cell_angle_beta   90.00000000
_cell_angle_gamma   90.12705265
_symmetry_Int_Tables_number   1
_chemical_formula_structural   Dy8Er11ScSi15Pt
_chemical_formula_sum   'Dy8 Er11 Sc1 Si15 Pt1'
_cell_volume   815.05357341
_cell_formula_units_Z   1
loop_
 _symmetry_equiv_pos_site_id
 _symmetry_equiv_pos_as_xyz
  1  'x, y, z'
loop_
 _atom_site_type_symbol
 _atom_site_label
 _atom_site_symmetry_multiplicity
 _atom_site_fract_x
 _atom_site_fract_y
 _atom_site_fract_z
 _atom_site_occupancy
  Dy  Dy0  1  0.022179  0.182334  0.098159  1
  Dy  Dy1  1  0.980593  0.818938  0.907002  1
  Dy  Dy2  1  0.479705  0.680305  0.906493  1
  Dy  Dy3  1  0.980593  0.818938  0.592998  1
  Dy  Dy4  1  0.519748  0.317527  0.098259  1
  Dy  Dy5  1  0.022179  0.182334  0.401841  1
  Dy  Dy6  1  0.519748  0.317527  0.401741  1
  Dy  Dy7  1  0.479705  0.680305  0.593507  1
  Er  Er8  1  0.149923  0.514384  0.750000  1
  Er  Er9  1  0.847399  0.488958  0.250000  1
  Er  Er10  1  0.659343  0.989136  0.750000  1
  Er  Er11  1  0.315228  0.174801  0.623486  1
  Er  Er12  1  0.678834  0.825889  0.373455  1
  Er  Er13  1  0.180141  0.680780  0.374547  1
  Er  Er14  1  0.678834  0.825889  0.126545  1
  Er  Er15  1  0.824478  0.319821  0.623609  1
  Er  Er16  1  0.315228  0.174801  0.876514  1
  Er  Er17  1  0.824478  0.319821  0.876391  1
  Er  Er18  1  0.180141  0.680780  0.125453  1
  Sc  Sc19  1  0.346412  0.014972  0.250000  1
  Si  Si20  1  0.982660  0.900643  0.250000  1
  Si  Si21  1  0.476981  0.603536  0.250000  1
  Si  Si22  1  0.523647  0.395156  0.750000  1
  Si  Si23  1  0.276008  0.867086  0.750000  1
  Si  Si24  1  0.720525  0.131669  0.250000  1
  Si  Si25  1  0.227011  0.364300  0.250000  1
  Si  Si26  1  0.764706  0.623643  0.750000  1
  Si  Si27  1  0.152760  0.471606  0.537342  1
  Si  Si28  1  0.847175  0.532033  0.460316  1
  Si  Si29  1  0.350201  0.971415  0.458126  1
  Si  Si30  1  0.847175  0.532033  0.039684  1
  Si  Si31  1  0.650861  0.029208  0.538061  1
  Si  Si32  1  0.152760  0.471606  0.962658  1
  Si  Si33  1  0.650861  0.029208  0.961939  1
  Si  Si34  1  0.350201  0.971415  0.041874  1
  Pt  Pt35  1  0.021579  0.097200  0.750000  1
