# generated using pymatgen
data_K4Al3Ga5Au12
_symmetry_space_group_name_H-M   'P 1'
_cell_length_a   5.64024479
_cell_length_b   7.12065687
_cell_length_c   13.48823754
_cell_angle_alpha   89.85419957
_cell_angle_beta   90.14792784
_cell_angle_gamma   90.00907876
_symmetry_Int_Tables_number   1
_chemical_formula_structural   K4Al3Ga5Au12
_chemical_formula_sum   'K4 Al3 Ga5 Au12'
_cell_volume   541.71437224
_cell_formula_units_Z   1
loop_
 _symmetry_equiv_pos_site_id
 _symmetry_equiv_pos_as_xyz
  1  'x, y, z'
loop_
 _atom_site_type_symbol
 _atom_site_label
 _atom_site_symmetry_multiplicity
 _atom_site_fract_x
 _atom_site_fract_y
 _atom_site_fract_z
 _atom_site_occupancy
  K  K0  1  0.247007  0.109567  0.077318  1
  K  K1  1  0.251171  0.391679  0.577929  1
  K  K2  1  0.749257  0.890387  0.922101  1
  K  K3  1  0.751952  0.608695  0.422545  1
  Al  Al4  1  0.999043  0.900370  0.655583  1
  Al  Al5  1  0.501955  0.600263  0.156842  1
  Al  Al6  1  0.498923  0.099454  0.343840  1
  Ga  Ga7  1  0.001047  0.395157  0.846322  1
  Ga  Ga8  1  0.001606  0.104431  0.344756  1
  Ga  Ga9  1  0.498563  0.396647  0.844499  1
  Ga  Ga10  1  0.502213  0.894979  0.654218  1
  Ga  Ga11  1  0.997984  0.605453  0.154988  1
  Au  Au12  1  0.247848  0.105655  0.789204  1
  Au  Au13  1  0.257411  0.390847  0.289838  1
  Au  Au14  1  0.743294  0.890835  0.210118  1
  Au  Au15  1  0.756530  0.609268  0.708073  1
  Au  Au16  1  0.245929  0.702367  0.790788  1
  Au  Au17  1  0.256399  0.799106  0.290384  1
  Au  Au18  1  0.743930  0.298375  0.210440  1
  Au  Au19  1  0.752942  0.201146  0.707263  1
  Au  Au20  1  0.258913  0.588637  0.996020  1
  Au  Au21  1  0.243187  0.915498  0.494381  1
  Au  Au22  1  0.749011  0.415078  0.007927  1
  Au  Au23  1  0.743884  0.086106  0.504622  1
