# generated using pymatgen
data_Y4CBr6
_symmetry_space_group_name_H-M   'P 1'
_cell_length_a   3.89132100
_cell_length_b   13.10565400
_cell_length_c   13.56395800
_cell_angle_alpha   90.00000000
_cell_angle_beta   90.00000000
_cell_angle_gamma   90.00000000
_symmetry_Int_Tables_number   1
_chemical_formula_structural   Y4CBr6
_chemical_formula_sum   'Y8 C2 Br12'
_cell_volume   691.73888919
_cell_formula_units_Z   2
loop_
 _symmetry_equiv_pos_site_id
 _symmetry_equiv_pos_as_xyz
  1  'x, y, z'
loop_
 _atom_site_type_symbol
 _atom_site_label
 _atom_site_symmetry_multiplicity
 _atom_site_fract_x
 _atom_site_fract_y
 _atom_site_fract_z
 _atom_site_occupancy
  Y  Y0  1  0.000000  0.099015  0.078771  1
  Y  Y1  1  0.000000  0.900985  0.921229  1
  Y  Y2  1  0.000000  0.599015  0.421229  1
  Y  Y3  1  0.000000  0.400985  0.578771  1
  Y  Y4  1  0.500000  0.119960  0.859209  1
  Y  Y5  1  0.500000  0.880040  0.140791  1
  Y  Y6  1  0.500000  0.619960  0.640791  1
  Y  Y7  1  0.500000  0.380040  0.359209  1
  C  C8  1  0.500000  0.000000  0.000000  1
  C  C9  1  0.500000  0.500000  0.500000  1
  Br  Br10  1  0.500000  0.269060  0.681771  1
  Br  Br11  1  0.500000  0.730940  0.318229  1
  Br  Br12  1  0.500000  0.769060  0.818229  1
  Br  Br13  1  0.500000  0.230940  0.181771  1
  Br  Br14  1  0.000000  0.260767  0.932957  1
  Br  Br15  1  0.000000  0.739233  0.067043  1
  Br  Br16  1  0.000000  0.481781  0.239888  1
  Br  Br17  1  0.000000  0.518219  0.760112  1
  Br  Br18  1  0.000000  0.981781  0.260112  1
  Br  Br19  1  0.000000  0.018219  0.739888  1
  Br  Br20  1  0.000000  0.239233  0.432957  1
  Br  Br21  1  0.000000  0.760767  0.567043  1
