# generated using pymatgen
data_Ho6Er4SnSb5
_symmetry_space_group_name_H-M   'P 1'
_cell_length_a   8.92612700
_cell_length_b   8.91968625
_cell_length_c   6.29481800
_cell_angle_alpha   90.00000000
_cell_angle_beta   90.00000000
_cell_angle_gamma   120.02388545
_symmetry_Int_Tables_number   1
_chemical_formula_structural   Ho6Er4SnSb5
_chemical_formula_sum   'Ho6 Er4 Sn1 Sb5'
_cell_volume   433.93219290
_cell_formula_units_Z   1
loop_
 _symmetry_equiv_pos_site_id
 _symmetry_equiv_pos_as_xyz
  1  'x, y, z'
loop_
 _atom_site_type_symbol
 _atom_site_label
 _atom_site_symmetry_multiplicity
 _atom_site_fract_x
 _atom_site_fract_y
 _atom_site_fract_z
 _atom_site_occupancy
  Ho  Ho0  1  0.001523  0.755580  0.750000  1
  Ho  Ho1  1  0.997976  0.243219  0.250000  1
  Ho  Ho2  1  0.754757  0.756781  0.250000  1
  Ho  Ho3  1  0.756380  0.000000  0.750000  1
  Ho  Ho4  1  0.245944  0.244420  0.750000  1
  Ho  Ho5  1  0.244724  0.000000  0.250000  1
  Er  Er6  1  0.333965  0.667533  0.499872  1
  Er  Er7  1  0.666432  0.332467  0.000128  1
  Er  Er8  1  0.666432  0.332467  0.499872  1
  Er  Er9  1  0.333965  0.667533  0.000128  1
  Sn  Sn10  1  0.606021  0.000000  0.250000  1
  Sb  Sb11  1  0.391613  0.000000  0.750000  1
  Sb  Sb12  1  0.389339  0.390198  0.250000  1
  Sb  Sb13  1  0.999141  0.609802  0.250000  1
  Sb  Sb14  1  0.000991  0.390195  0.750000  1
  Sb  Sb15  1  0.610796  0.609805  0.750000  1
