# generated using pymatgen
data_PuPS4
_symmetry_space_group_name_H-M   'P 1'
_cell_length_a   6.62617700
_cell_length_b   8.81461849
_cell_length_c   12.88466386
_cell_angle_alpha   58.80552833
_cell_angle_beta   90.00000000
_cell_angle_gamma   90.00000000
_symmetry_Int_Tables_number   1
_chemical_formula_structural   PuPS4
_chemical_formula_sum   'Pu4 P4 S16'
_cell_volume   643.74833861
_cell_formula_units_Z   4
loop_
 _symmetry_equiv_pos_site_id
 _symmetry_equiv_pos_as_xyz
  1  'x, y, z'
loop_
 _atom_site_type_symbol
 _atom_site_label
 _atom_site_symmetry_multiplicity
 _atom_site_fract_x
 _atom_site_fract_y
 _atom_site_fract_z
 _atom_site_occupancy
  Pu  Pu0  1  0.325723  0.555759  0.836243  1
  Pu  Pu1  1  0.825723  0.444241  0.663757  1
  Pu  Pu2  1  0.674277  0.444241  0.163757  1
  Pu  Pu3  1  0.174277  0.555759  0.336242  1
  P  P4  1  0.225927  0.693312  0.037731  1
  P  P5  1  0.725927  0.306688  0.462269  1
  P  P6  1  0.774073  0.306688  0.962269  1
  P  P7  1  0.274073  0.693312  0.537731  1
  S  S8  1  0.239955  0.428833  0.588794  1
  S  S9  1  0.739955  0.571167  0.911206  1
  S  S10  1  0.760045  0.571167  0.411206  1
  S  S11  1  0.260045  0.428833  0.088794  1
  S  S12  1  0.258482  0.849471  0.355687  1
  S  S13  1  0.758482  0.150529  0.144313  1
  S  S14  1  0.741518  0.150529  0.644313  1
  S  S15  1  0.241518  0.849471  0.855687  1
  S  S16  1  0.538992  0.724200  0.609970  1
  S  S17  1  0.038992  0.275800  0.890030  1
  S  S18  1  0.461008  0.275800  0.390030  1
  S  S19  1  0.961008  0.724200  0.109970  1
  S  S20  1  0.054468  0.743411  0.629953  1
  S  S21  1  0.554468  0.256589  0.870047  1
  S  S22  1  0.945532  0.256589  0.370047  1
  S  S23  1  0.445532  0.743411  0.129953  1
