# generated using pymatgen
data_CeSmBrN2
_symmetry_space_group_name_H-M   'P 1'
_cell_length_a   3.96105400
_cell_length_b   3.96105193
_cell_length_c   7.48061600
_cell_angle_alpha   90.00000000
_cell_angle_beta   90.00000000
_cell_angle_gamma   120.00001728
_symmetry_Int_Tables_number   1
_chemical_formula_structural   CeSmBrN2
_chemical_formula_sum   'Ce1 Sm1 Br1 N2'
_cell_volume   101.64574822
_cell_formula_units_Z   1
loop_
 _symmetry_equiv_pos_site_id
 _symmetry_equiv_pos_as_xyz
  1  'x, y, z'
loop_
 _atom_site_type_symbol
 _atom_site_label
 _atom_site_symmetry_multiplicity
 _atom_site_fract_x
 _atom_site_fract_y
 _atom_site_fract_z
 _atom_site_occupancy
  Ce  Ce0  1  0.333333  0.666667  0.325182  1
  Sm  Sm1  1  0.666667  0.333333  0.689766  1
  Br  Br2  1  0.000000  0.000000  0.000396  1
  N  N3  1  0.666667  0.333333  0.368512  1
  N  N4  1  0.333333  0.666667  0.616144  1
