# generated using pymatgen
data_Nd4AsIO8
_symmetry_space_group_name_H-M   'P 1'
_cell_length_a   8.35836800
_cell_length_b   8.35836800
_cell_length_c   13.27452300
_cell_angle_alpha   90.00000000
_cell_angle_beta   90.00000000
_cell_angle_gamma   90.00000000
_symmetry_Int_Tables_number   1
_chemical_formula_structural   Nd4AsIO8
_chemical_formula_sum   'Nd16 As4 I4 O32'
_cell_volume   927.38891558
_cell_formula_units_Z   4
loop_
 _symmetry_equiv_pos_site_id
 _symmetry_equiv_pos_as_xyz
  1  'x, y, z'
loop_
 _atom_site_type_symbol
 _atom_site_label
 _atom_site_symmetry_multiplicity
 _atom_site_fract_x
 _atom_site_fract_y
 _atom_site_fract_z
 _atom_site_occupancy
  Nd  Nd0  1  0.012191  0.243615  0.168384  1
  Nd  Nd1  1  0.987809  0.756385  0.168384  1
  Nd  Nd2  1  0.484073  0.243426  0.170122  1
  Nd  Nd3  1  0.515927  0.756573  0.170122  1
  Nd  Nd4  1  0.756573  0.484073  0.329878  1
  Nd  Nd5  1  0.243426  0.515927  0.329878  1
  Nd  Nd6  1  0.756385  0.012191  0.331616  1
  Nd  Nd7  1  0.243615  0.987809  0.331616  1
  Nd  Nd8  1  0.756385  0.012191  0.668384  1
  Nd  Nd9  1  0.243615  0.987809  0.668384  1
  Nd  Nd10  1  0.756573  0.484073  0.670121  1
  Nd  Nd11  1  0.243426  0.515927  0.670121  1
  Nd  Nd12  1  0.484073  0.243426  0.829878  1
  Nd  Nd13  1  0.515927  0.756573  0.829878  1
  Nd  Nd14  1  0.012191  0.243615  0.831616  1
  Nd  Nd15  1  0.987809  0.756385  0.831616  1
  As  As16  1  0.747476  0.043367  0.000000  1
  As  As17  1  0.252524  0.956633  0.000000  1
  As  As18  1  0.043367  0.252524  0.500000  1
  As  As19  1  0.956633  0.747476  0.500000  1
  I  I20  1  0.251699  0.458258  0.000000  1
  I  I21  1  0.748301  0.541742  0.000000  1
  I  I22  1  0.541742  0.251699  0.500000  1
  I  I23  1  0.458258  0.748301  0.500000  1
  O  O24  1  0.579341  0.165062  0.000000  1
  O  O25  1  0.916408  0.164244  0.000000  1
  O  O26  1  0.083591  0.835755  0.000000  1
  O  O27  1  0.420659  0.834938  0.000000  1
  O  O28  1  0.252028  0.071348  0.106592  1
  O  O29  1  0.747971  0.928652  0.106592  1
  O  O30  1  0.744251  0.248445  0.230052  1
  O  O31  1  0.255749  0.751555  0.230052  1
  O  O32  1  0.000000  0.500000  0.237851  1
  O  O33  1  0.000000  0.000000  0.250000  1
  O  O34  1  0.500000  0.500000  0.250000  1
  O  O35  1  0.500000  0.000000  0.262149  1
  O  O36  1  0.248445  0.255749  0.269949  1
  O  O37  1  0.751555  0.744251  0.269949  1
  O  O38  1  0.928652  0.252028  0.393408  1
  O  O39  1  0.071348  0.747971  0.393408  1
  O  O40  1  0.164244  0.083591  0.500000  1
  O  O41  1  0.165062  0.420659  0.500000  1
  O  O42  1  0.834938  0.579341  0.500000  1
  O  O43  1  0.835755  0.916408  0.500000  1
  O  O44  1  0.928652  0.252028  0.606592  1
  O  O45  1  0.071348  0.747971  0.606592  1
  O  O46  1  0.248445  0.255749  0.730052  1
  O  O47  1  0.751555  0.744251  0.730052  1
  O  O48  1  0.500000  0.000000  0.737851  1
  O  O49  1  0.000000  0.000000  0.750000  1
  O  O50  1  0.500000  0.500000  0.750000  1
  O  O51  1  0.000000  0.500000  0.762150  1
  O  O52  1  0.744251  0.248445  0.769949  1
  O  O53  1  0.255749  0.751555  0.769949  1
  O  O54  1  0.252028  0.071348  0.893408  1
  O  O55  1  0.747971  0.928652  0.893408  1
