# generated using pymatgen
data_Eu2Si2Ir3Pd
_symmetry_space_group_name_H-M   'P 1'
_cell_length_a   4.13553625
_cell_length_b   4.16055900
_cell_length_c   9.12170200
_cell_angle_alpha   90.00047159
_cell_angle_beta   103.10458856
_cell_angle_gamma   90.00022183
_symmetry_Int_Tables_number   1
_chemical_formula_structural   Eu2Si2Ir3Pd
_chemical_formula_sum   'Eu2 Si2 Ir3 Pd1'
_cell_volume   152.86200188
_cell_formula_units_Z   1
loop_
 _symmetry_equiv_pos_site_id
 _symmetry_equiv_pos_as_xyz
  1  'x, y, z'
loop_
 _atom_site_type_symbol
 _atom_site_label
 _atom_site_symmetry_multiplicity
 _atom_site_fract_x
 _atom_site_fract_y
 _atom_site_fract_z
 _atom_site_occupancy
  Eu  Eu0  1  0.598124  0.249998  0.196157  1
  Eu  Eu1  1  0.399956  0.750005  0.799961  1
  Si  Si2  1  0.820083  0.250002  0.640185  1
  Si  Si3  1  0.178822  0.749993  0.357624  1
  Ir  Ir4  1  0.047056  0.750004  0.094114  1
  Ir  Ir5  1  0.250680  0.249998  0.501407  1
  Ir  Ir6  1  0.750113  0.749999  0.500230  1
  Pd  Pd7  1  0.955165  0.250000  0.910322  1
