# generated using pymatgen
data_ErTm(Fe4B)2
_symmetry_space_group_name_H-M   'P 1'
_cell_length_a   5.03867400
_cell_length_b   5.03867427
_cell_length_c   7.04302500
_cell_angle_alpha   90.00000000
_cell_angle_beta   90.00000000
_cell_angle_gamma   119.99999821
_symmetry_Int_Tables_number   1
_chemical_formula_structural   ErTm(Fe4B)2
_chemical_formula_sum   'Er1 Tm1 Fe8 B2'
_cell_volume   154.85399507
_cell_formula_units_Z   1
loop_
 _symmetry_equiv_pos_site_id
 _symmetry_equiv_pos_as_xyz
  1  'x, y, z'
loop_
 _atom_site_type_symbol
 _atom_site_label
 _atom_site_symmetry_multiplicity
 _atom_site_fract_x
 _atom_site_fract_y
 _atom_site_fract_z
 _atom_site_occupancy
  Er  Er0  1  0.000000  0.000000  0.000000  1
  Tm  Tm1  1  0.000000  0.000000  0.500000  1
  Fe  Fe2  1  0.666667  0.333333  0.000000  1
  Fe  Fe3  1  0.333333  0.666667  0.000000  1
  Fe  Fe4  1  0.500000  0.500000  0.713745  1
  Fe  Fe5  1  0.500000  0.000000  0.713745  1
  Fe  Fe6  1  0.000000  0.500000  0.713745  1
  Fe  Fe7  1  0.500000  0.500000  0.286255  1
  Fe  Fe8  1  0.500000  0.000000  0.286255  1
  Fe  Fe9  1  0.000000  0.500000  0.286255  1
  B  B10  1  0.666667  0.333333  0.500000  1
  B  B11  1  0.333333  0.666667  0.500000  1
