# generated using pymatgen
data_Tb4Dy3Y5InCo5
_symmetry_space_group_name_H-M   'P 1'
_cell_length_a   8.33524658
_cell_length_b   8.34064982
_cell_length_c   8.33524560
_cell_angle_alpha   110.63731537
_cell_angle_beta   110.55154912
_cell_angle_gamma   107.22221586
_symmetry_Int_Tables_number   1
_chemical_formula_structural   Tb4Dy3Y5InCo5
_chemical_formula_sum   'Tb4 Dy3 Y5 In1 Co5'
_cell_volume   445.71339938
_cell_formula_units_Z   1
loop_
 _symmetry_equiv_pos_site_id
 _symmetry_equiv_pos_as_xyz
  1  'x, y, z'
loop_
 _atom_site_type_symbol
 _atom_site_label
 _atom_site_symmetry_multiplicity
 _atom_site_fract_x
 _atom_site_fract_y
 _atom_site_fract_z
 _atom_site_occupancy
  Tb  Tb0  1  0.601306  0.793529  0.808715  1
  Tb  Tb1  1  0.398252  0.206677  0.191428  1
  Tb  Tb2  1  0.984816  0.793529  0.192223  1
  Tb  Tb3  1  0.015247  0.206677  0.808426  1
  Dy  Dy4  1  0.314542  0.620967  0.306427  1
  Dy  Dy5  1  0.685622  0.992699  0.307077  1
  Dy  Dy6  1  0.314614  0.008034  0.693420  1
  Y  Y7  1  0.813163  0.706486  0.519415  1
  Y  Y8  1  0.186410  0.293686  0.480475  1
  Y  Y9  1  0.187071  0.706486  0.893323  1
  Y  Y10  1  0.813211  0.293686  0.107276  1
  Y  Y11  1  0.685433  0.380327  0.694892  1
  In  In12  1  0.500069  0.499915  0.999846  1
  Co  Co13  1  0.619235  0.998512  0.618666  1
  Co  Co14  1  0.379846  0.998512  0.379278  1
  Co  Co15  1  0.112462  0.612710  0.500248  1
  Co  Co16  1  0.888769  0.388061  0.499291  1
  Co  Co17  1  0.999930  0.999506  0.999576  1
