# generated using pymatgen
data_Nd2Al(ZnPt2)2
_symmetry_space_group_name_H-M   'P 1'
_cell_length_a   8.26781837
_cell_length_b   8.26781864
_cell_length_c   7.65440500
_cell_angle_alpha   90.00000000
_cell_angle_beta   90.00000000
_cell_angle_gamma   139.66855777
_symmetry_Int_Tables_number   1
_chemical_formula_structural   Nd2Al(ZnPt2)2
_chemical_formula_sum   'Nd4 Al2 Zn4 Pt8'
_cell_volume   338.63927469
_cell_formula_units_Z   2
loop_
 _symmetry_equiv_pos_site_id
 _symmetry_equiv_pos_as_xyz
  1  'x, y, z'
loop_
 _atom_site_type_symbol
 _atom_site_label
 _atom_site_symmetry_multiplicity
 _atom_site_fract_x
 _atom_site_fract_y
 _atom_site_fract_z
 _atom_site_occupancy
  Nd  Nd0  1  0.612530  0.387470  0.909928  1
  Nd  Nd1  1  0.387470  0.612530  0.090072  1
  Nd  Nd2  1  0.887470  0.112530  0.409928  1
  Nd  Nd3  1  0.112530  0.887470  0.590072  1
  Al  Al4  1  0.500000  0.500000  0.500000  1
  Al  Al5  1  0.000000  0.000000  0.000000  1
  Zn  Zn6  1  0.524240  0.975760  0.750000  1
  Zn  Zn7  1  0.975760  0.524240  0.250000  1
  Zn  Zn8  1  0.475760  0.024240  0.250000  1
  Zn  Zn9  1  0.024240  0.475760  0.750000  1
  Pt  Pt10  1  0.693690  0.806310  0.750000  1
  Pt  Pt11  1  0.806310  0.693690  0.250000  1
  Pt  Pt12  1  0.306310  0.193690  0.250000  1
  Pt  Pt13  1  0.193690  0.306310  0.750000  1
  Pt  Pt14  1  0.676533  0.323467  0.523750  1
  Pt  Pt15  1  0.323467  0.676533  0.476250  1
  Pt  Pt16  1  0.823467  0.176533  0.023750  1
  Pt  Pt17  1  0.176533  0.823467  0.976250  1
