# generated using pymatgen
data_Ca7Dy(AgPb)4
_symmetry_space_group_name_H-M   'P 1'
_cell_length_a   7.65809392
_cell_length_b   5.34766102
_cell_length_c   10.72799866
_cell_angle_alpha   89.99635978
_cell_angle_beta   89.91937401
_cell_angle_gamma   89.99160151
_symmetry_Int_Tables_number   1
_chemical_formula_structural   Ca7Dy(AgPb)4
_chemical_formula_sum   'Ca7 Dy1 Ag4 Pb4'
_cell_volume   439.34211171
_cell_formula_units_Z   1
loop_
 _symmetry_equiv_pos_site_id
 _symmetry_equiv_pos_as_xyz
  1  'x, y, z'
loop_
 _atom_site_type_symbol
 _atom_site_label
 _atom_site_symmetry_multiplicity
 _atom_site_fract_x
 _atom_site_fract_y
 _atom_site_fract_z
 _atom_site_occupancy
  Ca  Ca0  1  0.497215  0.749999  0.125102  1
  Ca  Ca1  1  0.000424  0.249997  0.377482  1
  Ca  Ca2  1  0.499873  0.249997  0.374655  1
  Ca  Ca3  1  0.501959  0.749997  0.625007  1
  Ca  Ca4  1  0.001288  0.749999  0.625096  1
  Ca  Ca5  1  0.499625  0.249997  0.875216  1
  Ca  Ca6  1  0.000244  0.249999  0.872397  1
  Dy  Dy7  1  0.999138  0.750000  0.124995  1
  Ag  Ag8  1  0.757519  0.250012  0.124847  1
  Ag  Ag9  1  0.245852  0.749995  0.370666  1
  Ag  Ag10  1  0.750011  0.250003  0.624954  1
  Ag  Ag11  1  0.245747  0.750003  0.879592  1
  Pb  Pb12  1  0.243979  0.250000  0.124902  1
  Pb  Pb13  1  0.752755  0.749999  0.372720  1
  Pb  Pb14  1  0.251824  0.250000  0.624943  1
  Pb  Pb15  1  0.752546  0.749994  0.877428  1
