# generated using pymatgen
data_PrDyY5FeI12
_symmetry_space_group_name_H-M   'P 1'
_cell_length_a   9.84844042
_cell_length_b   9.79559812
_cell_length_c   9.85193693
_cell_angle_alpha   106.84876775
_cell_angle_beta   106.85592660
_cell_angle_gamma   107.35158008
_symmetry_Int_Tables_number   1
_chemical_formula_structural   PrDyY5FeI12
_chemical_formula_sum   'Pr1 Dy1 Y5 Fe1 I12'
_cell_volume   791.10614635
_cell_formula_units_Z   1
loop_
 _symmetry_equiv_pos_site_id
 _symmetry_equiv_pos_as_xyz
  1  'x, y, z'
loop_
 _atom_site_type_symbol
 _atom_site_label
 _atom_site_symmetry_multiplicity
 _atom_site_fract_x
 _atom_site_fract_y
 _atom_site_fract_z
 _atom_site_occupancy
  Pr  Pr0  1  0.408043  0.212376  0.477948  1
  Dy  Dy1  1  0.588459  0.774676  0.521502  1
  Y  Y2  1  0.794207  0.523214  0.594278  1
  Y  Y3  1  0.523450  0.595895  0.793424  1
  Y  Y4  1  0.206403  0.476094  0.406148  1
  Y  Y5  1  0.477671  0.407756  0.207527  1
  Y  Y6  1  0.999909  0.001544  0.998722  1
  Fe  Fe7  1  0.499179  0.496310  0.500594  1
  I  I8  1  0.735433  0.185739  0.577016  1
  I  I9  1  0.959233  0.885438  0.659741  1
  I  I10  1  0.573576  0.727583  0.184644  1
  I  I11  1  0.114449  0.341144  0.038279  1
  I  I12  1  0.660950  0.961653  0.881449  1
  I  I13  1  0.885718  0.662515  0.962543  1
  I  I14  1  0.028296  0.112844  0.332790  1
  I  I15  1  0.820370  0.429043  0.276342  1
  I  I16  1  0.336508  0.036883  0.105757  1
  I  I17  1  0.277600  0.813769  0.427051  1
  I  I18  1  0.180510  0.573376  0.724314  1
  I  I19  1  0.430037  0.282147  0.829933  1
