# generated using pymatgen
data_Pr3Ho8In9Ru4
_symmetry_space_group_name_H-M   'P 1'
_cell_length_a   12.89915038
_cell_length_b   12.89789896
_cell_length_c   3.91655800
_cell_angle_alpha   90.00000000
_cell_angle_beta   90.00000000
_cell_angle_gamma   113.21495258
_symmetry_Int_Tables_number   1
_chemical_formula_structural   Pr3Ho8In9Ru4
_chemical_formula_sum   'Pr3 Ho8 In9 Ru4'
_cell_volume   598.84649027
_cell_formula_units_Z   1
loop_
 _symmetry_equiv_pos_site_id
 _symmetry_equiv_pos_as_xyz
  1  'x, y, z'
loop_
 _atom_site_type_symbol
 _atom_site_label
 _atom_site_symmetry_multiplicity
 _atom_site_fract_x
 _atom_site_fract_y
 _atom_site_fract_z
 _atom_site_occupancy
  Pr  Pr0  1  0.500000  0.500000  0.500000  1
  Pr  Pr1  1  0.337816  0.662314  0.500000  1
  Pr  Pr2  1  0.662184  0.337686  0.500000  1
  Ho  Ho3  1  0.813095  0.813080  0.500000  1
  Ho  Ho4  1  0.186905  0.186920  0.500000  1
  Ho  Ho5  1  0.590213  0.920487  0.500000  1
  Ho  Ho6  1  0.409787  0.079513  0.500000  1
  Ho  Ho7  1  0.920492  0.590128  0.500000  1
  Ho  Ho8  1  0.079508  0.409872  0.500000  1
  Ho  Ho9  1  0.126859  0.873125  0.500000  1
  Ho  Ho10  1  0.873141  0.126875  0.500000  1
  In  In11  1  0.343334  0.871391  0.000000  1
  In  In12  1  0.656666  0.128609  0.000000  1
  In  In13  1  0.871340  0.343503  0.000000  1
  In  In14  1  0.128660  0.656497  0.000000  1
  In  In15  1  0.582118  0.727466  0.000000  1
  In  In16  1  0.417882  0.272534  0.000000  1
  In  In17  1  0.727421  0.582080  0.000000  1
  In  In18  1  0.272579  0.417920  0.000000  1
  In  In19  1  0.000000  0.000000  0.000000  1
  Ru  Ru20  1  0.761495  0.955972  0.000000  1
  Ru  Ru21  1  0.238505  0.044028  0.000000  1
  Ru  Ru22  1  0.955954  0.761399  0.000000  1
  Ru  Ru23  1  0.044046  0.238601  0.000000  1
