# generated using pymatgen
data_Li2Er2Si2Ge
_symmetry_space_group_name_H-M   'P 1'
_cell_length_a   9.25362200
_cell_length_b   9.25362195
_cell_length_c   6.66910100
_cell_angle_alpha   90.00000000
_cell_angle_beta   90.00000000
_cell_angle_gamma   153.49142590
_symmetry_Int_Tables_number   1
_chemical_formula_structural   Li2Er2Si2Ge
_chemical_formula_sum   'Li4 Er4 Si4 Ge2'
_cell_volume   254.88751659
_cell_formula_units_Z   2
loop_
 _symmetry_equiv_pos_site_id
 _symmetry_equiv_pos_as_xyz
  1  'x, y, z'
loop_
 _atom_site_type_symbol
 _atom_site_label
 _atom_site_symmetry_multiplicity
 _atom_site_fract_x
 _atom_site_fract_y
 _atom_site_fract_z
 _atom_site_occupancy
  Li  Li0  1  0.810496  0.189504  0.559067  1
  Li  Li1  1  0.189504  0.810496  0.440933  1
  Li  Li2  1  0.189504  0.810496  0.059067  1
  Li  Li3  1  0.810496  0.189504  0.940933  1
  Er  Er4  1  0.551239  0.448761  0.250000  1
  Er  Er5  1  0.448761  0.551239  0.750000  1
  Er  Er6  1  0.346181  0.653819  0.250000  1
  Er  Er7  1  0.653819  0.346181  0.750000  1
  Si  Si8  1  0.940395  0.059605  0.072025  1
  Si  Si9  1  0.059605  0.940395  0.927975  1
  Si  Si10  1  0.059605  0.940395  0.572025  1
  Si  Si11  1  0.940395  0.059605  0.427975  1
  Ge  Ge12  1  0.719750  0.280250  0.250000  1
  Ge  Ge13  1  0.280250  0.719750  0.750000  1
