# generated using pymatgen
data_Ca2Mn6Ni6As7
_symmetry_space_group_name_H-M   'P 1'
_cell_length_a   9.61899300
_cell_length_b   9.61899249
_cell_length_c   3.84751300
_cell_angle_alpha   90.00000000
_cell_angle_beta   90.00000000
_cell_angle_gamma   120.00001022
_symmetry_Int_Tables_number   1
_chemical_formula_structural   Ca2Mn6Ni6As7
_chemical_formula_sum   'Ca2 Mn6 Ni6 As7'
_cell_volume   308.29741080
_cell_formula_units_Z   1
loop_
 _symmetry_equiv_pos_site_id
 _symmetry_equiv_pos_as_xyz
  1  'x, y, z'
loop_
 _atom_site_type_symbol
 _atom_site_label
 _atom_site_symmetry_multiplicity
 _atom_site_fract_x
 _atom_site_fract_y
 _atom_site_fract_z
 _atom_site_occupancy
  Ca  Ca0  1  0.000000  0.000000  0.000000  1
  Ca  Ca1  1  0.666667  0.333333  0.500000  1
  Mn  Mn2  1  0.754553  0.712056  0.500000  1
  Mn  Mn3  1  0.957503  0.245447  0.500000  1
  Mn  Mn4  1  0.287944  0.042497  0.500000  1
  Mn  Mn5  1  0.430656  0.549309  0.500000  1
  Mn  Mn6  1  0.118653  0.569344  0.500000  1
  Mn  Mn7  1  0.450691  0.881347  0.500000  1
  Ni  Ni8  1  0.387109  0.285059  0.000000  1
  Ni  Ni9  1  0.897949  0.612891  0.000000  1
  Ni  Ni10  1  0.714941  0.102051  0.000000  1
  Ni  Ni11  1  0.612050  0.790033  0.000000  1
  Ni  Ni12  1  0.177983  0.387950  0.000000  1
  Ni  Ni13  1  0.209967  0.822017  0.000000  1
  As  As14  1  0.620615  0.544742  0.000000  1
  As  As15  1  0.924127  0.379385  0.000000  1
  As  As16  1  0.455258  0.075873  0.000000  1
  As  As17  1  0.747034  0.964895  0.500000  1
  As  As18  1  0.217861  0.252966  0.500000  1
  As  As19  1  0.035105  0.782139  0.500000  1
  As  As20  1  0.333333  0.666667  0.000000  1
