# generated using pymatgen
data_Ho3NbSn2Ir2Ru
_symmetry_space_group_name_H-M   'P 1'
_cell_length_a   7.31125898
_cell_length_b   7.31125912
_cell_length_c   4.16643500
_cell_angle_alpha   90.00000000
_cell_angle_beta   90.00000000
_cell_angle_gamma   121.60784135
_symmetry_Int_Tables_number   1
_chemical_formula_structural   Ho3NbSn2Ir2Ru
_chemical_formula_sum   'Ho3 Nb1 Sn2 Ir2 Ru1'
_cell_volume   189.67616701
_cell_formula_units_Z   1
loop_
 _symmetry_equiv_pos_site_id
 _symmetry_equiv_pos_as_xyz
  1  'x, y, z'
loop_
 _atom_site_type_symbol
 _atom_site_label
 _atom_site_symmetry_multiplicity
 _atom_site_fract_x
 _atom_site_fract_y
 _atom_site_fract_z
 _atom_site_occupancy
  Ho  Ho0  1  0.404460  0.404460  0.500000  1
  Ho  Ho1  1  0.585711  0.002083  0.500000  1
  Ho  Ho2  1  0.002083  0.585711  0.500000  1
  Nb  Nb3  1  0.754741  0.754741  0.000000  1
  Sn  Sn4  1  0.248571  0.996024  0.000000  1
  Sn  Sn5  1  0.996024  0.248571  0.000000  1
  Ir  Ir6  1  0.674516  0.359851  0.000000  1
  Ir  Ir7  1  0.359851  0.674516  0.000000  1
  Ru  Ru8  1  0.974041  0.974041  0.500000  1
