# generated using pymatgen
data_Dy2Ho2P7Ir8
_symmetry_space_group_name_H-M   'P 1'
_cell_length_a   3.94798500
_cell_length_b   12.62036326
_cell_length_c   13.17177100
_cell_angle_alpha   80.29709454
_cell_angle_beta   90.00000000
_cell_angle_gamma   90.00000000
_symmetry_Int_Tables_number   1
_chemical_formula_structural   Dy2Ho2P7Ir8
_chemical_formula_sum   'Dy4 Ho4 P14 Ir16'
_cell_volume   646.89536755
_cell_formula_units_Z   2
loop_
 _symmetry_equiv_pos_site_id
 _symmetry_equiv_pos_as_xyz
  1  'x, y, z'
loop_
 _atom_site_type_symbol
 _atom_site_label
 _atom_site_symmetry_multiplicity
 _atom_site_fract_x
 _atom_site_fract_y
 _atom_site_fract_z
 _atom_site_occupancy
  Dy  Dy0  1  0.750000  0.717580  0.898699  1
  Dy  Dy1  1  0.250000  0.100140  0.790828  1
  Dy  Dy2  1  0.750000  0.899860  0.209172  1
  Dy  Dy3  1  0.250000  0.282420  0.101301  1
  Ho  Ho4  1  0.750000  0.790469  0.561625  1
  Ho  Ho5  1  0.250000  0.209531  0.438375  1
  Ho  Ho6  1  0.750000  0.478319  0.706478  1
  Ho  Ho7  1  0.250000  0.521681  0.293522  1
  P  P8  1  0.250000  0.908284  0.412091  1
  P  P9  1  0.750000  0.471629  0.129648  1
  P  P10  1  0.250000  0.528371  0.870352  1
  P  P11  1  0.750000  0.091716  0.587909  1
  P  P12  1  0.250000  0.741372  0.080181  1
  P  P13  1  0.750000  0.258628  0.919819  1
  P  P14  1  0.750000  0.158878  0.281389  1
  P  P15  1  0.250000  0.841122  0.718611  1
  P  P16  1  0.250000  0.053299  0.100277  1
  P  P17  1  0.750000  0.946701  0.899723  1
  P  P18  1  0.250000  0.310614  0.690360  1
  P  P19  1  0.750000  0.689386  0.309640  1
  P  P20  1  0.250000  0.608072  0.565347  1
  P  P21  1  0.750000  0.391928  0.434653  1
  Ir  Ir22  1  0.250000  0.989001  0.576014  1
  Ir  Ir23  1  0.750000  0.010999  0.423986  1
  Ir  Ir24  1  0.250000  0.660420  0.727466  1
  Ir  Ir25  1  0.750000  0.339580  0.272534  1
  Ir  Ir26  1  0.250000  0.554044  0.045426  1
  Ir  Ir27  1  0.750000  0.445956  0.954574  1
  Ir  Ir28  1  0.250000  0.062918  0.272784  1
  Ir  Ir29  1  0.750000  0.937082  0.727216  1
  Ir  Ir30  1  0.250000  0.420924  0.524111  1
  Ir  Ir31  1  0.750000  0.579076  0.475889  1
  Ir  Ir32  1  0.250000  0.915426  0.998403  1
  Ir  Ir33  1  0.750000  0.084574  0.001597  1
  Ir  Ir34  1  0.250000  0.730749  0.393524  1
  Ir  Ir35  1  0.750000  0.269251  0.606476  1
  Ir  Ir36  1  0.250000  0.342055  0.858088  1
  Ir  Ir37  1  0.750000  0.657945  0.141912  1
