# generated using pymatgen
data_Ho11Tm4Sc5Bi12
_symmetry_space_group_name_H-M   'P 1'
_cell_length_a   8.06695870
_cell_length_b   9.35117308
_cell_length_c   11.88674641
_cell_angle_alpha   89.95053809
_cell_angle_beta   90.06531591
_cell_angle_gamma   89.98338356
_symmetry_Int_Tables_number   1
_chemical_formula_structural   Ho11Tm4Sc5Bi12
_chemical_formula_sum   'Ho11 Tm4 Sc5 Bi12'
_cell_volume   896.68202537
_cell_formula_units_Z   1
loop_
 _symmetry_equiv_pos_site_id
 _symmetry_equiv_pos_as_xyz
  1  'x, y, z'
loop_
 _atom_site_type_symbol
 _atom_site_label
 _atom_site_symmetry_multiplicity
 _atom_site_fract_x
 _atom_site_fract_y
 _atom_site_fract_z
 _atom_site_occupancy
  Ho  Ho0  1  0.353220  0.247550  0.282296  1
  Ho  Ho1  1  0.643889  0.749743  0.716556  1
  Ho  Ho2  1  0.145043  0.749153  0.783968  1
  Ho  Ho3  1  0.855295  0.249344  0.215803  1
  Ho  Ho4  1  0.184960  0.249288  0.781221  1
  Ho  Ho5  1  0.814355  0.749643  0.219097  1
  Ho  Ho6  1  0.314792  0.750509  0.280854  1
  Ho  Ho7  1  0.684737  0.249506  0.719937  1
  Ho  Ho8  1  0.805084  0.935120  0.941084  1
  Ho  Ho9  1  0.304272  0.934671  0.558853  1
  Ho  Ho10  1  0.806162  0.565161  0.941744  1
  Tm  Tm11  1  0.695579  0.065887  0.440905  1
  Tm  Tm12  1  0.195402  0.435012  0.058866  1
  Tm  Tm13  1  0.695878  0.433835  0.440977  1
  Tm  Tm14  1  0.304443  0.566063  0.559131  1
  Sc  Sc15  1  0.024142  0.249984  0.511815  1
  Sc  Sc16  1  0.975803  0.749635  0.486938  1
  Sc  Sc17  1  0.475179  0.750423  0.012362  1
  Sc  Sc18  1  0.522093  0.248114  0.988759  1
  Sc  Sc19  1  0.196467  0.068792  0.058303  1
  Bi  Bi20  1  0.401996  0.251100  0.542032  1
  Bi  Bi21  1  0.598718  0.749477  0.457269  1
  Bi  Bi22  1  0.101105  0.756926  0.043865  1
  Bi  Bi23  1  0.905563  0.248028  0.958822  1
  Bi  Bi24  1  0.066431  0.003911  0.328982  1
  Bi  Bi25  1  0.933669  0.995929  0.669007  1
  Bi  Bi26  1  0.432121  0.995972  0.832120  1
  Bi  Bi27  1  0.933817  0.503357  0.669229  1
  Bi  Bi28  1  0.563791  0.003750  0.168307  1
  Bi  Bi29  1  0.066367  0.495790  0.330204  1
  Bi  Bi30  1  0.565990  0.495204  0.169329  1
  Bi  Bi31  1  0.433639  0.503127  0.831366  1
