# generated using pymatgen
data_TbDy7(CdNi)2
_symmetry_space_group_name_H-M   'P 1'
_cell_length_a   9.53977440
_cell_length_b   9.53977402
_cell_length_c   9.53094200
_cell_angle_alpha   60.03062083
_cell_angle_beta   60.03062214
_cell_angle_gamma   60.06855404
_symmetry_Int_Tables_number   1
_chemical_formula_structural   TbDy7(CdNi)2
_chemical_formula_sum   'Tb2 Dy14 Cd4 Ni4'
_cell_volume   613.93527249
_cell_formula_units_Z   2
loop_
 _symmetry_equiv_pos_site_id
 _symmetry_equiv_pos_as_xyz
  1  'x, y, z'
loop_
 _atom_site_type_symbol
 _atom_site_label
 _atom_site_symmetry_multiplicity
 _atom_site_fract_x
 _atom_site_fract_y
 _atom_site_fract_z
 _atom_site_occupancy
  Tb  Tb0  1  0.598419  0.598419  0.598300  1
  Tb  Tb1  1  0.598419  0.598419  0.204864  1
  Dy  Dy2  1  0.599178  0.202854  0.598985  1
  Dy  Dy3  1  0.202854  0.599178  0.598985  1
  Dy  Dy4  1  0.061897  0.438574  0.438688  1
  Dy  Dy5  1  0.438574  0.061897  0.060841  1
  Dy  Dy6  1  0.438574  0.061897  0.438688  1
  Dy  Dy7  1  0.061897  0.438574  0.060841  1
  Dy  Dy8  1  0.438926  0.438926  0.061074  1
  Dy  Dy9  1  0.061632  0.061632  0.438368  1
  Dy  Dy10  1  0.186495  0.813475  0.814219  1
  Dy  Dy11  1  0.813475  0.186495  0.185811  1
  Dy  Dy12  1  0.813475  0.186495  0.814219  1
  Dy  Dy13  1  0.186495  0.813475  0.185811  1
  Dy  Dy14  1  0.814169  0.814169  0.185831  1
  Dy  Dy15  1  0.186462  0.186462  0.813538  1
  Cd  Cd16  1  0.831136  0.831136  0.831001  1
  Cd  Cd17  1  0.831136  0.831136  0.506726  1
  Cd  Cd18  1  0.831395  0.505979  0.831313  1
  Cd  Cd19  1  0.505979  0.831395  0.831313  1
  Ni  Ni20  1  0.392274  0.392274  0.393131  1
  Ni  Ni21  1  0.392274  0.392274  0.822320  1
  Ni  Ni22  1  0.391698  0.823167  0.392567  1
  Ni  Ni23  1  0.823167  0.391698  0.392567  1
