# generated using pymatgen
data_La20Co4Ge7Bi
_symmetry_space_group_name_H-M   'P 1'
_cell_length_a   8.20814536
_cell_length_b   8.96367691
_cell_length_c   12.50364900
_cell_angle_alpha   89.98506830
_cell_angle_beta   90.39225721
_cell_angle_gamma   90.05815297
_symmetry_Int_Tables_number   1
_chemical_formula_structural   La20Co4Ge7Bi
_chemical_formula_sum   'La20 Co4 Ge7 Bi1'
_cell_volume   919.93595037
_cell_formula_units_Z   1
loop_
 _symmetry_equiv_pos_site_id
 _symmetry_equiv_pos_as_xyz
  1  'x, y, z'
loop_
 _atom_site_type_symbol
 _atom_site_label
 _atom_site_symmetry_multiplicity
 _atom_site_fract_x
 _atom_site_fract_y
 _atom_site_fract_z
 _atom_site_occupancy
  La  La0  1  0.352016  0.740274  0.709895  1
  La  La1  1  0.655599  0.249257  0.287804  1
  La  La2  1  0.838402  0.256793  0.795614  1
  La  La3  1  0.158143  0.749842  0.209077  1
  La  La4  1  0.860435  0.742850  0.799945  1
  La  La5  1  0.132382  0.250925  0.204335  1
  La  La6  1  0.377180  0.257468  0.705129  1
  La  La7  1  0.633469  0.750106  0.294552  1
  La  La8  1  0.684350  0.533467  0.567207  1
  La  La9  1  0.321629  0.469386  0.431104  1
  La  La10  1  0.180892  0.470972  0.933606  1
  La  La11  1  0.317176  0.026036  0.426750  1
  La  La12  1  0.817673  0.530682  0.070364  1
  La  La13  1  0.674413  0.971526  0.566187  1
  La  La14  1  0.818288  0.970770  0.068641  1
  La  La15  1  0.185734  0.028315  0.941311  1
  La  La16  1  0.041791  0.739883  0.490581  1
  La  La17  1  0.950164  0.258535  0.496040  1
  La  La18  1  0.542025  0.250027  0.004068  1
  La  La19  1  0.457004  0.750530  0.997084  1
  Co  Co20  1  0.077715  0.749723  0.982842  1
  Co  Co21  1  0.921560  0.249706  0.022213  1
  Co  Co22  1  0.580017  0.251208  0.516801  1
  Co  Co23  1  0.420188  0.750209  0.478930  1
  Ge  Ge24  1  0.572640  0.503609  0.831916  1
  Ge  Ge25  1  0.427989  0.496522  0.169985  1
  Ge  Ge26  1  0.070629  0.495453  0.671499  1
  Ge  Ge27  1  0.427466  0.003559  0.170398  1
  Ge  Ge28  1  0.927432  0.503639  0.325358  1
  Ge  Ge29  1  0.572131  0.996613  0.829239  1
  Ge  Ge30  1  0.928161  0.996138  0.329194  1
  Bi  Bi31  1  0.075309  0.005979  0.672334  1
