# generated using pymatgen
data_Pr2Si4Tc3
_symmetry_space_group_name_H-M   'P 1'
_cell_length_a   8.20490900
_cell_length_b   5.73251933
_cell_length_c   7.06496656
_cell_angle_alpha   76.99514716
_cell_angle_beta   90.00000000
_cell_angle_gamma   90.00000000
_symmetry_Int_Tables_number   1
_chemical_formula_structural   Pr2Si4Tc3
_chemical_formula_sum   'Pr4 Si8 Tc6'
_cell_volume   323.77614358
_cell_formula_units_Z   2
loop_
 _symmetry_equiv_pos_site_id
 _symmetry_equiv_pos_as_xyz
  1  'x, y, z'
loop_
 _atom_site_type_symbol
 _atom_site_label
 _atom_site_symmetry_multiplicity
 _atom_site_fract_x
 _atom_site_fract_y
 _atom_site_fract_z
 _atom_site_occupancy
  Pr  Pr0  1  0.931013  0.564194  0.252015  1
  Pr  Pr1  1  0.431013  0.935806  0.747985  1
  Pr  Pr2  1  0.068987  0.435806  0.747985  1
  Pr  Pr3  1  0.568987  0.064194  0.252015  1
  Si  Si4  1  0.588387  0.611201  0.111037  1
  Si  Si5  1  0.088387  0.888799  0.888963  1
  Si  Si6  1  0.411613  0.388799  0.888963  1
  Si  Si7  1  0.911613  0.111201  0.111037  1
  Si  Si8  1  0.751637  0.717591  0.590571  1
  Si  Si9  1  0.251637  0.782409  0.409429  1
  Si  Si10  1  0.248363  0.282409  0.409429  1
  Si  Si11  1  0.748363  0.217591  0.590571  1
  Tc  Tc12  1  0.293705  0.608249  0.121725  1
  Tc  Tc13  1  0.793705  0.891751  0.878275  1
  Tc  Tc14  1  0.706295  0.391751  0.878275  1
  Tc  Tc15  1  0.206295  0.108249  0.121725  1
  Tc  Tc16  1  0.500000  0.500000  0.500000  1
  Tc  Tc17  1  0.000000  0.000000  0.500000  1
