# generated using pymatgen
data_Er9TmPt18
_symmetry_space_group_name_H-M   'P 1'
_cell_length_a   9.71619620
_cell_length_b   9.71619620
_cell_length_c   5.75301300
_cell_angle_alpha   90.00000000
_cell_angle_beta   90.00000000
_cell_angle_gamma   89.97653020
_symmetry_Int_Tables_number   1
_chemical_formula_structural   Er9TmPt18
_chemical_formula_sum   'Er9 Tm1 Pt18'
_cell_volume   543.11008995
_cell_formula_units_Z   1
loop_
 _symmetry_equiv_pos_site_id
 _symmetry_equiv_pos_as_xyz
  1  'x, y, z'
loop_
 _atom_site_type_symbol
 _atom_site_label
 _atom_site_symmetry_multiplicity
 _atom_site_fract_x
 _atom_site_fract_y
 _atom_site_fract_z
 _atom_site_occupancy
  Er  Er0  1  0.452448  0.808971  0.000000  1
  Er  Er1  1  0.547552  0.191029  0.000000  1
  Er  Er2  1  0.191029  0.547552  0.000000  1
  Er  Er3  1  0.808971  0.452448  0.000000  1
  Er  Er4  1  0.500000  0.500000  0.500000  1
  Er  Er5  1  0.308917  0.047535  0.500000  1
  Er  Er6  1  0.691083  0.952465  0.500000  1
  Er  Er7  1  0.952465  0.691083  0.500000  1
  Er  Er8  1  0.047535  0.308917  0.500000  1
  Tm  Tm9  1  0.000000  0.000000  0.000000  1
  Pt  Pt10  1  0.191689  0.808311  0.250594  1
  Pt  Pt11  1  0.808311  0.191689  0.749406  1
  Pt  Pt12  1  0.808311  0.191689  0.250594  1
  Pt  Pt13  1  0.191689  0.808311  0.749406  1
  Pt  Pt14  1  0.441361  0.782278  0.500000  1
  Pt  Pt15  1  0.558639  0.217722  0.500000  1
  Pt  Pt16  1  0.217722  0.558639  0.500000  1
  Pt  Pt17  1  0.782278  0.441361  0.500000  1
  Pt  Pt18  1  0.308132  0.308132  0.249239  1
  Pt  Pt19  1  0.691868  0.691868  0.750761  1
  Pt  Pt20  1  0.691868  0.691868  0.249239  1
  Pt  Pt21  1  0.308132  0.308132  0.750761  1
  Pt  Pt22  1  0.281927  0.058524  0.000000  1
  Pt  Pt23  1  0.718073  0.941476  0.000000  1
  Pt  Pt24  1  0.941476  0.718073  0.000000  1
  Pt  Pt25  1  0.058524  0.281927  0.000000  1
  Pt  Pt26  1  0.000000  0.000000  0.500000  1
  Pt  Pt27  1  0.500000  0.500000  0.000000  1
