# generated using pymatgen
data_Y12Ho4Cd4Ir3Pt
_symmetry_space_group_name_H-M   'P 1'
_cell_length_a   9.66531907
_cell_length_b   9.66531866
_cell_length_c   9.66531910
_cell_angle_alpha   60.09610667
_cell_angle_beta   60.09610537
_cell_angle_gamma   60.09610838
_symmetry_Int_Tables_number   1
_chemical_formula_structural   Y12Ho4Cd4Ir3Pt
_chemical_formula_sum   'Y12 Ho4 Cd4 Ir3 Pt1'
_cell_volume   639.85016717
_cell_formula_units_Z   1
loop_
 _symmetry_equiv_pos_site_id
 _symmetry_equiv_pos_as_xyz
  1  'x, y, z'
loop_
 _atom_site_type_symbol
 _atom_site_label
 _atom_site_symmetry_multiplicity
 _atom_site_fract_x
 _atom_site_fract_y
 _atom_site_fract_z
 _atom_site_occupancy
  Y  Y0  1  0.805158  0.191133  0.191133  1
  Y  Y1  1  0.188684  0.809839  0.809839  1
  Y  Y2  1  0.191133  0.805158  0.191133  1
  Y  Y3  1  0.809839  0.188684  0.809839  1
  Y  Y4  1  0.191133  0.191133  0.805158  1
  Y  Y5  1  0.809839  0.809839  0.188684  1
  Y  Y6  1  0.939065  0.561969  0.561969  1
  Y  Y7  1  0.563373  0.937719  0.937719  1
  Y  Y8  1  0.561969  0.939065  0.561969  1
  Y  Y9  1  0.937719  0.563373  0.937719  1
  Y  Y10  1  0.561969  0.561969  0.939065  1
  Y  Y11  1  0.937719  0.937719  0.563373  1
  Ho  Ho12  1  0.347892  0.347892  0.347892  1
  Ho  Ho13  1  0.351368  0.351368  0.951352  1
  Ho  Ho14  1  0.351368  0.951352  0.351368  1
  Ho  Ho15  1  0.951352  0.351368  0.351368  1
  Cd  Cd16  1  0.580479  0.580479  0.580479  1
  Cd  Cd17  1  0.580932  0.580932  0.256933  1
  Cd  Cd18  1  0.580932  0.256933  0.580932  1
  Cd  Cd19  1  0.256933  0.580932  0.580932  1
  Ir  Ir20  1  0.142971  0.142971  0.572030  1
  Ir  Ir21  1  0.142971  0.572030  0.142971  1
  Ir  Ir22  1  0.572030  0.142971  0.142971  1
  Pt  Pt23  1  0.143171  0.143171  0.143171  1
