# generated using pymatgen
data_Y3Ho3Er4Cd3Ru
_symmetry_space_group_name_H-M   'P 1'
_cell_length_a   9.56805000
_cell_length_b   9.56804968
_cell_length_c   9.80426600
_cell_angle_alpha   90.00000000
_cell_angle_beta   90.00000000
_cell_angle_gamma   120.00000109
_symmetry_Int_Tables_number   1
_chemical_formula_structural   Y3Ho3Er4Cd3Ru
_chemical_formula_sum   'Y6 Ho6 Er8 Cd6 Ru2'
_cell_volume   777.30698524
_cell_formula_units_Z   2
loop_
 _symmetry_equiv_pos_site_id
 _symmetry_equiv_pos_as_xyz
  1  'x, y, z'
loop_
 _atom_site_type_symbol
 _atom_site_label
 _atom_site_symmetry_multiplicity
 _atom_site_fract_x
 _atom_site_fract_y
 _atom_site_fract_z
 _atom_site_occupancy
  Y  Y0  1  0.541119  0.458881  0.249910  1
  Y  Y1  1  0.541119  0.082240  0.249910  1
  Y  Y2  1  0.917760  0.458881  0.249910  1
  Y  Y3  1  0.458881  0.541119  0.750090  1
  Y  Y4  1  0.458881  0.917760  0.750090  1
  Y  Y5  1  0.082240  0.541119  0.750090  1
  Ho  Ho6  1  0.209659  0.790341  0.440183  1
  Ho  Ho7  1  0.209659  0.419321  0.440183  1
  Ho  Ho8  1  0.580679  0.790341  0.440183  1
  Ho  Ho9  1  0.790341  0.209659  0.559817  1
  Ho  Ho10  1  0.790341  0.580679  0.559817  1
  Ho  Ho11  1  0.419321  0.209659  0.559817  1
  Er  Er12  1  0.000000  0.000000  0.500000  1
  Er  Er13  1  0.000000  0.000000  0.000000  1
  Er  Er14  1  0.790267  0.209733  0.940212  1
  Er  Er15  1  0.790267  0.580531  0.940212  1
  Er  Er16  1  0.419469  0.209733  0.940212  1
  Er  Er17  1  0.209733  0.790267  0.059788  1
  Er  Er18  1  0.209733  0.419469  0.059788  1
  Er  Er19  1  0.580531  0.790267  0.059788  1
  Cd  Cd20  1  0.885576  0.114424  0.249954  1
  Cd  Cd21  1  0.885576  0.771153  0.249954  1
  Cd  Cd22  1  0.228847  0.114424  0.249954  1
  Cd  Cd23  1  0.114424  0.885576  0.750046  1
  Cd  Cd24  1  0.114424  0.228847  0.750046  1
  Cd  Cd25  1  0.771153  0.885576  0.750046  1
  Ru  Ru26  1  0.333333  0.666667  0.249858  1
  Ru  Ru27  1  0.666667  0.333333  0.750142  1
