# generated using pymatgen
data_CeYBe25Ni
_symmetry_space_group_name_H-M   'P 1'
_cell_length_a   7.25240045
_cell_length_b   7.28068377
_cell_length_c   7.24554708
_cell_angle_alpha   59.95199814
_cell_angle_beta   59.90183493
_cell_angle_gamma   59.72663068
_symmetry_Int_Tables_number   1
_chemical_formula_structural   CeYBe25Ni
_chemical_formula_sum   'Ce1 Y1 Be25 Ni1'
_cell_volume   269.66589359
_cell_formula_units_Z   1
loop_
 _symmetry_equiv_pos_site_id
 _symmetry_equiv_pos_as_xyz
  1  'x, y, z'
loop_
 _atom_site_type_symbol
 _atom_site_label
 _atom_site_symmetry_multiplicity
 _atom_site_fract_x
 _atom_site_fract_y
 _atom_site_fract_z
 _atom_site_occupancy
  Ce  Ce0  1  0.997827  0.002818  0.000355  1
  Y  Y1  1  0.499602  0.502213  0.500697  1
  Be  Be2  1  0.955095  0.190481  0.544216  1
  Be  Be3  1  0.315318  0.539671  0.184663  1
  Be  Be4  1  0.185422  0.957773  0.314346  1
  Be  Be5  1  0.040012  0.685938  0.460428  1
  Be  Be6  1  0.458823  0.813634  0.040798  1
  Be  Be7  1  0.684995  0.037263  0.814737  1
  Be  Be8  1  0.816429  0.464663  0.683520  1
  Be  Be9  1  0.958484  0.543209  0.311098  1
  Be  Be10  1  0.540535  0.955956  0.189685  1
  Be  Be11  1  0.188377  0.312501  0.542291  1
  Be  Be12  1  0.311542  0.186698  0.959187  1
  Be  Be13  1  0.460874  0.036547  0.686633  1
  Be  Be14  1  0.038505  0.461778  0.813292  1
  Be  Be15  1  0.813861  0.684927  0.038778  1
  Be  Be16  1  0.686965  0.813717  0.461341  1
  Be  Be17  1  0.311154  0.959189  0.541596  1
  Be  Be18  1  0.186196  0.541528  0.958340  1
  Be  Be19  1  0.540804  0.186008  0.314446  1
  Be  Be20  1  0.958673  0.312496  0.188580  1
  Be  Be21  1  0.686695  0.461373  0.039119  1
  Be  Be22  1  0.813743  0.038418  0.460613  1
  Be  Be23  1  0.039080  0.813686  0.686119  1
  Be  Be24  1  0.461257  0.686188  0.813209  1
  Be  Be25  1  0.251732  0.250427  0.248432  1
  Be  Be26  1  0.749783  0.752110  0.749835  1
  Ni  Ni27  1  0.548216  0.308788  0.953648  1
