# generated using pymatgen
data_Tb5DyPtBr10
_symmetry_space_group_name_H-M   'P 1'
_cell_length_a   7.43178396
_cell_length_b   9.29670904
_cell_length_c   9.37334363
_cell_angle_alpha   107.70764104
_cell_angle_beta   96.85745305
_cell_angle_gamma   104.91193183
_symmetry_Int_Tables_number   1
_chemical_formula_structural   Tb5DyPtBr10
_chemical_formula_sum   'Tb5 Dy1 Pt1 Br10'
_cell_volume   582.24816848
_cell_formula_units_Z   1
loop_
 _symmetry_equiv_pos_site_id
 _symmetry_equiv_pos_as_xyz
  1  'x, y, z'
loop_
 _atom_site_type_symbol
 _atom_site_label
 _atom_site_symmetry_multiplicity
 _atom_site_fract_x
 _atom_site_fract_y
 _atom_site_fract_z
 _atom_site_occupancy
  Tb  Tb0  1  0.029494  0.699237  0.903946  1
  Tb  Tb1  1  0.641112  0.867586  0.820091  1
  Tb  Tb2  1  0.358920  0.133492  0.180222  1
  Tb  Tb3  1  0.128815  0.049135  0.754621  1
  Tb  Tb4  1  0.871641  0.950268  0.245371  1
  Dy  Dy5  1  0.969789  0.298515  0.095154  1
  Pt  Pt6  1  0.000154  0.999627  0.999972  1
  Br  Br7  1  0.545850  0.177551  0.917081  1
  Br  Br8  1  0.455221  0.824116  0.083797  1
  Br  Br9  1  0.756639  0.918821  0.544356  1
  Br  Br10  1  0.243786  0.082034  0.455798  1
  Br  Br11  1  0.086325  0.370977  0.831208  1
  Br  Br12  1  0.914251  0.627253  0.169938  1
  Br  Br13  1  0.220631  0.748469  0.656435  1
  Br  Br14  1  0.780914  0.252658  0.342616  1
  Br  Br15  1  0.650275  0.550394  0.727837  1
  Br  Br16  1  0.346183  0.449871  0.271558  1
