# generated using pymatgen
data_Nb12Zn11NiN2
_symmetry_space_group_name_H-M   'P 1'
_cell_length_a   8.18378550
_cell_length_b   8.17314523
_cell_length_c   8.18378700
_cell_angle_alpha   59.95692352
_cell_angle_beta   59.99999799
_cell_angle_gamma   59.95692653
_symmetry_Int_Tables_number   1
_chemical_formula_structural   Nb12Zn11NiN2
_chemical_formula_sum   'Nb12 Zn11 Ni1 N2'
_cell_volume   386.81178771
_cell_formula_units_Z   1
loop_
 _symmetry_equiv_pos_site_id
 _symmetry_equiv_pos_as_xyz
  1  'x, y, z'
loop_
 _atom_site_type_symbol
 _atom_site_label
 _atom_site_symmetry_multiplicity
 _atom_site_fract_x
 _atom_site_fract_y
 _atom_site_fract_z
 _atom_site_occupancy
  Nb  Nb0  1  0.189015  0.811587  0.189015  1
  Nb  Nb1  1  0.438649  0.061367  0.438649  1
  Nb  Nb2  1  0.438649  0.061367  0.061334  1
  Nb  Nb3  1  0.441233  0.440942  0.058913  1
  Nb  Nb4  1  0.189015  0.811587  0.810382  1
  Nb  Nb5  1  0.058913  0.440942  0.058913  1
  Nb  Nb6  1  0.810382  0.811587  0.189015  1
  Nb  Nb7  1  0.058913  0.440942  0.441233  1
  Nb  Nb8  1  0.187482  0.191757  0.810380  1
  Nb  Nb9  1  0.810380  0.191757  0.187482  1
  Nb  Nb10  1  0.810380  0.191757  0.810380  1
  Nb  Nb11  1  0.061334  0.061367  0.438649  1
  Zn  Zn12  1  0.416992  0.417600  0.748417  1
  Zn  Zn13  1  0.748417  0.417600  0.416992  1
  Zn  Zn14  1  0.416992  0.417600  0.416992  1
  Zn  Zn15  1  0.832818  0.830395  0.503969  1
  Zn  Zn16  1  0.417473  0.747581  0.417473  1
  Zn  Zn17  1  0.832818  0.830395  0.832818  1
  Zn  Zn18  1  0.503969  0.830395  0.832818  1
  Zn  Zn19  1  0.625292  0.124123  0.625292  1
  Zn  Zn20  1  0.627417  0.623010  0.122155  1
  Zn  Zn21  1  0.122155  0.623010  0.627417  1
  Zn  Zn22  1  0.627417  0.623010  0.627417  1
  Ni  Ni23  1  0.834791  0.495627  0.834791  1
  N  N24  1  0.000063  0.999811  0.000063  1
  N  N25  1  0.249039  0.252883  0.249039  1
