# generated using pymatgen
data_K3(MnSe2)2
_symmetry_space_group_name_H-M   'P 1'
_cell_length_a   7.54274300
_cell_length_b   12.13770000
_cell_length_c   11.99577700
_cell_angle_alpha   90.00000000
_cell_angle_beta   90.00000000
_cell_angle_gamma   90.00000000
_symmetry_Int_Tables_number   1
_chemical_formula_structural   K3(MnSe2)2
_chemical_formula_sum   'K12 Mn8 Se16'
_cell_volume   1098.23199833
_cell_formula_units_Z   4
loop_
 _symmetry_equiv_pos_site_id
 _symmetry_equiv_pos_as_xyz
  1  'x, y, z'
loop_
 _atom_site_type_symbol
 _atom_site_label
 _atom_site_symmetry_multiplicity
 _atom_site_fract_x
 _atom_site_fract_y
 _atom_site_fract_z
 _atom_site_occupancy
  K  K0  1  0.085178  0.250000  0.765918  1
  K  K1  1  0.585178  0.250000  0.734082  1
  K  K2  1  0.914822  0.750000  0.234082  1
  K  K3  1  0.414822  0.750000  0.265918  1
  K  K4  1  0.071572  0.421222  0.138199  1
  K  K5  1  0.571572  0.078778  0.361801  1
  K  K6  1  0.928428  0.921222  0.861801  1
  K  K7  1  0.428428  0.578778  0.638199  1
  K  K8  1  0.928428  0.578778  0.861801  1
  K  K9  1  0.428428  0.921222  0.638199  1
  K  K10  1  0.071572  0.078778  0.138199  1
  K  K11  1  0.571572  0.421222  0.361801  1
  Mn  Mn12  1  0.058062  0.375837  0.467016  1
  Mn  Mn13  1  0.558062  0.124163  0.032984  1
  Mn  Mn14  1  0.941938  0.875837  0.532984  1
  Mn  Mn15  1  0.441938  0.624163  0.967016  1
  Mn  Mn16  1  0.941938  0.624163  0.532984  1
  Mn  Mn17  1  0.441938  0.875837  0.967016  1
  Mn  Mn18  1  0.058062  0.124163  0.467016  1
  Mn  Mn19  1  0.558062  0.375837  0.032984  1
  Se  Se20  1  0.160736  0.555127  0.389860  1
  Se  Se21  1  0.660736  0.944873  0.110140  1
  Se  Se22  1  0.839264  0.055127  0.610140  1
  Se  Se23  1  0.339264  0.444873  0.889860  1
  Se  Se24  1  0.839264  0.444873  0.610140  1
  Se  Se25  1  0.339264  0.055127  0.889860  1
  Se  Se26  1  0.160736  0.944873  0.389860  1
  Se  Se27  1  0.660736  0.555127  0.110140  1
  Se  Se28  1  0.303356  0.250000  0.526130  1
  Se  Se29  1  0.803356  0.250000  0.973870  1
  Se  Se30  1  0.696644  0.750000  0.473870  1
  Se  Se31  1  0.196644  0.750000  0.026130  1
  Se  Se32  1  0.412006  0.250000  0.165940  1
  Se  Se33  1  0.912006  0.250000  0.334060  1
  Se  Se34  1  0.587994  0.750000  0.834060  1
  Se  Se35  1  0.087994  0.750000  0.665940  1
