# generated using pymatgen
data_La2PaSb4Pt3
_symmetry_space_group_name_H-M   'P 1'
_cell_length_a   8.60942569
_cell_length_b   8.60942609
_cell_length_c   8.60942536
_cell_angle_alpha   109.57525834
_cell_angle_beta   109.26336189
_cell_angle_gamma   109.57524246
_symmetry_Int_Tables_number   1
_chemical_formula_structural   La2PaSb4Pt3
_chemical_formula_sum   'La4 Pa2 Sb8 Pt6'
_cell_volume   491.24299182
_cell_formula_units_Z   2
loop_
 _symmetry_equiv_pos_site_id
 _symmetry_equiv_pos_as_xyz
  1  'x, y, z'
loop_
 _atom_site_type_symbol
 _atom_site_label
 _atom_site_symmetry_multiplicity
 _atom_site_fract_x
 _atom_site_fract_y
 _atom_site_fract_z
 _atom_site_occupancy
  La  La0  1  0.250000  0.124337  0.874337  1
  La  La1  1  0.750000  0.375663  0.625663  1
  La  La2  1  0.125663  0.875663  0.250000  1
  La  La3  1  0.374337  0.624337  0.750000  1
  Pa  Pa4  1  0.875000  0.250000  0.125000  1
  Pa  Pa5  1  0.625000  0.750000  0.375000  1
  Sb  Sb6  1  0.673624  0.500969  0.004501  1
  Sb  Sb7  1  0.503532  0.999031  0.672655  1
  Sb  Sb8  1  0.996468  0.669124  0.495499  1
  Sb  Sb9  1  0.826376  0.830876  0.827345  1
  Sb  Sb10  1  0.504501  0.000969  0.173624  1
  Sb  Sb11  1  0.172655  0.499031  0.003532  1
  Sb  Sb12  1  0.995499  0.169124  0.496468  1
  Sb  Sb13  1  0.327345  0.330876  0.326376  1
  Pt  Pt14  1  0.375000  0.250000  0.625000  1
  Pt  Pt15  1  0.125000  0.750000  0.875000  1
  Pt  Pt16  1  0.250000  0.621020  0.371020  1
  Pt  Pt17  1  0.750000  0.878980  0.128980  1
  Pt  Pt18  1  0.628980  0.378980  0.250000  1
  Pt  Pt19  1  0.871020  0.121020  0.750000  1
