# generated using pymatgen
data_La3Sb2Se
_symmetry_space_group_name_H-M   'P 1'
_cell_length_a   7.84848382
_cell_length_b   7.84848336
_cell_length_c   7.84848460
_cell_angle_alpha   146.45563679
_cell_angle_beta   131.74854109
_cell_angle_gamma   60.04491503
_symmetry_Int_Tables_number   1
_chemical_formula_structural   La3Sb2Se
_chemical_formula_sum   'La3 Sb2 Se1'
_cell_volume   197.48937192
_cell_formula_units_Z   1
loop_
 _symmetry_equiv_pos_site_id
 _symmetry_equiv_pos_as_xyz
  1  'x, y, z'
loop_
 _atom_site_type_symbol
 _atom_site_label
 _atom_site_symmetry_multiplicity
 _atom_site_fract_x
 _atom_site_fract_y
 _atom_site_fract_z
 _atom_site_occupancy
  La  La0  1  0.000000  0.000000  0.000000  1
  La  La1  1  0.661663  0.661663  0.000000  1
  La  La2  1  0.338337  0.338337  0.000000  1
  Sb  Sb3  1  0.168298  0.668298  0.500000  1
  Sb  Sb4  1  0.831702  0.331702  0.500000  1
  Se  Se5  1  0.500000  0.000000  0.500000  1
