# generated using pymatgen
data_Pr4Ga4Pd7Pt
_symmetry_space_group_name_H-M   'P 1'
_cell_length_a   5.80442707
_cell_length_b   7.17075429
_cell_length_c   7.64050128
_cell_angle_alpha   89.94066057
_cell_angle_beta   90.02986597
_cell_angle_gamma   89.90784598
_symmetry_Int_Tables_number   1
_chemical_formula_structural   Pr4Ga4Pd7Pt
_chemical_formula_sum   'Pr4 Ga4 Pd7 Pt1'
_cell_volume   318.01323821
_cell_formula_units_Z   1
loop_
 _symmetry_equiv_pos_site_id
 _symmetry_equiv_pos_as_xyz
  1  'x, y, z'
loop_
 _atom_site_type_symbol
 _atom_site_label
 _atom_site_symmetry_multiplicity
 _atom_site_fract_x
 _atom_site_fract_y
 _atom_site_fract_z
 _atom_site_occupancy
  Pr  Pr0  1  0.349949  0.748704  0.034660  1
  Pr  Pr1  1  0.148353  0.748743  0.532484  1
  Pr  Pr2  1  0.650228  0.250854  0.967559  1
  Pr  Pr3  1  0.851318  0.251789  0.464160  1
  Ga  Ga4  1  0.651050  0.748945  0.381279  1
  Ga  Ga5  1  0.849163  0.749543  0.881449  1
  Ga  Ga6  1  0.349203  0.250625  0.618596  1
  Ga  Ga7  1  0.149378  0.250994  0.118890  1
  Pd  Pd8  1  0.587701  0.946215  0.676887  1
  Pd  Pd9  1  0.088644  0.053097  0.822915  1
  Pd  Pd10  1  0.411630  0.446340  0.322924  1
  Pd  Pd11  1  0.088762  0.446044  0.822248  1
  Pd  Pd12  1  0.411679  0.053409  0.322798  1
  Pd  Pd13  1  0.912368  0.947905  0.177126  1
  Pd  Pd14  1  0.587375  0.552996  0.677753  1
  Pt  Pt15  1  0.913198  0.553798  0.178273  1
