# generated using pymatgen
data_Pu2Al3Ge
_symmetry_space_group_name_H-M   'P 1'
_cell_length_a   5.57739408
_cell_length_b   5.57739382
_cell_length_c   5.57739487
_cell_angle_alpha   58.56915305
_cell_angle_beta   58.56915235
_cell_angle_gamma   58.56915740
_symmetry_Int_Tables_number   1
_chemical_formula_structural   Pu2Al3Ge
_chemical_formula_sum   'Pu2 Al3 Ge1'
_cell_volume   118.66746225
_cell_formula_units_Z   1
loop_
 _symmetry_equiv_pos_site_id
 _symmetry_equiv_pos_as_xyz
  1  'x, y, z'
loop_
 _atom_site_type_symbol
 _atom_site_label
 _atom_site_symmetry_multiplicity
 _atom_site_fract_x
 _atom_site_fract_y
 _atom_site_fract_z
 _atom_site_occupancy
  Pu  Pu0  1  0.249503  0.249503  0.249503  1
  Pu  Pu1  1  0.000497  0.000497  0.000497  1
  Al  Al2  1  0.625000  0.125000  0.625000  1
  Al  Al3  1  0.625000  0.625000  0.125000  1
  Al  Al4  1  0.125000  0.625000  0.625000  1
  Ge  Ge5  1  0.625000  0.625000  0.625000  1
