# generated using pymatgen
data_CsTlAs2O7
_symmetry_space_group_name_H-M   'P 1'
_cell_length_a   7.99861487
_cell_length_b   8.86373577
_cell_length_c   10.69576700
_cell_angle_alpha   91.16349562
_cell_angle_beta   89.94365416
_cell_angle_gamma   105.73090943
_symmetry_Int_Tables_number   1
_chemical_formula_structural   CsTlAs2O7
_chemical_formula_sum   'Cs4 Tl4 As8 O28'
_cell_volume   729.74394524
_cell_formula_units_Z   4
loop_
 _symmetry_equiv_pos_site_id
 _symmetry_equiv_pos_as_xyz
  1  'x, y, z'
loop_
 _atom_site_type_symbol
 _atom_site_label
 _atom_site_symmetry_multiplicity
 _atom_site_fract_x
 _atom_site_fract_y
 _atom_site_fract_z
 _atom_site_occupancy
  Cs  Cs0  1  0.293939  0.955192  0.204095  1
  Cs  Cs1  1  0.706061  0.044808  0.795905  1
  Cs  Cs2  1  0.660548  0.530027  0.690513  1
  Cs  Cs3  1  0.339452  0.469973  0.309487  1
  Tl  Tl4  1  0.729568  0.774698  0.103400  1
  Tl  Tl5  1  0.258558  0.739179  0.597267  1
  Tl  Tl6  1  0.741442  0.260821  0.402733  1
  Tl  Tl7  1  0.270432  0.225302  0.896600  1
  As  As8  1  0.046310  0.796595  0.870185  1
  As  As9  1  0.663677  0.860539  0.434410  1
  As  As10  1  0.360217  0.664833  0.906669  1
  As  As11  1  0.078836  0.330324  0.639099  1
  As  As12  1  0.953690  0.203405  0.129815  1
  As  As13  1  0.639783  0.335167  0.093331  1
  As  As14  1  0.336323  0.139461  0.565590  1
  As  As15  1  0.921164  0.669676  0.360901  1
  O  O16  1  0.167571  0.257458  0.087446  1
  O  O17  1  0.127814  0.177065  0.546523  1
  O  O18  1  0.038554  0.783643  0.710282  1
  O  O19  1  0.697964  0.039671  0.506166  1
  O  O20  1  0.961446  0.216357  0.289718  1
  O  O21  1  0.112576  0.648494  0.414213  1
  O  O22  1  0.583779  0.225209  0.224262  1
  O  O23  1  0.480213  0.278538  0.483675  1
  O  O24  1  0.608992  0.849551  0.280093  1
  O  O25  1  0.049279  0.266112  0.789549  1
  O  O26  1  0.519787  0.721462  0.516325  1
  O  O27  1  0.167716  0.964467  0.939056  1
  O  O28  1  0.950721  0.733888  0.210451  1
  O  O29  1  0.391008  0.150449  0.719907  1
  O  O30  1  0.746024  0.513224  0.379443  1
  O  O31  1  0.395074  0.486851  0.889795  1
  O  O32  1  0.868082  0.356843  0.069954  1
  O  O33  1  0.887424  0.351506  0.585787  1
  O  O34  1  0.535437  0.226975  0.967857  1
  O  O35  1  0.416221  0.774791  0.775738  1
  O  O36  1  0.131918  0.643157  0.930046  1
  O  O37  1  0.604926  0.513149  0.110205  1
  O  O38  1  0.302036  0.960329  0.493834  1
  O  O39  1  0.253976  0.486776  0.620557  1
  O  O40  1  0.832429  0.742542  0.912554  1
  O  O41  1  0.464563  0.773025  0.032143  1
  O  O42  1  0.872186  0.822935  0.453477  1
  O  O43  1  0.832284  0.035533  0.060944  1
