# generated using pymatgen
data_Sc2Pa6Sn3Bi7
_symmetry_space_group_name_H-M   'P 1'
_cell_length_a   9.47639300
_cell_length_b   9.47639319
_cell_length_c   6.32128000
_cell_angle_alpha   90.00000000
_cell_angle_beta   90.00000000
_cell_angle_gamma   120.00000284
_symmetry_Int_Tables_number   1
_chemical_formula_structural   Sc2Pa6Sn3Bi7
_chemical_formula_sum   'Sc2 Pa6 Sn3 Bi7'
_cell_volume   491.61121529
_cell_formula_units_Z   1
loop_
 _symmetry_equiv_pos_site_id
 _symmetry_equiv_pos_as_xyz
  1  'x, y, z'
loop_
 _atom_site_type_symbol
 _atom_site_label
 _atom_site_symmetry_multiplicity
 _atom_site_fract_x
 _atom_site_fract_y
 _atom_site_fract_z
 _atom_site_occupancy
  Sc  Sc0  1  0.000000  0.000000  0.000000  1
  Sc  Sc1  1  0.000000  0.000000  0.500000  1
  Pa  Pa2  1  0.004363  0.609036  0.246807  1
  Pa  Pa3  1  0.390964  0.395327  0.246807  1
  Pa  Pa4  1  0.390964  0.995637  0.753193  1
  Pa  Pa5  1  0.604673  0.609036  0.753193  1
  Pa  Pa6  1  0.604673  0.995637  0.246807  1
  Pa  Pa7  1  0.004363  0.395327  0.753193  1
  Sn  Sn8  1  0.333333  0.666667  0.500000  1
  Sn  Sn9  1  0.666667  0.333333  0.000000  1
  Sn  Sn10  1  0.333333  0.666667  0.000000  1
  Bi  Bi11  1  0.999625  0.268553  0.250068  1
  Bi  Bi12  1  0.268928  0.268553  0.749932  1
  Bi  Bi13  1  0.731447  0.000375  0.749932  1
  Bi  Bi14  1  0.999625  0.731072  0.749932  1
  Bi  Bi15  1  0.731447  0.731072  0.250068  1
  Bi  Bi16  1  0.268928  0.000375  0.250068  1
  Bi  Bi17  1  0.666667  0.333333  0.500000  1
