# generated using pymatgen
data_DyThPt2Pb
_symmetry_space_group_name_H-M   'P 1'
_cell_length_a   8.08203000
_cell_length_b   8.09682400
_cell_length_c   3.65695500
_cell_angle_alpha   90.00000000
_cell_angle_beta   90.00000000
_cell_angle_gamma   90.00000000
_symmetry_Int_Tables_number   1
_chemical_formula_structural   DyThPt2Pb
_chemical_formula_sum   'Dy2 Th2 Pt4 Pb2'
_cell_volume   239.30665350
_cell_formula_units_Z   2
loop_
 _symmetry_equiv_pos_site_id
 _symmetry_equiv_pos_as_xyz
  1  'x, y, z'
loop_
 _atom_site_type_symbol
 _atom_site_label
 _atom_site_symmetry_multiplicity
 _atom_site_fract_x
 _atom_site_fract_y
 _atom_site_fract_z
 _atom_site_occupancy
  Dy  Dy0  1  0.830405  0.671495  0.500000  1
  Dy  Dy1  1  0.330405  0.828505  0.500000  1
  Th  Th2  1  0.668644  0.165310  0.500000  1
  Th  Th3  1  0.168644  0.334690  0.500000  1
  Pt  Pt4  1  0.370515  0.128252  0.000000  1
  Pt  Pt5  1  0.126864  0.624226  0.000000  1
  Pt  Pt6  1  0.626864  0.875774  0.000000  1
  Pt  Pt7  1  0.870515  0.371748  0.000000  1
  Pb  Pb8  1  0.003574  0.987442  0.000000  1
  Pb  Pb9  1  0.503574  0.512558  0.000000  1
