# generated using pymatgen
data_Ho2P6Pd20Pb
_symmetry_space_group_name_H-M   'P 1'
_cell_length_a   8.69553186
_cell_length_b   8.69553167
_cell_length_c   8.69551000
_cell_angle_alpha   60.00023097
_cell_angle_beta   60.00022413
_cell_angle_gamma   60.00018776
_symmetry_Int_Tables_number   1
_chemical_formula_structural   Ho2P6Pd20Pb
_chemical_formula_sum   'Ho2 P6 Pd20 Pb1'
_cell_volume   464.91596804
_cell_formula_units_Z   1
loop_
 _symmetry_equiv_pos_site_id
 _symmetry_equiv_pos_as_xyz
  1  'x, y, z'
loop_
 _atom_site_type_symbol
 _atom_site_label
 _atom_site_symmetry_multiplicity
 _atom_site_fract_x
 _atom_site_fract_y
 _atom_site_fract_z
 _atom_site_occupancy
  Ho  Ho0  1  0.749993  0.749993  0.750002  1
  Ho  Ho1  1  0.999995  0.999995  0.999997  1
  P  P2  1  0.736290  0.263695  0.263701  1
  P  P3  1  0.263695  0.736292  0.736303  1
  P  P4  1  0.263696  0.736289  0.263702  1
  P  P5  1  0.736295  0.263696  0.736301  1
  P  P6  1  0.263696  0.263694  0.736297  1
  P  P7  1  0.736296  0.736294  0.263701  1
  Pd  Pd8  1  0.384493  0.384490  0.384500  1
  Pd  Pd9  1  0.615684  0.615685  0.615692  1
  Pd  Pd10  1  0.384493  0.384491  0.846506  1
  Pd  Pd11  1  0.384494  0.846494  0.384501  1
  Pd  Pd12  1  0.615684  0.615686  0.152929  1
  Pd  Pd13  1  0.615686  0.152919  0.615692  1
  Pd  Pd14  1  0.846493  0.384494  0.384501  1
  Pd  Pd15  1  0.152921  0.615684  0.615693  1
  Pd  Pd16  1  0.348070  0.996483  0.996490  1
  Pd  Pd17  1  0.658943  0.996486  0.996490  1
  Pd  Pd18  1  0.996480  0.348073  0.658956  1
  Pd  Pd19  1  0.996486  0.658940  0.348077  1
  Pd  Pd20  1  0.996484  0.348068  0.996490  1
  Pd  Pd21  1  0.658939  0.996486  0.348077  1
  Pd  Pd22  1  0.996484  0.658943  0.996492  1
  Pd  Pd23  1  0.348073  0.996481  0.658951  1
  Pd  Pd24  1  0.996485  0.996482  0.348076  1
  Pd  Pd25  1  0.996486  0.996486  0.658949  1
  Pd  Pd26  1  0.658939  0.348069  0.996493  1
  Pd  Pd27  1  0.348065  0.658937  0.996498  1
  Pb  Pb28  1  0.250161  0.250176  0.249943  1
