# generated using pymatgen
data_Ho4Sc6Tl7Sb
_symmetry_space_group_name_H-M   'P 1'
_cell_length_a   7.73527220
_cell_length_b   7.88666582
_cell_length_c   14.79563300
_cell_angle_alpha   90.06349517
_cell_angle_beta   89.09533574
_cell_angle_gamma   90.10084606
_symmetry_Int_Tables_number   1
_chemical_formula_structural   Ho4Sc6Tl7Sb
_chemical_formula_sum   'Ho8 Sc12 Tl14 Sb2'
_cell_volume   902.50065505
_cell_formula_units_Z   2
loop_
 _symmetry_equiv_pos_site_id
 _symmetry_equiv_pos_as_xyz
  1  'x, y, z'
loop_
 _atom_site_type_symbol
 _atom_site_label
 _atom_site_symmetry_multiplicity
 _atom_site_fract_x
 _atom_site_fract_y
 _atom_site_fract_z
 _atom_site_occupancy
  Ho  Ho0  1  0.997388  0.181565  0.092923  1
  Ho  Ho1  1  0.002612  0.818435  0.907077  1
  Ho  Ho2  1  0.504219  0.679180  0.907646  1
  Ho  Ho3  1  0.008099  0.812337  0.590453  1
  Ho  Ho4  1  0.495781  0.320820  0.092354  1
  Ho  Ho5  1  0.991901  0.187663  0.409547  1
  Ho  Ho6  1  0.487968  0.316258  0.407056  1
  Ho  Ho7  1  0.512032  0.683742  0.592944  1
  Sc  Sc8  1  0.177311  0.493851  0.749020  1
  Sc  Sc9  1  0.822689  0.506149  0.250980  1
  Sc  Sc10  1  0.326331  0.996842  0.250826  1
  Sc  Sc11  1  0.673669  0.003158  0.749174  1
  Sc  Sc12  1  0.346433  0.153088  0.625757  1
  Sc  Sc13  1  0.653567  0.846912  0.374243  1
  Sc  Sc14  1  0.150262  0.656503  0.378043  1
  Sc  Sc15  1  0.663798  0.842186  0.126757  1
  Sc  Sc16  1  0.849738  0.343497  0.621957  1
  Sc  Sc17  1  0.336202  0.157814  0.873243  1
  Sc  Sc18  1  0.844543  0.338849  0.875252  1
  Sc  Sc19  1  0.155457  0.661151  0.124748  1
  Tl  Tl20  1  0.033355  0.119045  0.746607  1
  Tl  Tl21  1  0.966645  0.880955  0.253393  1
  Tl  Tl22  1  0.461440  0.623932  0.249282  1
  Tl  Tl23  1  0.538560  0.376068  0.750718  1
  Tl  Tl24  1  0.305912  0.849684  0.749769  1
  Tl  Tl25  1  0.694088  0.150316  0.250231  1
  Tl  Tl26  1  0.189936  0.354852  0.251827  1
  Tl  Tl27  1  0.810064  0.645148  0.748173  1
  Tl  Tl28  1  0.310941  0.956587  0.457140  1
  Tl  Tl29  1  0.818247  0.544149  0.042444  1
  Tl  Tl30  1  0.689059  0.043413  0.542860  1
  Tl  Tl31  1  0.181753  0.455851  0.957556  1
  Tl  Tl32  1  0.679485  0.043023  0.956747  1
  Tl  Tl33  1  0.320515  0.956977  0.043253  1
  Sb  Sb34  1  0.202114  0.454157  0.544447  1
  Sb  Sb35  1  0.797886  0.545843  0.455553  1
