# generated using pymatgen
data_Dy8TmSc(SiB4)4
_symmetry_space_group_name_H-M   'P 1'
_cell_length_a   7.19162100
_cell_length_b   7.19162100
_cell_length_c   7.99559400
_cell_angle_alpha   90.00000000
_cell_angle_beta   90.00000000
_cell_angle_gamma   90.00000000
_symmetry_Int_Tables_number   1
_chemical_formula_structural   Dy8TmSc(SiB4)4
_chemical_formula_sum   'Dy8 Tm1 Sc1 Si4 B16'
_cell_volume   413.52742513
_cell_formula_units_Z   1
loop_
 _symmetry_equiv_pos_site_id
 _symmetry_equiv_pos_as_xyz
  1  'x, y, z'
loop_
 _atom_site_type_symbol
 _atom_site_label
 _atom_site_symmetry_multiplicity
 _atom_site_fract_x
 _atom_site_fract_y
 _atom_site_fract_z
 _atom_site_occupancy
  Dy  Dy0  1  0.680973  0.179812  0.226790  1
  Dy  Dy1  1  0.319027  0.820188  0.773210  1
  Dy  Dy2  1  0.319027  0.820188  0.226790  1
  Dy  Dy3  1  0.820188  0.680973  0.226790  1
  Dy  Dy4  1  0.820188  0.680973  0.773210  1
  Dy  Dy5  1  0.680973  0.179812  0.773210  1
  Dy  Dy6  1  0.179812  0.319027  0.773210  1
  Dy  Dy7  1  0.179812  0.319027  0.226790  1
  Tm  Tm8  1  0.500000  0.500000  0.500000  1
  Sc  Sc9  1  0.000000  0.000000  0.500000  1
  Si  Si10  1  0.111257  0.621875  0.500000  1
  Si  Si11  1  0.888743  0.378125  0.500000  1
  Si  Si12  1  0.378125  0.111257  0.500000  1
  Si  Si13  1  0.621875  0.888743  0.500000  1
  B  B14  1  0.172682  0.039089  0.000000  1
  B  B15  1  0.827318  0.960911  0.000000  1
  B  B16  1  0.960911  0.172682  0.000000  1
  B  B17  1  0.327607  0.539264  0.000000  1
  B  B18  1  0.039089  0.827318  0.000000  1
  B  B19  1  0.672393  0.460736  0.000000  1
  B  B20  1  0.539264  0.672393  0.000000  1
  B  B21  1  0.460736  0.327607  0.000000  1
  B  B22  1  0.089805  0.589724  0.000000  1
  B  B23  1  0.910195  0.410276  0.000000  1
  B  B24  1  0.410276  0.089805  0.000000  1
  B  B25  1  0.589724  0.910195  0.000000  1
  B  B26  1  0.000000  0.000000  0.164647  1
  B  B27  1  0.000000  0.000000  0.835353  1
  B  B28  1  0.500000  0.500000  0.835813  1
  B  B29  1  0.500000  0.500000  0.164187  1
