# generated using pymatgen
data_PrNd3V4F28
_symmetry_space_group_name_H-M   'P 1'
_cell_length_a   5.64222600
_cell_length_b   9.12089990
_cell_length_c   12.15188161
_cell_angle_alpha   62.67119197
_cell_angle_beta   89.99798979
_cell_angle_gamma   90.00064130
_symmetry_Int_Tables_number   1
_chemical_formula_structural   PrNd3V4F28
_chemical_formula_sum   'Pr1 Nd3 V4 F28'
_cell_volume   555.56343383
_cell_formula_units_Z   1
loop_
 _symmetry_equiv_pos_site_id
 _symmetry_equiv_pos_as_xyz
  1  'x, y, z'
loop_
 _atom_site_type_symbol
 _atom_site_label
 _atom_site_symmetry_multiplicity
 _atom_site_fract_x
 _atom_site_fract_y
 _atom_site_fract_z
 _atom_site_occupancy
  Pr  Pr0  1  0.741974  0.806644  0.268295  1
  Nd  Nd1  1  0.758529  0.806867  0.768237  1
  Nd  Nd2  1  0.258473  0.193812  0.731656  1
  Nd  Nd3  1  0.241140  0.194593  0.231427  1
  V  V4  1  0.754231  0.274674  0.955952  1
  V  V5  1  0.254501  0.726096  0.544698  1
  V  V6  1  0.246708  0.726257  0.042165  1
  V  V7  1  0.745855  0.272972  0.456968  1
  F  F8  1  0.444625  0.707871  0.923326  1
  F  F9  1  0.945219  0.291069  0.575465  1
  F  F10  1  0.554219  0.292095  0.074768  1
  F  F11  1  0.056300  0.707719  0.425712  1
  F  F12  1  0.469787  0.285997  0.543641  1
  F  F13  1  0.969706  0.713211  0.956143  1
  F  F14  1  0.530962  0.712609  0.458727  1
  F  F15  1  0.030068  0.287241  0.042964  1
  F  F16  1  0.763561  0.501306  0.864416  1
  F  F17  1  0.262961  0.499074  0.636401  1
  F  F18  1  0.237039  0.499058  0.133906  1
  F  F19  1  0.735549  0.499448  0.365317  1
  F  F20  1  0.760465  0.049289  0.046006  1
  F  F21  1  0.260461  0.951122  0.454263  1
  F  F22  1  0.240080  0.951351  0.952714  1
  F  F23  1  0.739848  0.047551  0.546823  1
  F  F24  1  0.984095  0.732363  0.635569  1
  F  F25  1  0.484987  0.267915  0.864636  1
  F  F26  1  0.015950  0.267351  0.365625  1
  F  F27  1  0.517458  0.732121  0.132652  1
  F  F28  1  0.050621  0.743794  0.163896  1
  F  F29  1  0.547450  0.254244  0.336169  1
  F  F30  1  0.952461  0.256048  0.835297  1
  F  F31  1  0.451033  0.744433  0.665839  1
  F  F32  1  0.408217  0.970702  0.228999  1
  F  F33  1  0.910666  0.032449  0.271287  1
  F  F34  1  0.587470  0.029631  0.770854  1
  F  F35  1  0.087331  0.971024  0.729188  1
