# generated using pymatgen
data_Pu2Fe8P7Ru4
_symmetry_space_group_name_H-M   'P 1'
_cell_length_a   9.07008971
_cell_length_b   9.08004785
_cell_length_c   3.72586100
_cell_angle_alpha   90.00000000
_cell_angle_beta   90.00000000
_cell_angle_gamma   120.17908558
_symmetry_Int_Tables_number   1
_chemical_formula_structural   Pu2Fe8P7Ru4
_chemical_formula_sum   'Pu2 Fe8 P7 Ru4'
_cell_volume   265.25919465
_cell_formula_units_Z   1
loop_
 _symmetry_equiv_pos_site_id
 _symmetry_equiv_pos_as_xyz
  1  'x, y, z'
loop_
 _atom_site_type_symbol
 _atom_site_label
 _atom_site_symmetry_multiplicity
 _atom_site_fract_x
 _atom_site_fract_y
 _atom_site_fract_z
 _atom_site_occupancy
  Pu  Pu0  1  0.663977  0.329185  0.500000  1
  Pu  Pu1  1  0.336620  0.667766  0.000000  1
  Fe  Fe2  1  0.563504  0.948136  0.500000  1
  Fe  Fe3  1  0.387292  0.436993  0.500000  1
  Fe  Fe4  1  0.722504  0.879901  0.000000  1
  Fe  Fe5  1  0.119692  0.848100  0.000000  1
  Fe  Fe6  1  0.156776  0.275452  0.000000  1
  Fe  Fe7  1  0.429198  0.060480  0.000000  1
  Fe  Fe8  1  0.936478  0.363580  0.000000  1
  Fe  Fe9  1  0.629790  0.572563  0.000000  1
  P  P10  1  0.593233  0.709361  0.500000  1
  P  P11  1  0.998721  0.000402  0.000000  1
  P  P12  1  0.296726  0.892685  0.500000  1
  P  P13  1  0.119595  0.399355  0.500000  1
  P  P14  1  0.883761  0.586012  0.000000  1
  P  P15  1  0.413606  0.305430  0.000000  1
  P  P16  1  0.694646  0.106927  0.000000  1
  Ru  Ru17  1  0.901618  0.118276  0.500000  1
  Ru  Ru18  1  0.220836  0.100082  0.500000  1
  Ru  Ru19  1  0.877988  0.785692  0.500000  1
  Ru  Ru20  1  0.053440  0.613621  0.500000  1
