# generated using pymatgen
data_Tb6FeSi24Os7
_symmetry_space_group_name_H-M   'P 1'
_cell_length_a   10.12361008
_cell_length_b   10.12361050
_cell_length_c   8.15442554
_cell_angle_alpha   89.99050537
_cell_angle_beta   89.99049681
_cell_angle_gamma   132.50844284
_symmetry_Int_Tables_number   1
_chemical_formula_structural   Tb6FeSi24Os7
_chemical_formula_sum   'Tb6 Fe1 Si24 Os7'
_cell_volume   616.07900142
_cell_formula_units_Z   1
loop_
 _symmetry_equiv_pos_site_id
 _symmetry_equiv_pos_as_xyz
  1  'x, y, z'
loop_
 _atom_site_type_symbol
 _atom_site_label
 _atom_site_symmetry_multiplicity
 _atom_site_fract_x
 _atom_site_fract_y
 _atom_site_fract_z
 _atom_site_occupancy
  Tb  Tb0  1  0.501140  0.501140  0.498806  1
  Tb  Tb1  1  0.001255  0.001255  0.998666  1
  Tb  Tb2  1  0.501361  0.001197  0.749508  1
  Tb  Tb3  1  0.998427  0.499194  0.250304  1
  Tb  Tb4  1  0.499194  0.998427  0.250304  1
  Tb  Tb5  1  0.001197  0.501361  0.749508  1
  Fe  Fe6  1  0.626611  0.626611  0.872815  1
  Si  Si7  1  0.795060  0.204730  0.500391  1
  Si  Si8  1  0.295449  0.703589  0.000443  1
  Si  Si9  1  0.204730  0.795060  0.500391  1
  Si  Si10  1  0.703589  0.295449  0.000443  1
  Si  Si11  1  0.341132  0.341132  0.830805  1
  Si  Si12  1  0.669527  0.669527  0.158522  1
  Si  Si13  1  0.166895  0.166895  0.333426  1
  Si  Si14  1  0.825879  0.825879  0.673611  1
  Si  Si15  1  0.118490  0.885021  0.727782  1
  Si  Si16  1  0.114105  0.879365  0.272236  1
  Si  Si17  1  0.610565  0.376181  0.228684  1
  Si  Si18  1  0.623603  0.395402  0.772910  1
  Si  Si19  1  0.879365  0.114105  0.272236  1
  Si  Si20  1  0.885021  0.118490  0.727782  1
  Si  Si21  1  0.395402  0.623603  0.772910  1
  Si  Si22  1  0.376181  0.610565  0.228684  1
  Si  Si23  1  0.344770  0.110907  0.503869  1
  Si  Si24  1  0.888209  0.655288  0.497678  1
  Si  Si25  1  0.388231  0.154288  0.006915  1
  Si  Si26  1  0.841518  0.613461  0.990477  1
  Si  Si27  1  0.655288  0.888209  0.497678  1
  Si  Si28  1  0.110907  0.344770  0.503869  1
  Si  Si29  1  0.613461  0.841518  0.990477  1
  Si  Si30  1  0.154288  0.388231  0.006915  1
  Os  Os31  1  0.669277  0.331553  0.501744  1
  Os  Os32  1  0.168325  0.829221  0.998995  1
  Os  Os33  1  0.331553  0.669277  0.501744  1
  Os  Os34  1  0.829221  0.168325  0.998995  1
  Os  Os35  1  0.125272  0.125272  0.628425  1
  Os  Os36  1  0.872261  0.872261  0.374036  1
  Os  Os37  1  0.373236  0.373236  0.127013  1
