# generated using pymatgen
data_YbZr7(Nb3Ge4)4
_symmetry_space_group_name_H-M   'P 1'
_cell_length_a   6.87736705
_cell_length_b   7.01215973
_cell_length_c   13.38897270
_cell_angle_alpha   90.08491915
_cell_angle_beta   89.88000631
_cell_angle_gamma   90.05648540
_symmetry_Int_Tables_number   1
_chemical_formula_structural   YbZr7(Nb3Ge4)4
_chemical_formula_sum   'Yb1 Zr7 Nb12 Ge16'
_cell_volume   645.68339939
_cell_formula_units_Z   1
loop_
 _symmetry_equiv_pos_site_id
 _symmetry_equiv_pos_as_xyz
  1  'x, y, z'
loop_
 _atom_site_type_symbol
 _atom_site_label
 _atom_site_symmetry_multiplicity
 _atom_site_fract_x
 _atom_site_fract_y
 _atom_site_fract_z
 _atom_site_occupancy
  Yb  Yb0  1  0.994344  0.173363  0.091714  1
  Zr  Zr1  1  0.494331  0.326596  0.092047  1
  Zr  Zr2  1  0.990221  0.175808  0.407634  1
  Zr  Zr3  1  0.509470  0.674564  0.591145  1
  Zr  Zr4  1  0.009862  0.821899  0.905956  1
  Zr  Zr5  1  0.509555  0.676251  0.906913  1
  Zr  Zr6  1  0.009879  0.825519  0.591497  1
  Zr  Zr7  1  0.491361  0.324754  0.409179  1
  Nb  Nb8  1  0.663214  0.009232  0.749354  1
  Nb  Nb9  1  0.163065  0.492978  0.749661  1
  Nb  Nb10  1  0.337969  0.990516  0.252076  1
  Nb  Nb11  1  0.835485  0.509988  0.252927  1
  Nb  Nb12  1  0.839481  0.334598  0.624331  1
  Nb  Nb13  1  0.339020  0.165778  0.875089  1
  Nb  Nb14  1  0.161214  0.666121  0.125910  1
  Nb  Nb15  1  0.659086  0.831518  0.375880  1
  Nb  Nb16  1  0.160472  0.666330  0.376668  1
  Nb  Nb17  1  0.657336  0.830315  0.125920  1
  Nb  Nb18  1  0.836339  0.337310  0.873775  1
  Nb  Nb19  1  0.340151  0.166224  0.624688  1
  Ge  Ge20  1  0.804671  0.649038  0.749131  1
  Ge  Ge21  1  0.305512  0.851859  0.749666  1
  Ge  Ge22  1  0.195615  0.351494  0.250228  1
  Ge  Ge23  1  0.694091  0.148761  0.249876  1
  Ge  Ge24  1  0.536916  0.386494  0.749676  1
  Ge  Ge25  1  0.037515  0.114773  0.750456  1
  Ge  Ge26  1  0.461146  0.612986  0.250706  1
  Ge  Ge27  1  0.961349  0.884913  0.250706  1
  Ge  Ge28  1  0.681740  0.039559  0.539722  1
  Ge  Ge29  1  0.181759  0.462605  0.958892  1
  Ge  Ge30  1  0.322727  0.958984  0.039345  1
  Ge  Ge31  1  0.819188  0.539393  0.460527  1
  Ge  Ge32  1  0.317765  0.961583  0.460313  1
  Ge  Ge33  1  0.818827  0.540420  0.039380  1
  Ge  Ge34  1  0.678646  0.038000  0.958837  1
  Ge  Ge35  1  0.180677  0.459475  0.540171  1
