# generated using pymatgen
data_Ce3Dy3Ho4(Al2Ru3)2
_symmetry_space_group_name_H-M   'P 1'
_cell_length_a   8.42682300
_cell_length_b   8.42682295
_cell_length_c   8.42682302
_cell_angle_alpha   110.10145157
_cell_angle_beta   110.10145027
_cell_angle_gamma   110.10144512
_symmetry_Int_Tables_number   1
_chemical_formula_structural   Ce3Dy3Ho4(Al2Ru3)2
_chemical_formula_sum   'Ce3 Dy3 Ho4 Al4 Ru6'
_cell_volume   449.57905236
_cell_formula_units_Z   1
loop_
 _symmetry_equiv_pos_site_id
 _symmetry_equiv_pos_as_xyz
  1  'x, y, z'
loop_
 _atom_site_type_symbol
 _atom_site_label
 _atom_site_symmetry_multiplicity
 _atom_site_fract_x
 _atom_site_fract_y
 _atom_site_fract_z
 _atom_site_occupancy
  Ce  Ce0  1  0.253368  0.199496  0.944510  1
  Ce  Ce1  1  0.944510  0.253368  0.199496  1
  Ce  Ce2  1  0.199496  0.944510  0.253368  1
  Dy  Dy3  1  0.721005  0.506681  0.995109  1
  Dy  Dy4  1  0.995109  0.721005  0.506681  1
  Dy  Dy5  1  0.506681  0.995109  0.721005  1
  Ho  Ho6  1  0.779913  0.779913  0.779913  1
  Ho  Ho7  1  0.314062  0.566850  0.751062  1
  Ho  Ho8  1  0.751062  0.314062  0.566850  1
  Ho  Ho9  1  0.566850  0.751062  0.314062  1
  Al  Al10  1  0.412093  0.412093  0.412093  1
  Al  Al11  1  0.093791  0.498823  0.001163  1
  Al  Al12  1  0.001163  0.093791  0.498823  1
  Al  Al13  1  0.498823  0.001163  0.093791  1
  Ru  Ru14  1  0.899838  0.120014  0.754198  1
  Ru  Ru15  1  0.754198  0.899838  0.120014  1
  Ru  Ru16  1  0.120014  0.754198  0.899838  1
  Ru  Ru17  1  0.225038  0.596926  0.366059  1
  Ru  Ru18  1  0.366059  0.225038  0.596926  1
  Ru  Ru19  1  0.596926  0.366059  0.225038  1
