# generated using pymatgen
data_ThUBr8
_symmetry_space_group_name_H-M   'P 1'
_cell_length_a   7.59405755
_cell_length_b   7.28356830
_cell_length_c   7.28356148
_cell_angle_alpha   76.54548130
_cell_angle_beta   93.21026098
_cell_angle_gamma   93.21020827
_symmetry_Int_Tables_number   1
_chemical_formula_structural   ThUBr8
_chemical_formula_sum   'Th1 U1 Br8'
_cell_volume   390.81238649
_cell_formula_units_Z   1
loop_
 _symmetry_equiv_pos_site_id
 _symmetry_equiv_pos_as_xyz
  1  'x, y, z'
loop_
 _atom_site_type_symbol
 _atom_site_label
 _atom_site_symmetry_multiplicity
 _atom_site_fract_x
 _atom_site_fract_y
 _atom_site_fract_z
 _atom_site_occupancy
  Th  Th0  1  0.441504  0.197190  0.197190  1
  U  U1  1  0.559155  0.803473  0.803473  1
  Br  Br2  1  0.739089  0.047123  0.047124  1
  Br  Br3  1  0.656605  0.554051  0.167692  1
  Br  Br4  1  0.153288  0.325457  0.325457  1
  Br  Br5  1  0.344855  0.829661  0.451961  1
  Br  Br6  1  0.656605  0.167692  0.554051  1
  Br  Br7  1  0.838309  0.676931  0.676930  1
  Br  Br8  1  0.344856  0.451962  0.829661  1
  Br  Br9  1  0.265735  0.946459  0.946458  1
