# generated using pymatgen
data_CaDyGa2(Co3B)2
_symmetry_space_group_name_H-M   'P 1'
_cell_length_a   5.16105500
_cell_length_b   5.16240777
_cell_length_c   6.67730400
_cell_angle_alpha   90.00000000
_cell_angle_beta   90.00000000
_cell_angle_gamma   119.99132570
_symmetry_Int_Tables_number   1
_chemical_formula_structural   CaDyGa2(Co3B)2
_chemical_formula_sum   'Ca1 Dy1 Ga2 Co6 B2'
_cell_volume   154.08505846
_cell_formula_units_Z   1
loop_
 _symmetry_equiv_pos_site_id
 _symmetry_equiv_pos_as_xyz
  1  'x, y, z'
loop_
 _atom_site_type_symbol
 _atom_site_label
 _atom_site_symmetry_multiplicity
 _atom_site_fract_x
 _atom_site_fract_y
 _atom_site_fract_z
 _atom_site_occupancy
  Ca  Ca0  1  0.999892  0.000000  0.000000  1
  Dy  Dy1  1  0.000090  0.000000  0.500000  1
  Ga  Ga2  1  0.333226  0.666585  0.000000  1
  Ga  Ga3  1  0.666642  0.333415  0.000000  1
  Co  Co4  1  0.500029  0.000000  0.296354  1
  Co  Co5  1  0.500004  0.500032  0.296364  1
  Co  Co6  1  0.999973  0.499968  0.296364  1
  Co  Co7  1  0.500029  0.000000  0.703646  1
  Co  Co8  1  0.500004  0.500032  0.703636  1
  Co  Co9  1  0.999973  0.499968  0.703636  1
  B  B10  1  0.333322  0.666705  0.500000  1
  B  B11  1  0.666617  0.333295  0.500000  1
