# generated using pymatgen
data_Li7Y8MgSn5Pb3
_symmetry_space_group_name_H-M   'P 1'
_cell_length_a   9.48448186
_cell_length_b   9.48448173
_cell_length_c   7.33705621
_cell_angle_alpha   90.32996492
_cell_angle_beta   89.67003356
_cell_angle_gamma   119.92606859
_symmetry_Int_Tables_number   1
_chemical_formula_structural   Li7Y8MgSn5Pb3
_chemical_formula_sum   'Li7 Y8 Mg1 Sn5 Pb3'
_cell_volume   571.99619934
_cell_formula_units_Z   1
loop_
 _symmetry_equiv_pos_site_id
 _symmetry_equiv_pos_as_xyz
  1  'x, y, z'
loop_
 _atom_site_type_symbol
 _atom_site_label
 _atom_site_symmetry_multiplicity
 _atom_site_fract_x
 _atom_site_fract_y
 _atom_site_fract_z
 _atom_site_occupancy
  Li  Li0  1  0.334685  0.168197  0.696059  1
  Li  Li1  1  0.831803  0.665315  0.696059  1
  Li  Li2  1  0.165082  0.334234  0.192997  1
  Li  Li3  1  0.665766  0.834918  0.192997  1
  Li  Li4  1  0.832706  0.167294  0.693453  1
  Li  Li5  1  0.333536  0.666464  0.813444  1
  Li  Li6  1  0.668767  0.331233  0.313787  1
  Y  Y7  1  0.510885  0.489115  0.986731  1
  Y  Y8  1  0.023458  0.505819  0.492355  1
  Y  Y9  1  0.494181  0.976542  0.492355  1
  Y  Y10  1  0.521365  0.028084  0.988558  1
  Y  Y11  1  0.971916  0.478635  0.988558  1
  Y  Y12  1  0.486961  0.513039  0.496326  1
  Y  Y13  1  0.994863  0.005137  0.981108  1
  Y  Y14  1  0.996935  0.003065  0.485708  1
  Mg  Mg15  1  0.167382  0.832618  0.200076  1
  Sn  Sn16  1  0.166991  0.333855  0.755115  1
  Sn  Sn17  1  0.666145  0.833009  0.755115  1
  Sn  Sn18  1  0.833655  0.166345  0.254769  1
  Sn  Sn19  1  0.337308  0.662692  0.227083  1
  Sn  Sn20  1  0.666633  0.333367  0.722165  1
  Pb  Pb21  1  0.166529  0.833471  0.751463  1
  Pb  Pb22  1  0.337871  0.175421  0.256862  1
  Pb  Pb23  1  0.824579  0.662129  0.256862  1
