# generated using pymatgen
data_LuHf(NiP)3
_symmetry_space_group_name_H-M   'P 1'
_cell_length_a   3.68533200
_cell_length_b   10.08356300
_cell_length_c   12.27893100
_cell_angle_alpha   90.00000000
_cell_angle_beta   90.00000000
_cell_angle_gamma   90.00000000
_symmetry_Int_Tables_number   1
_chemical_formula_structural   LuHf(NiP)3
_chemical_formula_sum   'Lu4 Hf4 Ni12 P12'
_cell_volume   456.30076104
_cell_formula_units_Z   4
loop_
 _symmetry_equiv_pos_site_id
 _symmetry_equiv_pos_as_xyz
  1  'x, y, z'
loop_
 _atom_site_type_symbol
 _atom_site_label
 _atom_site_symmetry_multiplicity
 _atom_site_fract_x
 _atom_site_fract_y
 _atom_site_fract_z
 _atom_site_occupancy
  Lu  Lu0  1  0.250000  0.071633  0.208347  1
  Lu  Lu1  1  0.750000  0.928367  0.791653  1
  Lu  Lu2  1  0.750000  0.571633  0.291653  1
  Lu  Lu3  1  0.250000  0.428367  0.708347  1
  Hf  Hf4  1  0.250000  0.160302  0.497081  1
  Hf  Hf5  1  0.750000  0.839698  0.502919  1
  Hf  Hf6  1  0.750000  0.660302  0.002919  1
  Hf  Hf7  1  0.250000  0.339698  0.997081  1
  Ni  Ni8  1  0.250000  0.727891  0.664323  1
  Ni  Ni9  1  0.750000  0.272109  0.335677  1
  Ni  Ni10  1  0.750000  0.227891  0.835677  1
  Ni  Ni11  1  0.250000  0.772109  0.164323  1
  Ni  Ni12  1  0.250000  0.365388  0.218207  1
  Ni  Ni13  1  0.750000  0.634612  0.781793  1
  Ni  Ni14  1  0.750000  0.865388  0.281793  1
  Ni  Ni15  1  0.250000  0.134612  0.718207  1
  Ni  Ni16  1  0.250000  0.597102  0.482089  1
  Ni  Ni17  1  0.750000  0.402898  0.517911  1
  Ni  Ni18  1  0.750000  0.097102  0.017911  1
  Ni  Ni19  1  0.250000  0.902898  0.982089  1
  P  P20  1  0.250000  0.945616  0.623346  1
  P  P21  1  0.750000  0.054384  0.376654  1
  P  P22  1  0.750000  0.445616  0.876654  1
  P  P23  1  0.250000  0.554384  0.123346  1
  P  P24  1  0.250000  0.394620  0.400527  1
  P  P25  1  0.750000  0.605380  0.599473  1
  P  P26  1  0.750000  0.894620  0.099473  1
  P  P27  1  0.250000  0.105380  0.900527  1
  P  P28  1  0.250000  0.768147  0.355811  1
  P  P29  1  0.750000  0.231853  0.644189  1
  P  P30  1  0.750000  0.268147  0.144189  1
  P  P31  1  0.250000  0.731853  0.855811  1
