# generated using pymatgen
data_CaNiSb12OsRu2
_symmetry_space_group_name_H-M   'P 1'
_cell_length_a   8.09046072
_cell_length_b   8.10038308
_cell_length_c   8.09790609
_cell_angle_alpha   109.34981158
_cell_angle_beta   109.31723388
_cell_angle_gamma   109.33026196
_symmetry_Int_Tables_number   1
_chemical_formula_structural   CaNiSb12OsRu2
_chemical_formula_sum   'Ca1 Ni1 Sb12 Os1 Ru2'
_cell_volume   410.62113000
_cell_formula_units_Z   1
loop_
 _symmetry_equiv_pos_site_id
 _symmetry_equiv_pos_as_xyz
  1  'x, y, z'
loop_
 _atom_site_type_symbol
 _atom_site_label
 _atom_site_symmetry_multiplicity
 _atom_site_fract_x
 _atom_site_fract_y
 _atom_site_fract_z
 _atom_site_occupancy
  Ca  Ca0  1  0.000000  0.000000  0.000000  1
  Ni  Ni1  1  0.500000  0.500000  0.500000  1
  Sb  Sb2  1  0.840943  0.659928  0.503718  1
  Sb  Sb3  1  0.159057  0.340072  0.496282  1
  Sb  Sb4  1  0.157605  0.660447  0.818315  1
  Sb  Sb5  1  0.842395  0.339553  0.181685  1
  Sb  Sb6  1  0.659580  0.503575  0.840721  1
  Sb  Sb7  1  0.340420  0.496425  0.159279  1
  Sb  Sb8  1  0.662065  0.818156  0.158824  1
  Sb  Sb9  1  0.337935  0.181844  0.841176  1
  Sb  Sb10  1  0.503523  0.840532  0.658652  1
  Sb  Sb11  1  0.496477  0.159468  0.341348  1
  Sb  Sb12  1  0.181220  0.841483  0.338411  1
  Sb  Sb13  1  0.818780  0.158517  0.661589  1
  Os  Os14  1  0.500000  0.000000  0.000000  1
  Ru  Ru15  1  0.000000  0.500000  0.000000  1
  Ru  Ru16  1  0.000000  0.000000  0.500000  1
