# generated using pymatgen
data_AcNd3(B8Ru7)2
_symmetry_space_group_name_H-M   'P 1'
_cell_length_a   6.47776900
_cell_length_b   6.48913800
_cell_length_c   10.12498300
_cell_angle_alpha   90.00000000
_cell_angle_beta   90.00000000
_cell_angle_gamma   89.99785261
_symmetry_Int_Tables_number   1
_chemical_formula_structural   AcNd3(B8Ru7)2
_chemical_formula_sum   'Ac1 Nd3 B16 Ru14'
_cell_volume   425.60504711
_cell_formula_units_Z   1
loop_
 _symmetry_equiv_pos_site_id
 _symmetry_equiv_pos_as_xyz
  1  'x, y, z'
loop_
 _atom_site_type_symbol
 _atom_site_label
 _atom_site_symmetry_multiplicity
 _atom_site_fract_x
 _atom_site_fract_y
 _atom_site_fract_z
 _atom_site_occupancy
  Ac  Ac0  1  0.731950  0.884454  0.000000  1
  Nd  Nd1  1  0.123286  0.734895  0.500000  1
  Nd  Nd2  1  0.876442  0.264091  0.500000  1
  Nd  Nd3  1  0.261821  0.128478  0.000000  1
  B  B4  1  0.500127  0.000067  0.588677  1
  B  B5  1  0.500127  0.000067  0.411323  1
  B  B6  1  0.898087  0.276488  0.171258  1
  B  B7  1  0.103592  0.722839  0.828985  1
  B  B8  1  0.499805  0.500154  0.341694  1
  B  B9  1  0.499967  0.499216  0.840591  1
  B  B10  1  0.275917  0.102381  0.668871  1
  B  B11  1  0.103592  0.722839  0.171015  1
  B  B12  1  0.275917  0.102381  0.331129  1
  B  B13  1  0.898087  0.276488  0.828742  1
  B  B14  1  0.499805  0.500154  0.658306  1
  B  B15  1  0.499967  0.499216  0.159409  1
  B  B16  1  0.000116  0.499392  0.910371  1
  B  B17  1  0.725016  0.896967  0.668640  1
  B  B18  1  0.725016  0.896967  0.331360  1
  B  B19  1  0.000116  0.499392  0.089629  1
  Ru  Ru20  1  0.204589  0.399110  0.751407  1
  Ru  Ru21  1  0.398321  0.286385  0.500000  1
  Ru  Ru22  1  0.398599  0.795250  0.253321  1
  Ru  Ru23  1  0.204589  0.399110  0.248593  1
  Ru  Ru24  1  0.600793  0.713906  0.500000  1
  Ru  Ru25  1  0.600288  0.204969  0.746804  1
  Ru  Ru26  1  0.285755  0.600238  0.000000  1
  Ru  Ru27  1  0.713651  0.398270  0.000000  1
  Ru  Ru28  1  0.796732  0.598079  0.250649  1
  Ru  Ru29  1  0.796732  0.598079  0.749351  1
  Ru  Ru30  1  0.398599  0.795250  0.746679  1
  Ru  Ru31  1  0.001156  0.999730  0.251421  1
  Ru  Ru32  1  0.600288  0.204969  0.253196  1
  Ru  Ru33  1  0.001156  0.999730  0.748579  1
