# generated using pymatgen
data_Rb3CrAsBr9
_symmetry_space_group_name_H-M   'P 1'
_cell_length_a   7.62489700
_cell_length_b   7.62489631
_cell_length_c   19.51993100
_cell_angle_alpha   90.00000000
_cell_angle_beta   90.00000000
_cell_angle_gamma   119.99999864
_symmetry_Int_Tables_number   1
_chemical_formula_structural   Rb3CrAsBr9
_chemical_formula_sum   'Rb6 Cr2 As2 Br18'
_cell_volume   982.82645878
_cell_formula_units_Z   2
loop_
 _symmetry_equiv_pos_site_id
 _symmetry_equiv_pos_as_xyz
  1  'x, y, z'
loop_
 _atom_site_type_symbol
 _atom_site_label
 _atom_site_symmetry_multiplicity
 _atom_site_fract_x
 _atom_site_fract_y
 _atom_site_fract_z
 _atom_site_occupancy
  Rb  Rb0  1  0.666667  0.333333  0.919304  1
  Rb  Rb1  1  0.333333  0.666667  0.419304  1
  Rb  Rb2  1  0.666667  0.333333  0.559444  1
  Rb  Rb3  1  0.333333  0.666667  0.059444  1
  Rb  Rb4  1  0.000000  0.000000  0.762470  1
  Rb  Rb5  1  0.000000  0.000000  0.262470  1
  Cr  Cr6  1  0.666667  0.333333  0.337950  1
  Cr  Cr7  1  0.333333  0.666667  0.837950  1
  As  As8  1  0.333333  0.666667  0.655205  1
  As  As9  1  0.666667  0.333333  0.155205  1
  Br  Br10  1  0.823441  0.646881  0.409145  1
  Br  Br11  1  0.176559  0.353119  0.909145  1
  Br  Br12  1  0.176559  0.823441  0.909145  1
  Br  Br13  1  0.171110  0.342220  0.587542  1
  Br  Br14  1  0.646881  0.823441  0.909145  1
  Br  Br15  1  0.353119  0.176559  0.409145  1
  Br  Br16  1  0.018682  0.509341  0.758521  1
  Br  Br17  1  0.823441  0.176559  0.409145  1
  Br  Br18  1  0.509341  0.018682  0.258521  1
  Br  Br19  1  0.490659  0.509341  0.758521  1
  Br  Br20  1  0.509341  0.490659  0.258521  1
  Br  Br21  1  0.981318  0.490659  0.258521  1
  Br  Br22  1  0.342220  0.171110  0.087542  1
  Br  Br23  1  0.490659  0.981318  0.758521  1
  Br  Br24  1  0.828890  0.657780  0.087542  1
  Br  Br25  1  0.171110  0.828890  0.587542  1
  Br  Br26  1  0.657780  0.828890  0.587542  1
  Br  Br27  1  0.828890  0.171110  0.087542  1
