# generated using pymatgen
data_Tm6GaAs5Ru6
_symmetry_space_group_name_H-M   'P 1'
_cell_length_a   7.94759160
_cell_length_b   7.95096969
_cell_length_c   7.94759179
_cell_angle_alpha   128.10888833
_cell_angle_beta   121.91551683
_cell_angle_gamma   81.60327814
_symmetry_Int_Tables_number   1
_chemical_formula_structural   Tm6GaAs5Ru6
_chemical_formula_sum   'Tm6 Ga1 As5 Ru6'
_cell_volume   322.98076564
_cell_formula_units_Z   1
loop_
 _symmetry_equiv_pos_site_id
 _symmetry_equiv_pos_as_xyz
  1  'x, y, z'
loop_
 _atom_site_type_symbol
 _atom_site_label
 _atom_site_symmetry_multiplicity
 _atom_site_fract_x
 _atom_site_fract_y
 _atom_site_fract_z
 _atom_site_occupancy
  Tm  Tm0  1  0.453164  0.660737  0.707573  1
  Tm  Tm1  1  0.542455  0.252716  0.210260  1
  Tm  Tm2  1  0.749553  0.846058  0.596504  1
  Tm  Tm3  1  0.250191  0.846562  0.096370  1
  Tm  Tm4  1  0.050584  0.253553  0.702970  1
  Tm  Tm5  1  0.953602  0.659611  0.206010  1
  Ga  Ga6  1  0.253890  0.254901  0.501011  1
  As  As7  1  0.746428  0.252511  0.006084  1
  As  As8  1  0.333070  0.586680  0.253051  1
  As  As9  1  0.667082  0.919978  0.253856  1
  As  As10  1  0.166122  0.919978  0.752895  1
  As  As11  1  0.833629  0.586680  0.753610  1
  Ru  Ru12  1  0.504812  0.494714  0.999606  1
  Ru  Ru13  1  0.995108  0.494714  0.489902  1
  Ru  Ru14  1  0.110013  0.252926  0.121939  1
  Ru  Ru15  1  0.876782  0.012176  0.129649  1
  Ru  Ru16  1  0.382527  0.012176  0.635394  1
  Ru  Ru17  1  0.630987  0.252926  0.642914  1
