# generated using pymatgen
data_Pr3In3CuIrPd
_symmetry_space_group_name_H-M   'P 1'
_cell_length_a   7.74653400
_cell_length_b   7.74653293
_cell_length_c   4.05510400
_cell_angle_alpha   90.00000000
_cell_angle_beta   90.00000000
_cell_angle_gamma   120.00000457
_symmetry_Int_Tables_number   1
_chemical_formula_structural   Pr3In3CuIrPd
_chemical_formula_sum   'Pr3 In3 Cu1 Ir1 Pd1'
_cell_volume   210.74021139
_cell_formula_units_Z   1
loop_
 _symmetry_equiv_pos_site_id
 _symmetry_equiv_pos_as_xyz
  1  'x, y, z'
loop_
 _atom_site_type_symbol
 _atom_site_label
 _atom_site_symmetry_multiplicity
 _atom_site_fract_x
 _atom_site_fract_y
 _atom_site_fract_z
 _atom_site_occupancy
  Pr  Pr0  1  0.419580  0.407708  0.500000  1
  Pr  Pr1  1  0.592292  0.011872  0.500000  1
  Pr  Pr2  1  0.988128  0.580420  0.500000  1
  In  In3  1  0.753210  0.754897  0.000000  1
  In  In4  1  0.245103  0.998313  0.000000  1
  In  In5  1  0.001687  0.246790  0.000000  1
  Cu  Cu6  1  0.000000  0.000000  0.500000  1
  Ir  Ir7  1  0.666667  0.333333  0.000000  1
  Pd  Pd8  1  0.333333  0.666667  0.000000  1
