# generated using pymatgen
data_Dy5Co11(P3Ru2)4
_symmetry_space_group_name_H-M   'P 1'
_cell_length_a   12.20484065
_cell_length_b   12.23638149
_cell_length_c   3.76445700
_cell_angle_alpha   90.00000000
_cell_angle_beta   90.00000000
_cell_angle_gamma   119.85783225
_symmetry_Int_Tables_number   1
_chemical_formula_structural   Dy5Co11(P3Ru2)4
_chemical_formula_sum   'Dy5 Co11 P12 Ru8'
_cell_volume   487.57168155
_cell_formula_units_Z   1
loop_
 _symmetry_equiv_pos_site_id
 _symmetry_equiv_pos_as_xyz
  1  'x, y, z'
loop_
 _atom_site_type_symbol
 _atom_site_label
 _atom_site_symmetry_multiplicity
 _atom_site_fract_x
 _atom_site_fract_y
 _atom_site_fract_z
 _atom_site_occupancy
  Dy  Dy0  1  0.667184  0.333328  0.000000  1
  Dy  Dy1  1  0.328583  0.662623  0.000000  1
  Dy  Dy2  1  0.818376  0.818363  0.500000  1
  Dy  Dy3  1  0.180920  0.000460  0.500000  1
  Dy  Dy4  1  0.000438  0.182340  0.500000  1
  Co  Co5  1  0.128224  0.481796  0.500000  1
  Co  Co6  1  0.802945  0.172815  0.000000  1
  Co  Co7  1  0.828976  0.629168  0.000000  1
  Co  Co8  1  0.369034  0.197679  0.000000  1
  Co  Co9  1  0.172819  0.802303  0.000000  1
  Co  Co10  1  0.629325  0.826884  0.000000  1
  Co  Co11  1  0.195818  0.373176  0.000000  1
  Co  Co12  1  0.280687  0.282615  0.500000  1
  Co  Co13  1  0.717862  0.999456  0.500000  1
  Co  Co14  1  0.000811  0.717678  0.500000  1
  Co  Co15  1  0.000248  0.999933  0.000000  1
  P  P16  1  0.687369  0.162886  0.500000  1
  P  P17  1  0.840248  0.523717  0.500000  1
  P  P18  1  0.475787  0.315946  0.500000  1
  P  P19  1  0.160228  0.680484  0.500000  1
  P  P20  1  0.523003  0.838409  0.500000  1
  P  P21  1  0.308446  0.475481  0.500000  1
  P  P22  1  0.176907  0.178536  0.000000  1
  P  P23  1  0.822280  0.999659  0.000000  1
  P  P24  1  0.000387  0.822215  0.000000  1
  P  P25  1  0.637034  0.637710  0.000000  1
  P  P26  1  0.361601  0.999691  0.000000  1
  P  P27  1  0.005145  0.364532  0.000000  1
  Ru  Ru28  1  0.878114  0.355117  0.500000  1
  Ru  Ru29  1  0.647717  0.519327  0.500000  1
  Ru  Ru30  1  0.481518  0.128922  0.500000  1
  Ru  Ru31  1  0.351473  0.870200  0.500000  1
  Ru  Ru32  1  0.514945  0.645477  0.500000  1
  Ru  Ru33  1  0.444688  0.445079  0.000000  1
  Ru  Ru34  1  0.554583  0.999868  0.000000  1
  Ru  Ru35  1  0.006280  0.556133  0.000000  1
