# generated using pymatgen
data_Ce4Co5CuSi10
_symmetry_space_group_name_H-M   'P 1'
_cell_length_a   7.97568397
_cell_length_b   7.97568386
_cell_length_c   7.97568378
_cell_angle_alpha   138.23401526
_cell_angle_beta   105.37926112
_cell_angle_gamma   89.36521981
_symmetry_Int_Tables_number   1
_chemical_formula_structural   Ce4Co5CuSi10
_chemical_formula_sum   'Ce4 Co5 Cu1 Si10'
_cell_volume   311.75998993
_cell_formula_units_Z   1
loop_
 _symmetry_equiv_pos_site_id
 _symmetry_equiv_pos_as_xyz
  1  'x, y, z'
loop_
 _atom_site_type_symbol
 _atom_site_label
 _atom_site_symmetry_multiplicity
 _atom_site_fract_x
 _atom_site_fract_y
 _atom_site_fract_z
 _atom_site_occupancy
  Ce  Ce0  1  0.866963  0.632918  0.238521  1
  Ce  Ce1  1  0.133037  0.371558  0.765954  1
  Ce  Ce2  1  0.394396  0.128442  0.261479  1
  Ce  Ce3  1  0.605604  0.867082  0.734046  1
  Co  Co4  1  0.000000  0.250000  0.250000  1
  Co  Co5  1  0.250748  0.861542  0.382362  1
  Co  Co6  1  0.749252  0.131614  0.610794  1
  Co  Co7  1  0.479180  0.368386  0.117638  1
  Co  Co8  1  0.520820  0.638458  0.889206  1
  Cu  Cu9  1  0.000000  0.750000  0.750000  1
  Si  Si10  1  0.500000  0.750000  0.250000  1
  Si  Si11  1  0.500000  0.250000  0.750000  1
  Si  Si12  1  0.241640  0.991640  0.750000  1
  Si  Si13  1  0.758360  0.508360  0.750000  1
  Si  Si14  1  0.766467  0.016467  0.250000  1
  Si  Si15  1  0.233533  0.483533  0.250000  1
  Si  Si16  1  0.042991  0.897710  0.157886  1
  Si  Si17  1  0.957009  0.114895  0.854719  1
  Si  Si18  1  0.739824  0.385105  0.342114  1
  Si  Si19  1  0.260176  0.602290  0.645281  1
