# generated using pymatgen
data_Ce4Hg2PRh10
_symmetry_space_group_name_H-M   'P 1'
_cell_length_a   7.28948865
_cell_length_b   7.38910676
_cell_length_c   7.38910700
_cell_angle_alpha   108.00689310
_cell_angle_beta   110.49679676
_cell_angle_gamma   110.49679154
_symmetry_Int_Tables_number   1
_chemical_formula_structural   Ce4Hg2PRh10
_chemical_formula_sum   'Ce4 Hg2 P1 Rh10'
_cell_volume   303.99770721
_cell_formula_units_Z   1
loop_
 _symmetry_equiv_pos_site_id
 _symmetry_equiv_pos_as_xyz
  1  'x, y, z'
loop_
 _atom_site_type_symbol
 _atom_site_label
 _atom_site_symmetry_multiplicity
 _atom_site_fract_x
 _atom_site_fract_y
 _atom_site_fract_z
 _atom_site_occupancy
  Ce  Ce0  1  0.033685  0.016843  0.516843  1
  Ce  Ce1  1  0.033685  0.516843  0.016843  1
  Ce  Ce2  1  0.475032  0.962223  0.962223  1
  Ce  Ce3  1  0.475032  0.512809  0.512809  1
  Hg  Hg4  1  0.744418  0.246569  0.497850  1
  Hg  Hg5  1  0.744418  0.497850  0.246569  1
  P  P6  1  0.998560  0.999281  0.999281  1
  Rh  Rh7  1  0.508361  0.254180  0.754180  1
  Rh  Rh8  1  0.245753  0.496415  0.749336  1
  Rh  Rh9  1  0.245753  0.749336  0.496415  1
  Rh  Rh10  1  0.508361  0.754180  0.254180  1
  Rh  Rh11  1  0.737445  0.731081  0.006364  1
  Rh  Rh12  1  0.269175  0.000387  0.268788  1
  Rh  Rh13  1  0.986852  0.256081  0.256081  1
  Rh  Rh14  1  0.269175  0.268788  0.000387  1
  Rh  Rh15  1  0.737445  0.006364  0.731081  1
  Rh  Rh16  1  0.986852  0.730771  0.730771  1
