# generated using pymatgen
data_SmEr2Be2(PPd5)4
_symmetry_space_group_name_H-M   'P 1'
_cell_length_a   8.66970108
_cell_length_b   8.59095498
_cell_length_c   8.59095581
_cell_angle_alpha   60.60731396
_cell_angle_beta   59.69646704
_cell_angle_gamma   59.69638382
_symmetry_Int_Tables_number   1
_chemical_formula_structural   SmEr2Be2(PPd5)4
_chemical_formula_sum   'Sm1 Er2 Be2 P4 Pd20'
_cell_volume   452.37537916
_cell_formula_units_Z   1
loop_
 _symmetry_equiv_pos_site_id
 _symmetry_equiv_pos_as_xyz
  1  'x, y, z'
loop_
 _atom_site_type_symbol
 _atom_site_label
 _atom_site_symmetry_multiplicity
 _atom_site_fract_x
 _atom_site_fract_y
 _atom_site_fract_z
 _atom_site_occupancy
  Sm  Sm0  1  0.749999  0.750000  0.750000  1
  Er  Er1  1  0.250001  0.249995  0.250000  1
  Er  Er2  1  0.000003  0.000013  0.999988  1
  Be  Be3  1  0.732944  0.267055  0.267056  1
  Be  Be4  1  0.267055  0.732946  0.732946  1
  P  P5  1  0.266167  0.733832  0.266167  1
  P  P6  1  0.733832  0.266165  0.733835  1
  P  P7  1  0.266169  0.266167  0.733832  1
  P  P8  1  0.733833  0.733833  0.266167  1
  Pd  Pd9  1  0.386258  0.381559  0.381561  1
  Pd  Pd10  1  0.610543  0.616205  0.616205  1
  Pd  Pd11  1  0.381560  0.386257  0.850621  1
  Pd  Pd12  1  0.381561  0.850622  0.386258  1
  Pd  Pd13  1  0.616205  0.610543  0.157048  1
  Pd  Pd14  1  0.616206  0.157044  0.610544  1
  Pd  Pd15  1  0.850622  0.381558  0.381561  1
  Pd  Pd16  1  0.157044  0.616207  0.616207  1
  Pd  Pd17  1  0.343353  0.000831  0.000833  1
  Pd  Pd18  1  0.654983  0.000833  0.000833  1
  Pd  Pd19  1  0.000832  0.343352  0.654981  1
  Pd  Pd20  1  0.000832  0.654983  0.343352  1
  Pd  Pd21  1  0.997399  0.342794  0.003484  1
  Pd  Pd22  1  0.656324  0.003484  0.342795  1
  Pd  Pd23  1  0.003484  0.656323  0.997399  1
  Pd  Pd24  1  0.342795  0.997398  0.656321  1
  Pd  Pd25  1  0.997399  0.003482  0.342795  1
  Pd  Pd26  1  0.003483  0.997399  0.656324  1
  Pd  Pd27  1  0.656322  0.342795  0.003485  1
  Pd  Pd28  1  0.342793  0.656321  0.997401  1
