# generated using pymatgen
data_Gd(HfH5)3
_symmetry_space_group_name_H-M   'P 1'
_cell_length_a   7.05526680
_cell_length_b   7.07613475
_cell_length_c   7.12138256
_cell_angle_alpha   109.57724234
_cell_angle_beta   109.45864717
_cell_angle_gamma   109.05794322
_symmetry_Int_Tables_number   1
_chemical_formula_structural   Gd(HfH5)3
_chemical_formula_sum   'Gd2 Hf6 H30'
_cell_volume   274.75592001
_cell_formula_units_Z   2
loop_
 _symmetry_equiv_pos_site_id
 _symmetry_equiv_pos_as_xyz
  1  'x, y, z'
loop_
 _atom_site_type_symbol
 _atom_site_label
 _atom_site_symmetry_multiplicity
 _atom_site_fract_x
 _atom_site_fract_y
 _atom_site_fract_z
 _atom_site_occupancy
  Gd  Gd0  1  0.910808  0.909197  0.908529  1
  Gd  Gd1  1  0.502285  0.000666  0.091464  1
  Hf  Hf2  1  0.006987  0.110571  0.506934  1
  Hf  Hf3  1  0.105334  0.496100  0.000616  1
  Hf  Hf4  1  0.000055  0.603637  0.493068  1
  Hf  Hf5  1  0.604717  0.495485  0.999384  1
  Hf  Hf6  1  0.496549  0.001096  0.592575  1
  Hf  Hf7  1  0.403971  0.408519  0.407425  1
  H  H8  1  0.668064  0.978740  0.402735  1
  H  H9  1  0.223655  0.303453  0.847055  1
  H  H10  1  0.195080  0.424124  0.540835  1
  H  H11  1  0.091511  0.289951  0.128384  1
  H  H12  1  0.283418  0.142107  0.109033  1
  H  H13  1  0.129537  0.104105  0.295098  1
  H  H14  1  0.463129  0.161569  0.871614  1
  H  H15  1  0.721850  0.339946  0.809512  1
  H  H16  1  0.625502  0.384272  0.252074  1
  H  H17  1  0.238692  0.621796  0.367650  1
  H  H18  1  0.761959  0.870980  0.143324  1
  H  H19  1  0.118633  0.727654  0.856676  1
  H  H20  1  0.371044  0.254147  0.632351  1
  H  H21  1  0.873430  0.132198  0.747926  1
  H  H22  1  0.765328  0.576005  0.597264  1
  H  H23  1  0.304180  0.831306  0.228246  1
  H  H24  1  0.380142  0.635570  0.969817  1
  H  H25  1  0.976052  0.382648  0.660795  1
  H  H26  1  0.527403  0.196718  0.430670  1
  H  H27  1  0.412338  0.530435  0.190489  1
  H  H28  1  0.864874  0.238918  0.329315  1
  H  H29  1  0.910324  0.665753  0.030183  1
  H  H30  1  0.815256  0.721853  0.339204  1
  H  H31  1  0.154245  0.883290  0.459166  1
  H  H32  1  0.674388  0.033076  0.890968  1
  H  H33  1  0.334441  0.809008  0.704903  1
  H  H34  1  0.876601  0.456400  0.152947  1
  H  H35  1  0.596731  0.766047  0.569329  1
  H  H36  1  0.575933  0.603059  0.771752  1
  H  H37  1  0.035559  0.909601  0.670685  1
