# generated using pymatgen
data_Na(Th2B15)2
_symmetry_space_group_name_H-M   'P 1'
_cell_length_a   4.11955000
_cell_length_b   4.11955000
_cell_length_c   20.60543100
_cell_angle_alpha   90.00000000
_cell_angle_beta   90.00000000
_cell_angle_gamma   90.00000000
_symmetry_Int_Tables_number   1
_chemical_formula_structural   Na(Th2B15)2
_chemical_formula_sum   'Na1 Th4 B30'
_cell_volume   349.68842720
_cell_formula_units_Z   1
loop_
 _symmetry_equiv_pos_site_id
 _symmetry_equiv_pos_as_xyz
  1  'x, y, z'
loop_
 _atom_site_type_symbol
 _atom_site_label
 _atom_site_symmetry_multiplicity
 _atom_site_fract_x
 _atom_site_fract_y
 _atom_site_fract_z
 _atom_site_occupancy
  Na  Na0  1  0.000000  0.000000  0.000000  1
  Th  Th1  1  0.000000  0.000000  0.201309  1
  Th  Th2  1  0.000000  0.000000  0.401227  1
  Th  Th3  1  0.000000  0.000000  0.598773  1
  Th  Th4  1  0.000000  0.000000  0.798691  1
  B  B5  1  0.500000  0.500000  0.161019  1
  B  B6  1  0.500000  0.500000  0.360772  1
  B  B7  1  0.500000  0.500000  0.560391  1
  B  B8  1  0.500000  0.500000  0.759929  1
  B  B9  1  0.500000  0.500000  0.959500  1
  B  B10  1  0.500000  0.200276  0.100929  1
  B  B11  1  0.500000  0.197615  0.300432  1
  B  B12  1  0.500000  0.197479  0.500000  1
  B  B13  1  0.500000  0.197615  0.699568  1
  B  B14  1  0.500000  0.200276  0.899071  1
  B  B15  1  0.200276  0.500000  0.100929  1
  B  B16  1  0.197615  0.500000  0.300432  1
  B  B17  1  0.197479  0.500000  0.500000  1
  B  B18  1  0.197615  0.500000  0.699568  1
  B  B19  1  0.200276  0.500000  0.899071  1
  B  B20  1  0.500000  0.500000  0.040500  1
  B  B21  1  0.500000  0.500000  0.240071  1
  B  B22  1  0.500000  0.500000  0.439609  1
  B  B23  1  0.500000  0.500000  0.639228  1
  B  B24  1  0.500000  0.500000  0.838981  1
  B  B25  1  0.500000  0.799724  0.100929  1
  B  B26  1  0.500000  0.802385  0.300432  1
  B  B27  1  0.500000  0.802521  0.500000  1
  B  B28  1  0.500000  0.802385  0.699568  1
  B  B29  1  0.500000  0.799724  0.899071  1
  B  B30  1  0.799724  0.500000  0.100929  1
  B  B31  1  0.802385  0.500000  0.300432  1
  B  B32  1  0.802521  0.500000  0.500000  1
  B  B33  1  0.802385  0.500000  0.699568  1
  B  B34  1  0.799724  0.500000  0.899071  1
