# generated using pymatgen
data_Y8Ti3Si16W9
_symmetry_space_group_name_H-M   'P 1'
_cell_length_a   6.90538834
_cell_length_b   6.90538830
_cell_length_c   12.81751002
_cell_angle_alpha   89.96790320
_cell_angle_beta   90.03210057
_cell_angle_gamma   89.88262251
_symmetry_Int_Tables_number   1
_chemical_formula_structural   Y8Ti3Si16W9
_chemical_formula_sum   'Y8 Ti3 Si16 W9'
_cell_volume   611.19364400
_cell_formula_units_Z   1
loop_
 _symmetry_equiv_pos_site_id
 _symmetry_equiv_pos_as_xyz
  1  'x, y, z'
loop_
 _atom_site_type_symbol
 _atom_site_label
 _atom_site_symmetry_multiplicity
 _atom_site_fract_x
 _atom_site_fract_y
 _atom_site_fract_z
 _atom_site_occupancy
  Y  Y0  1  0.339549  0.001991  0.468609  1
  Y  Y1  1  0.496835  0.838393  0.719169  1
  Y  Y2  1  0.499751  0.161518  0.217525  1
  Y  Y3  1  0.838393  0.496835  0.280831  1
  Y  Y4  1  0.161518  0.499751  0.782475  1
  Y  Y5  1  0.659843  0.998937  0.968768  1
  Y  Y6  1  0.001991  0.339549  0.531391  1
  Y  Y7  1  0.998937  0.659843  0.031232  1
  Ti  Ti8  1  0.170744  0.831377  0.248563  1
  Ti  Ti9  1  0.831377  0.170744  0.751437  1
  Ti  Ti10  1  0.669183  0.669183  0.500000  1
  Si  Si11  1  0.200054  0.129385  0.683358  1
  Si  Si12  1  0.373054  0.698110  0.933625  1
  Si  Si13  1  0.629073  0.299162  0.433577  1
  Si  Si14  1  0.698110  0.373054  0.066375  1
  Si  Si15  1  0.299162  0.629073  0.566423  1
  Si  Si16  1  0.797319  0.871616  0.184034  1
  Si  Si17  1  0.129385  0.200054  0.316642  1
  Si  Si18  1  0.871616  0.797319  0.815966  1
  Si  Si19  1  0.288690  0.962637  0.062290  1
  Si  Si20  1  0.540117  0.791219  0.313774  1
  Si  Si21  1  0.459013  0.209793  0.814143  1
  Si  Si22  1  0.791219  0.540117  0.686226  1
  Si  Si23  1  0.209793  0.459013  0.185857  1
  Si  Si24  1  0.709947  0.041074  0.563876  1
  Si  Si25  1  0.962637  0.288690  0.937710  1
  Si  Si26  1  0.041074  0.709947  0.436124  1
  W  W27  1  0.331502  0.331502  0.000000  1
  W  W28  1  0.157904  0.002959  0.873445  1
  W  W29  1  0.494325  0.664818  0.124985  1
  W  W30  1  0.505970  0.340532  0.624811  1
  W  W31  1  0.664818  0.494325  0.875015  1
  W  W32  1  0.340532  0.505970  0.375189  1
  W  W33  1  0.839999  0.993608  0.374241  1
  W  W34  1  0.002959  0.157904  0.126555  1
  W  W35  1  0.993608  0.839999  0.625759  1
