# generated using pymatgen
data_CePmSi3Pd
_symmetry_space_group_name_H-M   'P 1'
_cell_length_a   5.92058972
_cell_length_b   5.91772371
_cell_length_c   5.91772400
_cell_angle_alpha   139.17538549
_cell_angle_beta   105.22713247
_cell_angle_gamma   88.88390575
_symmetry_Int_Tables_number   1
_chemical_formula_structural   CePmSi3Pd
_chemical_formula_sum   'Ce1 Pm1 Si3 Pd1'
_cell_volume   125.39338711
_cell_formula_units_Z   1
loop_
 _symmetry_equiv_pos_site_id
 _symmetry_equiv_pos_as_xyz
  1  'x, y, z'
loop_
 _atom_site_type_symbol
 _atom_site_label
 _atom_site_symmetry_multiplicity
 _atom_site_fract_x
 _atom_site_fract_y
 _atom_site_fract_z
 _atom_site_occupancy
  Ce  Ce0  1  0.496170  0.496916  0.999254  1
  Pm  Pm1  1  0.000550  0.001741  0.998809  1
  Si  Si2  1  0.086857  0.750779  0.336077  1
  Si  Si3  1  0.915451  0.249463  0.665989  1
  Si  Si4  1  0.418294  0.753719  0.664573  1
  Pd  Pd5  1  0.582675  0.247379  0.335296  1
