# generated using pymatgen
data_Er3Tm13(ZnIn3)2
_symmetry_space_group_name_H-M   'P 1'
_cell_length_a   10.50631300
_cell_length_b   10.50631329
_cell_length_c   6.69578800
_cell_angle_alpha   90.00000000
_cell_angle_beta   90.00000000
_cell_angle_gamma   120.00000225
_symmetry_Int_Tables_number   1
_chemical_formula_structural   Er3Tm13(ZnIn3)2
_chemical_formula_sum   'Er3 Tm13 Zn2 In6'
_cell_volume   640.07814441
_cell_formula_units_Z   1
loop_
 _symmetry_equiv_pos_site_id
 _symmetry_equiv_pos_as_xyz
  1  'x, y, z'
loop_
 _atom_site_type_symbol
 _atom_site_label
 _atom_site_symmetry_multiplicity
 _atom_site_fract_x
 _atom_site_fract_y
 _atom_site_fract_z
 _atom_site_occupancy
  Er  Er0  1  0.333333  0.666667  0.370063  1
  Er  Er1  1  0.000000  0.000000  0.498167  1
  Er  Er2  1  0.000000  0.000000  0.998518  1
  Tm  Tm3  1  0.521342  0.042682  0.518063  1
  Tm  Tm4  1  0.957318  0.478658  0.518063  1
  Tm  Tm5  1  0.521342  0.478658  0.518063  1
  Tm  Tm6  1  0.478819  0.957641  0.017738  1
  Tm  Tm7  1  0.042359  0.521181  0.017738  1
  Tm  Tm8  1  0.478819  0.521181  0.017738  1
  Tm  Tm9  1  0.173232  0.346466  0.732714  1
  Tm  Tm10  1  0.653534  0.826768  0.732714  1
  Tm  Tm11  1  0.173232  0.826768  0.732714  1
  Tm  Tm12  1  0.826727  0.653452  0.232490  1
  Tm  Tm13  1  0.346548  0.173273  0.232490  1
  Tm  Tm14  1  0.826727  0.173273  0.232490  1
  Tm  Tm15  1  0.666667  0.333333  0.870729  1
  Zn  Zn16  1  0.666667  0.333333  0.302570  1
  Zn  Zn17  1  0.333333  0.666667  0.803217  1
  In  In18  1  0.835498  0.670997  0.749716  1
  In  In19  1  0.329003  0.164502  0.749716  1
  In  In20  1  0.835498  0.164502  0.749716  1
  In  In21  1  0.164340  0.328680  0.249591  1
  In  In22  1  0.671320  0.835660  0.249591  1
  In  In23  1  0.164340  0.835660  0.249591  1
