# generated using pymatgen
data_La4Al18Ir5Pt
_symmetry_space_group_name_H-M   'P 1'
_cell_length_a   7.67746170
_cell_length_b   7.67746249
_cell_length_c   9.66001819
_cell_angle_alpha   89.97119472
_cell_angle_beta   89.97119282
_cell_angle_gamma   119.38348998
_symmetry_Int_Tables_number   1
_chemical_formula_structural   La4Al18Ir5Pt
_chemical_formula_sum   'La4 Al18 Ir5 Pt1'
_cell_volume   496.14467388
_cell_formula_units_Z   1
loop_
 _symmetry_equiv_pos_site_id
 _symmetry_equiv_pos_as_xyz
  1  'x, y, z'
loop_
 _atom_site_type_symbol
 _atom_site_label
 _atom_site_symmetry_multiplicity
 _atom_site_fract_x
 _atom_site_fract_y
 _atom_site_fract_z
 _atom_site_occupancy
  La  La0  1  0.996174  0.670019  0.250412  1
  La  La1  1  0.003826  0.329981  0.749588  1
  La  La2  1  0.670019  0.996174  0.250412  1
  La  La3  1  0.329981  0.003826  0.749588  1
  Al  Al4  1  0.133084  0.133084  0.252583  1
  Al  Al5  1  0.866916  0.866916  0.747417  1
  Al  Al6  1  0.004152  0.338496  0.074662  1
  Al  Al7  1  0.995848  0.661504  0.925338  1
  Al  Al8  1  0.996781  0.665156  0.572789  1
  Al  Al9  1  0.334844  0.003219  0.427211  1
  Al  Al10  1  0.003219  0.334844  0.427211  1
  Al  Al11  1  0.665156  0.996781  0.572789  1
  Al  Al12  1  0.661504  0.995848  0.925338  1
  Al  Al13  1  0.338496  0.004152  0.074662  1
  Al  Al14  1  0.334874  0.334874  0.545319  1
  Al  Al15  1  0.665126  0.665126  0.454681  1
  Al  Al16  1  0.662253  0.662253  0.047484  1
  Al  Al17  1  0.337747  0.337747  0.952516  1
  Al  Al18  1  0.339804  0.545050  0.250298  1
  Al  Al19  1  0.660196  0.454950  0.749702  1
  Al  Al20  1  0.545050  0.339804  0.250298  1
  Al  Al21  1  0.454950  0.660196  0.749702  1
  Ir  Ir22  1  0.670765  0.329235  0.000000  1
  Ir  Ir23  1  0.329235  0.670765  0.000000  1
  Ir  Ir24  1  0.329329  0.670671  0.500000  1
  Ir  Ir25  1  0.670671  0.329329  0.500000  1
  Ir  Ir26  1  0.000000  0.000000  0.500000  1
  Pt  Pt27  1  0.000000  0.000000  0.000000  1
