# generated using pymatgen
data_Ta6TlS12
_symmetry_space_group_name_H-M   'P 1'
_cell_length_a   5.67635011
_cell_length_b   5.67635141
_cell_length_c   15.15394600
_cell_angle_alpha   86.35477083
_cell_angle_beta   86.35477000
_cell_angle_gamma   120.00581721
_symmetry_Int_Tables_number   1
_chemical_formula_structural   Ta6TlS12
_chemical_formula_sum   'Ta6 Tl1 S12'
_cell_volume   419.40057034
_cell_formula_units_Z   1
loop_
 _symmetry_equiv_pos_site_id
 _symmetry_equiv_pos_as_xyz
  1  'x, y, z'
loop_
 _atom_site_type_symbol
 _atom_site_label
 _atom_site_symmetry_multiplicity
 _atom_site_fract_x
 _atom_site_fract_y
 _atom_site_fract_z
 _atom_site_occupancy
  Ta  Ta0  1  0.092618  0.092618  0.723577  1
  Ta  Ta1  1  0.426445  0.760260  0.723478  1
  Ta  Ta2  1  0.760260  0.426445  0.723478  1
  Ta  Ta3  1  0.239740  0.573555  0.276522  1
  Ta  Ta4  1  0.573555  0.239740  0.276522  1
  Ta  Ta5  1  0.907382  0.907382  0.276423  1
  Tl  Tl6  1  0.000000  0.000000  0.000000  1
  S  S7  1  0.276743  0.276743  0.170509  1
  S  S8  1  0.608888  0.942788  0.170527  1
  S  S9  1  0.942788  0.608888  0.170527  1
  S  S10  1  0.057212  0.391112  0.829473  1
  S  S11  1  0.391112  0.057212  0.829473  1
  S  S12  1  0.723257  0.723257  0.829491  1
  S  S13  1  0.204461  0.204461  0.381071  1
  S  S14  1  0.538441  0.871221  0.381078  1
  S  S15  1  0.871221  0.538441  0.381078  1
  S  S16  1  0.128779  0.461559  0.618922  1
  S  S17  1  0.461559  0.128779  0.618922  1
  S  S18  1  0.795539  0.795539  0.618929  1
