# generated using pymatgen
data_Zr4ReNi2Os5
_symmetry_space_group_name_H-M   'P 1'
_cell_length_a   5.15167008
_cell_length_b   5.14095455
_cell_length_c   8.54714300
_cell_angle_alpha   90.00000000
_cell_angle_beta   90.00000000
_cell_angle_gamma   119.40157706
_symmetry_Int_Tables_number   1
_chemical_formula_structural   Zr4ReNi2Os5
_chemical_formula_sum   'Zr4 Re1 Ni2 Os5'
_cell_volume   197.21084442
_cell_formula_units_Z   1
loop_
 _symmetry_equiv_pos_site_id
 _symmetry_equiv_pos_as_xyz
  1  'x, y, z'
loop_
 _atom_site_type_symbol
 _atom_site_label
 _atom_site_symmetry_multiplicity
 _atom_site_fract_x
 _atom_site_fract_y
 _atom_site_fract_z
 _atom_site_occupancy
  Zr  Zr0  1  0.330510  0.672106  0.436012  1
  Zr  Zr1  1  0.666114  0.339476  0.565757  1
  Zr  Zr2  1  0.666114  0.339476  0.934243  1
  Zr  Zr3  1  0.330510  0.672106  0.063988  1
  Re  Re4  1  0.833150  0.163827  0.250000  1
  Ni  Ni5  1  0.834696  0.654846  0.250000  1
  Ni  Ni6  1  0.170207  0.828403  0.750000  1
  Os  Os7  1  0.995443  0.999168  0.500497  1
  Os  Os8  1  0.995443  0.999168  0.999503  1
  Os  Os9  1  0.349430  0.166989  0.250000  1
  Os  Os10  1  0.172742  0.339425  0.750000  1
  Os  Os11  1  0.655641  0.825011  0.750000  1
