# generated using pymatgen
data_Dy3Sn3Hg2
_symmetry_space_group_name_H-M   'P 1'
_cell_length_a   6.42420998
_cell_length_b   6.42421025
_cell_length_c   10.23556100
_cell_angle_alpha   90.00000000
_cell_angle_beta   90.00000000
_cell_angle_gamma   102.92371136
_symmetry_Int_Tables_number   1
_chemical_formula_structural   Dy3Sn3Hg2
_chemical_formula_sum   'Dy6 Sn6 Hg4'
_cell_volume   411.72586765
_cell_formula_units_Z   2
loop_
 _symmetry_equiv_pos_site_id
 _symmetry_equiv_pos_as_xyz
  1  'x, y, z'
loop_
 _atom_site_type_symbol
 _atom_site_label
 _atom_site_symmetry_multiplicity
 _atom_site_fract_x
 _atom_site_fract_y
 _atom_site_fract_z
 _atom_site_occupancy
  Dy  Dy0  1  0.619332  0.619332  0.250000  1
  Dy  Dy1  1  0.380668  0.380668  0.750000  1
  Dy  Dy2  1  0.794986  0.205014  0.000000  1
  Dy  Dy3  1  0.205014  0.794986  0.000000  1
  Dy  Dy4  1  0.205014  0.794986  0.500000  1
  Dy  Dy5  1  0.794986  0.205014  0.500000  1
  Sn  Sn6  1  0.063821  0.496706  0.250000  1
  Sn  Sn7  1  0.936179  0.503294  0.750000  1
  Sn  Sn8  1  0.496706  0.063821  0.250000  1
  Sn  Sn9  1  0.503294  0.936179  0.750000  1
  Sn  Sn10  1  0.011045  0.011045  0.250000  1
  Sn  Sn11  1  0.988955  0.988955  0.750000  1
  Hg  Hg12  1  0.311108  0.311108  0.037678  1
  Hg  Hg13  1  0.688892  0.688892  0.962322  1
  Hg  Hg14  1  0.688892  0.688892  0.537678  1
  Hg  Hg15  1  0.311108  0.311108  0.462322  1
