# generated using pymatgen
data_CsLuBi2Se5
_symmetry_space_group_name_H-M   'P 1'
_cell_length_a   4.16207700
_cell_length_b   12.40278600
_cell_length_c   22.94528300
_cell_angle_alpha   90.00000000
_cell_angle_beta   90.00000000
_cell_angle_gamma   90.00000000
_symmetry_Int_Tables_number   1
_chemical_formula_structural   CsLuBi2Se5
_chemical_formula_sum   'Cs4 Lu4 Bi8 Se20'
_cell_volume   1184.46649254
_cell_formula_units_Z   4
loop_
 _symmetry_equiv_pos_site_id
 _symmetry_equiv_pos_as_xyz
  1  'x, y, z'
loop_
 _atom_site_type_symbol
 _atom_site_label
 _atom_site_symmetry_multiplicity
 _atom_site_fract_x
 _atom_site_fract_y
 _atom_site_fract_z
 _atom_site_occupancy
  Cs  Cs0  1  0.250000  0.487868  0.209931  1
  Cs  Cs1  1  0.750000  0.512132  0.790069  1
  Cs  Cs2  1  0.750000  0.987868  0.290069  1
  Cs  Cs3  1  0.250000  0.012132  0.709931  1
  Lu  Lu4  1  0.250000  0.364986  0.022762  1
  Lu  Lu5  1  0.750000  0.635014  0.977238  1
  Lu  Lu6  1  0.750000  0.864986  0.477238  1
  Lu  Lu7  1  0.250000  0.135014  0.522762  1
  Bi  Bi8  1  0.250000  0.801957  0.122507  1
  Bi  Bi9  1  0.750000  0.198043  0.877493  1
  Bi  Bi10  1  0.750000  0.301957  0.377493  1
  Bi  Bi11  1  0.250000  0.698043  0.622507  1
  Bi  Bi12  1  0.250000  0.596035  0.426221  1
  Bi  Bi13  1  0.750000  0.403965  0.573779  1
  Bi  Bi14  1  0.750000  0.096035  0.073779  1
  Bi  Bi15  1  0.250000  0.903965  0.926221  1
  Se  Se16  1  0.250000  0.812959  0.395729  1
  Se  Se17  1  0.750000  0.187041  0.604271  1
  Se  Se18  1  0.750000  0.312959  0.104271  1
  Se  Se19  1  0.250000  0.687041  0.895729  1
  Se  Se20  1  0.250000  0.246911  0.300922  1
  Se  Se21  1  0.750000  0.753089  0.699078  1
  Se  Se22  1  0.750000  0.746911  0.199078  1
  Se  Se23  1  0.250000  0.253089  0.800922  1
  Se  Se24  1  0.250000  0.351874  0.481282  1
  Se  Se25  1  0.750000  0.648126  0.518718  1
  Se  Se26  1  0.750000  0.851874  0.018718  1
  Se  Se27  1  0.250000  0.148126  0.981282  1
  Se  Se28  1  0.250000  0.027309  0.154450  1
  Se  Se29  1  0.750000  0.972691  0.845550  1
  Se  Se30  1  0.750000  0.527309  0.345550  1
  Se  Se31  1  0.250000  0.472691  0.654450  1
  Se  Se32  1  0.250000  0.582265  0.056337  1
  Se  Se33  1  0.750000  0.417735  0.943663  1
  Se  Se34  1  0.750000  0.082265  0.443663  1
  Se  Se35  1  0.250000  0.917735  0.556337  1
