# generated using pymatgen
data_TmLu3CdPt
_symmetry_space_group_name_H-M   'P 1'
_cell_length_a   9.49980572
_cell_length_b   9.49980597
_cell_length_c   9.49980500
_cell_angle_alpha   59.99999989
_cell_angle_beta   59.99999901
_cell_angle_gamma   59.99999821
_symmetry_Int_Tables_number   1
_chemical_formula_structural   TmLu3CdPt
_chemical_formula_sum   'Tm4 Lu12 Cd4 Pt4'
_cell_volume   606.21843897
_cell_formula_units_Z   4
loop_
 _symmetry_equiv_pos_site_id
 _symmetry_equiv_pos_as_xyz
  1  'x, y, z'
loop_
 _atom_site_type_symbol
 _atom_site_label
 _atom_site_symmetry_multiplicity
 _atom_site_fract_x
 _atom_site_fract_y
 _atom_site_fract_z
 _atom_site_occupancy
  Tm  Tm0  1  0.603630  0.603630  0.603630  1
  Tm  Tm1  1  0.603630  0.603630  0.189111  1
  Tm  Tm2  1  0.603630  0.189111  0.603630  1
  Tm  Tm3  1  0.189111  0.603630  0.603630  1
  Lu  Lu4  1  0.060474  0.439526  0.439526  1
  Lu  Lu5  1  0.439526  0.060474  0.060474  1
  Lu  Lu6  1  0.439526  0.060474  0.439526  1
  Lu  Lu7  1  0.060474  0.439526  0.060474  1
  Lu  Lu8  1  0.439526  0.439526  0.060474  1
  Lu  Lu9  1  0.060474  0.060474  0.439526  1
  Lu  Lu10  1  0.185168  0.814832  0.814832  1
  Lu  Lu11  1  0.814832  0.185168  0.185168  1
  Lu  Lu12  1  0.814832  0.185168  0.814832  1
  Lu  Lu13  1  0.185168  0.814832  0.185168  1
  Lu  Lu14  1  0.814832  0.814832  0.185168  1
  Lu  Lu15  1  0.185168  0.185168  0.814832  1
  Cd  Cd16  1  0.832574  0.832574  0.832574  1
  Cd  Cd17  1  0.832574  0.832574  0.502278  1
  Cd  Cd18  1  0.832574  0.502278  0.832574  1
  Cd  Cd19  1  0.502278  0.832574  0.832574  1
  Pt  Pt20  1  0.393041  0.393041  0.393041  1
  Pt  Pt21  1  0.393041  0.393041  0.820876  1
  Pt  Pt22  1  0.393041  0.820876  0.393041  1
  Pt  Pt23  1  0.820876  0.393041  0.393041  1
