# generated using pymatgen
data_Dy3Tm(Ga2Ag)4
_symmetry_space_group_name_H-M   'P 1'
_cell_length_a   4.37267500
_cell_length_b   6.94553766
_cell_length_c   10.24847000
_cell_angle_alpha   89.88935347
_cell_angle_beta   90.00000000
_cell_angle_gamma   90.00000000
_symmetry_Int_Tables_number   1
_chemical_formula_structural   Dy3Tm(Ga2Ag)4
_chemical_formula_sum   'Dy3 Tm1 Ga8 Ag4'
_cell_volume   311.25138611
_cell_formula_units_Z   1
loop_
 _symmetry_equiv_pos_site_id
 _symmetry_equiv_pos_as_xyz
  1  'x, y, z'
loop_
 _atom_site_type_symbol
 _atom_site_label
 _atom_site_symmetry_multiplicity
 _atom_site_fract_x
 _atom_site_fract_y
 _atom_site_fract_z
 _atom_site_occupancy
  Dy  Dy0  1  0.250000  0.779280  0.823596  1
  Dy  Dy1  1  0.750000  0.221156  0.175485  1
  Dy  Dy2  1  0.750000  0.721077  0.324876  1
  Tm  Tm3  1  0.250000  0.278800  0.675328  1
  Ga  Ga4  1  0.250000  0.699806  0.535558  1
  Ga  Ga5  1  0.750000  0.299067  0.465047  1
  Ga  Ga6  1  0.750000  0.797523  0.035755  1
  Ga  Ga7  1  0.250000  0.202259  0.963413  1
  Ga  Ga8  1  0.250000  0.928882  0.154584  1
  Ga  Ga9  1  0.750000  0.071962  0.845977  1
  Ga  Ga10  1  0.750000  0.569360  0.653743  1
  Ga  Ga11  1  0.250000  0.428371  0.345358  1
  Ag  Ag12  1  0.250000  0.545062  0.095486  1
  Ag  Ag13  1  0.750000  0.455042  0.902899  1
  Ag  Ag14  1  0.750000  0.956584  0.597184  1
  Ag  Ag15  1  0.250000  0.045772  0.405713  1
