# generated using pymatgen
data_Tb6Cr3OsC12
_symmetry_space_group_name_H-M   'P 1'
_cell_length_a   8.22460900
_cell_length_b   8.22460933
_cell_length_c   5.03152900
_cell_angle_alpha   90.00000000
_cell_angle_beta   90.00000000
_cell_angle_gamma   119.99999465
_symmetry_Int_Tables_number   1
_chemical_formula_structural   Tb6Cr3OsC12
_chemical_formula_sum   'Tb6 Cr3 Os1 C12'
_cell_volume   294.75499532
_cell_formula_units_Z   1
loop_
 _symmetry_equiv_pos_site_id
 _symmetry_equiv_pos_as_xyz
  1  'x, y, z'
loop_
 _atom_site_type_symbol
 _atom_site_label
 _atom_site_symmetry_multiplicity
 _atom_site_fract_x
 _atom_site_fract_y
 _atom_site_fract_z
 _atom_site_occupancy
  Tb  Tb0  1  0.624761  0.686252  0.750000  1
  Tb  Tb1  1  0.931796  0.621860  0.250000  1
  Tb  Tb2  1  0.690063  0.068204  0.250000  1
  Tb  Tb3  1  0.313748  0.938509  0.750000  1
  Tb  Tb4  1  0.061491  0.375239  0.750000  1
  Tb  Tb5  1  0.378140  0.309937  0.250000  1
  Cr  Cr6  1  0.000000  0.000000  0.502873  1
  Cr  Cr7  1  0.000000  0.000000  0.997127  1
  Cr  Cr8  1  0.666667  0.333333  0.750000  1
  Os  Os9  1  0.333333  0.666667  0.250000  1
  C  C10  1  0.962543  0.774054  0.750000  1
  C  C11  1  0.186423  0.963319  0.250000  1
  C  C12  1  0.776897  0.813577  0.250000  1
  C  C13  1  0.225946  0.188490  0.750000  1
  C  C14  1  0.811510  0.037457  0.750000  1
  C  C15  1  0.036681  0.223103  0.250000  1
  C  C16  1  0.862558  0.579460  0.750000  1
  C  C17  1  0.285967  0.873689  0.250000  1
  C  C18  1  0.587721  0.714033  0.250000  1
  C  C19  1  0.420540  0.283097  0.750000  1
  C  C20  1  0.126311  0.412279  0.250000  1
  C  C21  1  0.716903  0.137442  0.750000  1
