# generated using pymatgen
data_LiLa2Pr4IrBr12
_symmetry_space_group_name_H-M   'P 1'
_cell_length_a   9.65523572
_cell_length_b   9.65317305
_cell_length_c   9.79082816
_cell_angle_alpha   107.83407669
_cell_angle_beta   108.43606434
_cell_angle_gamma   108.04033262
_symmetry_Int_Tables_number   1
_chemical_formula_structural   LiLa2Pr4IrBr12
_chemical_formula_sum   'Li1 La2 Pr4 Ir1 Br12'
_cell_volume   735.88259261
_cell_formula_units_Z   1
loop_
 _symmetry_equiv_pos_site_id
 _symmetry_equiv_pos_as_xyz
  1  'x, y, z'
loop_
 _atom_site_type_symbol
 _atom_site_label
 _atom_site_symmetry_multiplicity
 _atom_site_fract_x
 _atom_site_fract_y
 _atom_site_fract_z
 _atom_site_occupancy
  Li  Li0  1  0.500192  0.500293  0.500495  1
  La  La1  1  0.117692  0.321697  0.036092  1
  La  La2  1  0.323566  0.037517  0.118500  1
  Pr  Pr3  1  0.037875  0.121758  0.332317  1
  Pr  Pr4  1  0.961912  0.876659  0.666946  1
  Pr  Pr5  1  0.678983  0.963186  0.882135  1
  Pr  Pr6  1  0.881547  0.680014  0.963641  1
  Ir  Ir7  1  0.003675  0.002744  0.000778  1
  Br  Br8  1  0.212826  0.684566  0.069872  1
  Br  Br9  1  0.469240  0.388895  0.182608  1
  Br  Br10  1  0.686804  0.069635  0.212726  1
  Br  Br11  1  0.928976  0.784475  0.311003  1
  Br  Br12  1  0.180032  0.464580  0.386371  1
  Br  Br13  1  0.384950  0.180813  0.466251  1
  Br  Br14  1  0.614426  0.820420  0.536533  1
  Br  Br15  1  0.819728  0.534819  0.616656  1
  Br  Br16  1  0.069792  0.212771  0.685615  1
  Br  Br17  1  0.312970  0.929044  0.783945  1
  Br  Br18  1  0.533644  0.614140  0.819623  1
  Br  Br19  1  0.781175  0.311976  0.927896  1
