# generated using pymatgen
data_SrTb3(Ir2O7)2
_symmetry_space_group_name_H-M   'P 1'
_cell_length_a   7.32703451
_cell_length_b   7.32703568
_cell_length_c   7.32703534
_cell_angle_alpha   59.78722264
_cell_angle_beta   59.78721531
_cell_angle_gamma   59.78721529
_symmetry_Int_Tables_number   1
_chemical_formula_structural   SrTb3(Ir2O7)2
_chemical_formula_sum   'Sr1 Tb3 Ir4 O14'
_cell_volume   276.80045025
_cell_formula_units_Z   1
loop_
 _symmetry_equiv_pos_site_id
 _symmetry_equiv_pos_as_xyz
  1  'x, y, z'
loop_
 _atom_site_type_symbol
 _atom_site_label
 _atom_site_symmetry_multiplicity
 _atom_site_fract_x
 _atom_site_fract_y
 _atom_site_fract_z
 _atom_site_occupancy
  Sr  Sr0  1  0.125000  0.125000  0.125000  1
  Tb  Tb1  1  0.625000  0.125000  0.125000  1
  Tb  Tb2  1  0.125000  0.125000  0.625000  1
  Tb  Tb3  1  0.125000  0.625000  0.125000  1
  Ir  Ir4  1  0.625000  0.625000  0.625000  1
  Ir  Ir5  1  0.125000  0.625000  0.625000  1
  Ir  Ir6  1  0.625000  0.625000  0.125000  1
  Ir  Ir7  1  0.625000  0.125000  0.625000  1
  O  O8  1  0.993158  0.993158  0.993158  1
  O  O9  1  0.256842  0.256842  0.256842  1
  O  O10  1  0.294617  0.294617  0.691474  1
  O  O11  1  0.542261  0.542261  0.956525  1
  O  O12  1  0.707739  0.293475  0.707739  1
  O  O13  1  0.691474  0.294617  0.294617  1
  O  O14  1  0.293475  0.707739  0.707739  1
  O  O15  1  0.294617  0.691474  0.294617  1
  O  O16  1  0.707739  0.707739  0.293475  1
  O  O17  1  0.956525  0.542261  0.542261  1
  O  O18  1  0.558526  0.955383  0.955383  1
  O  O19  1  0.955383  0.955383  0.558526  1
  O  O20  1  0.955383  0.558526  0.955383  1
  O  O21  1  0.542261  0.956525  0.542261  1
