# generated using pymatgen
data_Rb12LuMgSe8
_symmetry_space_group_name_H-M   'P 1'
_cell_length_a   10.99540400
_cell_length_b   10.99540384
_cell_length_c   8.38746900
_cell_angle_alpha   90.00000000
_cell_angle_beta   90.00000000
_cell_angle_gamma   120.00000049
_symmetry_Int_Tables_number   1
_chemical_formula_structural   Rb12LuMgSe8
_chemical_formula_sum   'Rb12 Lu1 Mg1 Se8'
_cell_volume   878.18079111
_cell_formula_units_Z   1
loop_
 _symmetry_equiv_pos_site_id
 _symmetry_equiv_pos_as_xyz
  1  'x, y, z'
loop_
 _atom_site_type_symbol
 _atom_site_label
 _atom_site_symmetry_multiplicity
 _atom_site_fract_x
 _atom_site_fract_y
 _atom_site_fract_z
 _atom_site_occupancy
  Rb  Rb0  1  0.137048  0.862952  0.543839  1
  Rb  Rb1  1  0.285813  0.142906  0.043360  1
  Rb  Rb2  1  0.857094  0.714187  0.043360  1
  Rb  Rb3  1  0.137048  0.274098  0.543839  1
  Rb  Rb4  1  0.725902  0.862952  0.543839  1
  Rb  Rb5  1  0.857094  0.142906  0.043360  1
  Rb  Rb6  1  0.536298  0.463702  0.370096  1
  Rb  Rb7  1  0.048935  0.524467  0.858114  1
  Rb  Rb8  1  0.475533  0.951065  0.858114  1
  Rb  Rb9  1  0.536298  0.072596  0.370096  1
  Rb  Rb10  1  0.927404  0.463702  0.370096  1
  Rb  Rb11  1  0.475533  0.524467  0.858114  1
  Lu  Lu12  1  0.333333  0.666667  0.253844  1
  Mg  Mg13  1  0.666667  0.333333  0.756745  1
  Se  Se14  1  0.333333  0.666667  0.573724  1
  Se  Se15  1  0.666667  0.333333  0.072812  1
  Se  Se16  1  0.200210  0.799790  0.150005  1
  Se  Se17  1  0.401110  0.200556  0.655344  1
  Se  Se18  1  0.799444  0.598890  0.655344  1
  Se  Se19  1  0.200210  0.400417  0.150005  1
  Se  Se20  1  0.599583  0.799790  0.150005  1
  Se  Se21  1  0.799444  0.200556  0.655344  1
