# generated using pymatgen
data_TbYb4Ho(CoSn6)2
_symmetry_space_group_name_H-M   'P 1'
_cell_length_a   8.35716125
_cell_length_b   8.35716160
_cell_length_c   13.30770800
_cell_angle_alpha   90.00000000
_cell_angle_beta   90.00000000
_cell_angle_gamma   147.47640127
_symmetry_Int_Tables_number   1
_chemical_formula_structural   TbYb4Ho(CoSn6)2
_chemical_formula_sum   'Tb1 Yb4 Ho1 Co2 Sn12'
_cell_volume   499.70997550
_cell_formula_units_Z   1
loop_
 _symmetry_equiv_pos_site_id
 _symmetry_equiv_pos_as_xyz
  1  'x, y, z'
loop_
 _atom_site_type_symbol
 _atom_site_label
 _atom_site_symmetry_multiplicity
 _atom_site_fract_x
 _atom_site_fract_y
 _atom_site_fract_z
 _atom_site_occupancy
  Tb  Tb0  1  0.901466  0.098534  0.750000  1
  Yb  Yb1  1  0.900660  0.099340  0.097607  1
  Yb  Yb2  1  0.099502  0.900498  0.597598  1
  Yb  Yb3  1  0.099502  0.900498  0.902402  1
  Yb  Yb4  1  0.900660  0.099340  0.402393  1
  Ho  Ho5  1  0.098736  0.901264  0.250000  1
  Co  Co6  1  0.294859  0.705141  0.250000  1
  Co  Co7  1  0.704492  0.295508  0.750000  1
  Sn  Sn8  1  0.757122  0.242878  0.571361  1
  Sn  Sn9  1  0.425694  0.574306  0.577226  1
  Sn  Sn10  1  0.574789  0.425211  0.422173  1
  Sn  Sn11  1  0.731619  0.268381  0.250000  1
  Sn  Sn12  1  0.267632  0.732368  0.750000  1
  Sn  Sn13  1  0.242747  0.757253  0.071287  1
  Sn  Sn14  1  0.242747  0.757253  0.428713  1
  Sn  Sn15  1  0.574789  0.425211  0.077827  1
  Sn  Sn16  1  0.454139  0.545861  0.250000  1
  Sn  Sn17  1  0.546027  0.453973  0.750000  1
  Sn  Sn18  1  0.757122  0.242878  0.928639  1
  Sn  Sn19  1  0.425694  0.574306  0.922774  1
