# generated using pymatgen
data_NdDy2Ga3(Ni3Sn)3
_symmetry_space_group_name_H-M   'P 1'
_cell_length_a   4.07069500
_cell_length_b   9.16238764
_cell_length_c   9.16876389
_cell_angle_alpha   60.32685293
_cell_angle_beta   90.00000000
_cell_angle_gamma   90.00000000
_symmetry_Int_Tables_number   1
_chemical_formula_structural   NdDy2Ga3(Ni3Sn)3
_chemical_formula_sum   'Nd1 Dy2 Ga3 Ni9 Sn3'
_cell_volume   297.12529865
_cell_formula_units_Z   1
loop_
 _symmetry_equiv_pos_site_id
 _symmetry_equiv_pos_as_xyz
  1  'x, y, z'
loop_
 _atom_site_type_symbol
 _atom_site_label
 _atom_site_symmetry_multiplicity
 _atom_site_fract_x
 _atom_site_fract_y
 _atom_site_fract_z
 _atom_site_occupancy
  Nd  Nd0  1  0.500000  0.331855  0.333708  1
  Dy  Dy1  1  0.500000  0.666053  0.668477  1
  Dy  Dy2  1  0.000000  0.002061  0.997784  1
  Ga  Ga3  1  0.500000  0.257237  0.742893  1
  Ga  Ga4  1  0.500000  0.743427  0.999295  1
  Ga  Ga5  1  0.500000  0.000777  0.256317  1
  Ni  Ni6  1  0.000000  0.160138  0.202683  1
  Ni  Ni7  1  0.000000  0.203086  0.636257  1
  Ni  Ni8  1  0.000000  0.639496  0.160600  1
  Ni  Ni9  1  0.000000  0.793881  0.838920  1
  Ni  Ni10  1  0.000000  0.367150  0.794364  1
  Ni  Ni11  1  0.000000  0.839117  0.363651  1
  Ni  Ni12  1  0.500000  0.721301  0.280096  1
  Ni  Ni13  1  0.500000  0.279131  0.999406  1
  Ni  Ni14  1  0.500000  0.997586  0.722706  1
  Sn  Sn15  1  0.000000  0.528941  0.473268  1
  Sn  Sn16  1  0.000000  0.471901  0.999458  1
  Sn  Sn17  1  0.000000  0.996760  0.530216  1
