# generated using pymatgen
data_DyY2Sn3HgRh2
_symmetry_space_group_name_H-M   'P 1'
_cell_length_a   7.70093111
_cell_length_b   7.71819201
_cell_length_c   3.91867600
_cell_angle_alpha   90.00000000
_cell_angle_beta   90.00000000
_cell_angle_gamma   119.94497788
_symmetry_Int_Tables_number   1
_chemical_formula_structural   DyY2Sn3HgRh2
_chemical_formula_sum   'Dy1 Y2 Sn3 Hg1 Rh2'
_cell_volume   201.82238242
_cell_formula_units_Z   1
loop_
 _symmetry_equiv_pos_site_id
 _symmetry_equiv_pos_as_xyz
  1  'x, y, z'
loop_
 _atom_site_type_symbol
 _atom_site_label
 _atom_site_symmetry_multiplicity
 _atom_site_fract_x
 _atom_site_fract_y
 _atom_site_fract_z
 _atom_site_occupancy
  Dy  Dy0  1  0.021408  0.609303  0.500000  1
  Y  Y1  1  0.391344  0.411393  0.500000  1
  Y  Y2  1  0.588492  0.979688  0.500000  1
  Sn  Sn3  1  0.743448  0.750713  0.000000  1
  Sn  Sn4  1  0.248931  0.992227  0.000000  1
  Sn  Sn5  1  0.007743  0.256762  0.000000  1
  Hg  Hg6  1  0.667125  0.333895  0.000000  1
  Rh  Rh7  1  0.331580  0.666511  0.000000  1
  Rh  Rh8  1  0.999929  0.999506  0.500000  1
