# generated using pymatgen
data_VPb2BrO4
_symmetry_space_group_name_H-M   'P 1'
_cell_length_a   6.74089200
_cell_length_b   7.67737500
_cell_length_c   11.88211300
_cell_angle_alpha   90.00000000
_cell_angle_beta   90.00000000
_cell_angle_gamma   90.00000000
_symmetry_Int_Tables_number   1
_chemical_formula_structural   VPb2BrO4
_chemical_formula_sum   'V4 Pb8 Br4 O16'
_cell_volume   614.92733866
_cell_formula_units_Z   4
loop_
 _symmetry_equiv_pos_site_id
 _symmetry_equiv_pos_as_xyz
  1  'x, y, z'
loop_
 _atom_site_type_symbol
 _atom_site_label
 _atom_site_symmetry_multiplicity
 _atom_site_fract_x
 _atom_site_fract_y
 _atom_site_fract_z
 _atom_site_occupancy
  V  V0  1  0.124740  0.250000  0.000000  1
  V  V1  1  0.875260  0.750000  0.000000  1
  V  V2  1  0.875260  0.750000  0.500000  1
  V  V3  1  0.124740  0.250000  0.500000  1
  Pb  Pb4  1  0.624430  0.250000  0.000000  1
  Pb  Pb5  1  0.375570  0.750000  0.000000  1
  Pb  Pb6  1  0.375570  0.750000  0.500000  1
  Pb  Pb7  1  0.624430  0.250000  0.500000  1
  Pb  Pb8  1  0.127282  0.025118  0.250000  1
  Pb  Pb9  1  0.872718  0.974882  0.750000  1
  Pb  Pb10  1  0.872718  0.525118  0.250000  1
  Pb  Pb11  1  0.127282  0.474882  0.750000  1
  Br  Br12  1  0.471694  0.325199  0.250000  1
  Br  Br13  1  0.528306  0.674801  0.750000  1
  Br  Br14  1  0.528306  0.825199  0.250000  1
  Br  Br15  1  0.471694  0.174801  0.750000  1
  O  O16  1  0.031375  0.772807  0.118068  1
  O  O17  1  0.968625  0.227193  0.881932  1
  O  O18  1  0.968625  0.227193  0.618068  1
  O  O19  1  0.968625  0.272807  0.381932  1
  O  O20  1  0.031375  0.772807  0.381932  1
  O  O21  1  0.031375  0.727193  0.618068  1
  O  O22  1  0.031375  0.727193  0.881932  1
  O  O23  1  0.968625  0.272807  0.118068  1
  O  O24  1  0.278697  0.073051  0.026780  1
  O  O25  1  0.721303  0.926949  0.973220  1
  O  O26  1  0.721303  0.926949  0.526780  1
  O  O27  1  0.721303  0.573051  0.473220  1
  O  O28  1  0.278697  0.073051  0.473220  1
  O  O29  1  0.278697  0.426949  0.526780  1
  O  O30  1  0.278697  0.426949  0.973220  1
  O  O31  1  0.721303  0.573051  0.026780  1
