# generated using pymatgen
data_Y2Co10Si7Ru2
_symmetry_space_group_name_H-M   'P 1'
_cell_length_a   3.71262800
_cell_length_b   9.14637888
_cell_length_c   9.17965188
_cell_angle_alpha   120.28391632
_cell_angle_beta   90.00000000
_cell_angle_gamma   90.00000000
_symmetry_Int_Tables_number   1
_chemical_formula_structural   Y2Co10Si7Ru2
_chemical_formula_sum   'Y2 Co10 Si7 Ru2'
_cell_volume   269.17694389
_cell_formula_units_Z   1
loop_
 _symmetry_equiv_pos_site_id
 _symmetry_equiv_pos_as_xyz
  1  'x, y, z'
loop_
 _atom_site_type_symbol
 _atom_site_label
 _atom_site_symmetry_multiplicity
 _atom_site_fract_x
 _atom_site_fract_y
 _atom_site_fract_z
 _atom_site_occupancy
  Y  Y0  1  0.000000  0.667934  0.334783  1
  Y  Y1  1  0.500000  0.334043  0.667171  1
  Co  Co2  1  0.000000  0.566731  0.945196  1
  Co  Co3  1  0.000000  0.378004  0.431577  1
  Co  Co4  1  0.000000  0.054886  0.622683  1
  Co  Co5  1  0.500000  0.102948  0.879891  1
  Co  Co6  1  0.000000  0.872467  0.155294  1
  Co  Co7  1  0.000000  0.281237  0.125012  1
  Co  Co8  1  0.000000  0.848859  0.719380  1
  Co  Co9  1  0.500000  0.947595  0.384243  1
  Co  Co10  1  0.500000  0.430698  0.049300  1
  Co  Co11  1  0.500000  0.617396  0.565948  1
  Si  Si12  1  0.000000  0.001759  0.998988  1
  Si  Si13  1  0.500000  0.705687  0.111270  1
  Si  Si14  1  0.500000  0.402066  0.290571  1
  Si  Si15  1  0.500000  0.891509  0.601042  1
  Si  Si16  1  0.000000  0.597350  0.707220  1
  Si  Si17  1  0.000000  0.112159  0.405539  1
  Si  Si18  1  0.000000  0.288907  0.887495  1
  Ru  Ru19  1  0.500000  0.785369  0.901472  1
  Ru  Ru20  1  0.500000  0.112396  0.215929  1
