# generated using pymatgen
data_Tb2Mn5P7Ir6Rh
_symmetry_space_group_name_H-M   'P 1'
_cell_length_a   9.41239227
_cell_length_b   9.37218299
_cell_length_c   3.88163100
_cell_angle_alpha   90.00000000
_cell_angle_beta   90.00000000
_cell_angle_gamma   120.00936228
_symmetry_Int_Tables_number   1
_chemical_formula_structural   Tb2Mn5P7Ir6Rh
_chemical_formula_sum   'Tb2 Mn5 P7 Ir6 Rh1'
_cell_volume   296.51364125
_cell_formula_units_Z   1
loop_
 _symmetry_equiv_pos_site_id
 _symmetry_equiv_pos_as_xyz
  1  'x, y, z'
loop_
 _atom_site_type_symbol
 _atom_site_label
 _atom_site_symmetry_multiplicity
 _atom_site_fract_x
 _atom_site_fract_y
 _atom_site_fract_z
 _atom_site_occupancy
  Tb  Tb0  1  0.666657  0.332734  0.000000  1
  Tb  Tb1  1  0.333855  0.666219  0.500000  1
  Mn  Mn2  1  0.267589  0.107945  0.000000  1
  Mn  Mn3  1  0.841905  0.730152  0.000000  1
  Mn  Mn4  1  0.891446  0.162514  0.000000  1
  Mn  Mn5  1  0.780287  0.903275  0.500000  1
  Mn  Mn6  1  0.123886  0.220465  0.500000  1
  P  P7  1  0.303946  0.890867  0.000000  1
  P  P8  1  0.592503  0.701324  0.000000  1
  P  P9  1  0.112292  0.410763  0.000000  1
  P  P10  1  0.393678  0.277399  0.500000  1
  P  P11  1  0.877352  0.601461  0.500000  1
  P  P12  1  0.723683  0.116891  0.500000  1
  P  P13  1  0.996617  0.999873  0.000000  1
  Ir  Ir14  1  0.065661  0.638314  0.000000  1
  Ir  Ir15  1  0.575357  0.936456  0.000000  1
  Ir  Ir16  1  0.362420  0.425576  0.000000  1
  Ir  Ir17  1  0.444065  0.056437  0.500000  1
  Ir  Ir18  1  0.612173  0.558130  0.500000  1
  Ir  Ir19  1  0.945305  0.388845  0.500000  1
  Rh  Rh20  1  0.089324  0.874357  0.500000  1
