# generated using pymatgen
data_Ac20Si15Ag
_symmetry_space_group_name_H-M   'P 1'
_cell_length_a   8.30869916
_cell_length_b   8.31229687
_cell_length_c   16.39978370
_cell_angle_alpha   89.99922404
_cell_angle_beta   89.59436549
_cell_angle_gamma   89.97334802
_symmetry_Int_Tables_number   1
_chemical_formula_structural   Ac20Si15Ag
_chemical_formula_sum   'Ac20 Si15 Ag1'
_cell_volume   1132.61228681
_cell_formula_units_Z   1
loop_
 _symmetry_equiv_pos_site_id
 _symmetry_equiv_pos_as_xyz
  1  'x, y, z'
loop_
 _atom_site_type_symbol
 _atom_site_label
 _atom_site_symmetry_multiplicity
 _atom_site_fract_x
 _atom_site_fract_y
 _atom_site_fract_z
 _atom_site_occupancy
  Ac  Ac0  1  0.377759  0.471531  0.372271  1
  Ac  Ac1  1  0.868250  0.033713  0.373132  1
  Ac  Ac2  1  0.972777  0.124114  0.122814  1
  Ac  Ac3  1  0.028727  0.878242  0.623098  1
  Ac  Ac4  1  0.626069  0.525832  0.872617  1
  Ac  Ac5  1  0.476268  0.376000  0.629115  1
  Ac  Ac6  1  0.524720  0.623453  0.126500  1
  Ac  Ac7  1  0.124357  0.973301  0.878479  1
  Ac  Ac8  1  0.986836  0.619675  0.054176  1
  Ac  Ac9  1  0.012332  0.371019  0.555706  1
  Ac  Ac10  1  0.620820  0.984539  0.946927  1
  Ac  Ac11  1  0.120785  0.514598  0.803627  1
  Ac  Ac12  1  0.869704  0.477362  0.298181  1
  Ac  Ac13  1  0.513697  0.121471  0.195673  1
  Ac  Ac14  1  0.488975  0.879531  0.697678  1
  Ac  Ac15  1  0.383834  0.020238  0.447483  1
  Ac  Ac16  1  0.688007  0.690824  0.498815  1
  Ac  Ac17  1  0.810443  0.189465  0.750436  1
  Ac  Ac18  1  0.187197  0.808968  0.249752  1
  Ac  Ac19  1  0.307986  0.308606  0.000665  1
  Si  Si20  1  0.917721  0.289102  0.939865  1
  Si  Si21  1  0.711742  0.082354  0.560694  1
  Si  Si22  1  0.210673  0.418966  0.190421  1
  Si  Si23  1  0.792551  0.583187  0.689276  1
  Si  Si24  1  0.417439  0.210611  0.811073  1
  Si  Si25  1  0.579449  0.790374  0.308649  1
  Si  Si26  1  0.290996  0.918349  0.059451  1
  Si  Si27  1  0.829967  0.804445  0.789849  1
  Si  Si28  1  0.170879  0.196924  0.289605  1
  Si  Si29  1  0.802043  0.827503  0.208482  1
  Si  Si30  1  0.314855  0.674881  0.544847  1
  Si  Si31  1  0.696837  0.328877  0.039385  1
  Si  Si32  1  0.670736  0.305166  0.462342  1
  Si  Si33  1  0.329035  0.695225  0.959987  1
  Si  Si34  1  0.196831  0.172743  0.710505  1
  Ag  Ag35  1  0.078706  0.708812  0.438422  1
