# generated using pymatgen
data_Gd4Fe3AuO14
_symmetry_space_group_name_H-M   'P 1'
_cell_length_a   7.36565339
_cell_length_b   7.36565273
_cell_length_c   7.36565200
_cell_angle_alpha   59.53979019
_cell_angle_beta   59.53978421
_cell_angle_gamma   59.53979349
_symmetry_Int_Tables_number   1
_chemical_formula_structural   Gd4Fe3AuO14
_chemical_formula_sum   'Gd4 Fe3 Au1 O14'
_cell_volume   279.60849377
_cell_formula_units_Z   1
loop_
 _symmetry_equiv_pos_site_id
 _symmetry_equiv_pos_as_xyz
  1  'x, y, z'
loop_
 _atom_site_type_symbol
 _atom_site_label
 _atom_site_symmetry_multiplicity
 _atom_site_fract_x
 _atom_site_fract_y
 _atom_site_fract_z
 _atom_site_occupancy
  Gd  Gd0  1  0.125000  0.125000  0.625000  1
  Gd  Gd1  1  0.125000  0.125000  0.125000  1
  Gd  Gd2  1  0.625000  0.125000  0.125000  1
  Gd  Gd3  1  0.125000  0.625000  0.125000  1
  Fe  Fe4  1  0.125000  0.625000  0.625000  1
  Fe  Fe5  1  0.625000  0.125000  0.625000  1
  Fe  Fe6  1  0.625000  0.625000  0.125000  1
  Au  Au7  1  0.625000  0.625000  0.625000  1
  O  O8  1  0.536723  0.536723  0.964787  1
  O  O9  1  0.955294  0.543500  0.955294  1
  O  O10  1  0.294706  0.294706  0.706500  1
  O  O11  1  0.001062  0.001062  0.001062  1
  O  O12  1  0.285213  0.713277  0.713277  1
  O  O13  1  0.713277  0.713277  0.285213  1
  O  O14  1  0.706500  0.294706  0.294706  1
  O  O15  1  0.536723  0.964787  0.536723  1
  O  O16  1  0.713277  0.285213  0.713277  1
  O  O17  1  0.543500  0.955294  0.955294  1
  O  O18  1  0.955294  0.955294  0.543500  1
  O  O19  1  0.248938  0.248938  0.248938  1
  O  O20  1  0.294706  0.706500  0.294706  1
  O  O21  1  0.964787  0.536723  0.536723  1
