# generated using pymatgen
data_Ac3RuO7
_symmetry_space_group_name_H-M   'P 1'
_cell_length_a   6.96438987
_cell_length_b   6.96439000
_cell_length_c   7.90872800
_cell_angle_alpha   90.00000000
_cell_angle_beta   90.00000000
_cell_angle_gamma   112.54098119
_symmetry_Int_Tables_number   1
_chemical_formula_structural   Ac3RuO7
_chemical_formula_sum   'Ac6 Ru2 O14'
_cell_volume   354.29036814
_cell_formula_units_Z   2
loop_
 _symmetry_equiv_pos_site_id
 _symmetry_equiv_pos_as_xyz
  1  'x, y, z'
loop_
 _atom_site_type_symbol
 _atom_site_label
 _atom_site_symmetry_multiplicity
 _atom_site_fract_x
 _atom_site_fract_y
 _atom_site_fract_z
 _atom_site_occupancy
  Ac  Ac0  1  0.466659  0.903483  0.750000  1
  Ac  Ac1  1  0.533341  0.096517  0.250000  1
  Ac  Ac2  1  0.903483  0.466659  0.750000  1
  Ac  Ac3  1  0.096517  0.533341  0.250000  1
  Ac  Ac4  1  0.000000  0.000000  0.500000  1
  Ac  Ac5  1  0.000000  0.000000  0.000000  1
  Ru  Ru6  1  0.500000  0.500000  0.500000  1
  Ru  Ru7  1  0.500000  0.500000  0.000000  1
  O  O8  1  0.574586  0.574586  0.750000  1
  O  O9  1  0.425414  0.425414  0.250000  1
  O  O10  1  0.839053  0.099934  0.750000  1
  O  O11  1  0.160947  0.900066  0.250000  1
  O  O12  1  0.099934  0.839053  0.750000  1
  O  O13  1  0.900066  0.160947  0.250000  1
  O  O14  1  0.443133  0.200242  0.960916  1
  O  O15  1  0.556867  0.799758  0.460916  1
  O  O16  1  0.200242  0.443133  0.960916  1
  O  O17  1  0.799758  0.556867  0.460916  1
  O  O18  1  0.443133  0.200242  0.539084  1
  O  O19  1  0.556867  0.799758  0.039084  1
  O  O20  1  0.799758  0.556867  0.039084  1
  O  O21  1  0.200242  0.443133  0.539084  1
