# generated using pymatgen
data_Tb8TlHgPd2
_symmetry_space_group_name_H-M   'P 1'
_cell_length_a   9.74528807
_cell_length_b   9.74528908
_cell_length_c   9.72480400
_cell_angle_alpha   60.06951092
_cell_angle_beta   60.06950750
_cell_angle_gamma   60.05808074
_symmetry_Int_Tables_number   1
_chemical_formula_structural   Tb8TlHgPd2
_chemical_formula_sum   'Tb16 Tl2 Hg2 Pd4'
_cell_volume   654.03564989
_cell_formula_units_Z   2
loop_
 _symmetry_equiv_pos_site_id
 _symmetry_equiv_pos_as_xyz
  1  'x, y, z'
loop_
 _atom_site_type_symbol
 _atom_site_label
 _atom_site_symmetry_multiplicity
 _atom_site_fract_x
 _atom_site_fract_y
 _atom_site_fract_z
 _atom_site_occupancy
  Tb  Tb0  1  0.354185  0.354185  0.351442  1
  Tb  Tb1  1  0.354185  0.354185  0.940190  1
  Tb  Tb2  1  0.357366  0.933530  0.354552  1
  Tb  Tb3  1  0.933530  0.357366  0.354552  1
  Tb  Tb4  1  0.810508  0.189268  0.189980  1
  Tb  Tb5  1  0.189268  0.810508  0.810243  1
  Tb  Tb6  1  0.189268  0.810508  0.189980  1
  Tb  Tb7  1  0.810508  0.189268  0.810243  1
  Tb  Tb8  1  0.189720  0.189720  0.810280  1
  Tb  Tb9  1  0.810670  0.810670  0.189330  1
  Tb  Tb10  1  0.933686  0.563347  0.565058  1
  Tb  Tb11  1  0.563347  0.933686  0.937907  1
  Tb  Tb12  1  0.563347  0.933686  0.565058  1
  Tb  Tb13  1  0.933686  0.563347  0.937907  1
  Tb  Tb14  1  0.564755  0.564755  0.935245  1
  Tb  Tb15  1  0.935717  0.935717  0.564283  1
  Tl  Tl16  1  0.584326  0.248539  0.583566  1
  Tl  Tl17  1  0.248539  0.584326  0.583566  1
  Hg  Hg18  1  0.587515  0.587515  0.588887  1
  Hg  Hg19  1  0.587515  0.587515  0.236082  1
  Pd  Pd20  1  0.144045  0.144045  0.146772  1
  Pd  Pd21  1  0.144045  0.144045  0.565137  1
  Pd  Pd22  1  0.142733  0.567532  0.144868  1
  Pd  Pd23  1  0.567532  0.142733  0.144868  1
