# generated using pymatgen
data_Ta13Ir3
_symmetry_space_group_name_H-M   'P 1'
_cell_length_a   5.21527000
_cell_length_b   5.18792700
_cell_length_c   10.42879400
_cell_angle_alpha   90.00000000
_cell_angle_beta   90.00000000
_cell_angle_gamma   90.00000000
_symmetry_Int_Tables_number   1
_chemical_formula_structural   Ta13Ir3
_chemical_formula_sum   'Ta13 Ir3'
_cell_volume   282.16603961
_cell_formula_units_Z   1
loop_
 _symmetry_equiv_pos_site_id
 _symmetry_equiv_pos_as_xyz
  1  'x, y, z'
loop_
 _atom_site_type_symbol
 _atom_site_label
 _atom_site_symmetry_multiplicity
 _atom_site_fract_x
 _atom_site_fract_y
 _atom_site_fract_z
 _atom_site_occupancy
  Ta  Ta0  1  0.000000  0.500000  0.370704  1
  Ta  Ta1  1  0.000000  0.500000  0.878465  1
  Ta  Ta2  1  0.500000  0.250535  0.000000  1
  Ta  Ta3  1  0.500000  0.251398  0.500000  1
  Ta  Ta4  1  0.749104  0.000000  0.248287  1
  Ta  Ta5  1  0.749104  0.000000  0.751713  1
  Ta  Ta6  1  0.000000  0.500000  0.121535  1
  Ta  Ta7  1  0.000000  0.500000  0.629296  1
  Ta  Ta8  1  0.500000  0.749465  0.000000  1
  Ta  Ta9  1  0.500000  0.748602  0.500000  1
  Ta  Ta10  1  0.250896  0.000000  0.248287  1
  Ta  Ta11  1  0.250896  0.000000  0.751713  1
  Ta  Ta12  1  0.000000  0.000000  0.500000  1
  Ir  Ir13  1  0.500000  0.500000  0.247758  1
  Ir  Ir14  1  0.500000  0.500000  0.752242  1
  Ir  Ir15  1  0.000000  0.000000  0.000000  1
