# generated using pymatgen
data_YLu(Tc2Ge)4
_symmetry_space_group_name_H-M   'P 1'
_cell_length_a   7.37390851
_cell_length_b   7.37390851
_cell_length_c   4.27075300
_cell_angle_alpha   90.00000000
_cell_angle_beta   90.00000000
_cell_angle_gamma   89.42291452
_symmetry_Int_Tables_number   1
_chemical_formula_structural   YLu(Tc2Ge)4
_chemical_formula_sum   'Y1 Lu1 Tc8 Ge4'
_cell_volume   232.20839406
_cell_formula_units_Z   1
loop_
 _symmetry_equiv_pos_site_id
 _symmetry_equiv_pos_as_xyz
  1  'x, y, z'
loop_
 _atom_site_type_symbol
 _atom_site_label
 _atom_site_symmetry_multiplicity
 _atom_site_fract_x
 _atom_site_fract_y
 _atom_site_fract_z
 _atom_site_occupancy
  Y  Y0  1  0.500000  0.500000  0.000000  1
  Lu  Lu1  1  0.000000  0.000000  0.500000  1
  Tc  Tc2  1  0.147081  0.601651  0.500000  1
  Tc  Tc3  1  0.852919  0.398349  0.500000  1
  Tc  Tc4  1  0.348636  0.098232  0.000000  1
  Tc  Tc5  1  0.651364  0.901768  0.000000  1
  Tc  Tc6  1  0.601651  0.147081  0.500000  1
  Tc  Tc7  1  0.398349  0.852919  0.500000  1
  Tc  Tc8  1  0.098232  0.348636  0.000000  1
  Tc  Tc9  1  0.901768  0.651364  0.000000  1
  Ge  Ge10  1  0.707803  0.707803  0.500000  1
  Ge  Ge11  1  0.292197  0.292197  0.500000  1
  Ge  Ge12  1  0.795860  0.204140  0.000000  1
  Ge  Ge13  1  0.204140  0.795860  0.000000  1
