# generated using pymatgen
data_Tb3Lu5Cd2NiRu
_symmetry_space_group_name_H-M   'P 1'
_cell_length_a   9.45840841
_cell_length_b   9.45840742
_cell_length_c   9.51930100
_cell_angle_alpha   59.78679843
_cell_angle_beta   59.78680194
_cell_angle_gamma   59.59066181
_symmetry_Int_Tables_number   1
_chemical_formula_structural   Tb3Lu5Cd2NiRu
_chemical_formula_sum   'Tb6 Lu10 Cd4 Ni2 Ru2'
_cell_volume   598.36500492
_cell_formula_units_Z   2
loop_
 _symmetry_equiv_pos_site_id
 _symmetry_equiv_pos_as_xyz
  1  'x, y, z'
loop_
 _atom_site_type_symbol
 _atom_site_label
 _atom_site_symmetry_multiplicity
 _atom_site_fract_x
 _atom_site_fract_y
 _atom_site_fract_z
 _atom_site_occupancy
  Tb  Tb0  1  0.940161  0.556933  0.564003  1
  Tb  Tb1  1  0.556933  0.940161  0.938903  1
  Tb  Tb2  1  0.556933  0.940161  0.564003  1
  Tb  Tb3  1  0.940161  0.556933  0.938903  1
  Tb  Tb4  1  0.563251  0.563251  0.936749  1
  Tb  Tb5  1  0.943252  0.943252  0.556748  1
  Lu  Lu6  1  0.348866  0.348866  0.341627  1
  Lu  Lu7  1  0.348866  0.348866  0.960642  1
  Lu  Lu8  1  0.352642  0.957436  0.344961  1
  Lu  Lu9  1  0.957436  0.352642  0.344961  1
  Lu  Lu10  1  0.813932  0.183966  0.187190  1
  Lu  Lu11  1  0.183966  0.813932  0.814913  1
  Lu  Lu12  1  0.183966  0.813932  0.187190  1
  Lu  Lu13  1  0.813932  0.183966  0.814913  1
  Lu  Lu14  1  0.185202  0.185202  0.814798  1
  Lu  Lu15  1  0.812796  0.812796  0.187204  1
  Cd  Cd16  1  0.578880  0.578880  0.581748  1
  Cd  Cd17  1  0.578880  0.578880  0.260492  1
  Cd  Cd18  1  0.578815  0.258176  0.581504  1
  Cd  Cd19  1  0.258176  0.578815  0.581504  1
  Ni  Ni20  1  0.140578  0.576215  0.141603  1
  Ni  Ni21  1  0.576215  0.140578  0.141603  1
  Ru  Ru22  1  0.143081  0.143081  0.141234  1
  Ru  Ru23  1  0.143081  0.143081  0.572604  1
