# generated using pymatgen
data_Y3LuMg2Pt3
_symmetry_space_group_name_H-M   'P 1'
_cell_length_a   7.50567900
_cell_length_b   7.53318648
_cell_length_c   4.13384300
_cell_angle_alpha   90.00000000
_cell_angle_beta   90.00000000
_cell_angle_gamma   119.87928683
_symmetry_Int_Tables_number   1
_chemical_formula_structural   Y3LuMg2Pt3
_chemical_formula_sum   'Y3 Lu1 Mg2 Pt3'
_cell_volume   202.66572238
_cell_formula_units_Z   1
loop_
 _symmetry_equiv_pos_site_id
 _symmetry_equiv_pos_as_xyz
  1  'x, y, z'
loop_
 _atom_site_type_symbol
 _atom_site_label
 _atom_site_symmetry_multiplicity
 _atom_site_fract_x
 _atom_site_fract_y
 _atom_site_fract_z
 _atom_site_occupancy
  Y  Y0  1  0.389996  0.000000  0.500001  1
  Y  Y1  1  0.018277  0.431976  0.500001  1
  Y  Y2  1  0.586301  0.568023  0.500001  1
  Lu  Lu3  1  0.753954  0.000000  0.000000  1
  Mg  Mg4  1  0.249143  0.251333  0.000000  1
  Mg  Mg5  1  0.997810  0.748667  0.000000  1
  Pt  Pt6  1  0.665857  0.325406  0.000000  1
  Pt  Pt7  1  0.340452  0.674594  0.000000  1
  Pt  Pt8  1  0.998208  0.000000  0.500001  1
