# generated using pymatgen
data_TbEr19(IrPt2)4
_symmetry_space_group_name_H-M   'P 1'
_cell_length_a   10.98750954
_cell_length_b   10.99012657
_cell_length_c   6.27145902
_cell_angle_alpha   89.99125671
_cell_angle_beta   89.99765739
_cell_angle_gamma   90.03593485
_symmetry_Int_Tables_number   1
_chemical_formula_structural   TbEr19(IrPt2)4
_chemical_formula_sum   'Tb1 Er19 Ir4 Pt8'
_cell_volume   757.30436031
_cell_formula_units_Z   1
loop_
 _symmetry_equiv_pos_site_id
 _symmetry_equiv_pos_as_xyz
  1  'x, y, z'
loop_
 _atom_site_type_symbol
 _atom_site_label
 _atom_site_symmetry_multiplicity
 _atom_site_fract_x
 _atom_site_fract_y
 _atom_site_fract_z
 _atom_site_occupancy
  Tb  Tb0  1  0.087879  0.293538  0.127604  1
  Er  Er1  1  0.295092  0.087230  0.373941  1
  Er  Er2  1  0.294887  0.912407  0.873668  1
  Er  Er3  1  0.705184  0.087508  0.873238  1
  Er  Er4  1  0.705174  0.912421  0.373455  1
  Er  Er5  1  0.587690  0.794765  0.873507  1
  Er  Er6  1  0.587574  0.205313  0.373368  1
  Er  Er7  1  0.412436  0.794839  0.373596  1
  Er  Er8  1  0.412441  0.205272  0.873247  1
  Er  Er9  1  0.205404  0.412825  0.626784  1
  Er  Er10  1  0.205196  0.588157  0.126375  1
  Er  Er11  1  0.794339  0.412789  0.126490  1
  Er  Er12  1  0.794686  0.587544  0.626529  1
  Er  Er13  1  0.912272  0.705287  0.126528  1
  Er  Er14  1  0.911990  0.294802  0.626819  1
  Er  Er15  1  0.087578  0.705258  0.626404  1
  Er  Er16  1  0.999917  0.999884  0.500021  1
  Er  Er17  1  0.999763  0.999350  0.999714  1
  Er  Er18  1  0.499881  0.500092  0.999698  1
  Er  Er19  1  0.500103  0.500097  0.499997  1
  Ir  Ir20  1  0.500140  0.999979  0.119976  1
  Ir  Ir21  1  0.500098  0.000001  0.619937  1
  Ir  Ir22  1  0.999658  0.500715  0.879535  1
  Ir  Ir23  1  0.999742  0.500576  0.380511  1
  Pt  Pt24  1  0.845848  0.153479  0.250235  1
  Pt  Pt25  1  0.846229  0.846162  0.749974  1
  Pt  Pt26  1  0.154117  0.153130  0.748631  1
  Pt  Pt27  1  0.153788  0.846325  0.250025  1
  Pt  Pt28  1  0.653704  0.346259  0.749986  1
  Pt  Pt29  1  0.653805  0.653663  0.249904  1
  Pt  Pt30  1  0.347139  0.346555  0.250371  1
  Pt  Pt31  1  0.346246  0.653776  0.749930  1
