# generated using pymatgen
data_CaHo5(MoO6)2
_symmetry_space_group_name_H-M   'P 1'
_cell_length_a   6.60421440
_cell_length_b   6.60754926
_cell_length_c   6.60761800
_cell_angle_alpha   92.07626739
_cell_angle_beta   92.09833395
_cell_angle_gamma   92.06250036
_symmetry_Int_Tables_number   1
_chemical_formula_structural   CaHo5(MoO6)2
_chemical_formula_sum   'Ca1 Ho5 Mo2 O12'
_cell_volume   287.75745507
_cell_formula_units_Z   1
loop_
 _symmetry_equiv_pos_site_id
 _symmetry_equiv_pos_as_xyz
  1  'x, y, z'
loop_
 _atom_site_type_symbol
 _atom_site_label
 _atom_site_symmetry_multiplicity
 _atom_site_fract_x
 _atom_site_fract_y
 _atom_site_fract_z
 _atom_site_occupancy
  Ca  Ca0  1  0.748134  0.935037  0.440243  1
  Ho  Ho1  1  0.933120  0.436331  0.749530  1
  Ho  Ho2  1  0.439860  0.747922  0.934276  1
  Ho  Ho3  1  0.250339  0.066392  0.559752  1
  Ho  Ho4  1  0.066896  0.565298  0.252587  1
  Ho  Ho5  1  0.562205  0.250096  0.068510  1
  Mo  Mo6  1  0.501207  0.501841  0.500024  1
  Mo  Mo7  1  0.001184  0.001148  0.000831  1
  O  O8  1  0.594607  0.464764  0.807300  1
  O  O9  1  0.450857  0.793928  0.593266  1
  O  O10  1  0.800026  0.577583  0.464190  1
  O  O11  1  0.404555  0.535009  0.193376  1
  O  O12  1  0.527695  0.204235  0.407302  1
  O  O13  1  0.198280  0.412108  0.535191  1
  O  O14  1  0.078058  0.905338  0.308851  1
  O  O15  1  0.907667  0.313300  0.071171  1
  O  O16  1  0.688731  0.933394  0.079842  1
  O  O17  1  0.091497  0.688280  0.931224  1
  O  O18  1  0.941226  0.099616  0.694403  1
  O  O19  1  0.313857  0.068377  0.908130  1
