# generated using pymatgen
data_Tb3Ho8ErOs4
_symmetry_space_group_name_H-M   'P 1'
_cell_length_a   6.29719742
_cell_length_b   7.37974088
_cell_length_c   9.03389441
_cell_angle_alpha   90.00924007
_cell_angle_beta   90.03321641
_cell_angle_gamma   89.96210983
_symmetry_Int_Tables_number   1
_chemical_formula_structural   Tb3Ho8ErOs4
_chemical_formula_sum   'Tb3 Ho8 Er1 Os4'
_cell_volume   419.82012939
_cell_formula_units_Z   1
loop_
 _symmetry_equiv_pos_site_id
 _symmetry_equiv_pos_as_xyz
  1  'x, y, z'
loop_
 _atom_site_type_symbol
 _atom_site_label
 _atom_site_symmetry_multiplicity
 _atom_site_fract_x
 _atom_site_fract_y
 _atom_site_fract_z
 _atom_site_occupancy
  Tb  Tb0  1  0.870246  0.537922  0.249927  1
  Tb  Tb1  1  0.629929  0.038082  0.249880  1
  Tb  Tb2  1  0.130265  0.461788  0.750093  1
  Ho  Ho3  1  0.332769  0.676038  0.062771  1
  Ho  Ho4  1  0.167648  0.174963  0.437181  1
  Ho  Ho5  1  0.666909  0.324123  0.563077  1
  Ho  Ho6  1  0.832029  0.824896  0.936764  1
  Ho  Ho7  1  0.666909  0.324058  0.937012  1
  Ho  Ho8  1  0.831962  0.824764  0.563315  1
  Ho  Ho9  1  0.332800  0.675997  0.437202  1
  Ho  Ho10  1  0.369559  0.961854  0.750100  1
  Er  Er11  1  0.167629  0.174922  0.062747  1
  Os  Os12  1  0.042811  0.883317  0.249899  1
  Os  Os13  1  0.457202  0.382850  0.249862  1
  Os  Os14  1  0.959313  0.116692  0.750215  1
  Os  Os15  1  0.542018  0.617734  0.749953  1
