# generated using pymatgen
data_TbPr2Cd3PdPb2
_symmetry_space_group_name_H-M   'P 1'
_cell_length_a   7.64651755
_cell_length_b   7.64651809
_cell_length_c   4.64781600
_cell_angle_alpha   90.00000000
_cell_angle_beta   90.00000000
_cell_angle_gamma   119.33296032
_symmetry_Int_Tables_number   1
_chemical_formula_structural   TbPr2Cd3PdPb2
_chemical_formula_sum   'Tb1 Pr2 Cd3 Pd1 Pb2'
_cell_volume   236.91198164
_cell_formula_units_Z   1
loop_
 _symmetry_equiv_pos_site_id
 _symmetry_equiv_pos_as_xyz
  1  'x, y, z'
loop_
 _atom_site_type_symbol
 _atom_site_label
 _atom_site_symmetry_multiplicity
 _atom_site_fract_x
 _atom_site_fract_y
 _atom_site_fract_z
 _atom_site_occupancy
  Tb  Tb0  1  0.392283  0.392283  0.000000  1
  Pr  Pr1  1  0.602365  0.999771  0.000000  1
  Pr  Pr2  1  0.999771  0.602365  0.000000  1
  Cd  Cd3  1  0.230032  0.001438  0.500000  1
  Cd  Cd4  1  0.001438  0.230032  0.500000  1
  Cd  Cd5  1  0.771142  0.771142  0.500000  1
  Pd  Pd6  1  0.006099  0.006099  0.000000  1
  Pb  Pb7  1  0.335068  0.661802  0.500000  1
  Pb  Pb8  1  0.661802  0.335068  0.500000  1
