# generated using pymatgen
data_Ca4La16Si15Ir
_symmetry_space_group_name_H-M   'P 1'
_cell_length_a   7.92955493
_cell_length_b   7.93058623
_cell_length_c   15.28489700
_cell_angle_alpha   90.08111127
_cell_angle_beta   89.87480196
_cell_angle_gamma   90.09244317
_symmetry_Int_Tables_number   1
_chemical_formula_structural   Ca4La16Si15Ir
_chemical_formula_sum   'Ca4 La16 Si15 Ir1'
_cell_volume   961.20182109
_cell_formula_units_Z   1
loop_
 _symmetry_equiv_pos_site_id
 _symmetry_equiv_pos_as_xyz
  1  'x, y, z'
loop_
 _atom_site_type_symbol
 _atom_site_label
 _atom_site_symmetry_multiplicity
 _atom_site_fract_x
 _atom_site_fract_y
 _atom_site_fract_z
 _atom_site_occupancy
  Ca  Ca0  1  0.308326  0.308484  0.999243  1
  Ca  Ca1  1  0.190294  0.809724  0.250385  1
  Ca  Ca2  1  0.814520  0.191905  0.748136  1
  Ca  Ca3  1  0.692222  0.689540  0.501640  1
  La  La4  1  0.373855  0.009087  0.449741  1
  La  La5  1  0.489388  0.878203  0.698737  1
  La  La6  1  0.509550  0.124117  0.199332  1
  La  La7  1  0.875480  0.489486  0.300494  1
  La  La8  1  0.126289  0.502147  0.796968  1
  La  La9  1  0.626443  0.989316  0.948744  1
  La  La10  1  0.004775  0.375365  0.552093  1
  La  La11  1  0.989127  0.625343  0.050410  1
  La  La12  1  0.131349  0.989254  0.871446  1
  La  La13  1  0.515813  0.628310  0.125892  1
  La  La14  1  0.470367  0.361595  0.630083  1
  La  La15  1  0.626335  0.514746  0.873714  1
  La  La16  1  0.373928  0.484103  0.374269  1
  La  La17  1  0.875248  0.017529  0.377272  1
  La  La18  1  0.983028  0.124951  0.123725  1
  La  La19  1  0.028196  0.886672  0.626670  1
  Si  Si20  1  0.330936  0.698253  0.950614  1
  Si  Si21  1  0.662306  0.297105  0.453009  1
  Si  Si22  1  0.702462  0.335435  0.049792  1
  Si  Si23  1  0.301477  0.667212  0.547233  1
  Si  Si24  1  0.801120  0.832245  0.203719  1
  Si  Si25  1  0.166755  0.200375  0.296502  1
  Si  Si26  1  0.834620  0.798175  0.797789  1
  Si  Si27  1  0.286561  0.919224  0.058188  1
  Si  Si28  1  0.580853  0.788167  0.310456  1
  Si  Si29  1  0.429253  0.204174  0.814591  1
  Si  Si30  1  0.784573  0.583256  0.689200  1
  Si  Si31  1  0.210925  0.421136  0.189913  1
  Si  Si32  1  0.705913  0.076572  0.559530  1
  Si  Si33  1  0.921033  0.289087  0.941103  1
  Si  Si34  1  0.080943  0.714487  0.440588  1
  Ir  Ir35  1  0.195736  0.175221  0.698780  1
