# generated using pymatgen
data_TbDy4Y3(CdNi)2
_symmetry_space_group_name_H-M   'P 1'
_cell_length_a   9.55714923
_cell_length_b   9.55714908
_cell_length_c   9.55713200
_cell_angle_alpha   60.00005911
_cell_angle_beta   60.00005965
_cell_angle_gamma   60.00013806
_symmetry_Int_Tables_number   1
_chemical_formula_structural   TbDy4Y3(CdNi)2
_chemical_formula_sum   'Tb2 Dy8 Y6 Cd4 Ni4'
_cell_volume   617.26287519
_cell_formula_units_Z   2
loop_
 _symmetry_equiv_pos_site_id
 _symmetry_equiv_pos_as_xyz
  1  'x, y, z'
loop_
 _atom_site_type_symbol
 _atom_site_label
 _atom_site_symmetry_multiplicity
 _atom_site_fract_x
 _atom_site_fract_y
 _atom_site_fract_z
 _atom_site_occupancy
  Tb  Tb0  1  0.598821  0.598821  0.598825  1
  Tb  Tb1  1  0.598821  0.598821  0.203534  1
  Dy  Dy2  1  0.598819  0.203536  0.598823  1
  Dy  Dy3  1  0.203536  0.598819  0.598823  1
  Dy  Dy4  1  0.061138  0.438866  0.438863  1
  Dy  Dy5  1  0.438866  0.061138  0.061133  1
  Dy  Dy6  1  0.438866  0.061138  0.438863  1
  Dy  Dy7  1  0.061138  0.438866  0.061133  1
  Dy  Dy8  1  0.438862  0.438862  0.061138  1
  Dy  Dy9  1  0.061134  0.061134  0.438866  1
  Y  Y10  1  0.186724  0.813274  0.813275  1
  Y  Y11  1  0.813274  0.186724  0.186727  1
  Y  Y12  1  0.813274  0.186724  0.813275  1
  Y  Y13  1  0.186724  0.813274  0.186727  1
  Y  Y14  1  0.813275  0.813275  0.186725  1
  Y  Y15  1  0.186726  0.186726  0.813274  1
  Cd  Cd16  1  0.831233  0.831233  0.831225  1
  Cd  Cd17  1  0.831233  0.831233  0.506307  1
  Cd  Cd18  1  0.831235  0.506307  0.831228  1
  Cd  Cd19  1  0.506307  0.831235  0.831228  1
  Ni  Ni20  1  0.392607  0.392607  0.392616  1
  Ni  Ni21  1  0.392607  0.392607  0.822172  1
  Ni  Ni22  1  0.392601  0.822181  0.392610  1
  Ni  Ni23  1  0.822181  0.392601  0.392610  1
