# generated using pymatgen
data_Dy4Ho4Tc3B24Os
_symmetry_space_group_name_H-M   'P 1'
_cell_length_a   3.67305600
_cell_length_b   9.14946058
_cell_length_c   11.53640400
_cell_angle_alpha   89.94958451
_cell_angle_beta   90.00000000
_cell_angle_gamma   90.00000000
_symmetry_Int_Tables_number   1
_chemical_formula_structural   Dy4Ho4Tc3B24Os
_chemical_formula_sum   'Dy4 Ho4 Tc3 B24 Os1'
_cell_volume   387.69779261
_cell_formula_units_Z   1
loop_
 _symmetry_equiv_pos_site_id
 _symmetry_equiv_pos_as_xyz
  1  'x, y, z'
loop_
 _atom_site_type_symbol
 _atom_site_label
 _atom_site_symmetry_multiplicity
 _atom_site_fract_x
 _atom_site_fract_y
 _atom_site_fract_z
 _atom_site_occupancy
  Dy  Dy0  1  0.000000  0.323644  0.413912  1
  Dy  Dy1  1  0.000000  0.675518  0.584417  1
  Dy  Dy2  1  0.000000  0.822924  0.087221  1
  Dy  Dy3  1  0.000000  0.177986  0.914466  1
  Ho  Ho4  1  0.000000  0.942455  0.370039  1
  Ho  Ho5  1  0.000000  0.058253  0.630087  1
  Ho  Ho6  1  0.000000  0.442860  0.130247  1
  Ho  Ho7  1  0.000000  0.557030  0.869393  1
  Tc  Tc8  1  0.000000  0.638633  0.320260  1
  Tc  Tc9  1  0.000000  0.361518  0.680182  1
  Tc  Tc10  1  0.000000  0.138032  0.178432  1
  B  B11  1  0.500000  0.553148  0.432750  1
  B  B12  1  0.500000  0.446814  0.566993  1
  B  B13  1  0.500000  0.053065  0.067065  1
  B  B14  1  0.500000  0.946272  0.932765  1
  B  B15  1  0.500000  0.748552  0.418570  1
  B  B16  1  0.500000  0.251053  0.581452  1
  B  B17  1  0.500000  0.249155  0.081456  1
  B  B18  1  0.500000  0.751249  0.918254  1
  B  B19  1  0.500000  0.791657  0.265606  1
  B  B20  1  0.500000  0.208540  0.734898  1
  B  B21  1  0.500000  0.291593  0.234664  1
  B  B22  1  0.500000  0.709141  0.765361  1
  B  B23  1  0.500000  0.630819  0.185628  1
  B  B24  1  0.500000  0.369070  0.814924  1
  B  B25  1  0.500000  0.130373  0.314117  1
  B  B26  1  0.500000  0.869174  0.685708  1
  B  B27  1  0.500000  0.981888  0.211898  1
  B  B28  1  0.500000  0.016912  0.788131  1
  B  B29  1  0.500000  0.482221  0.287981  1
  B  B30  1  0.500000  0.517587  0.711827  1
  B  B31  1  0.500000  0.601543  0.028026  1
  B  B32  1  0.500000  0.399486  0.971820  1
  B  B33  1  0.500000  0.101318  0.471898  1
  B  B34  1  0.500000  0.898772  0.528559  1
  Os  Os35  1  0.000000  0.861747  0.820991  1
