# generated using pymatgen
data_CaGa8Pd3
_symmetry_space_group_name_H-M   'P 1'
_cell_length_a   8.54204114
_cell_length_b   8.54204171
_cell_length_c   8.54204180
_cell_angle_alpha   90.12328695
_cell_angle_beta   90.12328673
_cell_angle_gamma   90.12329263
_symmetry_Int_Tables_number   1
_chemical_formula_structural   CaGa8Pd3
_chemical_formula_sum   'Ca3 Ga24 Pd9'
_cell_volume   623.27831609
_cell_formula_units_Z   3
loop_
 _symmetry_equiv_pos_site_id
 _symmetry_equiv_pos_as_xyz
  1  'x, y, z'
loop_
 _atom_site_type_symbol
 _atom_site_label
 _atom_site_symmetry_multiplicity
 _atom_site_fract_x
 _atom_site_fract_y
 _atom_site_fract_z
 _atom_site_occupancy
  Ca  Ca0  1  0.000000  0.500000  0.000000  1
  Ca  Ca1  1  0.500000  0.000000  0.000000  1
  Ca  Ca2  1  0.000000  0.000000  0.500000  1
  Ga  Ga3  1  0.991183  0.643603  0.643603  1
  Ga  Ga4  1  0.643603  0.643603  0.991183  1
  Ga  Ga5  1  0.643603  0.991183  0.643603  1
  Ga  Ga6  1  0.008817  0.356397  0.356397  1
  Ga  Ga7  1  0.356397  0.356397  0.008817  1
  Ga  Ga8  1  0.356397  0.008817  0.356397  1
  Ga  Ga9  1  0.743578  0.500000  0.256422  1
  Ga  Ga10  1  0.256422  0.500000  0.743578  1
  Ga  Ga11  1  0.500000  0.256422  0.743578  1
  Ga  Ga12  1  0.500000  0.743578  0.256422  1
  Ga  Ga13  1  0.256422  0.743578  0.500000  1
  Ga  Ga14  1  0.743578  0.256422  0.500000  1
  Ga  Ga15  1  0.838862  0.143098  0.838862  1
  Ga  Ga16  1  0.143098  0.838862  0.838862  1
  Ga  Ga17  1  0.838862  0.838862  0.143098  1
  Ga  Ga18  1  0.161138  0.856902  0.161138  1
  Ga  Ga19  1  0.856902  0.161138  0.161138  1
  Ga  Ga20  1  0.161138  0.161138  0.856902  1
  Ga  Ga21  1  0.730955  0.486494  0.730955  1
  Ga  Ga22  1  0.486494  0.730955  0.730955  1
  Ga  Ga23  1  0.730955  0.730955  0.486494  1
  Ga  Ga24  1  0.269045  0.513506  0.269045  1
  Ga  Ga25  1  0.513506  0.269045  0.269045  1
  Ga  Ga26  1  0.269045  0.269045  0.513506  1
  Pd  Pd27  1  0.833947  0.833947  0.833947  1
  Pd  Pd28  1  0.166053  0.166053  0.166053  1
  Pd  Pd29  1  0.663503  0.336497  0.000000  1
  Pd  Pd30  1  0.000000  0.336497  0.663503  1
  Pd  Pd31  1  0.336497  0.000000  0.663503  1
  Pd  Pd32  1  0.336497  0.663503  0.000000  1
  Pd  Pd33  1  0.000000  0.663503  0.336497  1
  Pd  Pd34  1  0.663503  0.000000  0.336497  1
  Pd  Pd35  1  0.500000  0.500000  0.500000  1
