# generated using pymatgen
data_Hf4In2PdRh3
_symmetry_space_group_name_H-M   'P 1'
_cell_length_a   7.68032417
_cell_length_b   7.68032417
_cell_length_c   3.20127400
_cell_angle_alpha   90.00000000
_cell_angle_beta   90.00000000
_cell_angle_gamma   89.82292764
_symmetry_Int_Tables_number   1
_chemical_formula_structural   Hf4In2PdRh3
_chemical_formula_sum   'Hf4 In2 Pd1 Rh3'
_cell_volume   188.83386204
_cell_formula_units_Z   1
loop_
 _symmetry_equiv_pos_site_id
 _symmetry_equiv_pos_as_xyz
  1  'x, y, z'
loop_
 _atom_site_type_symbol
 _atom_site_label
 _atom_site_symmetry_multiplicity
 _atom_site_fract_x
 _atom_site_fract_y
 _atom_site_fract_z
 _atom_site_occupancy
  Hf  Hf0  1  0.159610  0.324714  0.000000  1
  Hf  Hf1  1  0.824714  0.659610  0.000000  1
  Hf  Hf2  1  0.666673  0.166673  0.000000  1
  Hf  Hf3  1  0.344252  0.844252  0.000000  1
  In  In4  1  0.999251  0.997200  0.500000  1
  In  In5  1  0.497200  0.499251  0.500000  1
  Pd  Pd6  1  0.131949  0.631949  0.500000  1
  Rh  Rh7  1  0.371074  0.132851  0.500000  1
  Rh  Rh8  1  0.632851  0.871074  0.500000  1
  Rh  Rh9  1  0.872425  0.372425  0.500000  1
