# generated using pymatgen
data_Li2Ac2Si2Sn
_symmetry_space_group_name_H-M   'P 1'
_cell_length_a   10.17593039
_cell_length_b   10.17593078
_cell_length_c   7.09888000
_cell_angle_alpha   90.00000000
_cell_angle_beta   90.00000000
_cell_angle_gamma   152.58584065
_symmetry_Int_Tables_number   1
_chemical_formula_structural   Li2Ac2Si2Sn
_chemical_formula_sum   'Li4 Ac4 Si4 Sn2'
_cell_volume   338.44765378
_cell_formula_units_Z   2
loop_
 _symmetry_equiv_pos_site_id
 _symmetry_equiv_pos_as_xyz
  1  'x, y, z'
loop_
 _atom_site_type_symbol
 _atom_site_label
 _atom_site_symmetry_multiplicity
 _atom_site_fract_x
 _atom_site_fract_y
 _atom_site_fract_z
 _atom_site_occupancy
  Li  Li0  1  0.816128  0.183872  0.441776  1
  Li  Li1  1  0.183872  0.816128  0.558224  1
  Li  Li2  1  0.816128  0.183872  0.058224  1
  Li  Li3  1  0.183872  0.816128  0.941776  1
  Ac  Ac4  1  0.548015  0.451985  0.750000  1
  Ac  Ac5  1  0.451985  0.548015  0.250000  1
  Ac  Ac6  1  0.346647  0.653353  0.750000  1
  Ac  Ac7  1  0.653353  0.346647  0.250000  1
  Si  Si8  1  0.944816  0.055184  0.922831  1
  Si  Si9  1  0.055184  0.944816  0.077169  1
  Si  Si10  1  0.944816  0.055184  0.577169  1
  Si  Si11  1  0.055184  0.944816  0.422831  1
  Sn  Sn12  1  0.719117  0.280883  0.750000  1
  Sn  Sn13  1  0.280883  0.719117  0.250000  1
