# generated using pymatgen
data_PrZnAg4
_symmetry_space_group_name_H-M   'P 1'
_cell_length_a   5.49100653
_cell_length_b   5.49100658
_cell_length_c   5.49100625
_cell_angle_alpha   61.66117669
_cell_angle_beta   61.66118324
_cell_angle_gamma   61.66117518
_symmetry_Int_Tables_number   1
_chemical_formula_structural   PrZnAg4
_chemical_formula_sum   'Pr1 Zn1 Ag4'
_cell_volume   121.42916145
_cell_formula_units_Z   1
loop_
 _symmetry_equiv_pos_site_id
 _symmetry_equiv_pos_as_xyz
  1  'x, y, z'
loop_
 _atom_site_type_symbol
 _atom_site_label
 _atom_site_symmetry_multiplicity
 _atom_site_fract_x
 _atom_site_fract_y
 _atom_site_fract_z
 _atom_site_occupancy
  Pr  Pr0  1  0.998743  0.998743  0.998743  1
  Zn  Zn1  1  0.377838  0.377838  0.377838  1
  Ag  Ag2  1  0.872470  0.376620  0.376620  1
  Ag  Ag3  1  0.376620  0.872470  0.376620  1
  Ag  Ag4  1  0.376620  0.376620  0.872470  1
  Ag  Ag5  1  0.747708  0.747708  0.747708  1
