# generated using pymatgen
data_Er5Lu3(Si4W3)4
_symmetry_space_group_name_H-M   'P 1'
_cell_length_a   6.72253237
_cell_length_b   6.90499877
_cell_length_c   12.84660605
_cell_angle_alpha   89.98250577
_cell_angle_beta   90.01142152
_cell_angle_gamma   89.96675905
_symmetry_Int_Tables_number   1
_chemical_formula_structural   Er5Lu3(Si4W3)4
_chemical_formula_sum   'Er5 Lu3 Si16 W12'
_cell_volume   596.32746459
_cell_formula_units_Z   1
loop_
 _symmetry_equiv_pos_site_id
 _symmetry_equiv_pos_as_xyz
  1  'x, y, z'
loop_
 _atom_site_type_symbol
 _atom_site_label
 _atom_site_symmetry_multiplicity
 _atom_site_fract_x
 _atom_site_fract_y
 _atom_site_fract_z
 _atom_site_occupancy
  Er  Er0  1  0.496359  0.332271  0.093227  1
  Er  Er1  1  0.996646  0.167981  0.407104  1
  Er  Er2  1  0.503471  0.667962  0.592896  1
  Er  Er3  1  0.003321  0.832252  0.907135  1
  Er  Er4  1  0.503316  0.668175  0.906733  1
  Lu  Lu5  1  0.003942  0.830854  0.593434  1
  Lu  Lu6  1  0.495890  0.331355  0.406347  1
  Lu  Lu7  1  0.995877  0.168471  0.093904  1
  Si  Si8  1  0.663301  0.040654  0.546457  1
  Si  Si9  1  0.161583  0.458580  0.953524  1
  Si  Si10  1  0.337080  0.959873  0.047031  1
  Si  Si11  1  0.836895  0.540706  0.453320  1
  Si  Si12  1  0.338412  0.959784  0.453323  1
  Si  Si13  1  0.838769  0.539998  0.047063  1
  Si  Si14  1  0.661740  0.041151  0.953495  1
  Si  Si15  1  0.161924  0.459673  0.546391  1
  Si  Si16  1  0.534636  0.371360  0.750003  1
  Si  Si17  1  0.034572  0.127360  0.749385  1
  Si  Si18  1  0.465582  0.628139  0.250389  1
  Si  Si19  1  0.965733  0.872597  0.249775  1
  Si  Si20  1  0.802085  0.634735  0.749774  1
  Si  Si21  1  0.301026  0.865140  0.749501  1
  Si  Si22  1  0.198264  0.365171  0.250136  1
  Si  Si23  1  0.698533  0.135625  0.250148  1
  W  W24  1  0.830862  0.336164  0.625097  1
  W  W25  1  0.330223  0.163506  0.874669  1
  W  W26  1  0.169348  0.664058  0.125497  1
  W  W27  1  0.669669  0.836680  0.374632  1
  W  W28  1  0.169057  0.663947  0.375104  1
  W  W29  1  0.669613  0.836915  0.125198  1
  W  W30  1  0.831440  0.335423  0.874886  1
  W  W31  1  0.330987  0.163483  0.624694  1
  W  W32  1  0.666266  0.998507  0.749620  1
  W  W33  1  0.165842  0.500912  0.749638  1
  W  W34  1  0.333969  0.002012  0.250239  1
  W  W35  1  0.833767  0.498525  0.250228  1
