# generated using pymatgen
data_Hf16Re3Ni4Ir
_symmetry_space_group_name_H-M   'P 1'
_cell_length_a   8.63805094
_cell_length_b   8.63805075
_cell_length_c   8.63805141
_cell_angle_alpha   60.00281745
_cell_angle_beta   60.00282088
_cell_angle_gamma   60.00281675
_symmetry_Int_Tables_number   1
_chemical_formula_structural   Hf16Re3Ni4Ir
_chemical_formula_sum   'Hf16 Re3 Ni4 Ir1'
_cell_volume   455.78502124
_cell_formula_units_Z   1
loop_
 _symmetry_equiv_pos_site_id
 _symmetry_equiv_pos_as_xyz
  1  'x, y, z'
loop_
 _atom_site_type_symbol
 _atom_site_label
 _atom_site_symmetry_multiplicity
 _atom_site_fract_x
 _atom_site_fract_y
 _atom_site_fract_z
 _atom_site_occupancy
  Hf  Hf0  1  0.689662  0.103461  0.103461  1
  Hf  Hf1  1  0.103461  0.689662  0.103461  1
  Hf  Hf2  1  0.103461  0.103461  0.689662  1
  Hf  Hf3  1  0.102617  0.102617  0.102617  1
  Hf  Hf4  1  0.315933  0.315933  0.688435  1
  Hf  Hf5  1  0.684598  0.684598  0.316139  1
  Hf  Hf6  1  0.315933  0.688435  0.315933  1
  Hf  Hf7  1  0.684598  0.316139  0.684598  1
  Hf  Hf8  1  0.688435  0.315933  0.315933  1
  Hf  Hf9  1  0.316139  0.684598  0.684598  1
  Hf  Hf10  1  0.955154  0.955154  0.544089  1
  Hf  Hf11  1  0.545096  0.545096  0.954308  1
  Hf  Hf12  1  0.955154  0.544089  0.955154  1
  Hf  Hf13  1  0.545096  0.954308  0.545096  1
  Hf  Hf14  1  0.544089  0.955154  0.955154  1
  Hf  Hf15  1  0.954308  0.545096  0.545096  1
  Re  Re16  1  0.000128  0.332325  0.332325  1
  Re  Re17  1  0.332325  0.000128  0.332325  1
  Re  Re18  1  0.332325  0.332325  0.000128  1
  Ni  Ni19  1  0.326530  0.890364  0.890364  1
  Ni  Ni20  1  0.890364  0.326530  0.890364  1
  Ni  Ni21  1  0.890364  0.890364  0.326530  1
  Ni  Ni22  1  0.891321  0.891321  0.891321  1
  Ir  Ir23  1  0.332907  0.332907  0.332907  1
