# generated using pymatgen
data_Cs2ZrTi3O9
_symmetry_space_group_name_H-M   'P 1'
_cell_length_a   7.58314500
_cell_length_b   7.58314507
_cell_length_c   10.95206200
_cell_angle_alpha   90.00000000
_cell_angle_beta   90.00000000
_cell_angle_gamma   120.00000407
_symmetry_Int_Tables_number   1
_chemical_formula_structural   Cs2ZrTi3O9
_chemical_formula_sum   'Cs4 Zr2 Ti6 O18'
_cell_volume   545.41268225
_cell_formula_units_Z   2
loop_
 _symmetry_equiv_pos_site_id
 _symmetry_equiv_pos_as_xyz
  1  'x, y, z'
loop_
 _atom_site_type_symbol
 _atom_site_label
 _atom_site_symmetry_multiplicity
 _atom_site_fract_x
 _atom_site_fract_y
 _atom_site_fract_z
 _atom_site_occupancy
  Cs  Cs0  1  0.333333  0.666667  0.061377  1
  Cs  Cs1  1  0.666667  0.333333  0.561377  1
  Cs  Cs2  1  0.666667  0.333333  0.938623  1
  Cs  Cs3  1  0.333333  0.666667  0.438623  1
  Zr  Zr4  1  0.000000  0.000000  0.000000  1
  Zr  Zr5  1  0.000000  0.000000  0.500000  1
  Ti  Ti6  1  0.374942  0.242369  0.250000  1
  Ti  Ti7  1  0.132573  0.374942  0.750000  1
  Ti  Ti8  1  0.242369  0.867427  0.750000  1
  Ti  Ti9  1  0.757631  0.132573  0.250000  1
  Ti  Ti10  1  0.867427  0.625058  0.250000  1
  Ti  Ti11  1  0.625058  0.757631  0.750000  1
  O  O12  1  0.488869  0.073930  0.250000  1
  O  O13  1  0.414940  0.488869  0.750000  1
  O  O14  1  0.073930  0.585060  0.750000  1
  O  O15  1  0.926070  0.414940  0.250000  1
  O  O16  1  0.585060  0.511131  0.250000  1
  O  O17  1  0.511131  0.926070  0.750000  1
  O  O18  1  0.236976  0.215656  0.111846  1
  O  O19  1  0.021320  0.236976  0.611846  1
  O  O20  1  0.215656  0.978680  0.611846  1
  O  O21  1  0.784344  0.021320  0.111846  1
  O  O22  1  0.978680  0.763024  0.111846  1
  O  O23  1  0.763024  0.784344  0.611846  1
  O  O24  1  0.763024  0.784344  0.888154  1
  O  O25  1  0.978680  0.763024  0.388154  1
  O  O26  1  0.784344  0.021320  0.388154  1
  O  O27  1  0.215656  0.978680  0.888154  1
  O  O28  1  0.021320  0.236976  0.888154  1
  O  O29  1  0.236976  0.215656  0.388154  1
