# generated using pymatgen
data_Li2Tb2Si2Sn
_symmetry_space_group_name_H-M   'P 1'
_cell_length_a   9.58494947
_cell_length_b   9.58494973
_cell_length_c   6.74095600
_cell_angle_alpha   90.00000000
_cell_angle_beta   90.00000000
_cell_angle_gamma   153.31296419
_symmetry_Int_Tables_number   1
_chemical_formula_structural   Li2Tb2Si2Sn
_chemical_formula_sum   'Li4 Tb4 Si4 Sn2'
_cell_volume   278.13811372
_cell_formula_units_Z   2
loop_
 _symmetry_equiv_pos_site_id
 _symmetry_equiv_pos_as_xyz
  1  'x, y, z'
loop_
 _atom_site_type_symbol
 _atom_site_label
 _atom_site_symmetry_multiplicity
 _atom_site_fract_x
 _atom_site_fract_y
 _atom_site_fract_z
 _atom_site_occupancy
  Li  Li0  1  0.184209  0.815791  0.054832  1
  Li  Li1  1  0.184209  0.815791  0.445168  1
  Li  Li2  1  0.815791  0.184209  0.945168  1
  Li  Li3  1  0.815791  0.184209  0.554832  1
  Tb  Tb4  1  0.350965  0.649035  0.250000  1
  Tb  Tb5  1  0.649035  0.350965  0.750000  1
  Tb  Tb6  1  0.548135  0.451865  0.250000  1
  Tb  Tb7  1  0.451865  0.548135  0.750000  1
  Si  Si8  1  0.058003  0.941997  0.927290  1
  Si  Si9  1  0.941997  0.058003  0.072710  1
  Si  Si10  1  0.941997  0.058003  0.427290  1
  Si  Si11  1  0.058003  0.941997  0.572710  1
  Sn  Sn12  1  0.719168  0.280832  0.250000  1
  Sn  Sn13  1  0.280832  0.719168  0.750000  1
