# generated using pymatgen
data_KYBr4
_symmetry_space_group_name_H-M   'P 1'
_cell_length_a   7.27436500
_cell_length_b   7.27131400
_cell_length_c   18.15671700
_cell_angle_alpha   90.00000000
_cell_angle_beta   90.00000000
_cell_angle_gamma   90.00000000
_symmetry_Int_Tables_number   1
_chemical_formula_structural   KYBr4
_chemical_formula_sum   'K4 Y4 Br16'
_cell_volume   960.38487628
_cell_formula_units_Z   4
loop_
 _symmetry_equiv_pos_site_id
 _symmetry_equiv_pos_as_xyz
  1  'x, y, z'
loop_
 _atom_site_type_symbol
 _atom_site_label
 _atom_site_symmetry_multiplicity
 _atom_site_fract_x
 _atom_site_fract_y
 _atom_site_fract_z
 _atom_site_occupancy
  K  K0  1  0.000000  0.250000  0.322952  1
  K  K1  1  0.500000  0.750000  0.177048  1
  K  K2  1  0.000000  0.750000  0.677048  1
  K  K3  1  0.500000  0.250000  0.822952  1
  Y  Y4  1  0.000000  0.250000  0.068219  1
  Y  Y5  1  0.500000  0.250000  0.568219  1
  Y  Y6  1  0.000000  0.750000  0.931781  1
  Y  Y7  1  0.500000  0.750000  0.431781  1
  Br  Br8  1  0.270983  0.612775  0.326214  1
  Br  Br9  1  0.783595  0.429255  0.953660  1
  Br  Br10  1  0.283595  0.570745  0.546340  1
  Br  Br11  1  0.716405  0.929255  0.546340  1
  Br  Br12  1  0.770983  0.387225  0.173786  1
  Br  Br13  1  0.229017  0.612775  0.826214  1
  Br  Br14  1  0.729017  0.887225  0.326214  1
  Br  Br15  1  0.229017  0.112775  0.173786  1
  Br  Br16  1  0.270983  0.112775  0.673786  1
  Br  Br17  1  0.729017  0.387225  0.673786  1
  Br  Br18  1  0.216405  0.570745  0.046340  1
  Br  Br19  1  0.770983  0.887225  0.826214  1
  Br  Br20  1  0.783595  0.929255  0.046340  1
  Br  Br21  1  0.283595  0.070745  0.453660  1
  Br  Br22  1  0.716405  0.429255  0.453660  1
  Br  Br23  1  0.216405  0.070745  0.953660  1
