# generated using pymatgen
data_Na10HfSiAs6
_symmetry_space_group_name_H-M   'P 1'
_cell_length_a   7.57232100
_cell_length_b   8.40108312
_cell_length_c   15.91140689
_cell_angle_alpha   58.91316519
_cell_angle_beta   90.00000000
_cell_angle_gamma   90.00000000
_symmetry_Int_Tables_number   1
_chemical_formula_structural   Na10HfSiAs6
_chemical_formula_sum   'Na20 Hf2 Si2 As12'
_cell_volume   866.84672133
_cell_formula_units_Z   2
loop_
 _symmetry_equiv_pos_site_id
 _symmetry_equiv_pos_as_xyz
  1  'x, y, z'
loop_
 _atom_site_type_symbol
 _atom_site_label
 _atom_site_symmetry_multiplicity
 _atom_site_fract_x
 _atom_site_fract_y
 _atom_site_fract_z
 _atom_site_occupancy
  Na  Na0  1  0.509931  0.560390  0.754650  1
  Na  Na1  1  0.009931  0.439610  0.745350  1
  Na  Na2  1  0.489973  0.437870  0.240332  1
  Na  Na3  1  0.989973  0.562130  0.259668  1
  Na  Na4  1  0.973860  0.253897  0.583155  1
  Na  Na5  1  0.473860  0.746103  0.916845  1
  Na  Na6  1  0.034263  0.755180  0.416414  1
  Na  Na7  1  0.534263  0.244820  0.083586  1
  Na  Na8  1  0.478548  0.080540  0.588955  1
  Na  Na9  1  0.978548  0.919460  0.911045  1
  Na  Na10  1  0.514381  0.918178  0.411689  1
  Na  Na11  1  0.014381  0.081822  0.088311  1
  Na  Na12  1  0.339767  0.159916  0.916909  1
  Na  Na13  1  0.839767  0.840084  0.583091  1
  Na  Na14  1  0.661598  0.849103  0.080213  1
  Na  Na15  1  0.161598  0.150897  0.419787  1
  Na  Na16  1  0.150877  0.834793  0.739637  1
  Na  Na17  1  0.650877  0.165207  0.760363  1
  Na  Na18  1  0.850311  0.163587  0.258524  1
  Na  Na19  1  0.350311  0.836413  0.241476  1
  Hf  Hf20  1  0.135995  0.488585  0.079637  1
  Hf  Hf21  1  0.635995  0.511415  0.420363  1
  Si  Si22  1  0.863937  0.513212  0.917804  1
  Si  Si23  1  0.363937  0.486788  0.582196  1
  As  As24  1  0.242326  0.755844  0.579796  1
  As  As25  1  0.742326  0.244156  0.920204  1
  As  As26  1  0.763311  0.222498  0.421897  1
  As  As27  1  0.263311  0.777502  0.078103  1
  As  As28  1  0.269650  0.194645  0.720543  1
  As  As29  1  0.769650  0.805355  0.779457  1
  As  As30  1  0.738070  0.821113  0.268505  1
  As  As31  1  0.238070  0.178887  0.231495  1
  As  As32  1  0.191043  0.478055  0.921182  1
  As  As33  1  0.691043  0.521945  0.578818  1
  As  As34  1  0.792158  0.523103  0.066341  1
  As  As35  1  0.292158  0.476897  0.433659  1
