# generated using pymatgen
data_Sr3La(ScSe2)8
_symmetry_space_group_name_H-M   'P 1'
_cell_length_a   3.97043300
_cell_length_b   12.24218650
_cell_length_c   14.36409697
_cell_angle_alpha   89.85089905
_cell_angle_beta   90.00000000
_cell_angle_gamma   90.00000000
_symmetry_Int_Tables_number   1
_chemical_formula_structural   Sr3La(ScSe2)8
_chemical_formula_sum   'Sr3 La1 Sc8 Se16'
_cell_volume   698.19015532
_cell_formula_units_Z   1
loop_
 _symmetry_equiv_pos_site_id
 _symmetry_equiv_pos_as_xyz
  1  'x, y, z'
loop_
 _atom_site_type_symbol
 _atom_site_label
 _atom_site_symmetry_multiplicity
 _atom_site_fract_x
 _atom_site_fract_y
 _atom_site_fract_z
 _atom_site_occupancy
  Sr  Sr0  1  0.250000  0.237856  0.330803  1
  Sr  Sr1  1  0.750000  0.260829  0.831416  1
  Sr  Sr2  1  0.250000  0.739095  0.169360  1
  La  La3  1  0.750000  0.761563  0.670167  1
  Sc  Sc4  1  0.250000  0.081288  0.596515  1
  Sc  Sc5  1  0.250000  0.058294  0.109633  1
  Sc  Sc6  1  0.750000  0.419095  0.096450  1
  Sc  Sc7  1  0.750000  0.940657  0.890628  1
  Sc  Sc8  1  0.750000  0.442024  0.609968  1
  Sc  Sc9  1  0.250000  0.558896  0.390149  1
  Sc  Sc10  1  0.750000  0.917175  0.403732  1
  Sc  Sc11  1  0.250000  0.581489  0.903922  1
  Se  Se12  1  0.250000  0.872651  0.532065  1
  Se  Se13  1  0.250000  0.796259  0.834327  1
  Se  Se14  1  0.250000  0.970392  0.285258  1
  Se  Se15  1  0.750000  0.411722  0.426383  1
  Se  Se16  1  0.250000  0.471190  0.215429  1
  Se  Se17  1  0.250000  0.088762  0.924210  1
  Se  Se18  1  0.750000  0.203609  0.159548  1
  Se  Se19  1  0.750000  0.023632  0.714046  1
  Se  Se20  1  0.250000  0.593493  0.576975  1
  Se  Se21  1  0.750000  0.703209  0.340746  1
  Se  Se22  1  0.250000  0.297111  0.660466  1
  Se  Se23  1  0.250000  0.375671  0.970280  1
  Se  Se24  1  0.750000  0.625769  0.027797  1
  Se  Se25  1  0.750000  0.534691  0.782813  1
  Se  Se26  1  0.750000  0.123445  0.471924  1
  Se  Se27  1  0.750000  0.910131  0.074991  1
