# generated using pymatgen
data_LaGd3HgPt
_symmetry_space_group_name_H-M   'P 1'
_cell_length_a   9.85891006
_cell_length_b   9.85891102
_cell_length_c   9.85891000
_cell_angle_alpha   59.99999670
_cell_angle_beta   59.99999347
_cell_angle_gamma   59.99999888
_symmetry_Int_Tables_number   1
_chemical_formula_structural   LaGd3HgPt
_chemical_formula_sum   'La4 Gd12 Hg4 Pt4'
_cell_volume   677.59738234
_cell_formula_units_Z   4
loop_
 _symmetry_equiv_pos_site_id
 _symmetry_equiv_pos_as_xyz
  1  'x, y, z'
loop_
 _atom_site_type_symbol
 _atom_site_label
 _atom_site_symmetry_multiplicity
 _atom_site_fract_x
 _atom_site_fract_y
 _atom_site_fract_z
 _atom_site_occupancy
  La  La0  1  0.353814  0.353814  0.353814  1
  La  La1  1  0.353814  0.353814  0.938556  1
  La  La2  1  0.353814  0.938556  0.353814  1
  La  La3  1  0.938556  0.353814  0.353814  1
  Gd  Gd4  1  0.810100  0.189900  0.189900  1
  Gd  Gd5  1  0.189900  0.810100  0.810100  1
  Gd  Gd6  1  0.189900  0.810100  0.189900  1
  Gd  Gd7  1  0.810100  0.189900  0.810100  1
  Gd  Gd8  1  0.189900  0.189900  0.810100  1
  Gd  Gd9  1  0.810100  0.810100  0.189900  1
  Gd  Gd10  1  0.933729  0.566271  0.566271  1
  Gd  Gd11  1  0.566271  0.933729  0.933729  1
  Gd  Gd12  1  0.566271  0.933729  0.566271  1
  Gd  Gd13  1  0.933729  0.566271  0.933729  1
  Gd  Gd14  1  0.566271  0.566271  0.933729  1
  Gd  Gd15  1  0.933729  0.933729  0.566271  1
  Hg  Hg16  1  0.585880  0.585880  0.585880  1
  Hg  Hg17  1  0.585880  0.585880  0.242359  1
  Hg  Hg18  1  0.585880  0.242359  0.585880  1
  Hg  Hg19  1  0.242359  0.585880  0.585880  1
  Pt  Pt20  1  0.141087  0.141087  0.141087  1
  Pt  Pt21  1  0.141087  0.141087  0.576739  1
  Pt  Pt22  1  0.141087  0.576739  0.141087  1
  Pt  Pt23  1  0.576739  0.141087  0.141087  1
