# generated using pymatgen
data_LiAc2As3P3Pd20
_symmetry_space_group_name_H-M   'P 1'
_cell_length_a   8.80076558
_cell_length_b   8.86835780
_cell_length_c   8.90594284
_cell_angle_alpha   59.35953603
_cell_angle_beta   60.10774280
_cell_angle_gamma   60.53616630
_symmetry_Int_Tables_number   1
_chemical_formula_structural   LiAc2As3P3Pd20
_chemical_formula_sum   'Li1 Ac2 As3 P3 Pd20'
_cell_volume   491.41263565
_cell_formula_units_Z   1
loop_
 _symmetry_equiv_pos_site_id
 _symmetry_equiv_pos_as_xyz
  1  'x, y, z'
loop_
 _atom_site_type_symbol
 _atom_site_label
 _atom_site_symmetry_multiplicity
 _atom_site_fract_x
 _atom_site_fract_y
 _atom_site_fract_z
 _atom_site_occupancy
  Li  Li0  1  0.999980  0.000065  0.999931  1
  Ac  Ac1  1  0.249316  0.250441  0.249622  1
  Ac  Ac2  1  0.749547  0.750632  0.749369  1
  As  As3  1  0.739343  0.260613  0.257880  1
  As  As4  1  0.257808  0.742164  0.739343  1
  As  As5  1  0.259181  0.740785  0.259275  1
  P  P6  1  0.738378  0.261569  0.738477  1
  P  P7  1  0.260328  0.262390  0.737646  1
  P  P8  1  0.737646  0.739739  0.260304  1
  Pd  Pd9  1  0.384532  0.383508  0.394413  1
  Pd  Pd10  1  0.619013  0.607675  0.610399  1
  Pd  Pd11  1  0.392312  0.381072  0.837143  1
  Pd  Pd12  1  0.394518  0.837604  0.384335  1
  Pd  Pd13  1  0.616561  0.615489  0.162504  1
  Pd  Pd14  1  0.610679  0.162872  0.618752  1
  Pd  Pd15  1  0.837121  0.389407  0.392282  1
  Pd  Pd16  1  0.162342  0.605669  0.616369  1
  Pd  Pd17  1  0.347494  0.009400  0.990672  1
  Pd  Pd18  1  0.657000  0.998896  0.001103  1
  Pd  Pd19  1  0.001050  0.343053  0.656916  1
  Pd  Pd20  1  0.990487  0.652533  0.347536  1
  Pd  Pd21  1  0.010399  0.347066  0.988942  1
  Pd  Pd22  1  0.652989  0.989504  0.346357  1
  Pd  Pd23  1  0.988664  0.653577  0.010602  1
  Pd  Pd24  1  0.346472  0.011232  0.652763  1
  Pd  Pd25  1  0.000900  0.999068  0.351364  1
  Pd  Pd26  1  0.988890  0.011101  0.655494  1
  Pd  Pd27  1  0.655702  0.344262  0.989085  1
  Pd  Pd28  1  0.351347  0.648616  0.001117  1
