# generated using pymatgen
data_Ho8TaTi10Si16Ag
_symmetry_space_group_name_H-M   'P 1'
_cell_length_a   7.05841996
_cell_length_b   7.05842030
_cell_length_c   12.90226212
_cell_angle_alpha   90.11392154
_cell_angle_beta   89.88607805
_cell_angle_gamma   89.68943810
_symmetry_Int_Tables_number   1
_chemical_formula_structural   Ho8TaTi10Si16Ag
_chemical_formula_sum   'Ho8 Ta1 Ti10 Si16 Ag1'
_cell_volume   642.79540616
_cell_formula_units_Z   1
loop_
 _symmetry_equiv_pos_site_id
 _symmetry_equiv_pos_as_xyz
  1  'x, y, z'
loop_
 _atom_site_type_symbol
 _atom_site_label
 _atom_site_symmetry_multiplicity
 _atom_site_fract_x
 _atom_site_fract_y
 _atom_site_fract_z
 _atom_site_occupancy
  Ho  Ho0  1  0.341278  0.001876  0.467110  1
  Ho  Ho1  1  0.498022  0.840562  0.716580  1
  Ho  Ho2  1  0.501289  0.158261  0.214617  1
  Ho  Ho3  1  0.840562  0.498022  0.283420  1
  Ho  Ho4  1  0.158261  0.501289  0.785383  1
  Ho  Ho5  1  0.656406  0.000817  0.968364  1
  Ho  Ho6  1  0.001876  0.341278  0.532890  1
  Ho  Ho7  1  0.000817  0.656406  0.031636  1
  Ta  Ta8  1  0.672927  0.672927  0.500000  1
  Ti  Ti9  1  0.173880  0.826268  0.249952  1
  Ti  Ti10  1  0.826268  0.173880  0.750048  1
  Ti  Ti11  1  0.148001  0.007629  0.876817  1
  Ti  Ti12  1  0.494668  0.650699  0.123745  1
  Ti  Ti13  1  0.507917  0.350829  0.624649  1
  Ti  Ti14  1  0.650699  0.494668  0.876255  1
  Ti  Ti15  1  0.350829  0.507917  0.375351  1
  Ti  Ti16  1  0.848754  0.991528  0.375024  1
  Ti  Ti17  1  0.007629  0.148001  0.123183  1
  Ti  Ti18  1  0.991528  0.848754  0.624976  1
  Si  Si19  1  0.202647  0.132392  0.684132  1
  Si  Si20  1  0.373516  0.718558  0.929525  1
  Si  Si21  1  0.631071  0.294903  0.432975  1
  Si  Si22  1  0.718558  0.373516  0.070475  1
  Si  Si23  1  0.294903  0.631071  0.567025  1
  Si  Si24  1  0.797723  0.867805  0.182622  1
  Si  Si25  1  0.132392  0.202647  0.315868  1
  Si  Si26  1  0.867805  0.797723  0.817378  1
  Si  Si27  1  0.286308  0.938346  0.066197  1
  Si  Si28  1  0.546040  0.792049  0.313870  1
  Si  Si29  1  0.455485  0.207392  0.809116  1
  Si  Si30  1  0.792049  0.546040  0.686130  1
  Si  Si31  1  0.207392  0.455485  0.190884  1
  Si  Si32  1  0.708856  0.047479  0.564242  1
  Si  Si33  1  0.938346  0.286308  0.933803  1
  Si  Si34  1  0.047479  0.708856  0.435758  1
  Ag  Ag35  1  0.327817  0.327817  0.000000  1
