# generated using pymatgen
data_YErMoRu3
_symmetry_space_group_name_H-M   'P 1'
_cell_length_a   5.20270778
_cell_length_b   5.20270737
_cell_length_c   5.20270821
_cell_angle_alpha   64.81682420
_cell_angle_beta   64.81684202
_cell_angle_gamma   64.81683209
_symmetry_Int_Tables_number   1
_chemical_formula_structural   YErMoRu3
_chemical_formula_sum   'Y1 Er1 Mo1 Ru3'
_cell_volume   110.07141117
_cell_formula_units_Z   1
loop_
 _symmetry_equiv_pos_site_id
 _symmetry_equiv_pos_as_xyz
  1  'x, y, z'
loop_
 _atom_site_type_symbol
 _atom_site_label
 _atom_site_symmetry_multiplicity
 _atom_site_fract_x
 _atom_site_fract_y
 _atom_site_fract_z
 _atom_site_occupancy
  Y  Y0  1  0.872849  0.872849  0.872849  1
  Er  Er1  1  0.127672  0.127672  0.127672  1
  Mo  Mo2  1  0.500015  0.500015  0.500015  1
  Ru  Ru3  1  0.499599  0.000266  0.499599  1
  Ru  Ru4  1  0.000266  0.499599  0.499599  1
  Ru  Ru5  1  0.499599  0.499599  0.000266  1
