# generated using pymatgen
data_TbSmHoGa8Ag3
_symmetry_space_group_name_H-M   'P 1'
_cell_length_a   4.36098853
_cell_length_b   8.39206584
_cell_length_c   8.39206685
_cell_angle_alpha   69.37100191
_cell_angle_beta   74.94013655
_cell_angle_gamma   74.94013592
_symmetry_Int_Tables_number   1
_chemical_formula_structural   TbSmHoGa8Ag3
_chemical_formula_sum   'Tb1 Sm1 Ho1 Ga8 Ag3'
_cell_volume   272.71078400
_cell_formula_units_Z   1
loop_
 _symmetry_equiv_pos_site_id
 _symmetry_equiv_pos_as_xyz
  1  'x, y, z'
loop_
 _atom_site_type_symbol
 _atom_site_label
 _atom_site_symmetry_multiplicity
 _atom_site_fract_x
 _atom_site_fract_y
 _atom_site_fract_z
 _atom_site_occupancy
  Tb  Tb0  1  0.200637  0.799363  0.799363  1
  Sm  Sm1  1  0.500089  0.499911  0.499911  1
  Ho  Ho2  1  0.799502  0.200498  0.200498  1
  Ga  Ga3  1  0.355912  0.360927  0.927249  1
  Ga  Ga4  1  0.644018  0.638707  0.073258  1
  Ga  Ga5  1  0.355912  0.927249  0.360927  1
  Ga  Ga6  1  0.644018  0.073258  0.638707  1
  Ga  Ga7  1  0.159312  0.472548  0.208827  1
  Ga  Ga8  1  0.840972  0.526996  0.791060  1
  Ga  Ga9  1  0.159312  0.208827  0.472548  1
  Ga  Ga10  1  0.840972  0.791060  0.526996  1
  Ag  Ag11  1  0.499785  0.000215  0.000215  1
  Ag  Ag12  1  0.999779  0.807354  0.193089  1
  Ag  Ag13  1  0.999779  0.193089  0.807354  1
