# generated using pymatgen
data_Y12TlNi4Hg
_symmetry_space_group_name_H-M   'P 1'
_cell_length_a   8.47636354
_cell_length_b   8.47636316
_cell_length_c   8.47636400
_cell_angle_alpha   112.69967203
_cell_angle_beta   108.91429858
_cell_angle_gamma   106.85470467
_symmetry_Int_Tables_number   1
_chemical_formula_structural   Y12TlNi4Hg
_chemical_formula_sum   'Y12 Tl1 Ni4 Hg1'
_cell_volume   467.55512380
_cell_formula_units_Z   1
loop_
 _symmetry_equiv_pos_site_id
 _symmetry_equiv_pos_as_xyz
  1  'x, y, z'
loop_
 _atom_site_type_symbol
 _atom_site_label
 _atom_site_symmetry_multiplicity
 _atom_site_fract_x
 _atom_site_fract_y
 _atom_site_fract_z
 _atom_site_occupancy
  Y  Y0  1  0.429504  0.226079  0.203425  1
  Y  Y1  1  0.570496  0.773921  0.796575  1
  Y  Y2  1  0.022654  0.226079  0.796575  1
  Y  Y3  1  0.977346  0.773921  0.203425  1
  Y  Y4  1  0.182126  0.295406  0.477533  1
  Y  Y5  1  0.817874  0.704594  0.522467  1
  Y  Y6  1  0.182126  0.704594  0.886721  1
  Y  Y7  1  0.817874  0.295406  0.113279  1
  Y  Y8  1  0.324199  0.629031  0.304831  1
  Y  Y9  1  0.675801  0.370969  0.695169  1
  Y  Y10  1  0.324199  0.019367  0.695169  1
  Y  Y11  1  0.675801  0.980633  0.304831  1
  Tl  Tl12  1  0.500000  0.500000  0.000000  1
  Ni  Ni13  1  0.365019  0.000000  0.365019  1
  Ni  Ni14  1  0.634981  0.000000  0.634981  1
  Ni  Ni15  1  0.125027  0.625027  0.500000  1
  Ni  Ni16  1  0.874973  0.374973  0.500000  1
  Hg  Hg17  1  0.000000  0.000000  0.000000  1
