# generated using pymatgen
data_La4ScSn2Hg
_symmetry_space_group_name_H-M   'P 1'
_cell_length_a   9.37333283
_cell_length_b   9.37333209
_cell_length_c   9.37333254
_cell_angle_alpha   96.01231252
_cell_angle_beta   96.01230606
_cell_angle_gamma   142.23372500
_symmetry_Int_Tables_number   1
_chemical_formula_structural   La4ScSn2Hg
_chemical_formula_sum   'La8 Sc2 Sn4 Hg2'
_cell_volume   477.22261734
_cell_formula_units_Z   2
loop_
 _symmetry_equiv_pos_site_id
 _symmetry_equiv_pos_as_xyz
  1  'x, y, z'
loop_
 _atom_site_type_symbol
 _atom_site_label
 _atom_site_symmetry_multiplicity
 _atom_site_fract_x
 _atom_site_fract_y
 _atom_site_fract_z
 _atom_site_occupancy
  La  La0  1  0.909301  0.226622  0.135923  1
  La  La1  1  0.226622  0.090699  0.317322  1
  La  La2  1  0.773378  0.909301  0.682678  1
  La  La3  1  0.090699  0.773378  0.864077  1
  La  La4  1  0.726622  0.409301  0.135923  1
  La  La5  1  0.273378  0.590699  0.864077  1
  La  La6  1  0.590699  0.726622  0.317322  1
  La  La7  1  0.409301  0.273378  0.682678  1
  Sc  Sc8  1  0.750000  0.250000  0.500000  1
  Sc  Sc9  1  0.250000  0.750000  0.500000  1
  Sn  Sn10  1  0.850792  0.649208  0.500000  1
  Sn  Sn11  1  0.649208  0.149208  0.798417  1
  Sn  Sn12  1  0.350792  0.850792  0.201583  1
  Sn  Sn13  1  0.149208  0.350792  0.500000  1
  Hg  Hg14  1  0.750000  0.750000  0.000000  1
  Hg  Hg15  1  0.250000  0.250000  0.000000  1
