# generated using pymatgen
data_Ca6Re2N6Cl
_symmetry_space_group_name_H-M   'P 1'
_cell_length_a   6.20785459
_cell_length_b   6.20785489
_cell_length_c   6.20785587
_cell_angle_alpha   95.50374589
_cell_angle_beta   95.50374296
_cell_angle_gamma   95.50374170
_symmetry_Int_Tables_number   1
_chemical_formula_structural   Ca6Re2N6Cl
_chemical_formula_sum   'Ca6 Re2 N6 Cl1'
_cell_volume   235.69672352
_cell_formula_units_Z   1
loop_
 _symmetry_equiv_pos_site_id
 _symmetry_equiv_pos_as_xyz
  1  'x, y, z'
loop_
 _atom_site_type_symbol
 _atom_site_label
 _atom_site_symmetry_multiplicity
 _atom_site_fract_x
 _atom_site_fract_y
 _atom_site_fract_z
 _atom_site_occupancy
  Ca  Ca0  1  0.613374  0.116399  0.784329  1
  Ca  Ca1  1  0.116399  0.784329  0.613374  1
  Ca  Ca2  1  0.784329  0.613374  0.116399  1
  Ca  Ca3  1  0.386626  0.883601  0.215671  1
  Ca  Ca4  1  0.883601  0.215671  0.386626  1
  Ca  Ca5  1  0.215671  0.386626  0.883601  1
  Re  Re6  1  0.624677  0.624677  0.624677  1
  Re  Re7  1  0.375323  0.375323  0.375323  1
  N  N8  1  0.731588  0.861959  0.473154  1
  N  N9  1  0.861959  0.473154  0.731588  1
  N  N10  1  0.473154  0.731588  0.861959  1
  N  N11  1  0.268412  0.138041  0.526846  1
  N  N12  1  0.138041  0.526846  0.268412  1
  N  N13  1  0.526846  0.268412  0.138041  1
  Cl  Cl14  1  0.000000  0.000000  0.000000  1
