# generated using pymatgen
data_Nd7PBr12
_symmetry_space_group_name_H-M   'P 1'
_cell_length_a   9.40461231
_cell_length_b   9.40461313
_cell_length_c   9.40461368
_cell_angle_alpha   107.54086036
_cell_angle_beta   107.54086886
_cell_angle_gamma   107.54086087
_symmetry_Int_Tables_number   1
_chemical_formula_structural   Nd7PBr12
_chemical_formula_sum   'Nd7 P1 Br12'
_cell_volume   682.25843725
_cell_formula_units_Z   1
loop_
 _symmetry_equiv_pos_site_id
 _symmetry_equiv_pos_as_xyz
  1  'x, y, z'
loop_
 _atom_site_type_symbol
 _atom_site_label
 _atom_site_symmetry_multiplicity
 _atom_site_fract_x
 _atom_site_fract_y
 _atom_site_fract_z
 _atom_site_occupancy
  Nd  Nd0  1  0.000000  0.000000  0.000000  1
  Nd  Nd1  1  0.605703  0.528774  0.816980  1
  Nd  Nd2  1  0.528774  0.816980  0.605703  1
  Nd  Nd3  1  0.816980  0.605703  0.528774  1
  Nd  Nd4  1  0.394297  0.471226  0.183020  1
  Nd  Nd5  1  0.471226  0.183020  0.394297  1
  Nd  Nd6  1  0.183020  0.394297  0.471226  1
  P  P7  1  0.500000  0.500000  0.500000  1
  Br  Br8  1  0.574604  0.185392  0.727763  1
  Br  Br9  1  0.185392  0.727763  0.574604  1
  Br  Br10  1  0.727763  0.574604  0.185392  1
  Br  Br11  1  0.425396  0.814608  0.272237  1
  Br  Br12  1  0.814608  0.272237  0.425396  1
  Br  Br13  1  0.272237  0.425396  0.814608  1
  Br  Br14  1  0.657587  0.884584  0.967841  1
  Br  Br15  1  0.884584  0.967841  0.657587  1
  Br  Br16  1  0.967841  0.657587  0.884584  1
  Br  Br17  1  0.342413  0.115416  0.032159  1
  Br  Br18  1  0.115416  0.032159  0.342413  1
  Br  Br19  1  0.032159  0.342413  0.115416  1
