# generated using pymatgen
data_La3Tb2YbYFeI12
_symmetry_space_group_name_H-M   'P 1'
_cell_length_a   10.03727186
_cell_length_b   9.81969532
_cell_length_c   10.01423573
_cell_angle_alpha   106.05887643
_cell_angle_beta   106.87461402
_cell_angle_gamma   107.83831421
_symmetry_Int_Tables_number   1
_chemical_formula_structural   La3Tb2YbYFeI12
_chemical_formula_sum   'La3 Tb2 Yb1 Y1 Fe1 I12'
_cell_volume   823.55562046
_cell_formula_units_Z   1
loop_
 _symmetry_equiv_pos_site_id
 _symmetry_equiv_pos_as_xyz
  1  'x, y, z'
loop_
 _atom_site_type_symbol
 _atom_site_label
 _atom_site_symmetry_multiplicity
 _atom_site_fract_x
 _atom_site_fract_y
 _atom_site_fract_z
 _atom_site_occupancy
  La  La0  1  0.089270  0.273917  0.021624  1
  La  La1  1  0.317123  0.027376  0.103048  1
  La  La2  1  0.908386  0.725814  0.977509  1
  Tb  Tb3  1  0.700481  0.972400  0.900255  1
  Tb  Tb4  1  0.973468  0.901137  0.698351  1
  Yb  Yb5  1  0.499413  0.502157  0.501246  1
  Y  Y6  1  0.026611  0.098533  0.301564  1
  Fe  Fe7  1  0.999540  0.998274  0.999380  1
  I  I8  1  0.069042  0.219478  0.672347  1
  I  I9  1  0.373426  0.155425  0.463347  1
  I  I10  1  0.625484  0.852079  0.548972  1
  I  I11  1  0.225847  0.676130  0.074543  1
  I  I12  1  0.764513  0.306979  0.921911  1
  I  I13  1  0.689358  0.071562  0.220992  1
  I  I14  1  0.533388  0.620855  0.839307  1
  I  I15  1  0.841755  0.542856  0.614693  1
  I  I16  1  0.928951  0.781172  0.326311  1
  I  I17  1  0.310535  0.923743  0.765687  1
  I  I18  1  0.468266  0.394783  0.164444  1
  I  I19  1  0.155145  0.455334  0.384468  1
