# generated using pymatgen
data_Ba4La7BiS16
_symmetry_space_group_name_H-M   'P 1'
_cell_length_a   4.20176500
_cell_length_b   12.41906709
_cell_length_c   14.97724800
_cell_angle_alpha   89.69662647
_cell_angle_beta   90.00000000
_cell_angle_gamma   90.00000000
_symmetry_Int_Tables_number   1
_chemical_formula_structural   Ba4La7BiS16
_chemical_formula_sum   'Ba4 La7 Bi1 S16'
_cell_volume   781.53182094
_cell_formula_units_Z   1
loop_
 _symmetry_equiv_pos_site_id
 _symmetry_equiv_pos_as_xyz
  1  'x, y, z'
loop_
 _atom_site_type_symbol
 _atom_site_label
 _atom_site_symmetry_multiplicity
 _atom_site_fract_x
 _atom_site_fract_y
 _atom_site_fract_z
 _atom_site_occupancy
  Ba  Ba0  1  0.250000  0.754487  0.340791  1
  Ba  Ba1  1  0.250000  0.255029  0.161274  1
  Ba  Ba2  1  0.750000  0.243517  0.657021  1
  Ba  Ba3  1  0.750000  0.744830  0.839788  1
  La  La4  1  0.250000  0.422772  0.393034  1
  La  La5  1  0.250000  0.926380  0.109201  1
  La  La6  1  0.750000  0.574588  0.609339  1
  La  La7  1  0.750000  0.074436  0.890661  1
  La  La8  1  0.250000  0.418939  0.896620  1
  La  La9  1  0.250000  0.922844  0.600873  1
  La  La10  1  0.750000  0.580221  0.104308  1
  Bi  Bi11  1  0.750000  0.078801  0.395756  1
  S  S12  1  0.250000  0.208192  0.819967  1
  S  S13  1  0.250000  0.710136  0.677509  1
  S  S14  1  0.750000  0.792251  0.179901  1
  S  S15  1  0.750000  0.288188  0.322510  1
  S  S16  1  0.250000  0.134905  0.522019  1
  S  S17  1  0.250000  0.632365  0.976557  1
  S  S18  1  0.750000  0.868704  0.472996  1
  S  S19  1  0.750000  0.367243  0.024552  1
  S  S20  1  0.250000  0.518446  0.218160  1
  S  S21  1  0.250000  0.022787  0.284594  1
  S  S22  1  0.750000  0.480478  0.783462  1
  S  S23  1  0.750000  0.980253  0.716123  1
  S  S24  1  0.250000  0.419689  0.581857  1
  S  S25  1  0.250000  0.919074  0.920353  1
  S  S26  1  0.750000  0.579584  0.419934  1
  S  S27  1  0.750000  0.080857  0.080842  1
