# generated using pymatgen
data_Cs7PaAs4
_symmetry_space_group_name_H-M   'P 1'
_cell_length_a   9.26206100
_cell_length_b   10.37862500
_cell_length_c   11.40309400
_cell_angle_alpha   90.00000000
_cell_angle_beta   90.00000000
_cell_angle_gamma   90.00000000
_symmetry_Int_Tables_number   1
_chemical_formula_structural   Cs7PaAs4
_chemical_formula_sum   'Cs14 Pa2 As8'
_cell_volume   1096.15043780
_cell_formula_units_Z   2
loop_
 _symmetry_equiv_pos_site_id
 _symmetry_equiv_pos_as_xyz
  1  'x, y, z'
loop_
 _atom_site_type_symbol
 _atom_site_label
 _atom_site_symmetry_multiplicity
 _atom_site_fract_x
 _atom_site_fract_y
 _atom_site_fract_z
 _atom_site_occupancy
  Cs  Cs0  1  0.879145  0.024823  0.000000  1
  Cs  Cs1  1  0.705924  0.834166  0.713898  1
  Cs  Cs2  1  0.394796  0.893728  0.000000  1
  Cs  Cs3  1  0.379145  0.975177  0.500000  1
  Cs  Cs4  1  0.876161  0.464929  0.289625  1
  Cs  Cs5  1  0.894796  0.106272  0.500000  1
  Cs  Cs6  1  0.660297  0.336307  0.000000  1
  Cs  Cs7  1  0.160297  0.663693  0.500000  1
  Cs  Cs8  1  0.205924  0.165834  0.213898  1
  Cs  Cs9  1  0.376161  0.535071  0.210375  1
  Cs  Cs10  1  0.376161  0.535071  0.789625  1
  Cs  Cs11  1  0.876161  0.464929  0.710375  1
  Cs  Cs12  1  0.705924  0.834166  0.286102  1
  Cs  Cs13  1  0.205924  0.165834  0.786102  1
  Pa  Pa14  1  0.001984  0.668936  0.000000  1
  Pa  Pa15  1  0.501984  0.331064  0.500000  1
  As  As16  1  0.703956  0.679022  0.000000  1
  As  As17  1  0.203956  0.320978  0.500000  1
  As  As18  1  0.073439  0.410561  0.000000  1
  As  As19  1  0.573439  0.589439  0.500000  1
  As  As20  1  0.091658  0.803736  0.198692  1
  As  As21  1  0.591658  0.196264  0.301308  1
  As  As22  1  0.591658  0.196264  0.698692  1
  As  As23  1  0.091658  0.803736  0.801308  1
