# generated using pymatgen
data_Ce4FeCo4Si10Os
_symmetry_space_group_name_H-M   'P 1'
_cell_length_a   7.97608586
_cell_length_b   7.97797594
_cell_length_c   7.97857922
_cell_angle_alpha   138.37220213
_cell_angle_beta   105.49860268
_cell_angle_gamma   89.15740999
_symmetry_Int_Tables_number   1
_chemical_formula_structural   Ce4FeCo4Si10Os
_chemical_formula_sum   'Ce4 Fe1 Co4 Si10 Os1'
_cell_volume   311.12352001
_cell_formula_units_Z   1
loop_
 _symmetry_equiv_pos_site_id
 _symmetry_equiv_pos_as_xyz
  1  'x, y, z'
loop_
 _atom_site_type_symbol
 _atom_site_label
 _atom_site_symmetry_multiplicity
 _atom_site_fract_x
 _atom_site_fract_y
 _atom_site_fract_z
 _atom_site_occupancy
  Ce  Ce0  1  0.866607  0.634882  0.240484  1
  Ce  Ce1  1  0.133424  0.373712  0.768140  1
  Ce  Ce2  1  0.394383  0.126135  0.259499  1
  Ce  Ce3  1  0.605543  0.865240  0.731862  1
  Fe  Fe4  1  0.000061  0.250018  0.249971  1
  Co  Co5  1  0.249722  0.865296  0.389480  1
  Co  Co6  1  0.750279  0.139919  0.615724  1
  Co  Co7  1  0.475851  0.360179  0.110604  1
  Co  Co8  1  0.524208  0.634595  0.884270  1
  Si  Si9  1  0.500045  0.750151  0.250046  1
  Si  Si10  1  0.499909  0.249860  0.749903  1
  Si  Si11  1  0.232530  0.982456  0.749952  1
  Si  Si12  1  0.767444  0.517501  0.749965  1
  Si  Si13  1  0.765973  0.015999  0.249953  1
  Si  Si14  1  0.233957  0.484007  0.250085  1
  Si  Si15  1  0.048649  0.906228  0.165676  1
  Si  Si16  1  0.951358  0.117082  0.857625  1
  Si  Si17  1  0.740513  0.382904  0.334321  1
  Si  Si18  1  0.259543  0.593791  0.642381  1
  Os  Os19  1  0.000001  0.750044  0.750058  1
