# generated using pymatgen
data_HoMgCo(PRh)3
_symmetry_space_group_name_H-M   'P 1'
_cell_length_a   3.84023400
_cell_length_b   10.83942100
_cell_length_c   12.66641000
_cell_angle_alpha   90.00000000
_cell_angle_beta   90.00000000
_cell_angle_gamma   90.00000000
_symmetry_Int_Tables_number   1
_chemical_formula_structural   HoMgCo(PRh)3
_chemical_formula_sum   'Ho4 Mg4 Co4 P12 Rh12'
_cell_volume   527.25088150
_cell_formula_units_Z   4
loop_
 _symmetry_equiv_pos_site_id
 _symmetry_equiv_pos_as_xyz
  1  'x, y, z'
loop_
 _atom_site_type_symbol
 _atom_site_label
 _atom_site_symmetry_multiplicity
 _atom_site_fract_x
 _atom_site_fract_y
 _atom_site_fract_z
 _atom_site_occupancy
  Ho  Ho0  1  0.250000  0.580852  0.711944  1
  Ho  Ho1  1  0.250000  0.919148  0.211944  1
  Ho  Ho2  1  0.750000  0.419148  0.288056  1
  Ho  Ho3  1  0.750000  0.080852  0.788056  1
  Mg  Mg4  1  0.250000  0.705983  0.986954  1
  Mg  Mg5  1  0.250000  0.794017  0.486954  1
  Mg  Mg6  1  0.750000  0.294017  0.013046  1
  Mg  Mg7  1  0.750000  0.205983  0.513046  1
  Co  Co8  1  0.250000  0.466076  0.936003  1
  Co  Co9  1  0.250000  0.033924  0.436003  1
  Co  Co10  1  0.750000  0.533924  0.063997  1
  Co  Co11  1  0.750000  0.966076  0.563997  1
  P  P12  1  0.250000  0.426683  0.110328  1
  P  P13  1  0.250000  0.073317  0.610328  1
  P  P14  1  0.750000  0.573317  0.889672  1
  P  P15  1  0.750000  0.926683  0.389672  1
  P  P16  1  0.250000  0.268771  0.860241  1
  P  P17  1  0.250000  0.231229  0.360241  1
  P  P18  1  0.750000  0.731229  0.139759  1
  P  P19  1  0.750000  0.768771  0.639759  1
  P  P20  1  0.250000  0.592341  0.384336  1
  P  P21  1  0.250000  0.907659  0.884336  1
  P  P22  1  0.750000  0.407659  0.615664  1
  P  P23  1  0.750000  0.092341  0.115664  1
  Rh  Rh24  1  0.250000  0.403293  0.474453  1
  Rh  Rh25  1  0.250000  0.096707  0.974453  1
  Rh  Rh26  1  0.750000  0.596707  0.525547  1
  Rh  Rh27  1  0.750000  0.903293  0.025547  1
  Rh  Rh28  1  0.250000  0.222577  0.172380  1
  Rh  Rh29  1  0.250000  0.277423  0.672380  1
  Rh  Rh30  1  0.750000  0.777423  0.827620  1
  Rh  Rh31  1  0.750000  0.722577  0.327620  1
  Rh  Rh32  1  0.250000  0.881002  0.693594  1
  Rh  Rh33  1  0.250000  0.618998  0.193594  1
  Rh  Rh34  1  0.750000  0.118998  0.306406  1
  Rh  Rh35  1  0.750000  0.381002  0.806406  1
