# generated using pymatgen
data_Tb4Nd2Al24Os5Pt3
_symmetry_space_group_name_H-M   'P 1'
_cell_length_a   8.87141564
_cell_length_b   8.88416021
_cell_length_c   9.57773855
_cell_angle_alpha   89.96525165
_cell_angle_beta   89.75467200
_cell_angle_gamma   119.68343737
_symmetry_Int_Tables_number   1
_chemical_formula_structural   Tb4Nd2Al24Os5Pt3
_chemical_formula_sum   'Tb4 Nd2 Al24 Os5 Pt3'
_cell_volume   655.80289840
_cell_formula_units_Z   1
loop_
 _symmetry_equiv_pos_site_id
 _symmetry_equiv_pos_as_xyz
  1  'x, y, z'
loop_
 _atom_site_type_symbol
 _atom_site_label
 _atom_site_symmetry_multiplicity
 _atom_site_fract_x
 _atom_site_fract_y
 _atom_site_fract_z
 _atom_site_occupancy
  Tb  Tb0  1  0.615423  0.814710  0.251953  1
  Tb  Tb1  1  0.384577  0.185290  0.748047  1
  Tb  Tb2  1  0.193491  0.810970  0.250691  1
  Tb  Tb3  1  0.806509  0.189030  0.749309  1
  Nd  Nd4  1  0.187029  0.379607  0.250349  1
  Nd  Nd5  1  0.812971  0.620393  0.749651  1
  Al  Al6  1  0.336308  0.672237  0.027602  1
  Al  Al7  1  0.663692  0.327763  0.972398  1
  Al  Al8  1  0.669187  0.330470  0.525440  1
  Al  Al9  1  0.330813  0.669530  0.474560  1
  Al  Al10  1  0.158368  0.324967  0.575766  1
  Al  Al11  1  0.841632  0.675033  0.424234  1
  Al  Al12  1  0.673953  0.841579  0.574515  1
  Al  Al13  1  0.837338  0.676866  0.078511  1
  Al  Al14  1  0.326047  0.158421  0.425485  1
  Al  Al15  1  0.162662  0.323134  0.921489  1
  Al  Al16  1  0.165331  0.836214  0.574188  1
  Al  Al17  1  0.325924  0.158140  0.074458  1
  Al  Al18  1  0.834669  0.163786  0.425812  1
  Al  Al19  1  0.674076  0.841860  0.925542  1
  Al  Al20  1  0.831262  0.158553  0.075506  1
  Al  Al21  1  0.168738  0.841447  0.924494  1
  Al  Al22  1  0.560185  0.123855  0.249358  1
  Al  Al23  1  0.439815  0.876145  0.750642  1
  Al  Al24  1  0.873065  0.438882  0.253161  1
  Al  Al25  1  0.126935  0.561118  0.746839  1
  Al  Al26  1  0.564482  0.437604  0.249305  1
  Al  Al27  1  0.435518  0.562396  0.750695  1
  Al  Al28  1  0.997027  0.999573  0.250281  1
  Al  Al29  1  0.002973  0.000427  0.749719  1
  Os  Os30  1  0.500000  0.000000  0.000000  1
  Os  Os31  1  0.500000  0.000000  0.500000  1
  Os  Os32  1  0.000000  0.500000  0.500000  1
  Os  Os33  1  0.000000  0.000000  0.000000  1
  Os  Os34  1  0.000000  0.000000  0.500000  1
  Pt  Pt35  1  0.000000  0.500000  0.000000  1
  Pt  Pt36  1  0.500000  0.500000  0.000000  1
  Pt  Pt37  1  0.500000  0.500000  0.500000  1
