# generated using pymatgen
data_Pr3Dy5(HgRh)2
_symmetry_space_group_name_H-M   'P 1'
_cell_length_a   9.71514803
_cell_length_b   9.71514689
_cell_length_c   9.71514800
_cell_angle_alpha   59.99999623
_cell_angle_beta   60.00000009
_cell_angle_gamma   60.00000013
_symmetry_Int_Tables_number   1
_chemical_formula_structural   Pr3Dy5(HgRh)2
_chemical_formula_sum   'Pr6 Dy10 Hg4 Rh4'
_cell_volume   648.38536726
_cell_formula_units_Z   2
loop_
 _symmetry_equiv_pos_site_id
 _symmetry_equiv_pos_as_xyz
  1  'x, y, z'
loop_
 _atom_site_type_symbol
 _atom_site_label
 _atom_site_symmetry_multiplicity
 _atom_site_fract_x
 _atom_site_fract_y
 _atom_site_fract_z
 _atom_site_occupancy
  Pr  Pr0  1  0.939829  0.560171  0.560171  1
  Pr  Pr1  1  0.560171  0.939829  0.939829  1
  Pr  Pr2  1  0.560171  0.939829  0.560171  1
  Pr  Pr3  1  0.939829  0.560171  0.939829  1
  Pr  Pr4  1  0.560171  0.560171  0.939829  1
  Pr  Pr5  1  0.939829  0.939829  0.560171  1
  Dy  Dy6  1  0.349251  0.349251  0.349251  1
  Dy  Dy7  1  0.349251  0.349251  0.952245  1
  Dy  Dy8  1  0.349251  0.952245  0.349251  1
  Dy  Dy9  1  0.952245  0.349251  0.349251  1
  Dy  Dy10  1  0.812906  0.187094  0.187094  1
  Dy  Dy11  1  0.187094  0.812907  0.812906  1
  Dy  Dy12  1  0.187094  0.812906  0.187093  1
  Dy  Dy13  1  0.812906  0.187094  0.812906  1
  Dy  Dy14  1  0.187094  0.187094  0.812906  1
  Dy  Dy15  1  0.812907  0.812907  0.187093  1
  Hg  Hg16  1  0.582263  0.582263  0.582263  1
  Hg  Hg17  1  0.582263  0.582263  0.253213  1
  Hg  Hg18  1  0.582263  0.253213  0.582263  1
  Hg  Hg19  1  0.253213  0.582263  0.582263  1
  Rh  Rh20  1  0.142232  0.142232  0.142232  1
  Rh  Rh21  1  0.142232  0.142232  0.573305  1
  Rh  Rh22  1  0.142232  0.573305  0.142232  1
  Rh  Rh23  1  0.573305  0.142232  0.142232  1
