# generated using pymatgen
data_Ca21Mg(Ga4Sn3)2
_symmetry_space_group_name_H-M   'P 1'
_cell_length_a   11.44572645
_cell_length_b   11.44572684
_cell_length_c   11.44572700
_cell_angle_alpha   60.00000244
_cell_angle_beta   60.00000130
_cell_angle_gamma   60.00000034
_symmetry_Int_Tables_number   1
_chemical_formula_structural   Ca21Mg(Ga4Sn3)2
_chemical_formula_sum   'Ca21 Mg1 Ga8 Sn6'
_cell_volume   1060.26673957
_cell_formula_units_Z   1
loop_
 _symmetry_equiv_pos_site_id
 _symmetry_equiv_pos_as_xyz
  1  'x, y, z'
loop_
 _atom_site_type_symbol
 _atom_site_label
 _atom_site_symmetry_multiplicity
 _atom_site_fract_x
 _atom_site_fract_y
 _atom_site_fract_z
 _atom_site_occupancy
  Ca  Ca0  1  0.869484  0.869484  0.391547  1
  Ca  Ca1  1  0.608453  0.130516  0.130516  1
  Ca  Ca2  1  0.869484  0.391547  0.869484  1
  Ca  Ca3  1  0.130516  0.130516  0.130516  1
  Ca  Ca4  1  0.391547  0.869484  0.869484  1
  Ca  Ca5  1  0.869484  0.869484  0.869484  1
  Ca  Ca6  1  0.173488  0.826512  0.500000  1
  Ca  Ca7  1  0.826512  0.500000  0.500000  1
  Ca  Ca8  1  0.130516  0.130516  0.608453  1
  Ca  Ca9  1  0.826512  0.173488  0.500000  1
  Ca  Ca10  1  0.173488  0.500000  0.500000  1
  Ca  Ca11  1  0.130516  0.608453  0.130516  1
  Ca  Ca12  1  0.500000  0.500000  0.173488  1
  Ca  Ca13  1  0.500000  0.173488  0.826512  1
  Ca  Ca14  1  0.500000  0.826512  0.173488  1
  Ca  Ca15  1  0.500000  0.500000  0.826512  1
  Ca  Ca16  1  0.500000  0.173488  0.500000  1
  Ca  Ca17  1  0.173488  0.500000  0.826512  1
  Ca  Ca18  1  0.000000  0.000000  0.000000  1
  Ca  Ca19  1  0.500000  0.826512  0.500000  1
  Ca  Ca20  1  0.826512  0.500000  0.173488  1
  Mg  Mg21  1  0.500000  0.500000  0.500000  1
  Ga  Ga22  1  0.690720  0.927842  0.690720  1
  Ga  Ga23  1  0.690720  0.690720  0.927842  1
  Ga  Ga24  1  0.690720  0.690720  0.690720  1
  Ga  Ga25  1  0.309280  0.072158  0.309280  1
  Ga  Ga26  1  0.927842  0.690720  0.690720  1
  Ga  Ga27  1  0.309280  0.309280  0.072158  1
  Ga  Ga28  1  0.072158  0.309280  0.309280  1
  Ga  Ga29  1  0.309280  0.309280  0.309280  1
  Sn  Sn30  1  0.785006  0.214994  0.785006  1
  Sn  Sn31  1  0.785006  0.214994  0.214994  1
  Sn  Sn32  1  0.214994  0.785006  0.214994  1
  Sn  Sn33  1  0.214994  0.785006  0.785006  1
  Sn  Sn34  1  0.785006  0.785006  0.214994  1
  Sn  Sn35  1  0.214994  0.214994  0.785006  1
