# generated using pymatgen
data_Pt5Rh3W
_symmetry_space_group_name_H-M   'P 1'
_cell_length_a   6.24552977
_cell_length_b   6.24552901
_cell_length_c   6.19645347
_cell_angle_alpha   95.67492964
_cell_angle_beta   95.67493110
_cell_angle_gamma   143.49308427
_symmetry_Int_Tables_number   1
_chemical_formula_structural   Pt5Rh3W
_chemical_formula_sum   'Pt5 Rh3 W1'
_cell_volume   136.43997320
_cell_formula_units_Z   1
loop_
 _symmetry_equiv_pos_site_id
 _symmetry_equiv_pos_as_xyz
  1  'x, y, z'
loop_
 _atom_site_type_symbol
 _atom_site_label
 _atom_site_symmetry_multiplicity
 _atom_site_fract_x
 _atom_site_fract_y
 _atom_site_fract_z
 _atom_site_occupancy
  Pt  Pt0  1  0.338062  0.661938  0.000000  1
  Pt  Pt1  1  0.001751  0.327855  0.329604  1
  Pt  Pt2  1  0.998430  0.673777  0.672207  1
  Pt  Pt3  1  0.672145  0.998249  0.670396  1
  Pt  Pt4  1  0.326223  0.001570  0.327793  1
  Rh  Rh5  1  0.340198  0.338779  0.678976  1
  Rh  Rh6  1  0.661221  0.659802  0.321024  1
  Rh  Rh7  1  0.658601  0.341399  0.000000  1
  W  W8  1  0.003369  0.996631  0.000000  1
