# generated using pymatgen
data_Tm6Lu2Tc3B24Ru
_symmetry_space_group_name_H-M   'P 1'
_cell_length_a   3.62831000
_cell_length_b   9.07186591
_cell_length_c   11.43835700
_cell_angle_alpha   89.92557304
_cell_angle_beta   90.00000000
_cell_angle_gamma   90.00000000
_symmetry_Int_Tables_number   1
_chemical_formula_structural   Tm6Lu2Tc3B24Ru
_chemical_formula_sum   'Tm6 Lu2 Tc3 B24 Ru1'
_cell_volume   376.49940046
_cell_formula_units_Z   1
loop_
 _symmetry_equiv_pos_site_id
 _symmetry_equiv_pos_as_xyz
  1  'x, y, z'
loop_
 _atom_site_type_symbol
 _atom_site_label
 _atom_site_symmetry_multiplicity
 _atom_site_fract_x
 _atom_site_fract_y
 _atom_site_fract_z
 _atom_site_occupancy
  Tm  Tm0  1  0.000000  0.323283  0.413811  1
  Tm  Tm1  1  0.000000  0.675516  0.584221  1
  Tm  Tm2  1  0.000000  0.822331  0.087318  1
  Tm  Tm3  1  0.000000  0.178729  0.914450  1
  Tm  Tm4  1  0.000000  0.942702  0.370372  1
  Tm  Tm5  1  0.000000  0.057670  0.630423  1
  Lu  Lu6  1  0.000000  0.443302  0.129711  1
  Lu  Lu7  1  0.000000  0.557580  0.869686  1
  Tc  Tc8  1  0.000000  0.638294  0.319927  1
  Tc  Tc9  1  0.000000  0.361856  0.680603  1
  Tc  Tc10  1  0.000000  0.138996  0.178174  1
  B  B11  1  0.500000  0.552862  0.433296  1
  B  B12  1  0.500000  0.446883  0.566500  1
  B  B13  1  0.500000  0.052997  0.066178  1
  B  B14  1  0.500000  0.945949  0.933190  1
  B  B15  1  0.500000  0.749263  0.419310  1
  B  B16  1  0.500000  0.250185  0.580879  1
  B  B17  1  0.500000  0.250684  0.080553  1
  B  B18  1  0.500000  0.750114  0.918995  1
  B  B19  1  0.500000  0.792257  0.265073  1
  B  B20  1  0.500000  0.207811  0.735778  1
  B  B21  1  0.500000  0.292899  0.234846  1
  B  B22  1  0.500000  0.708057  0.764965  1
  B  B23  1  0.500000  0.630396  0.184580  1
  B  B24  1  0.500000  0.369686  0.816078  1
  B  B25  1  0.500000  0.130463  0.314685  1
  B  B26  1  0.500000  0.868813  0.685053  1
  B  B27  1  0.500000  0.981051  0.211676  1
  B  B28  1  0.500000  0.017289  0.788376  1
  B  B29  1  0.500000  0.481025  0.287659  1
  B  B30  1  0.500000  0.518934  0.712123  1
  B  B31  1  0.500000  0.600932  0.027695  1
  B  B32  1  0.500000  0.400872  0.972112  1
  B  B33  1  0.500000  0.101085  0.472181  1
  B  B34  1  0.500000  0.898665  0.528555  1
  Ru  Ru35  1  0.000000  0.860568  0.820970  1
