# generated using pymatgen
data_LaDyZn5Ge
_symmetry_space_group_name_H-M   'P 1'
_cell_length_a   8.34877302
_cell_length_b   8.34877334
_cell_length_c   8.88175200
_cell_angle_alpha   90.00000000
_cell_angle_beta   90.00000000
_cell_angle_gamma   149.49340050
_symmetry_Int_Tables_number   1
_chemical_formula_structural   LaDyZn5Ge
_chemical_formula_sum   'La2 Dy2 Zn10 Ge2'
_cell_volume   314.26625706
_cell_formula_units_Z   2
loop_
 _symmetry_equiv_pos_site_id
 _symmetry_equiv_pos_as_xyz
  1  'x, y, z'
loop_
 _atom_site_type_symbol
 _atom_site_label
 _atom_site_symmetry_multiplicity
 _atom_site_fract_x
 _atom_site_fract_y
 _atom_site_fract_z
 _atom_site_occupancy
  La  La0  1  0.000000  0.000000  0.500000  1
  La  La1  1  0.000000  0.000000  0.000000  1
  Dy  Dy2  1  0.201772  0.798228  0.250000  1
  Dy  Dy3  1  0.798228  0.201772  0.750000  1
  Zn  Zn4  1  0.812445  0.187555  0.390858  1
  Zn  Zn5  1  0.187555  0.812445  0.609142  1
  Zn  Zn6  1  0.812445  0.187555  0.109142  1
  Zn  Zn7  1  0.187555  0.812445  0.890858  1
  Zn  Zn8  1  0.655257  0.344743  0.476865  1
  Zn  Zn9  1  0.344743  0.655257  0.523135  1
  Zn  Zn10  1  0.655257  0.344743  0.023135  1
  Zn  Zn11  1  0.344743  0.655257  0.976865  1
  Zn  Zn12  1  0.399668  0.600332  0.250000  1
  Zn  Zn13  1  0.600332  0.399668  0.750000  1
  Ge  Ge14  1  0.559000  0.441000  0.250000  1
  Ge  Ge15  1  0.441000  0.559000  0.750000  1
