# generated using pymatgen
data_YHo5CuRh17
_symmetry_space_group_name_H-M   'P 1'
_cell_length_a   5.25670312
_cell_length_b   5.25710763
_cell_length_c   17.42794200
_cell_angle_alpha   90.00000000
_cell_angle_beta   90.00000000
_cell_angle_gamma   119.99505412
_symmetry_Int_Tables_number   1
_chemical_formula_structural   YHo5CuRh17
_chemical_formula_sum   'Y1 Ho5 Cu1 Rh17'
_cell_volume   417.11777626
_cell_formula_units_Z   1
loop_
 _symmetry_equiv_pos_site_id
 _symmetry_equiv_pos_as_xyz
  1  'x, y, z'
loop_
 _atom_site_type_symbol
 _atom_site_label
 _atom_site_symmetry_multiplicity
 _atom_site_fract_x
 _atom_site_fract_y
 _atom_site_fract_z
 _atom_site_occupancy
  Y  Y0  1  0.666683  0.333324  0.250000  1
  Ho  Ho1  1  0.333336  0.666704  0.957778  1
  Ho  Ho2  1  0.666663  0.333319  0.041667  1
  Ho  Ho3  1  0.666663  0.333319  0.458333  1
  Ho  Ho4  1  0.333336  0.666704  0.542222  1
  Ho  Ho5  1  0.333333  0.666651  0.750000  1
  Cu  Cu6  1  0.333370  0.666711  0.250000  1
  Rh  Rh7  1  0.168995  0.830984  0.373622  1
  Rh  Rh8  1  0.168996  0.337976  0.373613  1
  Rh  Rh9  1  0.661998  0.830975  0.373626  1
  Rh  Rh10  1  0.832712  0.167300  0.624708  1
  Rh  Rh11  1  0.832702  0.665433  0.624719  1
  Rh  Rh12  1  0.334574  0.167305  0.624711  1
  Rh  Rh13  1  0.832712  0.167300  0.875292  1
  Rh  Rh14  1  0.832702  0.665433  0.875281  1
  Rh  Rh15  1  0.334574  0.167305  0.875289  1
  Rh  Rh16  1  0.168995  0.830984  0.126378  1
  Rh  Rh17  1  0.168996  0.337976  0.126387  1
  Rh  Rh18  1  0.661998  0.830975  0.126374  1
  Rh  Rh19  1  0.666668  0.333309  0.750000  1
  Rh  Rh20  1  0.999988  0.999957  0.250000  1
  Rh  Rh21  1  0.999998  0.000027  0.750000  1
  Rh  Rh22  1  0.000004  0.000016  0.497663  1
  Rh  Rh23  1  0.000004  0.000016  0.002337  1
