# generated using pymatgen
data_La6Pr7Th3(CdIr)4
_symmetry_space_group_name_H-M   'P 1'
_cell_length_a   10.06441472
_cell_length_b   10.07014563
_cell_length_c   10.05527200
_cell_angle_alpha   60.04885339
_cell_angle_beta   60.03005235
_cell_angle_gamma   60.25973364
_symmetry_Int_Tables_number   1
_chemical_formula_structural   La6Pr7Th3(CdIr)4
_chemical_formula_sum   'La6 Pr7 Th3 Cd4 Ir4'
_cell_volume   722.45045712
_cell_formula_units_Z   1
loop_
 _symmetry_equiv_pos_site_id
 _symmetry_equiv_pos_as_xyz
  1  'x, y, z'
loop_
 _atom_site_type_symbol
 _atom_site_label
 _atom_site_symmetry_multiplicity
 _atom_site_fract_x
 _atom_site_fract_y
 _atom_site_fract_z
 _atom_site_occupancy
  La  La0  1  0.955450  0.348921  0.347814  1
  La  La1  1  0.807160  0.191579  0.193063  1
  La  La2  1  0.191534  0.807491  0.808237  1
  La  La3  1  0.191534  0.807491  0.192739  1
  La  La4  1  0.807160  0.191579  0.808197  1
  La  La5  1  0.192525  0.192235  0.807621  1
  Pr  Pr6  1  0.806317  0.806748  0.193467  1
  Pr  Pr7  1  0.939127  0.562939  0.563127  1
  Pr  Pr8  1  0.561870  0.938406  0.937365  1
  Pr  Pr9  1  0.561870  0.938406  0.562358  1
  Pr  Pr10  1  0.939127  0.562939  0.934806  1
  Pr  Pr11  1  0.561696  0.562370  0.937967  1
  Pr  Pr12  1  0.938863  0.935350  0.562893  1
  Th  Th13  1  0.344931  0.345794  0.345830  1
  Th  Th14  1  0.344931  0.345794  0.963442  1
  Th  Th15  1  0.346244  0.962392  0.345681  1
  Cd  Cd16  1  0.577980  0.581308  0.580153  1
  Cd  Cd17  1  0.577980  0.581308  0.260559  1
  Cd  Cd18  1  0.577721  0.260446  0.580916  1
  Cd  Cd19  1  0.259207  0.580594  0.580099  1
  Ir  Ir20  1  0.150696  0.141044  0.141061  1
  Ir  Ir21  1  0.150696  0.141044  0.567199  1
  Ir  Ir22  1  0.152531  0.566749  0.140359  1
  Ir  Ir23  1  0.562847  0.147069  0.145041  1
