# generated using pymatgen
data_Sc3UMn3Si2
_symmetry_space_group_name_H-M   'P 1'
_cell_length_a   6.55316700
_cell_length_b   6.55316767
_cell_length_c   3.90580200
_cell_angle_alpha   90.00000000
_cell_angle_beta   90.00000000
_cell_angle_gamma   120.00001178
_symmetry_Int_Tables_number   1
_chemical_formula_structural   Sc3UMn3Si2
_chemical_formula_sum   'Sc3 U1 Mn3 Si2'
_cell_volume   145.25908993
_cell_formula_units_Z   1
loop_
 _symmetry_equiv_pos_site_id
 _symmetry_equiv_pos_as_xyz
  1  'x, y, z'
loop_
 _atom_site_type_symbol
 _atom_site_label
 _atom_site_symmetry_multiplicity
 _atom_site_fract_x
 _atom_site_fract_y
 _atom_site_fract_z
 _atom_site_occupancy
  Sc  Sc0  1  0.462692  0.462692  0.000000  1
  Sc  Sc1  1  0.537308  0.000000  0.000000  1
  Sc  Sc2  1  0.000000  0.537308  0.000000  1
  U  U3  1  0.000000  0.000000  0.000000  1
  Mn  Mn4  1  0.000000  0.228002  0.500000  1
  Mn  Mn5  1  0.771998  0.771998  0.500000  1
  Mn  Mn6  1  0.228002  0.000000  0.500000  1
  Si  Si7  1  0.666667  0.333333  0.500000  1
  Si  Si8  1  0.333333  0.666667  0.500000  1
