# generated using pymatgen
data_KSr(YbB12)2
_symmetry_space_group_name_H-M   'P 1'
_cell_length_a   7.21543438
_cell_length_b   7.21543673
_cell_length_c   5.90582500
_cell_angle_alpha   90.00000000
_cell_angle_beta   90.00000000
_cell_angle_gamma   109.41853421
_symmetry_Int_Tables_number   1
_chemical_formula_structural   KSr(YbB12)2
_chemical_formula_sum   'K1 Sr1 Yb2 B24'
_cell_volume   289.98157495
_cell_formula_units_Z   1
loop_
 _symmetry_equiv_pos_site_id
 _symmetry_equiv_pos_as_xyz
  1  'x, y, z'
loop_
 _atom_site_type_symbol
 _atom_site_label
 _atom_site_symmetry_multiplicity
 _atom_site_fract_x
 _atom_site_fract_y
 _atom_site_fract_z
 _atom_site_occupancy
  K  K0  1  0.250092  0.749910  0.500000  1
  Sr  Sr1  1  0.001682  0.998318  0.000000  1
  Yb  Yb2  1  0.748433  0.251565  0.500000  1
  Yb  Yb3  1  0.498344  0.501656  0.000000  1
  B  B4  1  0.175192  0.325191  0.648880  1
  B  B5  1  0.922667  0.572080  0.149451  1
  B  B6  1  0.674809  0.824808  0.648881  1
  B  B7  1  0.427920  0.077333  0.149451  1
  B  B8  1  0.175192  0.325191  0.351120  1
  B  B9  1  0.922667  0.572080  0.850549  1
  B  B10  1  0.674809  0.824808  0.351119  1
  B  B11  1  0.427920  0.077333  0.850549  1
  B  B12  1  0.399395  0.400948  0.500000  1
  B  B13  1  0.148781  0.648497  0.000000  1
  B  B14  1  0.899711  0.898188  0.500000  1
  B  B15  1  0.650642  0.150306  0.000000  1
  B  B16  1  0.327453  0.177311  0.648900  1
  B  B17  1  0.073734  0.424036  0.149445  1
  B  B18  1  0.822689  0.672547  0.648899  1
  B  B19  1  0.575964  0.926266  0.149445  1
  B  B20  1  0.101811  0.100290  0.500000  1
  B  B21  1  0.849694  0.349358  0.000000  1
  B  B22  1  0.599053  0.600604  0.500000  1
  B  B23  1  0.351503  0.851219  0.000000  1
  B  B24  1  0.327453  0.177311  0.351100  1
  B  B25  1  0.073734  0.424036  0.850555  1
  B  B26  1  0.822689  0.672547  0.351101  1
  B  B27  1  0.575964  0.926266  0.850555  1
