# generated using pymatgen
data_Eu2GaAg6
_symmetry_space_group_name_H-M   'P 1'
_cell_length_a   5.61384132
_cell_length_b   5.61383824
_cell_length_c   14.08205300
_cell_angle_alpha   90.00000000
_cell_angle_beta   90.00000000
_cell_angle_gamma   118.25837133
_symmetry_Int_Tables_number   1
_chemical_formula_structural   Eu2GaAg6
_chemical_formula_sum   'Eu4 Ga2 Ag12'
_cell_volume   390.90744783
_cell_formula_units_Z   2
loop_
 _symmetry_equiv_pos_site_id
 _symmetry_equiv_pos_as_xyz
  1  'x, y, z'
loop_
 _atom_site_type_symbol
 _atom_site_label
 _atom_site_symmetry_multiplicity
 _atom_site_fract_x
 _atom_site_fract_y
 _atom_site_fract_z
 _atom_site_occupancy
  Eu  Eu0  1  0.321373  0.321373  0.116032  1
  Eu  Eu1  1  0.678627  0.678627  0.616032  1
  Eu  Eu2  1  0.321373  0.321373  0.383968  1
  Eu  Eu3  1  0.678627  0.678627  0.883968  1
  Ga  Ga4  1  0.830154  0.830154  0.250000  1
  Ga  Ga5  1  0.169846  0.169846  0.750000  1
  Ag  Ag6  1  0.829148  0.333207  0.250000  1
  Ag  Ag7  1  0.170852  0.666793  0.750000  1
  Ag  Ag8  1  0.333207  0.829148  0.250000  1
  Ag  Ag9  1  0.666793  0.170852  0.750000  1
  Ag  Ag10  1  0.994597  0.666553  0.077340  1
  Ag  Ag11  1  0.005403  0.333447  0.577340  1
  Ag  Ag12  1  0.666553  0.994597  0.422660  1
  Ag  Ag13  1  0.333447  0.005403  0.922660  1
  Ag  Ag14  1  0.005403  0.333447  0.922660  1
  Ag  Ag15  1  0.994597  0.666553  0.422660  1
  Ag  Ag16  1  0.333447  0.005403  0.577340  1
  Ag  Ag17  1  0.666553  0.994597  0.077340  1
