# generated using pymatgen
data_Eu2PdPt3
_symmetry_space_group_name_H-M   'P 1'
_cell_length_a   5.51428862
_cell_length_b   5.51230983
_cell_length_c   5.51231000
_cell_angle_alpha   59.99999898
_cell_angle_beta   60.01186885
_cell_angle_gamma   60.01186906
_symmetry_Int_Tables_number   1
_chemical_formula_structural   Eu2PdPt3
_chemical_formula_sum   'Eu2 Pd1 Pt3'
_cell_volume   118.50035031
_cell_formula_units_Z   1
loop_
 _symmetry_equiv_pos_site_id
 _symmetry_equiv_pos_as_xyz
  1  'x, y, z'
loop_
 _atom_site_type_symbol
 _atom_site_label
 _atom_site_symmetry_multiplicity
 _atom_site_fract_x
 _atom_site_fract_y
 _atom_site_fract_z
 _atom_site_occupancy
  Eu  Eu0  1  0.251962  0.249346  0.249346  1
  Eu  Eu1  1  0.998038  0.000654  0.000654  1
  Pd  Pd2  1  0.125000  0.625000  0.625000  1
  Pt  Pt3  1  0.625000  0.125000  0.625000  1
  Pt  Pt4  1  0.625000  0.625000  0.125000  1
  Pt  Pt5  1  0.625000  0.625000  0.625000  1
