# generated using pymatgen
data_Zr3Co9(As2P)2
_symmetry_space_group_name_H-M   'P 1'
_cell_length_a   3.68995300
_cell_length_b   10.56538400
_cell_length_c   12.33053600
_cell_angle_alpha   90.00000000
_cell_angle_beta   90.00000000
_cell_angle_gamma   90.00000000
_symmetry_Int_Tables_number   1
_chemical_formula_structural   Zr3Co9(As2P)2
_chemical_formula_sum   'Zr6 Co18 As8 P4'
_cell_volume   480.71544524
_cell_formula_units_Z   2
loop_
 _symmetry_equiv_pos_site_id
 _symmetry_equiv_pos_as_xyz
  1  'x, y, z'
loop_
 _atom_site_type_symbol
 _atom_site_label
 _atom_site_symmetry_multiplicity
 _atom_site_fract_x
 _atom_site_fract_y
 _atom_site_fract_z
 _atom_site_occupancy
  Zr  Zr0  1  0.000000  0.500000  0.521757  1
  Zr  Zr1  1  0.500000  0.000000  0.478243  1
  Zr  Zr2  1  0.500000  0.825431  0.206676  1
  Zr  Zr3  1  0.500000  0.174569  0.206676  1
  Zr  Zr4  1  0.000000  0.674569  0.793324  1
  Zr  Zr5  1  0.000000  0.325431  0.793324  1
  Co  Co6  1  0.000000  0.500000  0.978230  1
  Co  Co7  1  0.500000  0.000000  0.021770  1
  Co  Co8  1  0.500000  0.308106  0.430542  1
  Co  Co9  1  0.500000  0.691894  0.430542  1
  Co  Co10  1  0.000000  0.191894  0.569458  1
  Co  Co11  1  0.000000  0.808106  0.569458  1
  Co  Co12  1  0.500000  0.881985  0.703190  1
  Co  Co13  1  0.500000  0.118015  0.703190  1
  Co  Co14  1  0.000000  0.618015  0.296810  1
  Co  Co15  1  0.000000  0.381985  0.296810  1
  Co  Co16  1  0.500000  0.335703  0.991368  1
  Co  Co17  1  0.500000  0.664297  0.991368  1
  Co  Co18  1  0.000000  0.164297  0.008632  1
  Co  Co19  1  0.000000  0.835703  0.008632  1
  Co  Co20  1  0.500000  0.500000  0.167822  1
  Co  Co21  1  0.000000  0.000000  0.832178  1
  Co  Co22  1  0.500000  0.500000  0.710760  1
  Co  Co23  1  0.000000  0.000000  0.289240  1
  As  As24  1  0.500000  0.317669  0.617408  1
  As  As25  1  0.500000  0.682331  0.617408  1
  As  As26  1  0.000000  0.182331  0.382592  1
  As  As27  1  0.000000  0.817669  0.382592  1
  As  As28  1  0.500000  0.846782  0.887166  1
  As  As29  1  0.500000  0.153218  0.887166  1
  As  As30  1  0.000000  0.653218  0.112834  1
  As  As31  1  0.000000  0.346782  0.112834  1
  P  P32  1  0.500000  0.500000  0.881380  1
  P  P33  1  0.000000  0.000000  0.118620  1
  P  P34  1  0.500000  0.500000  0.350145  1
  P  P35  1  0.000000  0.000000  0.649855  1
