# generated using pymatgen
data_Er5In4IrPt
_symmetry_space_group_name_H-M   'P 1'
_cell_length_a   3.59795600
_cell_length_b   8.10008101
_cell_length_c   18.17707531
_cell_angle_alpha   89.91172711
_cell_angle_beta   90.00000000
_cell_angle_gamma   90.00000000
_symmetry_Int_Tables_number   1
_chemical_formula_structural   Er5In4IrPt
_chemical_formula_sum   'Er10 In8 Ir2 Pt2'
_cell_volume   529.74723836
_cell_formula_units_Z   2
loop_
 _symmetry_equiv_pos_site_id
 _symmetry_equiv_pos_as_xyz
  1  'x, y, z'
loop_
 _atom_site_type_symbol
 _atom_site_label
 _atom_site_symmetry_multiplicity
 _atom_site_fract_x
 _atom_site_fract_y
 _atom_site_fract_z
 _atom_site_occupancy
  Er  Er0  1  0.000000  0.114917  0.412198  1
  Er  Er1  1  0.000000  0.885083  0.587802  1
  Er  Er2  1  0.000000  0.383143  0.913618  1
  Er  Er3  1  0.000000  0.616857  0.086382  1
  Er  Er4  1  0.000000  0.235941  0.222313  1
  Er  Er5  1  0.000000  0.764059  0.777687  1
  Er  Er6  1  0.000000  0.249098  0.720442  1
  Er  Er7  1  0.000000  0.750902  0.279558  1
  Er  Er8  1  0.000000  0.000000  0.000000  1
  Er  Er9  1  0.000000  0.500000  0.500000  1
  In  In10  1  0.500000  0.423204  0.351493  1
  In  In11  1  0.500000  0.576796  0.648507  1
  In  In12  1  0.500000  0.073295  0.850901  1
  In  In13  1  0.500000  0.926705  0.149099  1
  In  In14  1  0.500000  0.292210  0.066191  1
  In  In15  1  0.500000  0.707790  0.933809  1
  In  In16  1  0.500000  0.206891  0.567452  1
  In  In17  1  0.500000  0.793109  0.432548  1
  Ir  Ir18  1  0.500000  0.021195  0.304005  1
  Ir  Ir19  1  0.500000  0.978805  0.695995  1
  Pt  Pt20  1  0.500000  0.478332  0.803486  1
  Pt  Pt21  1  0.500000  0.521668  0.196514  1
