# generated using pymatgen
data_CaMnBr18
_symmetry_space_group_name_H-M   'P 1'
_cell_length_a   9.39767685
_cell_length_b   9.39767444
_cell_length_c   9.39767550
_cell_angle_alpha   94.07173227
_cell_angle_beta   94.07173130
_cell_angle_gamma   94.07173258
_symmetry_Int_Tables_number   1
_chemical_formula_structural   CaMnBr18
_chemical_formula_sum   'Ca1 Mn1 Br18'
_cell_volume   823.36788934
_cell_formula_units_Z   1
loop_
 _symmetry_equiv_pos_site_id
 _symmetry_equiv_pos_as_xyz
  1  'x, y, z'
loop_
 _atom_site_type_symbol
 _atom_site_label
 _atom_site_symmetry_multiplicity
 _atom_site_fract_x
 _atom_site_fract_y
 _atom_site_fract_z
 _atom_site_occupancy
  Ca  Ca0  1  0.500000  0.500000  0.500000  1
  Mn  Mn1  1  0.000000  0.000000  0.000000  1
  Br  Br2  1  0.264348  0.008588  0.021584  1
  Br  Br3  1  0.021584  0.264348  0.008588  1
  Br  Br4  1  0.008588  0.021584  0.264348  1
  Br  Br5  1  0.735652  0.991412  0.978416  1
  Br  Br6  1  0.978416  0.735652  0.991412  1
  Br  Br7  1  0.991412  0.978416  0.735652  1
  Br  Br8  1  0.638219  0.223968  0.104689  1
  Br  Br9  1  0.104689  0.638219  0.223968  1
  Br  Br10  1  0.223968  0.104689  0.638219  1
  Br  Br11  1  0.361781  0.776032  0.895311  1
  Br  Br12  1  0.895311  0.361781  0.776032  1
  Br  Br13  1  0.776032  0.895311  0.361781  1
  Br  Br14  1  0.447792  0.194724  0.537275  1
  Br  Br15  1  0.537275  0.447792  0.194724  1
  Br  Br16  1  0.194724  0.537275  0.447792  1
  Br  Br17  1  0.552208  0.805276  0.462725  1
  Br  Br18  1  0.462725  0.552208  0.805276  1
  Br  Br19  1  0.805276  0.462725  0.552208  1
