# generated using pymatgen
data_V3MoS8
_symmetry_space_group_name_H-M   'P 1'
_cell_length_a   3.18475900
_cell_length_b   3.18475771
_cell_length_c   34.74375300
_cell_angle_alpha   90.00000000
_cell_angle_beta   90.00000000
_cell_angle_gamma   120.00000299
_symmetry_Int_Tables_number   1
_chemical_formula_structural   V3MoS8
_chemical_formula_sum   'V3 Mo1 S8'
_cell_volume   305.18298670
_cell_formula_units_Z   1
loop_
 _symmetry_equiv_pos_site_id
 _symmetry_equiv_pos_as_xyz
  1  'x, y, z'
loop_
 _atom_site_type_symbol
 _atom_site_label
 _atom_site_symmetry_multiplicity
 _atom_site_fract_x
 _atom_site_fract_y
 _atom_site_fract_z
 _atom_site_occupancy
  V  V0  1  0.000000  0.000000  0.469666  1
  V  V1  1  0.333333  0.666667  0.281845  1
  V  V2  1  0.333333  0.666667  0.657573  1
  Mo  Mo3  1  0.000000  0.000000  0.093810  1
  S  S4  1  0.000000  0.000000  0.324551  1
  S  S5  1  0.000000  0.000000  0.700565  1
  S  S6  1  0.333333  0.666667  0.048713  1
  S  S7  1  0.333333  0.666667  0.426876  1
  S  S8  1  0.333333  0.666667  0.138868  1
  S  S9  1  0.333333  0.666667  0.512433  1
  S  S10  1  0.000000  0.000000  0.239024  1
  S  S11  1  0.000000  0.000000  0.614826  1
