# generated using pymatgen
data_Cr4Co8Mo12CN
_symmetry_space_group_name_H-M   'P 1'
_cell_length_a   7.74429594
_cell_length_b   7.74429511
_cell_length_c   7.74429500
_cell_angle_alpha   59.99999618
_cell_angle_beta   59.99999974
_cell_angle_gamma   59.99999380
_symmetry_Int_Tables_number   1
_chemical_formula_structural   Cr4Co8Mo12CN
_chemical_formula_sum   'Cr4 Co8 Mo12 C1 N1'
_cell_volume   328.42082746
_cell_formula_units_Z   1
loop_
 _symmetry_equiv_pos_site_id
 _symmetry_equiv_pos_as_xyz
  1  'x, y, z'
loop_
 _atom_site_type_symbol
 _atom_site_label
 _atom_site_symmetry_multiplicity
 _atom_site_fract_x
 _atom_site_fract_y
 _atom_site_fract_z
 _atom_site_occupancy
  Cr  Cr0  1  0.624973  0.624973  0.125082  1
  Cr  Cr1  1  0.624973  0.125082  0.624973  1
  Cr  Cr2  1  0.125082  0.624973  0.624973  1
  Cr  Cr3  1  0.624973  0.624973  0.624973  1
  Co  Co4  1  0.420603  0.420603  0.738192  1
  Co  Co5  1  0.420603  0.738192  0.420603  1
  Co  Co6  1  0.738192  0.420603  0.420603  1
  Co  Co7  1  0.420603  0.420603  0.420603  1
  Co  Co8  1  0.829755  0.829755  0.510733  1
  Co  Co9  1  0.829755  0.510733  0.829755  1
  Co  Co10  1  0.510733  0.829755  0.829755  1
  Co  Co11  1  0.829755  0.829755  0.829755  1
  Mo  Mo12  1  0.055504  0.055504  0.444496  1
  Mo  Mo13  1  0.444496  0.055504  0.444496  1
  Mo  Mo14  1  0.055504  0.444496  0.444496  1
  Mo  Mo15  1  0.444496  0.444496  0.055504  1
  Mo  Mo16  1  0.055504  0.444496  0.055504  1
  Mo  Mo17  1  0.444496  0.055504  0.055504  1
  Mo  Mo18  1  0.194423  0.194423  0.805577  1
  Mo  Mo19  1  0.805577  0.194423  0.805577  1
  Mo  Mo20  1  0.194423  0.805577  0.805577  1
  Mo  Mo21  1  0.805577  0.805577  0.194423  1
  Mo  Mo22  1  0.194423  0.805577  0.194423  1
  Mo  Mo23  1  0.805577  0.194423  0.194423  1
  C  C24  1  0.000000  0.000000  0.000000  1
  N  N25  1  0.250000  0.250000  0.250000  1
