# generated using pymatgen
data_Th8Si11BRu4
_symmetry_space_group_name_H-M   'P 1'
_cell_length_a   8.17151900
_cell_length_b   8.17150892
_cell_length_c   8.52616700
_cell_angle_alpha   90.00049783
_cell_angle_beta   89.99960034
_cell_angle_gamma   120.26420112
_symmetry_Int_Tables_number   1
_chemical_formula_structural   Th8Si11BRu4
_chemical_formula_sum   'Th8 Si11 B1 Ru4'
_cell_volume   491.73049955
_cell_formula_units_Z   1
loop_
 _symmetry_equiv_pos_site_id
 _symmetry_equiv_pos_as_xyz
  1  'x, y, z'
loop_
 _atom_site_type_symbol
 _atom_site_label
 _atom_site_symmetry_multiplicity
 _atom_site_fract_x
 _atom_site_fract_y
 _atom_site_fract_z
 _atom_site_occupancy
  Th  Th0  1  0.495630  0.504371  0.752917  1
  Th  Th1  1  0.495652  0.504348  0.247102  1
  Th  Th2  1  0.994283  0.494958  0.754348  1
  Th  Th3  1  0.994238  0.494939  0.245650  1
  Th  Th4  1  0.505042  0.005718  0.754348  1
  Th  Th5  1  0.505059  0.005760  0.245650  1
  Th  Th6  1  0.999921  0.000079  0.751095  1
  Th  Th7  1  0.999928  0.000072  0.248908  1
  Si  Si8  1  0.168059  0.831941  0.000009  1
  Si  Si9  1  0.334980  0.171033  0.999987  1
  Si  Si10  1  0.165985  0.834014  0.499987  1
  Si  Si11  1  0.681753  0.859339  0.000005  1
  Si  Si12  1  0.833517  0.166486  0.500017  1
  Si  Si13  1  0.828968  0.665020  0.999986  1
  Si  Si14  1  0.666771  0.833924  0.499989  1
  Si  Si15  1  0.140662  0.318247  0.000006  1
  Si  Si16  1  0.332232  0.166880  0.500031  1
  Si  Si17  1  0.166076  0.333230  0.499989  1
  Si  Si18  1  0.833120  0.667767  0.500031  1
  B  B19  1  0.840079  0.159923  0.999951  1
  Ru  Ru20  1  0.680743  0.319257  0.000000  1
  Ru  Ru21  1  0.338585  0.661416  0.000033  1
  Ru  Ru22  1  0.332371  0.667630  0.499980  1
  Ru  Ru23  1  0.666347  0.333652  0.499980  1
