# generated using pymatgen
data_Sr4YbEr(RuO6)2
_symmetry_space_group_name_H-M   'P 1'
_cell_length_a   5.77542391
_cell_length_b   5.86504687
_cell_length_c   8.21565385
_cell_angle_alpha   90.09080422
_cell_angle_beta   90.36653392
_cell_angle_gamma   90.01024286
_symmetry_Int_Tables_number   1
_chemical_formula_structural   Sr4YbEr(RuO6)2
_chemical_formula_sum   'Sr4 Yb1 Er1 Ru2 O12'
_cell_volume   278.28387791
_cell_formula_units_Z   1
loop_
 _symmetry_equiv_pos_site_id
 _symmetry_equiv_pos_as_xyz
  1  'x, y, z'
loop_
 _atom_site_type_symbol
 _atom_site_label
 _atom_site_symmetry_multiplicity
 _atom_site_fract_x
 _atom_site_fract_y
 _atom_site_fract_z
 _atom_site_occupancy
  Sr  Sr0  1  0.009498  0.043427  0.253317  1
  Sr  Sr1  1  0.490762  0.539804  0.253976  1
  Sr  Sr2  1  0.509238  0.460196  0.746024  1
  Sr  Sr3  1  0.990502  0.956573  0.746683  1
  Yb  Yb4  1  0.999999  0.500001  0.500000  1
  Er  Er5  1  0.500000  0.000000  0.999999  1
  Ru  Ru6  1  0.000000  0.500001  0.000000  1
  Ru  Ru7  1  0.499999  0.000000  0.500001  1
  O  O8  1  0.273456  0.300743  0.039704  1
  O  O9  1  0.195806  0.774499  0.041842  1
  O  O10  1  0.924997  0.480223  0.229649  1
  O  O11  1  0.575549  0.980119  0.263898  1
  O  O12  1  0.310404  0.269879  0.459581  1
  O  O13  1  0.231051  0.806809  0.461637  1
  O  O14  1  0.768950  0.193190  0.538362  1
  O  O15  1  0.689597  0.730121  0.540421  1
  O  O16  1  0.424449  0.019881  0.736102  1
  O  O17  1  0.075004  0.519777  0.770351  1
  O  O18  1  0.804195  0.225501  0.958158  1
  O  O19  1  0.726543  0.699256  0.960296  1
