# generated using pymatgen
data_Tb2GdBiO7
_symmetry_space_group_name_H-M   'P 1'
_cell_length_a   6.61846343
_cell_length_b   6.61288287
_cell_length_c   7.78110400
_cell_angle_alpha   106.95381850
_cell_angle_beta   89.80475052
_cell_angle_gamma   98.81500108
_symmetry_Int_Tables_number   1
_chemical_formula_structural   Tb2GdBiO7
_chemical_formula_sum   'Tb4 Gd2 Bi2 O14'
_cell_volume   321.60115870
_cell_formula_units_Z   2
loop_
 _symmetry_equiv_pos_site_id
 _symmetry_equiv_pos_as_xyz
  1  'x, y, z'
loop_
 _atom_site_type_symbol
 _atom_site_label
 _atom_site_symmetry_multiplicity
 _atom_site_fract_x
 _atom_site_fract_y
 _atom_site_fract_z
 _atom_site_occupancy
  Tb  Tb0  1  0.462313  0.005520  0.251985  1
  Tb  Tb1  1  0.537687  0.994480  0.748015  1
  Tb  Tb2  1  0.271500  0.537439  0.883540  1
  Tb  Tb3  1  0.728500  0.462561  0.116460  1
  Gd  Gd4  1  0.734557  0.477785  0.615428  1
  Gd  Gd5  1  0.265443  0.522215  0.384572  1
  Bi  Bi6  1  0.000000  0.000000  0.500000  1
  Bi  Bi7  1  0.000000  0.000000  0.000000  1
  O  O8  1  0.447121  0.648890  0.165212  1
  O  O9  1  0.552879  0.351110  0.834788  1
  O  O10  1  0.301067  0.922771  0.951979  1
  O  O11  1  0.698933  0.077229  0.048021  1
  O  O12  1  0.298582  0.926493  0.512780  1
  O  O13  1  0.701418  0.073507  0.487220  1
  O  O14  1  0.546041  0.363150  0.343313  1
  O  O15  1  0.453959  0.636850  0.656687  1
  O  O16  1  0.925954  0.667514  0.959786  1
  O  O17  1  0.074046  0.332486  0.040214  1
  O  O18  1  0.071457  0.346019  0.621550  1
  O  O19  1  0.928543  0.653981  0.378450  1
  O  O20  1  0.875802  0.903633  0.725449  1
  O  O21  1  0.124198  0.096367  0.274551  1
