# generated using pymatgen
data_TbLu3(Fe2Br)2
_symmetry_space_group_name_H-M   'P 1'
_cell_length_a   3.88211600
_cell_length_b   3.88211593
_cell_length_c   16.23547500
_cell_angle_alpha   90.00000000
_cell_angle_beta   90.00000000
_cell_angle_gamma   120.00000056
_symmetry_Int_Tables_number   1
_chemical_formula_structural   TbLu3(Fe2Br)2
_chemical_formula_sum   'Tb1 Lu3 Fe4 Br2'
_cell_volume   211.90082011
_cell_formula_units_Z   1
loop_
 _symmetry_equiv_pos_site_id
 _symmetry_equiv_pos_as_xyz
  1  'x, y, z'
loop_
 _atom_site_type_symbol
 _atom_site_label
 _atom_site_symmetry_multiplicity
 _atom_site_fract_x
 _atom_site_fract_y
 _atom_site_fract_z
 _atom_site_occupancy
  Tb  Tb0  1  0.000000  0.000000  0.890588  1
  Lu  Lu1  1  0.000000  0.000000  0.110081  1
  Lu  Lu2  1  0.000000  0.000000  0.391806  1
  Lu  Lu3  1  0.000000  0.000000  0.605079  1
  Fe  Fe4  1  0.666666  0.333334  0.010029  1
  Fe  Fe5  1  0.666666  0.333334  0.492161  1
  Fe  Fe6  1  0.333333  0.666665  0.504747  1
  Fe  Fe7  1  0.333333  0.666665  0.997157  1
  Br  Br8  1  0.333333  0.666665  0.251198  1
  Br  Br9  1  0.666666  0.333334  0.747155  1
