# generated using pymatgen
data_Ac5P12Ir6Ru8Rh5
_symmetry_space_group_name_H-M   'P 1'
_cell_length_a   12.94425407
_cell_length_b   12.92406189
_cell_length_c   4.05630800
_cell_angle_alpha   90.00000000
_cell_angle_beta   90.00000000
_cell_angle_gamma   120.00324366
_symmetry_Int_Tables_number   1
_chemical_formula_structural   Ac5P12Ir6Ru8Rh5
_chemical_formula_sum   'Ac5 P12 Ir6 Ru8 Rh5'
_cell_volume   587.65632884
_cell_formula_units_Z   1
loop_
 _symmetry_equiv_pos_site_id
 _symmetry_equiv_pos_as_xyz
  1  'x, y, z'
loop_
 _atom_site_type_symbol
 _atom_site_label
 _atom_site_symmetry_multiplicity
 _atom_site_fract_x
 _atom_site_fract_y
 _atom_site_fract_z
 _atom_site_occupancy
  Ac  Ac0  1  0.667291  0.331942  0.000000  1
  Ac  Ac1  1  0.333250  0.667475  0.000000  1
  Ac  Ac2  1  0.812922  0.001299  0.500000  1
  Ac  Ac3  1  0.185304  0.186757  0.500000  1
  Ac  Ac4  1  0.999398  0.813021  0.500000  1
  P  P5  1  0.625220  0.997196  0.000000  1
  P  P6  1  0.371365  0.371751  0.000000  1
  P  P7  1  0.000881  0.628259  0.000000  1
  P  P8  1  0.688134  0.522265  0.500000  1
  P  P9  1  0.832783  0.306609  0.500000  1
  P  P10  1  0.318709  0.839871  0.500000  1
  P  P11  1  0.523232  0.692400  0.500000  1
  P  P12  1  0.185638  0.999854  0.000000  1
  P  P13  1  0.812979  0.813023  0.000000  1
  P  P14  1  0.997474  0.187929  0.000000  1
  P  P15  1  0.475909  0.163889  0.500000  1
  P  P16  1  0.164907  0.477790  0.500000  1
  Ir  Ir17  1  0.620514  0.798231  0.000000  1
  Ir  Ir18  1  0.182456  0.380558  0.000000  1
  Ir  Ir19  1  0.378823  0.180355  0.000000  1
  Ir  Ir20  1  0.197717  0.819614  0.000000  1
  Ir  Ir21  1  0.800909  0.619438  0.000000  1
  Ir  Ir22  1  0.999185  0.000063  0.000000  1
  Ru  Ru23  1  0.514064  0.875695  0.500000  1
  Ru  Ru24  1  0.708950  0.708417  0.500000  1
  Ru  Ru25  1  0.001482  0.291508  0.500000  1
  Ru  Ru26  1  0.448283  0.999053  0.000000  1
  Ru  Ru27  1  0.550485  0.547119  0.000000  1
  Ru  Ru28  1  0.003519  0.452491  0.000000  1
  Ru  Ru29  1  0.819278  0.199889  0.000000  1
  Ru  Ru30  1  0.289067  0.000008  0.500000  1
  Rh  Rh31  1  0.875100  0.510385  0.500000  1
  Rh  Rh32  1  0.488497  0.362231  0.500000  1
  Rh  Rh33  1  0.634607  0.125343  0.500000  1
  Rh  Rh34  1  0.126912  0.638886  0.500000  1
  Rh  Rh35  1  0.364758  0.489382  0.500000  1
