# generated using pymatgen
data_Sc11OsRu2Pt
_symmetry_space_group_name_H-M   'P 1'
_cell_length_a   9.50724857
_cell_length_b   9.52138854
_cell_length_c   9.46890807
_cell_angle_alpha   60.17864052
_cell_angle_beta   60.23199806
_cell_angle_gamma   59.68442834
_symmetry_Int_Tables_number   1
_chemical_formula_structural   Sc11OsRu2Pt
_chemical_formula_sum   'Sc22 Os2 Ru4 Pt2'
_cell_volume   606.49591064
_cell_formula_units_Z   2
loop_
 _symmetry_equiv_pos_site_id
 _symmetry_equiv_pos_as_xyz
  1  'x, y, z'
loop_
 _atom_site_type_symbol
 _atom_site_label
 _atom_site_symmetry_multiplicity
 _atom_site_fract_x
 _atom_site_fract_y
 _atom_site_fract_z
 _atom_site_occupancy
  Sc  Sc0  1  0.804394  0.802963  0.197037  1
  Sc  Sc1  1  0.196106  0.802544  0.197456  1
  Sc  Sc2  1  0.803585  0.196415  0.196415  1
  Sc  Sc3  1  0.195606  0.197037  0.802963  1
  Sc  Sc4  1  0.803894  0.197456  0.802544  1
  Sc  Sc5  1  0.196415  0.803585  0.803585  1
  Sc  Sc6  1  0.617449  0.617316  0.151108  1
  Sc  Sc7  1  0.614128  0.151108  0.617316  1
  Sc  Sc8  1  0.150433  0.613450  0.616825  1
  Sc  Sc9  1  0.619294  0.616825  0.613450  1
  Sc  Sc10  1  0.382551  0.382684  0.848892  1
  Sc  Sc11  1  0.385872  0.848892  0.382684  1
  Sc  Sc12  1  0.849567  0.386550  0.383175  1
  Sc  Sc13  1  0.380706  0.383175  0.386550  1
  Sc  Sc14  1  0.840491  0.840895  0.471247  1
  Sc  Sc15  1  0.847364  0.471247  0.840895  1
  Sc  Sc16  1  0.470881  0.847920  0.840677  1
  Sc  Sc17  1  0.840520  0.840677  0.847920  1
  Sc  Sc18  1  0.159509  0.159105  0.528753  1
  Sc  Sc19  1  0.152636  0.528753  0.159105  1
  Sc  Sc20  1  0.529119  0.152080  0.159323  1
  Sc  Sc21  1  0.159480  0.159323  0.152080  1
  Os  Os22  1  0.500000  0.500000  0.500000  1
  Os  Os23  1  0.000000  0.500000  0.500000  1
  Ru  Ru24  1  0.000000  0.000000  0.000000  1
  Ru  Ru25  1  0.500000  0.000000  0.500000  1
  Ru  Ru26  1  0.000000  0.500000  0.000000  1
  Ru  Ru27  1  0.500000  0.000000  0.000000  1
  Pt  Pt28  1  0.000000  0.000000  0.500000  1
  Pt  Pt29  1  0.500000  0.500000  0.000000  1
