# generated using pymatgen
data_Tb8In2IrRh
_symmetry_space_group_name_H-M   'P 1'
_cell_length_a   9.72394159
_cell_length_b   9.73725672
_cell_length_c   9.72394160
_cell_angle_alpha   59.95469689
_cell_angle_beta   59.90864868
_cell_angle_gamma   59.95469519
_symmetry_Int_Tables_number   1
_chemical_formula_structural   Tb8In2IrRh
_chemical_formula_sum   'Tb16 In4 Ir2 Rh2'
_cell_volume   650.14205033
_cell_formula_units_Z   2
loop_
 _symmetry_equiv_pos_site_id
 _symmetry_equiv_pos_as_xyz
  1  'x, y, z'
loop_
 _atom_site_type_symbol
 _atom_site_label
 _atom_site_symmetry_multiplicity
 _atom_site_fract_x
 _atom_site_fract_y
 _atom_site_fract_z
 _atom_site_occupancy
  Tb  Tb0  1  0.810945  0.809213  0.189907  1
  Tb  Tb1  1  0.810064  0.189936  0.810064  1
  Tb  Tb2  1  0.189907  0.189935  0.810945  1
  Tb  Tb3  1  0.650822  0.046830  0.650822  1
  Tb  Tb4  1  0.060976  0.061360  0.439290  1
  Tb  Tb5  1  0.439290  0.438373  0.060976  1
  Tb  Tb6  1  0.650822  0.651526  0.650822  1
  Tb  Tb7  1  0.810945  0.189935  0.189907  1
  Tb  Tb8  1  0.189907  0.809213  0.810945  1
  Tb  Tb9  1  0.048583  0.650772  0.649874  1
  Tb  Tb10  1  0.439290  0.061360  0.060976  1
  Tb  Tb11  1  0.437422  0.062578  0.437422  1
  Tb  Tb12  1  0.059916  0.440084  0.059916  1
  Tb  Tb13  1  0.649874  0.650772  0.048583  1
  Tb  Tb14  1  0.189931  0.810069  0.189931  1
  Tb  Tb15  1  0.060976  0.438373  0.439290  1
  In  In16  1  0.417564  0.416959  0.417564  1
  In  In17  1  0.417673  0.417315  0.747696  1
  In  In18  1  0.417564  0.747912  0.417564  1
  In  In19  1  0.747696  0.417315  0.417673  1
  Ir  Ir20  1  0.858029  0.425813  0.858029  1
  Ir  Ir21  1  0.858029  0.858130  0.858029  1
  Rh  Rh22  1  0.858235  0.858115  0.425537  1
  Rh  Rh23  1  0.425537  0.858115  0.858235  1
