# generated using pymatgen
data_La4Y2IrI10
_symmetry_space_group_name_H-M   'P 1'
_cell_length_a   7.97807933
_cell_length_b   10.04489435
_cell_length_c   10.12182925
_cell_angle_alpha   107.89527585
_cell_angle_beta   96.12376129
_cell_angle_gamma   104.48930072
_symmetry_Int_Tables_number   1
_chemical_formula_structural   La4Y2IrI10
_chemical_formula_sum   'La4 Y2 Ir1 I10'
_cell_volume   732.37625771
_cell_formula_units_Z   1
loop_
 _symmetry_equiv_pos_site_id
 _symmetry_equiv_pos_as_xyz
  1  'x, y, z'
loop_
 _atom_site_type_symbol
 _atom_site_label
 _atom_site_symmetry_multiplicity
 _atom_site_fract_x
 _atom_site_fract_y
 _atom_site_fract_z
 _atom_site_occupancy
  La  La0  1  0.119831  0.042788  0.752525  1
  La  La1  1  0.880169  0.957212  0.247475  1
  La  La2  1  0.968939  0.280880  0.086291  1
  La  La3  1  0.031061  0.719120  0.913709  1
  Y  Y4  1  0.348519  0.124307  0.164701  1
  Y  Y5  1  0.651481  0.875693  0.835299  1
  Ir  Ir6  1  0.000000  0.000000  0.000000  1
  I  I7  1  0.358069  0.443014  0.270917  1
  I  I8  1  0.641931  0.556986  0.729083  1
  I  I9  1  0.267249  0.089266  0.453327  1
  I  I10  1  0.732751  0.910734  0.546673  1
  I  I11  1  0.086836  0.372817  0.818011  1
  I  I12  1  0.913164  0.627183  0.181989  1
  I  I13  1  0.454952  0.824337  0.086289  1
  I  I14  1  0.545048  0.175663  0.913711  1
  I  I15  1  0.761177  0.254698  0.345209  1
  I  I16  1  0.238823  0.745302  0.654791  1
