# generated using pymatgen
data_Ce(ErCo)3
_symmetry_space_group_name_H-M   'P 1'
_cell_length_a   5.77143764
_cell_length_b   5.77143771
_cell_length_c   13.93963700
_cell_angle_alpha   90.00000000
_cell_angle_beta   90.00000000
_cell_angle_gamma   141.98194706
_symmetry_Int_Tables_number   1
_chemical_formula_structural   Ce(ErCo)3
_chemical_formula_sum   'Ce2 Er6 Co6'
_cell_volume   285.98058668
_cell_formula_units_Z   2
loop_
 _symmetry_equiv_pos_site_id
 _symmetry_equiv_pos_as_xyz
  1  'x, y, z'
loop_
 _atom_site_type_symbol
 _atom_site_label
 _atom_site_symmetry_multiplicity
 _atom_site_fract_x
 _atom_site_fract_y
 _atom_site_fract_z
 _atom_site_occupancy
  Ce  Ce0  1  0.500000  0.500000  0.500000  1
  Ce  Ce1  1  0.500000  0.500000  0.000000  1
  Er  Er2  1  0.781177  0.218823  0.383043  1
  Er  Er3  1  0.218823  0.781177  0.616957  1
  Er  Er4  1  0.781177  0.218823  0.116957  1
  Er  Er5  1  0.218823  0.781177  0.883043  1
  Er  Er6  1  0.504034  0.495966  0.250000  1
  Er  Er7  1  0.495966  0.504034  0.750000  1
  Co  Co8  1  0.078889  0.921111  0.394987  1
  Co  Co9  1  0.921111  0.078889  0.605013  1
  Co  Co10  1  0.078889  0.921111  0.105013  1
  Co  Co11  1  0.921111  0.078889  0.894987  1
  Co  Co12  1  0.206273  0.793727  0.250000  1
  Co  Co13  1  0.793727  0.206273  0.750000  1
