# generated using pymatgen
data_Mn9Si3(Mo3C)4
_symmetry_space_group_name_H-M   'P 1'
_cell_length_a   7.88833754
_cell_length_b   7.87141957
_cell_length_c   7.87156900
_cell_angle_alpha   60.00060486
_cell_angle_beta   60.07164272
_cell_angle_gamma   60.07143404
_symmetry_Int_Tables_number   1
_chemical_formula_structural   Mn9Si3(Mo3C)4
_chemical_formula_sum   'Mn9 Si3 Mo12 C4'
_cell_volume   345.98367260
_cell_formula_units_Z   1
loop_
 _symmetry_equiv_pos_site_id
 _symmetry_equiv_pos_as_xyz
  1  'x, y, z'
loop_
 _atom_site_type_symbol
 _atom_site_label
 _atom_site_symmetry_multiplicity
 _atom_site_fract_x
 _atom_site_fract_y
 _atom_site_fract_z
 _atom_site_occupancy
  Mn  Mn0  1  0.330883  0.328777  0.011577  1
  Mn  Mn1  1  0.012566  0.329157  0.329144  1
  Mn  Mn2  1  0.919154  0.238365  0.921244  1
  Mn  Mn3  1  0.237434  0.920843  0.920856  1
  Mn  Mn4  1  0.919104  0.921233  0.921243  1
  Mn  Mn5  1  0.919117  0.921223  0.238423  1
  Mn  Mn6  1  0.330846  0.011635  0.328756  1
  Mn  Mn7  1  0.625000  0.125000  0.125000  1
  Mn  Mn8  1  0.330896  0.328767  0.328757  1
  Si  Si9  1  0.125000  0.125000  0.125000  1
  Si  Si10  1  0.125000  0.125000  0.625000  1
  Si  Si11  1  0.125000  0.625000  0.125000  1
  Mo  Mo12  1  0.700401  0.298807  0.701981  1
  Mo  Mo13  1  0.303346  0.697551  0.301553  1
  Mo  Mo14  1  0.549599  0.951193  0.548019  1
  Mo  Mo15  1  0.549600  0.951201  0.951182  1
  Mo  Mo16  1  0.946642  0.552461  0.552452  1
  Mo  Mo17  1  0.946654  0.552449  0.948447  1
  Mo  Mo18  1  0.303358  0.301550  0.697550  1
  Mo  Mo19  1  0.549601  0.548013  0.951185  1
  Mo  Mo20  1  0.700399  0.701987  0.298815  1
  Mo  Mo21  1  0.700400  0.298799  0.298818  1
  Mo  Mo22  1  0.946642  0.948450  0.552450  1
  Mo  Mo23  1  0.303358  0.697539  0.697548  1
  C  C24  1  0.625000  0.625000  0.625000  1
  C  C25  1  0.625000  0.625000  0.125000  1
  C  C26  1  0.125000  0.625000  0.625000  1
  C  C27  1  0.625000  0.125000  0.625000  1
