# generated using pymatgen
data_Ca2CeZn9(CoNi)3
_symmetry_space_group_name_H-M   'P 1'
_cell_length_a   8.88382800
_cell_length_b   8.88423650
_cell_length_c   4.16803100
_cell_angle_alpha   90.00000000
_cell_angle_beta   90.00000000
_cell_angle_gamma   119.99847155
_symmetry_Int_Tables_number   1
_chemical_formula_structural   Ca2CeZn9(CoNi)3
_chemical_formula_sum   'Ca2 Ce1 Zn9 Co3 Ni3'
_cell_volume   284.89741806
_cell_formula_units_Z   1
loop_
 _symmetry_equiv_pos_site_id
 _symmetry_equiv_pos_as_xyz
  1  'x, y, z'
loop_
 _atom_site_type_symbol
 _atom_site_label
 _atom_site_symmetry_multiplicity
 _atom_site_fract_x
 _atom_site_fract_y
 _atom_site_fract_z
 _atom_site_occupancy
  Ca  Ca0  1  0.332567  0.665135  0.000000  1
  Ca  Ca1  1  0.665666  0.331330  0.000000  1
  Ce  Ce2  1  0.011141  0.022282  0.500000  1
  Zn  Zn3  1  0.501517  0.003035  0.500000  1
  Zn  Zn4  1  0.499074  0.498386  0.500000  1
  Zn  Zn5  1  0.999312  0.498386  0.500000  1
  Zn  Zn6  1  0.296351  0.999089  0.000000  1
  Zn  Zn7  1  0.301812  0.301230  0.000000  1
  Zn  Zn8  1  0.999552  0.704037  0.000000  1
  Zn  Zn9  1  0.999418  0.301230  0.000000  1
  Zn  Zn10  1  0.704485  0.704037  0.000000  1
  Zn  Zn11  1  0.702738  0.999089  0.000000  1
  Co  Co12  1  0.170848  0.341696  0.500000  1
  Co  Co13  1  0.829070  0.168822  0.500000  1
  Co  Co14  1  0.339752  0.168822  0.500000  1
  Ni  Ni15  1  0.645390  0.822264  0.500000  1
  Ni  Ni16  1  0.176874  0.822264  0.500000  1
  Ni  Ni17  1  0.824434  0.648867  0.500000  1
