# generated using pymatgen
data_Tb4Ho6Cd3In5Pd4
_symmetry_space_group_name_H-M   'P 1'
_cell_length_a   3.61709000
_cell_length_b   8.12876995
_cell_length_c   18.35425791
_cell_angle_alpha   89.92802466
_cell_angle_beta   90.00000000
_cell_angle_gamma   90.00000000
_symmetry_Int_Tables_number   1
_chemical_formula_structural   Tb4Ho6Cd3In5Pd4
_chemical_formula_sum   'Tb4 Ho6 Cd3 In5 Pd4'
_cell_volume   539.66050489
_cell_formula_units_Z   1
loop_
 _symmetry_equiv_pos_site_id
 _symmetry_equiv_pos_as_xyz
  1  'x, y, z'
loop_
 _atom_site_type_symbol
 _atom_site_label
 _atom_site_symmetry_multiplicity
 _atom_site_fract_x
 _atom_site_fract_y
 _atom_site_fract_z
 _atom_site_occupancy
  Tb  Tb0  1  0.000000  0.499531  0.499581  1
  Tb  Tb1  1  0.000000  0.999405  0.000043  1
  Tb  Tb2  1  0.000000  0.743046  0.281538  1
  Tb  Tb3  1  0.000000  0.259724  0.719550  1
  Ho  Ho4  1  0.000000  0.756222  0.781405  1
  Ho  Ho5  1  0.000000  0.242999  0.218744  1
  Ho  Ho6  1  0.000000  0.613027  0.084288  1
  Ho  Ho7  1  0.000000  0.386966  0.916506  1
  Ho  Ho8  1  0.000000  0.883967  0.584343  1
  Ho  Ho9  1  0.000000  0.113950  0.415114  1
  Cd  Cd10  1  0.500000  0.709433  0.931983  1
  Cd  Cd11  1  0.500000  0.290178  0.067998  1
  Cd  Cd12  1  0.500000  0.790949  0.432434  1
  In  In13  1  0.500000  0.206718  0.567326  1
  In  In14  1  0.500000  0.580133  0.648937  1
  In  In15  1  0.500000  0.423603  0.351011  1
  In  In16  1  0.500000  0.924508  0.147654  1
  In  In17  1  0.500000  0.075793  0.851896  1
  Pd  Pd18  1  0.500000  0.522451  0.196375  1
  Pd  Pd19  1  0.500000  0.476733  0.803812  1
  Pd  Pd20  1  0.500000  0.974489  0.696638  1
  Pd  Pd21  1  0.500000  0.026175  0.302822  1
