# generated using pymatgen
data_DyYLu2Ga16Co3
_symmetry_space_group_name_H-M   'P 1'
_cell_length_a   6.01175600
_cell_length_b   6.01045800
_cell_length_c   11.09610700
_cell_angle_alpha   90.00000000
_cell_angle_beta   90.00000000
_cell_angle_gamma   90.00000000
_symmetry_Int_Tables_number   1
_chemical_formula_structural   DyYLu2Ga16Co3
_chemical_formula_sum   'Dy1 Y1 Lu2 Ga16 Co3'
_cell_volume   400.94014973
_cell_formula_units_Z   1
loop_
 _symmetry_equiv_pos_site_id
 _symmetry_equiv_pos_as_xyz
  1  'x, y, z'
loop_
 _atom_site_type_symbol
 _atom_site_label
 _atom_site_symmetry_multiplicity
 _atom_site_fract_x
 _atom_site_fract_y
 _atom_site_fract_z
 _atom_site_occupancy
  Dy  Dy0  1  0.500000  0.000000  0.193607  1
  Y  Y1  1  0.000000  0.500000  0.193529  1
  Lu  Lu2  1  0.500000  0.000000  0.804017  1
  Lu  Lu3  1  0.000000  0.500000  0.804167  1
  Ga  Ga4  1  0.249460  0.249554  0.617078  1
  Ga  Ga5  1  0.750540  0.750446  0.617078  1
  Ga  Ga6  1  0.750540  0.249554  0.617078  1
  Ga  Ga7  1  0.249460  0.750446  0.617078  1
  Ga  Ga8  1  0.750233  0.750477  0.385947  1
  Ga  Ga9  1  0.249767  0.249523  0.385947  1
  Ga  Ga10  1  0.249767  0.750477  0.385947  1
  Ga  Ga11  1  0.750233  0.249523  0.385947  1
  Ga  Ga12  1  0.280201  0.279734  0.996880  1
  Ga  Ga13  1  0.719799  0.720266  0.996880  1
  Ga  Ga14  1  0.719799  0.279734  0.996880  1
  Ga  Ga15  1  0.280201  0.720266  0.996880  1
  Ga  Ga16  1  0.500000  0.500000  0.804625  1
  Ga  Ga17  1  0.500000  0.500000  0.193575  1
  Ga  Ga18  1  0.000000  0.000000  0.783931  1
  Ga  Ga19  1  0.000000  0.000000  0.218437  1
  Co  Co20  1  0.500000  0.000000  0.501846  1
  Co  Co21  1  0.000000  0.500000  0.501778  1
  Co  Co22  1  0.000000  0.000000  0.000870  1
