# generated using pymatgen
data_Zr2ScTcF15
_symmetry_space_group_name_H-M   'P 1'
_cell_length_a   7.98836090
_cell_length_b   7.98836130
_cell_length_c   8.05754900
_cell_angle_alpha   79.69034405
_cell_angle_beta   79.69034129
_cell_angle_gamma   99.86849088
_symmetry_Int_Tables_number   1
_chemical_formula_structural   Zr2ScTcF15
_chemical_formula_sum   'Zr4 Sc2 Tc2 F30'
_cell_volume   486.60049476
_cell_formula_units_Z   2
loop_
 _symmetry_equiv_pos_site_id
 _symmetry_equiv_pos_as_xyz
  1  'x, y, z'
loop_
 _atom_site_type_symbol
 _atom_site_label
 _atom_site_symmetry_multiplicity
 _atom_site_fract_x
 _atom_site_fract_y
 _atom_site_fract_z
 _atom_site_occupancy
  Zr  Zr0  1  0.753101  0.678566  0.673325  1
  Zr  Zr1  1  0.321434  0.246899  0.826675  1
  Zr  Zr2  1  0.246899  0.321434  0.326675  1
  Zr  Zr3  1  0.678566  0.753101  0.173325  1
  Sc  Sc4  1  0.177037  0.822963  0.250000  1
  Sc  Sc5  1  0.822963  0.177037  0.750000  1
  Tc  Tc6  1  0.749942  0.250058  0.250000  1
  Tc  Tc7  1  0.250058  0.749942  0.750000  1
  F  F8  1  0.316084  0.350434  0.052779  1
  F  F9  1  0.945662  0.814637  0.153617  1
  F  F10  1  0.846304  0.448561  0.686086  1
  F  F11  1  0.448561  0.846304  0.186086  1
  F  F12  1  0.814637  0.945662  0.653617  1
  F  F13  1  0.350434  0.316084  0.552778  1
  F  F14  1  0.683916  0.649566  0.947221  1
  F  F15  1  0.054338  0.185363  0.846383  1
  F  F16  1  0.153696  0.551439  0.313914  1
  F  F17  1  0.551439  0.153696  0.813914  1
  F  F18  1  0.185363  0.054338  0.346383  1
  F  F19  1  0.649566  0.683916  0.447221  1
  F  F20  1  0.773164  0.281583  0.000520  1
  F  F21  1  0.004545  0.274693  0.216489  1
  F  F22  1  0.783574  0.504406  0.224188  1
  F  F23  1  0.504406  0.783574  0.724188  1
  F  F24  1  0.274693  0.004545  0.716489  1
  F  F25  1  0.281583  0.773164  0.500520  1
  F  F26  1  0.226836  0.718417  0.999480  1
  F  F27  1  0.995455  0.725307  0.783511  1
  F  F28  1  0.216426  0.495594  0.775812  1
  F  F29  1  0.495594  0.216426  0.275812  1
  F  F30  1  0.725307  0.995455  0.283511  1
  F  F31  1  0.718417  0.226836  0.499480  1
  F  F32  1  0.467799  0.532201  0.250000  1
  F  F33  1  0.749471  0.963928  0.965951  1
  F  F34  1  0.036072  0.250529  0.534049  1
  F  F35  1  0.250529  0.036072  0.034049  1
  F  F36  1  0.963928  0.749471  0.465951  1
  F  F37  1  0.532201  0.467799  0.750000  1
