# generated using pymatgen
data_Ho8GaSi11Pt4
_symmetry_space_group_name_H-M   'P 1'
_cell_length_a   8.21030485
_cell_length_b   8.21030134
_cell_length_c   7.89278015
_cell_angle_alpha   90.01933480
_cell_angle_beta   89.98062789
_cell_angle_gamma   120.04840811
_symmetry_Int_Tables_number   1
_chemical_formula_structural   Ho8GaSi11Pt4
_chemical_formula_sum   'Ho8 Ga1 Si11 Pt4'
_cell_volume   460.53955004
_cell_formula_units_Z   1
loop_
 _symmetry_equiv_pos_site_id
 _symmetry_equiv_pos_as_xyz
  1  'x, y, z'
loop_
 _atom_site_type_symbol
 _atom_site_label
 _atom_site_symmetry_multiplicity
 _atom_site_fract_x
 _atom_site_fract_y
 _atom_site_fract_z
 _atom_site_occupancy
  Ho  Ho0  1  0.998472  0.001526  0.248518  1
  Ho  Ho1  1  0.998505  0.001492  0.750952  1
  Ho  Ho2  1  0.510243  0.489755  0.250758  1
  Ho  Ho3  1  0.509975  0.019839  0.250939  1
  Ho  Ho4  1  0.980161  0.490026  0.250939  1
  Ho  Ho5  1  0.489995  0.510003  0.749170  1
  Ho  Ho6  1  0.491096  0.980183  0.749295  1
  Ho  Ho7  1  0.019820  0.508904  0.749297  1
  Ga  Ga8  1  0.164349  0.835651  0.500127  1
  Si  Si9  1  0.165279  0.330237  0.498724  1
  Si  Si10  1  0.669763  0.834720  0.498725  1
  Si  Si11  1  0.834848  0.165152  0.501140  1
  Si  Si12  1  0.831241  0.668567  0.500798  1
  Si  Si13  1  0.331434  0.168759  0.500798  1
  Si  Si14  1  0.834907  0.165095  0.999167  1
  Si  Si15  1  0.834621  0.669564  0.999162  1
  Si  Si16  1  0.330436  0.165379  0.999162  1
  Si  Si17  1  0.165025  0.834976  0.000738  1
  Si  Si18  1  0.165613  0.330541  0.000976  1
  Si  Si19  1  0.669459  0.834388  0.000977  1
  Pt  Pt20  1  0.337662  0.662337  0.464921  1
  Pt  Pt21  1  0.667179  0.332823  0.534637  1
  Pt  Pt22  1  0.666759  0.333242  0.965971  1
  Pt  Pt23  1  0.333160  0.666841  0.034111  1
