# generated using pymatgen
data_Ca3Dy(SbPt)4
_symmetry_space_group_name_H-M   'P 1'
_cell_length_a   4.63790200
_cell_length_b   7.36842778
_cell_length_c   7.95434228
_cell_angle_alpha   90.13128126
_cell_angle_beta   90.00000000
_cell_angle_gamma   90.00000000
_symmetry_Int_Tables_number   1
_chemical_formula_structural   Ca3Dy(SbPt)4
_chemical_formula_sum   'Ca3 Dy1 Sb4 Pt4'
_cell_volume   271.83134493
_cell_formula_units_Z   1
loop_
 _symmetry_equiv_pos_site_id
 _symmetry_equiv_pos_as_xyz
  1  'x, y, z'
loop_
 _atom_site_type_symbol
 _atom_site_label
 _atom_site_symmetry_multiplicity
 _atom_site_fract_x
 _atom_site_fract_y
 _atom_site_fract_z
 _atom_site_occupancy
  Ca  Ca0  1  0.250000  0.006017  0.302220  1
  Ca  Ca1  1  0.750000  0.492852  0.801130  1
  Ca  Ca2  1  0.250000  0.507500  0.199307  1
  Dy  Dy3  1  0.750000  0.992655  0.698325  1
  Sb  Sb4  1  0.750000  0.310794  0.408260  1
  Sb  Sb5  1  0.250000  0.188193  0.909952  1
  Sb  Sb6  1  0.250000  0.683863  0.590893  1
  Sb  Sb7  1  0.750000  0.810814  0.090261  1
  Pt  Pt8  1  0.250000  0.809666  0.911003  1
  Pt  Pt9  1  0.250000  0.294190  0.585733  1
  Pt  Pt10  1  0.750000  0.708141  0.422482  1
  Pt  Pt11  1  0.750000  0.195315  0.080433  1
