# generated using pymatgen
data_Mn3Nb3N
_symmetry_space_group_name_H-M   'P 1'
_cell_length_a   8.07003558
_cell_length_b   8.07011685
_cell_length_c   8.07015800
_cell_angle_alpha   59.99753442
_cell_angle_beta   59.99738275
_cell_angle_gamma   59.99752710
_symmetry_Int_Tables_number   1
_chemical_formula_structural   Mn3Nb3N
_chemical_formula_sum   'Mn12 Nb12 N4'
_cell_volume   371.61865925
_cell_formula_units_Z   4
loop_
 _symmetry_equiv_pos_site_id
 _symmetry_equiv_pos_as_xyz
  1  'x, y, z'
loop_
 _atom_site_type_symbol
 _atom_site_label
 _atom_site_symmetry_multiplicity
 _atom_site_fract_x
 _atom_site_fract_y
 _atom_site_fract_z
 _atom_site_occupancy
  Mn  Mn0  1  0.125000  0.625000  0.625000  1
  Mn  Mn1  1  0.625000  0.125000  0.625000  1
  Mn  Mn2  1  0.625000  0.625000  0.125000  1
  Mn  Mn3  1  0.625000  0.625000  0.625000  1
  Mn  Mn4  1  0.731216  0.422836  0.422867  1
  Mn  Mn5  1  0.423011  0.731174  0.422794  1
  Mn  Mn6  1  0.423026  0.422782  0.731156  1
  Mn  Mn7  1  0.423098  0.422864  0.422893  1
  Mn  Mn8  1  0.518784  0.827164  0.827133  1
  Mn  Mn9  1  0.826989  0.518826  0.827206  1
  Mn  Mn10  1  0.826974  0.827218  0.518844  1
  Mn  Mn11  1  0.826902  0.827136  0.827107  1
  Nb  Nb12  1  0.804626  0.804625  0.195365  1
  Nb  Nb13  1  0.195420  0.195358  0.804623  1
  Nb  Nb14  1  0.804604  0.195351  0.804627  1
  Nb  Nb15  1  0.195383  0.804624  0.195371  1
  Nb  Nb16  1  0.195359  0.804628  0.804650  1
  Nb  Nb17  1  0.804599  0.195380  0.195428  1
  Nb  Nb18  1  0.445374  0.445375  0.054635  1
  Nb  Nb19  1  0.054580  0.054642  0.445377  1
  Nb  Nb20  1  0.445396  0.054649  0.445373  1
  Nb  Nb21  1  0.054617  0.445376  0.054629  1
  Nb  Nb22  1  0.054641  0.445372  0.445350  1
  Nb  Nb23  1  0.445401  0.054620  0.054572  1
  N  N24  1  0.625000  0.125000  0.125000  1
  N  N25  1  0.125000  0.625000  0.125000  1
  N  N26  1  0.125000  0.125000  0.625000  1
  N  N27  1  0.125000  0.125000  0.125000  1
