# generated using pymatgen
data_La6In2GeS14
_symmetry_space_group_name_H-M   'P 1'
_cell_length_a   10.43856200
_cell_length_b   10.43856225
_cell_length_c   6.08698100
_cell_angle_alpha   90.00000000
_cell_angle_beta   90.00000000
_cell_angle_gamma   120.00001190
_symmetry_Int_Tables_number   1
_chemical_formula_structural   La6In2GeS14
_chemical_formula_sum   'La6 In2 Ge1 S14'
_cell_volume   574.39927901
_cell_formula_units_Z   1
loop_
 _symmetry_equiv_pos_site_id
 _symmetry_equiv_pos_as_xyz
  1  'x, y, z'
loop_
 _atom_site_type_symbol
 _atom_site_label
 _atom_site_symmetry_multiplicity
 _atom_site_fract_x
 _atom_site_fract_y
 _atom_site_fract_z
 _atom_site_occupancy
  La  La0  1  0.797599  0.697620  0.527291  1
  La  La1  1  0.900021  0.202401  0.527291  1
  La  La2  1  0.302380  0.099979  0.527291  1
  La  La3  1  0.528962  0.967108  0.045414  1
  La  La4  1  0.438145  0.471038  0.045414  1
  La  La5  1  0.032892  0.561855  0.045414  1
  In  In6  1  0.666667  0.333333  0.307093  1
  In  In7  1  0.333333  0.666667  0.461009  1
  Ge  Ge8  1  0.000000  0.000000  0.951762  1
  S  S9  1  0.000000  0.000000  0.317622  1
  S  S10  1  0.333333  0.666667  0.858318  1
  S  S11  1  0.077920  0.854024  0.800037  1
  S  S12  1  0.776104  0.922080  0.800037  1
  S  S13  1  0.145976  0.223896  0.800037  1
  S  S14  1  0.240165  0.821743  0.293607  1
  S  S15  1  0.581576  0.759835  0.293607  1
  S  S16  1  0.178257  0.418424  0.293607  1
  S  S17  1  0.914406  0.491500  0.543289  1
  S  S18  1  0.577097  0.085594  0.543289  1
  S  S19  1  0.508500  0.422903  0.543289  1
  S  S20  1  0.422067  0.183180  0.072432  1
  S  S21  1  0.761111  0.577933  0.072432  1
  S  S22  1  0.816820  0.238889  0.072432  1
