# generated using pymatgen
data_NaHo3Nb(ReN4)3
_symmetry_space_group_name_H-M   'P 1'
_cell_length_a   11.14561094
_cell_length_b   11.14561083
_cell_length_c   11.14561100
_cell_angle_alpha   109.47121731
_cell_angle_beta   109.47121710
_cell_angle_gamma   109.47122694
_symmetry_Int_Tables_number   1
_chemical_formula_structural   NaHo3Nb(ReN4)3
_chemical_formula_sum   'Na4 Ho12 Nb4 Re12 N48'
_cell_volume   1065.83443572
_cell_formula_units_Z   4
loop_
 _symmetry_equiv_pos_site_id
 _symmetry_equiv_pos_as_xyz
  1  'x, y, z'
loop_
 _atom_site_type_symbol
 _atom_site_label
 _atom_site_symmetry_multiplicity
 _atom_site_fract_x
 _atom_site_fract_y
 _atom_site_fract_z
 _atom_site_occupancy
  Na  Na0  1  0.500001  0.000000  0.000000  1
  Na  Na1  1  0.000000  0.500001  0.000000  1
  Na  Na2  1  0.000000  0.000000  0.500001  1
  Na  Na3  1  0.500001  0.500001  0.500001  1
  Ho  Ho4  1  0.250000  0.378055  0.128054  1
  Ho  Ho5  1  0.371946  0.750000  0.121946  1
  Ho  Ho6  1  0.378055  0.128054  0.250000  1
  Ho  Ho7  1  0.878054  0.628054  0.250000  1
  Ho  Ho8  1  0.128054  0.250000  0.378055  1
  Ho  Ho9  1  0.750000  0.121946  0.371946  1
  Ho  Ho10  1  0.250000  0.878054  0.628054  1
  Ho  Ho11  1  0.871946  0.750000  0.621946  1
  Ho  Ho12  1  0.121946  0.371946  0.750000  1
  Ho  Ho13  1  0.621946  0.871946  0.750000  1
  Ho  Ho14  1  0.628054  0.250000  0.878054  1
  Ho  Ho15  1  0.750000  0.621946  0.871946  1
  Nb  Nb16  1  0.000000  0.000000  0.000000  1
  Nb  Nb17  1  0.500000  0.500000  0.000000  1
  Nb  Nb18  1  0.500000  0.000000  0.500000  1
  Nb  Nb19  1  0.000000  0.500000  0.500000  1
  Re  Re20  1  0.750000  0.875998  0.125998  1
  Re  Re21  1  0.874002  0.250000  0.124001  1
  Re  Re22  1  0.624002  0.374002  0.250000  1
  Re  Re23  1  0.124001  0.874002  0.250000  1
  Re  Re24  1  0.625998  0.750000  0.375999  1
  Re  Re25  1  0.250000  0.624002  0.374002  1
  Re  Re26  1  0.750000  0.375999  0.625998  1
  Re  Re27  1  0.374002  0.250000  0.624002  1
  Re  Re28  1  0.875998  0.125998  0.750000  1
  Re  Re29  1  0.375999  0.625998  0.750000  1
  Re  Re30  1  0.250000  0.124001  0.874002  1
  Re  Re31  1  0.125998  0.750000  0.875998  1
  N  N32  1  0.300459  0.899207  0.029178  1
  N  N33  1  0.207126  0.117889  0.022375  1
  N  N34  1  0.707126  0.684750  0.089238  1
  N  N35  1  0.870029  0.399206  0.098747  1
  N  N36  1  0.617888  0.410762  0.095513  1
  N  N37  1  0.970824  0.699542  0.100795  1
  N  N38  1  0.022375  0.207126  0.117889  1
  N  N39  1  0.600794  0.901253  0.129971  1
  N  N40  1  0.477625  0.595513  0.184751  1
  N  N41  1  0.228719  0.598748  0.199542  1
  N  N42  1  0.117889  0.022375  0.207126  1
  N  N43  1  0.598748  0.199542  0.228719  1
  N  N44  1  0.470823  0.370029  0.271282  1
  N  N45  1  0.315249  0.910762  0.292874  1
  N  N46  1  0.899207  0.029178  0.300459  1
  N  N47  1  0.910762  0.292874  0.315249  1
  N  N48  1  0.271282  0.470823  0.370029  1
  N  N49  1  0.589238  0.904487  0.382111  1
  N  N50  1  0.098747  0.870029  0.399206  1
  N  N51  1  0.815249  0.522375  0.404487  1
  N  N52  1  0.800459  0.771282  0.401253  1
  N  N53  1  0.095513  0.617888  0.410762  1
  N  N54  1  0.595513  0.184751  0.477625  1
  N  N55  1  0.370029  0.271282  0.470823  1
  N  N56  1  0.629971  0.728719  0.529177  1
  N  N57  1  0.404487  0.815249  0.522375  1
  N  N58  1  0.904487  0.382111  0.589238  1
  N  N59  1  0.199542  0.228719  0.598748  1
  N  N60  1  0.901253  0.129971  0.600794  1
  N  N61  1  0.184751  0.477625  0.595513  1
  N  N62  1  0.410762  0.095513  0.617888  1
  N  N63  1  0.728719  0.529177  0.629971  1
  N  N64  1  0.089238  0.707126  0.684750  1
  N  N65  1  0.100795  0.970824  0.699542  1
  N  N66  1  0.684750  0.089238  0.707126  1
  N  N67  1  0.529177  0.629971  0.728719  1
  N  N68  1  0.401253  0.800459  0.771282  1
  N  N69  1  0.882111  0.977625  0.792874  1
  N  N70  1  0.771282  0.401253  0.800459  1
  N  N71  1  0.522375  0.404487  0.815249  1
  N  N72  1  0.399206  0.098747  0.870029  1
  N  N73  1  0.977625  0.792874  0.882111  1
  N  N74  1  0.029178  0.300459  0.899207  1
  N  N75  1  0.382111  0.589238  0.904487  1
  N  N76  1  0.129971  0.600794  0.901253  1
  N  N77  1  0.292874  0.315249  0.910762  1
  N  N78  1  0.699542  0.100795  0.970824  1
  N  N79  1  0.792874  0.882111  0.977625  1
