# generated using pymatgen
data_CaNdGe7Rh12
_symmetry_space_group_name_H-M   'P 1'
_cell_length_a   10.01740900
_cell_length_b   10.01740917
_cell_length_c   3.94675400
_cell_angle_alpha   90.00000000
_cell_angle_beta   90.00000000
_cell_angle_gamma   120.00000936
_symmetry_Int_Tables_number   1
_chemical_formula_structural   CaNdGe7Rh12
_chemical_formula_sum   'Ca1 Nd1 Ge7 Rh12'
_cell_volume   342.99000739
_cell_formula_units_Z   1
loop_
 _symmetry_equiv_pos_site_id
 _symmetry_equiv_pos_as_xyz
  1  'x, y, z'
loop_
 _atom_site_type_symbol
 _atom_site_label
 _atom_site_symmetry_multiplicity
 _atom_site_fract_x
 _atom_site_fract_y
 _atom_site_fract_z
 _atom_site_occupancy
  Ca  Ca0  1  0.333333  0.666667  0.748898  1
  Nd  Nd1  1  0.666667  0.333333  0.250459  1
  Ge  Ge2  1  0.000000  0.000000  0.501237  1
  Ge  Ge3  1  0.888083  0.599414  0.750605  1
  Ge  Ge4  1  0.400586  0.288669  0.750605  1
  Ge  Ge5  1  0.711331  0.111917  0.750605  1
  Ge  Ge6  1  0.114759  0.402959  0.249611  1
  Ge  Ge7  1  0.597041  0.711800  0.249611  1
  Ge  Ge8  1  0.288200  0.885241  0.249611  1
  Rh  Rh9  1  0.618306  0.558675  0.751409  1
  Rh  Rh10  1  0.441325  0.059632  0.751409  1
  Rh  Rh11  1  0.940368  0.381694  0.751409  1
  Rh  Rh12  1  0.382490  0.441680  0.248768  1
  Rh  Rh13  1  0.558320  0.940809  0.248768  1
  Rh  Rh14  1  0.059191  0.617510  0.248768  1
  Rh  Rh15  1  0.119049  0.857644  0.746947  1
  Rh  Rh16  1  0.142356  0.261405  0.746947  1
  Rh  Rh17  1  0.738595  0.880951  0.746947  1
  Rh  Rh18  1  0.882469  0.144172  0.252462  1
  Rh  Rh19  1  0.855828  0.738297  0.252462  1
  Rh  Rh20  1  0.261703  0.117531  0.252462  1
