# generated using pymatgen
data_PrZnHgPt3
_symmetry_space_group_name_H-M   'P 1'
_cell_length_a   5.56482717
_cell_length_b   5.56482675
_cell_length_c   5.31279237
_cell_angle_alpha   58.41790880
_cell_angle_beta   58.41791642
_cell_angle_gamma   59.99998996
_symmetry_Int_Tables_number   1
_chemical_formula_structural   PrZnHgPt3
_chemical_formula_sum   'Pr1 Zn1 Hg1 Pt3'
_cell_volume   113.47516753
_cell_formula_units_Z   1
loop_
 _symmetry_equiv_pos_site_id
 _symmetry_equiv_pos_as_xyz
  1  'x, y, z'
loop_
 _atom_site_type_symbol
 _atom_site_label
 _atom_site_symmetry_multiplicity
 _atom_site_fract_x
 _atom_site_fract_y
 _atom_site_fract_z
 _atom_site_occupancy
  Pr  Pr0  1  0.004607  0.004607  0.986179  1
  Zn  Zn1  1  0.622696  0.622696  0.131911  1
  Hg  Hg2  1  0.252342  0.252342  0.242976  1
  Pt  Pt3  1  0.622805  0.124746  0.629645  1
  Pt  Pt4  1  0.124746  0.622805  0.629645  1
  Pt  Pt5  1  0.622805  0.622805  0.629645  1
