# generated using pymatgen
data_Er12Si12TcIr3
_symmetry_space_group_name_H-M   'P 1'
_cell_length_a   4.19961900
_cell_length_b   10.63076157
_cell_length_c   12.22739350
_cell_angle_alpha   90.08769847
_cell_angle_beta   90.00000000
_cell_angle_gamma   90.00000000
_symmetry_Int_Tables_number   1
_chemical_formula_structural   Er12Si12TcIr3
_chemical_formula_sum   'Er12 Si12 Tc1 Ir3'
_cell_volume   545.89315638
_cell_formula_units_Z   1
loop_
 _symmetry_equiv_pos_site_id
 _symmetry_equiv_pos_as_xyz
  1  'x, y, z'
loop_
 _atom_site_type_symbol
 _atom_site_label
 _atom_site_symmetry_multiplicity
 _atom_site_fract_x
 _atom_site_fract_y
 _atom_site_fract_z
 _atom_site_occupancy
  Er  Er0  1  0.250000  0.878386  0.020226  1
  Er  Er1  1  0.250000  0.621086  0.521016  1
  Er  Er2  1  0.750000  0.119398  0.980477  1
  Er  Er3  1  0.750000  0.378494  0.480192  1
  Er  Er4  1  0.250000  0.921371  0.603434  1
  Er  Er5  1  0.250000  0.580032  0.105306  1
  Er  Er6  1  0.750000  0.079482  0.394709  1
  Er  Er7  1  0.750000  0.420278  0.895958  1
  Er  Er8  1  0.250000  0.663384  0.799039  1
  Er  Er9  1  0.250000  0.840522  0.300115  1
  Er  Er10  1  0.750000  0.341112  0.198901  1
  Er  Er11  1  0.750000  0.158646  0.699845  1
  Si  Si12  1  0.250000  0.011206  0.822010  1
  Si  Si13  1  0.250000  0.487643  0.322481  1
  Si  Si14  1  0.750000  0.988092  0.178185  1
  Si  Si15  1  0.750000  0.511494  0.679679  1
  Si  Si16  1  0.250000  0.247689  0.842271  1
  Si  Si17  1  0.250000  0.251612  0.340391  1
  Si  Si18  1  0.750000  0.752378  0.158843  1
  Si  Si19  1  0.750000  0.750976  0.657880  1
  Si  Si20  1  0.250000  0.198713  0.541945  1
  Si  Si21  1  0.250000  0.298407  0.044023  1
  Si  Si22  1  0.750000  0.800914  0.456008  1
  Si  Si23  1  0.750000  0.697986  0.956607  1
  Tc  Tc24  1  0.250000  0.391316  0.679474  1
  Ir  Ir25  1  0.250000  0.109377  0.178998  1
  Ir  Ir26  1  0.750000  0.610794  0.320403  1
  Ir  Ir27  1  0.750000  0.889209  0.821584  1
