# generated using pymatgen
data_Ho16TlIn(AgIr2)2
_symmetry_space_group_name_H-M   'P 1'
_cell_length_a   9.57831501
_cell_length_b   9.57018648
_cell_length_c   9.57018710
_cell_angle_alpha   59.98985590
_cell_angle_beta   59.97389200
_cell_angle_gamma   59.97389681
_symmetry_Int_Tables_number   1
_chemical_formula_structural   Ho16TlIn(AgIr2)2
_chemical_formula_sum   'Ho16 Tl1 In1 Ag2 Ir4'
_cell_volume   620.02640921
_cell_formula_units_Z   1
loop_
 _symmetry_equiv_pos_site_id
 _symmetry_equiv_pos_as_xyz
  1  'x, y, z'
loop_
 _atom_site_type_symbol
 _atom_site_label
 _atom_site_symmetry_multiplicity
 _atom_site_fract_x
 _atom_site_fract_y
 _atom_site_fract_z
 _atom_site_occupancy
  Ho  Ho0  1  0.439600  0.437855  0.055828  1
  Ho  Ho1  1  0.650142  0.648668  0.050803  1
  Ho  Ho2  1  0.189391  0.812930  0.190115  1
  Ho  Ho3  1  0.064836  0.438208  0.058004  1
  Ho  Ho4  1  0.189745  0.810989  0.810989  1
  Ho  Ho5  1  0.060619  0.436849  0.436849  1
  Ho  Ho6  1  0.810089  0.191832  0.191832  1
  Ho  Ho7  1  0.652266  0.650175  0.650175  1
  Ho  Ho8  1  0.810497  0.190994  0.809693  1
  Ho  Ho9  1  0.189391  0.190115  0.812930  1
  Ho  Ho10  1  0.050058  0.648810  0.648810  1
  Ho  Ho11  1  0.440183  0.060422  0.060422  1
  Ho  Ho12  1  0.064836  0.058004  0.438208  1
  Ho  Ho13  1  0.650142  0.050803  0.648668  1
  Ho  Ho14  1  0.810497  0.809693  0.190994  1
  Ho  Ho15  1  0.439600  0.055828  0.437855  1
  Tl  Tl16  1  0.413821  0.419711  0.419711  1
  In  In17  1  0.742769  0.421491  0.421491  1
  Ag  Ag18  1  0.416321  0.418075  0.750322  1
  Ag  Ag19  1  0.416321  0.750322  0.418075  1
  Ir  Ir20  1  0.426448  0.856976  0.856976  1
  Ir  Ir21  1  0.858243  0.857870  0.857870  1
  Ir  Ir22  1  0.857094  0.425256  0.858128  1
  Ir  Ir23  1  0.857094  0.858128  0.425256  1
