# generated using pymatgen
data_Th2Sc3SiGe3
_symmetry_space_group_name_H-M   'P 1'
_cell_length_a   7.44489800
_cell_length_b   7.53412100
_cell_length_c   14.22704200
_cell_angle_alpha   90.00000000
_cell_angle_beta   90.00000000
_cell_angle_gamma   90.00000000
_symmetry_Int_Tables_number   1
_chemical_formula_structural   Th2Sc3SiGe3
_chemical_formula_sum   'Th8 Sc12 Si4 Ge12'
_cell_volume   798.00563197
_cell_formula_units_Z   4
loop_
 _symmetry_equiv_pos_site_id
 _symmetry_equiv_pos_as_xyz
  1  'x, y, z'
loop_
 _atom_site_type_symbol
 _atom_site_label
 _atom_site_symmetry_multiplicity
 _atom_site_fract_x
 _atom_site_fract_y
 _atom_site_fract_z
 _atom_site_occupancy
  Th  Th0  1  0.008286  0.679350  0.598117  1
  Th  Th1  1  0.991714  0.320650  0.401883  1
  Th  Th2  1  0.491714  0.179350  0.401883  1
  Th  Th3  1  0.991714  0.320650  0.098117  1
  Th  Th4  1  0.508286  0.820650  0.598117  1
  Th  Th5  1  0.008286  0.679350  0.901883  1
  Th  Th6  1  0.508286  0.820650  0.901883  1
  Th  Th7  1  0.491714  0.179350  0.098117  1
  Sc  Sc8  1  0.179369  0.997036  0.750000  1
  Sc  Sc9  1  0.820631  0.002964  0.250000  1
  Sc  Sc10  1  0.320631  0.497036  0.250000  1
  Sc  Sc11  1  0.679369  0.502964  0.750000  1
  Sc  Sc12  1  0.353136  0.333940  0.625129  1
  Sc  Sc13  1  0.646864  0.666060  0.374871  1
  Sc  Sc14  1  0.146864  0.833940  0.374871  1
  Sc  Sc15  1  0.646864  0.666060  0.125129  1
  Sc  Sc16  1  0.853136  0.166060  0.625129  1
  Sc  Sc17  1  0.353136  0.333940  0.874871  1
  Sc  Sc18  1  0.853136  0.166060  0.874871  1
  Sc  Sc19  1  0.146864  0.833940  0.125129  1
  Si  Si20  1  0.313037  0.627341  0.750000  1
  Si  Si21  1  0.686963  0.372659  0.250000  1
  Si  Si22  1  0.186963  0.127341  0.250000  1
  Si  Si23  1  0.813037  0.872659  0.750000  1
  Ge  Ge24  1  0.053506  0.373191  0.750000  1
  Ge  Ge25  1  0.946494  0.626809  0.250000  1
  Ge  Ge26  1  0.446494  0.873191  0.250000  1
  Ge  Ge27  1  0.553506  0.126809  0.750000  1
  Ge  Ge28  1  0.189400  0.043888  0.543569  1
  Ge  Ge29  1  0.810600  0.956112  0.456431  1
  Ge  Ge30  1  0.310600  0.543888  0.456431  1
  Ge  Ge31  1  0.810600  0.956112  0.043569  1
  Ge  Ge32  1  0.689400  0.456112  0.543569  1
  Ge  Ge33  1  0.189400  0.043888  0.956431  1
  Ge  Ge34  1  0.689400  0.456112  0.956431  1
  Ge  Ge35  1  0.310600  0.543888  0.043569  1
