# generated using pymatgen
data_BaAs12IrRu3
_symmetry_space_group_name_H-M   'P 1'
_cell_length_a   7.50314209
_cell_length_b   7.50314121
_cell_length_c   7.50314212
_cell_angle_alpha   109.46096231
_cell_angle_beta   109.46096521
_cell_angle_gamma   109.46096979
_symmetry_Int_Tables_number   1
_chemical_formula_structural   BaAs12IrRu3
_chemical_formula_sum   'Ba1 As12 Ir1 Ru3'
_cell_volume   325.29123010
_cell_formula_units_Z   1
loop_
 _symmetry_equiv_pos_site_id
 _symmetry_equiv_pos_as_xyz
  1  'x, y, z'
loop_
 _atom_site_type_symbol
 _atom_site_label
 _atom_site_symmetry_multiplicity
 _atom_site_fract_x
 _atom_site_fract_y
 _atom_site_fract_z
 _atom_site_occupancy
  Ba  Ba0  1  0.000000  0.000000  0.000000  1
  As  As1  1  0.852046  0.649419  0.497161  1
  As  As2  1  0.147954  0.350581  0.502839  1
  As  As3  1  0.151444  0.648126  0.799623  1
  As  As4  1  0.848556  0.351874  0.200377  1
  As  As5  1  0.649419  0.497161  0.852046  1
  As  As6  1  0.350581  0.502839  0.147954  1
  As  As7  1  0.648126  0.799623  0.151444  1
  As  As8  1  0.351874  0.200377  0.848556  1
  As  As9  1  0.497161  0.852046  0.649419  1
  As  As10  1  0.502839  0.147954  0.350581  1
  As  As11  1  0.200377  0.848556  0.351874  1
  As  As12  1  0.799623  0.151444  0.648126  1
  Ir  Ir13  1  0.500000  0.500000  0.500000  1
  Ru  Ru14  1  0.500000  0.000000  0.000000  1
  Ru  Ru15  1  0.000000  0.500000  0.000000  1
  Ru  Ru16  1  0.000000  0.000000  0.500000  1
