# generated using pymatgen
data_Ta3Nb9Al4(CuN)4
_symmetry_space_group_name_H-M   'P 1'
_cell_length_a   7.00603072
_cell_length_b   7.00658789
_cell_length_c   7.00281189
_cell_angle_alpha   90.01082753
_cell_angle_beta   90.05672242
_cell_angle_gamma   89.94313751
_symmetry_Int_Tables_number   1
_chemical_formula_structural   Ta3Nb9Al4(CuN)4
_chemical_formula_sum   'Ta3 Nb9 Al4 Cu4 N4'
_cell_volume   343.75627745
_cell_formula_units_Z   1
loop_
 _symmetry_equiv_pos_site_id
 _symmetry_equiv_pos_as_xyz
  1  'x, y, z'
loop_
 _atom_site_type_symbol
 _atom_site_label
 _atom_site_symmetry_multiplicity
 _atom_site_fract_x
 _atom_site_fract_y
 _atom_site_fract_z
 _atom_site_occupancy
  Ta  Ta0  1  0.791257  0.958059  0.374487  1
  Ta  Ta1  1  0.708863  0.042159  0.873556  1
  Ta  Ta2  1  0.208453  0.457924  0.126385  1
  Nb  Nb3  1  0.290870  0.542296  0.625792  1
  Nb  Nb4  1  0.957098  0.373059  0.790496  1
  Nb  Nb5  1  0.043201  0.872154  0.710143  1
  Nb  Nb6  1  0.456780  0.126263  0.209004  1
  Nb  Nb7  1  0.542785  0.627328  0.290522  1
  Nb  Nb8  1  0.375580  0.791357  0.957960  1
  Nb  Nb9  1  0.874162  0.708242  0.042678  1
  Nb  Nb10  1  0.125160  0.208258  0.458289  1
  Nb  Nb11  1  0.624352  0.291986  0.541473  1
  Al  Al12  1  0.574229  0.426733  0.926240  1
  Al  Al13  1  0.425991  0.926605  0.573270  1
  Al  Al14  1  0.925823  0.573317  0.426396  1
  Al  Al15  1  0.073952  0.073603  0.073308  1
  Cu  Cu16  1  0.176302  0.821065  0.321434  1
  Cu  Cu17  1  0.323209  0.179021  0.822230  1
  Cu  Cu18  1  0.823058  0.319856  0.177819  1
  Cu  Cu19  1  0.678400  0.680578  0.677999  1
  N  N20  1  0.874818  0.119781  0.622809  1
  N  N21  1  0.625798  0.880743  0.122785  1
  N  N22  1  0.124196  0.620619  0.880023  1
  N  N23  1  0.375661  0.378993  0.374902  1
