# generated using pymatgen
data_Pu2(PO4)3
_symmetry_space_group_name_H-M   'P 1'
_cell_length_a   9.21724673
_cell_length_b   9.21493295
_cell_length_c   9.55008134
_cell_angle_alpha   90.11092996
_cell_angle_beta   118.66283356
_cell_angle_gamma   120.02013676
_symmetry_Int_Tables_number   1
_chemical_formula_structural   Pu2(PO4)3
_chemical_formula_sum   'Pu4 P6 O24'
_cell_volume   584.19277154
_cell_formula_units_Z   2
loop_
 _symmetry_equiv_pos_site_id
 _symmetry_equiv_pos_as_xyz
  1  'x, y, z'
loop_
 _atom_site_type_symbol
 _atom_site_label
 _atom_site_symmetry_multiplicity
 _atom_site_fract_x
 _atom_site_fract_y
 _atom_site_fract_z
 _atom_site_occupancy
  Pu  Pu0  1  0.210576  0.856899  0.066896  1
  Pu  Pu1  1  0.790900  0.644066  0.435744  1
  Pu  Pu2  1  0.209100  0.355934  0.564256  1
  Pu  Pu3  1  0.789424  0.143101  0.933104  1
  P  P4  1  0.997146  0.962407  0.247196  1
  P  P5  1  0.285027  0.535984  0.250698  1
  P  P6  1  0.286107  0.751348  0.747663  1
  P  P7  1  0.713893  0.248652  0.252337  1
  P  P8  1  0.714973  0.464016  0.749302  1
  P  P9  1  0.002854  0.037593  0.752804  1
  O  O10  1  0.295489  0.704543  0.221447  1
  O  O11  1  0.864581  0.984562  0.082943  1
  O  O12  1  0.865556  0.864842  0.603901  1
  O  O13  1  0.855132  0.806296  0.279529  1
  O  O14  1  0.134350  0.925632  0.229192  1
  O  O15  1  0.474872  0.552851  0.284264  1
  O  O16  1  0.104726  0.733990  0.589770  1
  O  O17  1  0.900836  0.627194  0.907225  1
  O  O18  1  0.281594  0.782609  0.904679  1
  O  O19  1  0.480313  0.909714  0.771304  1
  O  O20  1  0.731542  0.487741  0.595505  1
  O  O21  1  0.723435  0.419804  0.275201  1
  O  O22  1  0.276565  0.580196  0.724799  1
  O  O23  1  0.268458  0.512259  0.404495  1
  O  O24  1  0.519687  0.090286  0.228696  1
  O  O25  1  0.718406  0.217391  0.095321  1
  O  O26  1  0.099164  0.372806  0.092775  1
  O  O27  1  0.895274  0.266010  0.410230  1
  O  O28  1  0.525128  0.447149  0.715736  1
  O  O29  1  0.865650  0.074368  0.770808  1
  O  O30  1  0.144868  0.193704  0.720471  1
  O  O31  1  0.134444  0.135158  0.396099  1
  O  O32  1  0.135419  0.015438  0.917057  1
  O  O33  1  0.704511  0.295457  0.778553  1
