# generated using pymatgen
data_AcSmRh6
_symmetry_space_group_name_H-M   'P 1'
_cell_length_a   5.38480501
_cell_length_b   5.38578682
_cell_length_c   17.76187800
_cell_angle_alpha   89.99874729
_cell_angle_beta   90.00099038
_cell_angle_gamma   119.98609783
_symmetry_Int_Tables_number   1
_chemical_formula_structural   AcSmRh6
_chemical_formula_sum   'Ac3 Sm3 Rh18'
_cell_volume   446.16908774
_cell_formula_units_Z   3
loop_
 _symmetry_equiv_pos_site_id
 _symmetry_equiv_pos_as_xyz
  1  'x, y, z'
loop_
 _atom_site_type_symbol
 _atom_site_label
 _atom_site_symmetry_multiplicity
 _atom_site_fract_x
 _atom_site_fract_y
 _atom_site_fract_z
 _atom_site_occupancy
  Ac  Ac0  1  0.333391  0.666628  0.959221  1
  Ac  Ac1  1  0.333389  0.666635  0.748456  1
  Ac  Ac2  1  0.666607  0.333358  0.251539  1
  Sm  Sm3  1  0.666590  0.333389  0.044686  1
  Sm  Sm4  1  0.666600  0.333385  0.458764  1
  Sm  Sm5  1  0.333416  0.666607  0.540845  1
  Rh  Rh6  1  0.166968  0.832972  0.375608  1
  Rh  Rh7  1  0.166853  0.334174  0.375701  1
  Rh  Rh8  1  0.665837  0.833114  0.375740  1
  Rh  Rh9  1  0.833195  0.166875  0.623923  1
  Rh  Rh10  1  0.833337  0.666160  0.623818  1
  Rh  Rh11  1  0.333820  0.166698  0.623780  1
  Rh  Rh12  1  0.833490  0.166583  0.871494  1
  Rh  Rh13  1  0.833565  0.666754  0.871619  1
  Rh  Rh14  1  0.333221  0.166461  0.871655  1
  Rh  Rh15  1  0.165941  0.833985  0.127995  1
  Rh  Rh16  1  0.165867  0.332109  0.127878  1
  Rh  Rh17  1  0.667923  0.834137  0.127837  1
  Rh  Rh18  1  0.334043  0.666480  0.251264  1
  Rh  Rh19  1  0.665897  0.333603  0.747869  1
  Rh  Rh20  1  0.999476  0.000212  0.252153  1
  Rh  Rh21  1  0.000526  0.999728  0.747582  1
  Rh  Rh22  1  0.999999  0.000011  0.499660  1
  Rh  Rh23  1  0.000049  0.999940  0.000915  1
