# generated using pymatgen
data_CaFe2(CoSb6)2
_symmetry_space_group_name_H-M   'P 1'
_cell_length_a   7.94457939
_cell_length_b   7.96310957
_cell_length_c   7.96311020
_cell_angle_alpha   109.55643588
_cell_angle_beta   109.47533089
_cell_angle_gamma   109.47621254
_symmetry_Int_Tables_number   1
_chemical_formula_structural   CaFe2(CoSb6)2
_chemical_formula_sum   'Ca1 Fe2 Co2 Sb12'
_cell_volume   387.35366428
_cell_formula_units_Z   1
loop_
 _symmetry_equiv_pos_site_id
 _symmetry_equiv_pos_as_xyz
  1  'x, y, z'
loop_
 _atom_site_type_symbol
 _atom_site_label
 _atom_site_symmetry_multiplicity
 _atom_site_fract_x
 _atom_site_fract_y
 _atom_site_fract_z
 _atom_site_occupancy
  Ca  Ca0  1  0.000000  0.000000  0.000000  1
  Fe  Fe1  1  0.500000  0.500000  0.500000  1
  Fe  Fe2  1  0.500000  0.000000  0.000000  1
  Co  Co3  1  0.000000  0.000000  0.500000  1
  Co  Co4  1  0.000000  0.500000  0.000000  1
  Sb  Sb5  1  0.336226  0.173288  0.839707  1
  Sb  Sb6  1  0.162382  0.335728  0.496455  1
  Sb  Sb7  1  0.663774  0.826712  0.160293  1
  Sb  Sb8  1  0.336226  0.496519  0.162938  1
  Sb  Sb9  1  0.663774  0.503481  0.837062  1
  Sb  Sb10  1  0.503843  0.837180  0.666663  1
  Sb  Sb11  1  0.837618  0.664272  0.503545  1
  Sb  Sb12  1  0.837618  0.334072  0.173345  1
  Sb  Sb13  1  0.175521  0.839457  0.336064  1
  Sb  Sb14  1  0.496157  0.162820  0.333337  1
  Sb  Sb15  1  0.824479  0.160543  0.663936  1
  Sb  Sb16  1  0.162382  0.665928  0.826655  1
