# generated using pymatgen
data_EuCoNi4P3
_symmetry_space_group_name_H-M   'P 1'
_cell_length_a   6.12109901
_cell_length_b   6.12109868
_cell_length_c   11.54257900
_cell_angle_alpha   90.00000000
_cell_angle_beta   90.00000000
_cell_angle_gamma   146.00268643
_symmetry_Int_Tables_number   1
_chemical_formula_structural   EuCoNi4P3
_chemical_formula_sum   'Eu2 Co2 Ni8 P6'
_cell_volume   241.82049258
_cell_formula_units_Z   2
loop_
 _symmetry_equiv_pos_site_id
 _symmetry_equiv_pos_as_xyz
  1  'x, y, z'
loop_
 _atom_site_type_symbol
 _atom_site_label
 _atom_site_symmetry_multiplicity
 _atom_site_fract_x
 _atom_site_fract_y
 _atom_site_fract_z
 _atom_site_occupancy
  Eu  Eu0  1  0.158139  0.841861  0.249039  1
  Eu  Eu1  1  0.841861  0.158139  0.749039  1
  Co  Co2  1  0.196012  0.803988  0.936236  1
  Co  Co3  1  0.803988  0.196012  0.436236  1
  Ni  Ni4  1  0.995358  0.004642  0.995805  1
  Ni  Ni5  1  0.004642  0.995358  0.495805  1
  Ni  Ni6  1  0.552308  0.447692  0.643504  1
  Ni  Ni7  1  0.447983  0.552017  0.354285  1
  Ni  Ni8  1  0.447692  0.552308  0.143504  1
  Ni  Ni9  1  0.199984  0.800016  0.571523  1
  Ni  Ni10  1  0.800016  0.199984  0.071523  1
  Ni  Ni11  1  0.552017  0.447983  0.854285  1
  P  P12  1  0.621939  0.378061  0.459369  1
  P  P13  1  0.119873  0.880127  0.753002  1
  P  P14  1  0.617996  0.382004  0.037240  1
  P  P15  1  0.378061  0.621939  0.959369  1
  P  P16  1  0.880127  0.119873  0.253002  1
  P  P17  1  0.382004  0.617996  0.537240  1
