# generated using pymatgen
data_MnVSbF12
_symmetry_space_group_name_H-M   'P 1'
_cell_length_a   5.26234463
_cell_length_b   5.56464649
_cell_length_c   9.14981808
_cell_angle_alpha   73.85767011
_cell_angle_beta   88.68627464
_cell_angle_gamma   62.34458232
_symmetry_Int_Tables_number   1
_chemical_formula_structural   MnVSbF12
_chemical_formula_sum   'Mn1 V1 Sb1 F12'
_cell_volume   226.18786916
_cell_formula_units_Z   1
loop_
 _symmetry_equiv_pos_site_id
 _symmetry_equiv_pos_as_xyz
  1  'x, y, z'
loop_
 _atom_site_type_symbol
 _atom_site_label
 _atom_site_symmetry_multiplicity
 _atom_site_fract_x
 _atom_site_fract_y
 _atom_site_fract_z
 _atom_site_occupancy
  Mn  Mn0  1  0.494166  0.505102  0.491636  1
  V  V1  1  0.772920  0.005093  0.239181  1
  Sb  Sb2  1  0.227843  0.995021  0.760199  1
  F  F3  1  0.939227  0.222386  0.203774  1
  F  F4  1  0.050742  0.759984  0.796538  1
  F  F5  1  0.004795  0.771104  0.142732  1
  F  F6  1  0.469393  0.774958  0.628633  1
  F  F7  1  0.543647  0.219727  0.366813  1
  F  F8  1  0.950600  0.240186  0.572240  1
  F  F9  1  0.046943  0.767527  0.419744  1
  F  F10  1  0.407657  0.239706  0.686785  1
  F  F11  1  0.601132  0.769612  0.312736  1
  F  F12  1  0.517137  0.771712  0.929464  1
  F  F13  1  0.498531  0.214220  0.085121  1
  F  F14  1  0.975268  0.243662  0.864403  1
