# generated using pymatgen
data_CeSmY(InRh)3
_symmetry_space_group_name_H-M   'P 1'
_cell_length_a   7.55368902
_cell_length_b   7.55056750
_cell_length_c   3.92711500
_cell_angle_alpha   90.00000000
_cell_angle_beta   90.00000000
_cell_angle_gamma   117.92696947
_symmetry_Int_Tables_number   1
_chemical_formula_structural   CeSmY(InRh)3
_chemical_formula_sum   'Ce1 Sm1 Y1 In3 Rh3'
_cell_volume   197.89787154
_cell_formula_units_Z   1
loop_
 _symmetry_equiv_pos_site_id
 _symmetry_equiv_pos_as_xyz
  1  'x, y, z'
loop_
 _atom_site_type_symbol
 _atom_site_label
 _atom_site_symmetry_multiplicity
 _atom_site_fract_x
 _atom_site_fract_y
 _atom_site_fract_z
 _atom_site_occupancy
  Ce  Ce0  1  0.417030  0.417573  0.500000  1
  Sm  Sm1  1  0.998673  0.591931  0.500000  1
  Y  Y2  1  0.592517  0.000022  0.500000  1
  In  In3  1  0.990353  0.252229  0.000000  1
  In  In4  1  0.258413  0.993648  0.000000  1
  In  In5  1  0.752926  0.756829  0.000000  1
  Rh  Rh6  1  0.335503  0.644788  0.000000  1
  Rh  Rh7  1  0.008267  0.006129  0.500000  1
  Rh  Rh8  1  0.646317  0.336851  0.000000  1
