# generated using pymatgen
data_Pa4Tl2Se4O19
_symmetry_space_group_name_H-M   'P 1'
_cell_length_a   4.22910538
_cell_length_b   11.17590510
_cell_length_c   12.00299100
_cell_angle_alpha   107.21160804
_cell_angle_beta   90.52919111
_cell_angle_gamma   96.38530428
_symmetry_Int_Tables_number   1
_chemical_formula_structural   Pa4Tl2Se4O19
_chemical_formula_sum   'Pa4 Tl2 Se4 O19'
_cell_volume   538.01257630
_cell_formula_units_Z   1
loop_
 _symmetry_equiv_pos_site_id
 _symmetry_equiv_pos_as_xyz
  1  'x, y, z'
loop_
 _atom_site_type_symbol
 _atom_site_label
 _atom_site_symmetry_multiplicity
 _atom_site_fract_x
 _atom_site_fract_y
 _atom_site_fract_z
 _atom_site_occupancy
  Pa  Pa0  1  0.386493  0.183483  0.702388  1
  Pa  Pa1  1  0.613507  0.816517  0.297612  1
  Pa  Pa2  1  0.523292  0.556518  0.684192  1
  Pa  Pa3  1  0.476708  0.443482  0.315808  1
  Tl  Tl4  1  0.799470  0.941722  0.861601  1
  Tl  Tl5  1  0.200530  0.058278  0.138399  1
  Se  Se6  1  0.336547  0.825464  0.581814  1
  Se  Se7  1  0.663453  0.174536  0.418186  1
  Se  Se8  1  0.307568  0.710766  0.985156  1
  Se  Se9  1  0.692432  0.289234  0.014844  1
  O  O10  1  0.624378  0.870164  0.495686  1
  O  O11  1  0.375622  0.129836  0.504314  1
  O  O12  1  0.305797  0.969556  0.684395  1
  O  O13  1  0.694203  0.030444  0.315605  1
  O  O14  1  0.564924  0.759850  0.662909  1
  O  O15  1  0.435076  0.240150  0.337091  1
  O  O16  1  0.571215  0.644981  0.880014  1
  O  O17  1  0.428785  0.355019  0.119986  1
  O  O18  1  0.586615  0.771376  0.104269  1
  O  O19  1  0.413385  0.228624  0.895731  1
  O  O20  1  0.254213  0.843746  0.951533  1
  O  O21  1  0.745787  0.156254  0.048467  1
  O  O22  1  0.883070  0.177949  0.702385  1
  O  O23  1  0.116930  0.822051  0.297615  1
  O  O24  1  0.460002  0.370135  0.703634  1
  O  O25  1  0.539998  0.629865  0.296366  1
  O  O26  1  0.500000  0.500000  0.500000  1
  O  O27  1  0.029301  0.568527  0.691742  1
  O  O28  1  0.970699  0.431473  0.308258  1
