# generated using pymatgen
data_Ta7Nb3Al5
_symmetry_space_group_name_H-M   'P 1'
_cell_length_a   9.98279290
_cell_length_b   9.98199600
_cell_length_c   5.19947654
_cell_angle_alpha   90.00000000
_cell_angle_beta   89.88664622
_cell_angle_gamma   90.00000000
_symmetry_Int_Tables_number   1
_chemical_formula_structural   Ta7Nb3Al5
_chemical_formula_sum   'Ta14 Nb6 Al10'
_cell_volume   518.11745749
_cell_formula_units_Z   2
loop_
 _symmetry_equiv_pos_site_id
 _symmetry_equiv_pos_as_xyz
  1  'x, y, z'
loop_
 _atom_site_type_symbol
 _atom_site_label
 _atom_site_symmetry_multiplicity
 _atom_site_fract_x
 _atom_site_fract_y
 _atom_site_fract_z
 _atom_site_occupancy
  Ta  Ta0  1  0.397733  0.397073  0.999619  1
  Ta  Ta1  1  0.897733  0.102927  0.499619  1
  Ta  Ta2  1  0.102300  0.898312  0.499723  1
  Ta  Ta3  1  0.602300  0.601688  0.999723  1
  Ta  Ta4  1  0.128189  0.464001  0.001032  1
  Ta  Ta5  1  0.964497  0.371495  0.499854  1
  Ta  Ta6  1  0.035628  0.628074  0.500170  1
  Ta  Ta7  1  0.871610  0.535002  0.999046  1
  Ta  Ta8  1  0.371610  0.964998  0.499046  1
  Ta  Ta9  1  0.628189  0.035999  0.501032  1
  Ta  Ta10  1  0.464497  0.128505  0.999854  1
  Ta  Ta11  1  0.535628  0.871926  0.000170  1
  Ta  Ta12  1  0.181890  0.181886  0.252258  1
  Ta  Ta13  1  0.681890  0.318114  0.752258  1
  Nb  Nb14  1  0.318642  0.681308  0.752112  1
  Nb  Nb15  1  0.818642  0.818692  0.252112  1
  Nb  Nb16  1  0.318329  0.681222  0.247793  1
  Nb  Nb17  1  0.681263  0.318422  0.248117  1
  Nb  Nb18  1  0.181263  0.181578  0.748117  1
  Nb  Nb19  1  0.818329  0.818778  0.747793  1
  Al  Al20  1  0.000068  0.999982  0.999917  1
  Al  Al21  1  0.500068  0.500018  0.499917  1
  Al  Al22  1  0.262112  0.933761  0.999987  1
  Al  Al23  1  0.433453  0.237956  0.500182  1
  Al  Al24  1  0.566357  0.762142  0.499998  1
  Al  Al25  1  0.737930  0.066655  0.000192  1
  Al  Al26  1  0.237930  0.433345  0.500192  1
  Al  Al27  1  0.762112  0.566239  0.499987  1
  Al  Al28  1  0.933453  0.262044  0.000182  1
  Al  Al29  1  0.066357  0.737858  0.999998  1
