# generated using pymatgen
data_CaAcAg4
_symmetry_space_group_name_H-M   'P 1'
_cell_length_a   6.13758875
_cell_length_b   6.13758941
_cell_length_c   6.13758962
_cell_angle_alpha   133.58049616
_cell_angle_beta   103.06658271
_cell_angle_gamma   94.84979440
_symmetry_Int_Tables_number   1
_chemical_formula_structural   CaAcAg4
_chemical_formula_sum   'Ca1 Ac1 Ag4'
_cell_volume   153.38891648
_cell_formula_units_Z   1
loop_
 _symmetry_equiv_pos_site_id
 _symmetry_equiv_pos_as_xyz
  1  'x, y, z'
loop_
 _atom_site_type_symbol
 _atom_site_label
 _atom_site_symmetry_multiplicity
 _atom_site_fract_x
 _atom_site_fract_y
 _atom_site_fract_z
 _atom_site_occupancy
  Ca  Ca0  1  0.706213  0.456213  0.250000  1
  Ac  Ac1  1  0.294576  0.544576  0.750000  1
  Ag  Ag2  1  0.288132  0.835926  0.452205  1
  Ag  Ag3  1  0.717089  0.163679  0.553410  1
  Ag  Ag4  1  0.110270  0.163679  0.946590  1
  Ag  Ag5  1  0.883721  0.835926  0.047795  1
