# generated using pymatgen
data_Hf3AlGa2Pd2Rh
_symmetry_space_group_name_H-M   'P 1'
_cell_length_a   7.24038337
_cell_length_b   7.30702191
_cell_length_c   3.39311600
_cell_angle_alpha   90.00000000
_cell_angle_beta   90.00000000
_cell_angle_gamma   119.73519377
_symmetry_Int_Tables_number   1
_chemical_formula_structural   Hf3AlGa2Pd2Rh
_chemical_formula_sum   'Hf3 Al1 Ga2 Pd2 Rh1'
_cell_volume   155.87770119
_cell_formula_units_Z   1
loop_
 _symmetry_equiv_pos_site_id
 _symmetry_equiv_pos_as_xyz
  1  'x, y, z'
loop_
 _atom_site_type_symbol
 _atom_site_label
 _atom_site_symmetry_multiplicity
 _atom_site_fract_x
 _atom_site_fract_y
 _atom_site_fract_z
 _atom_site_occupancy
  Hf  Hf0  1  0.398253  0.009589  0.500000  1
  Hf  Hf1  1  0.990875  0.394102  0.500000  1
  Hf  Hf2  1  0.605926  0.596147  0.500000  1
  Al  Al3  1  0.731886  0.996687  0.000000  1
  Ga  Ga4  1  0.000685  0.729323  0.000000  1
  Ga  Ga5  1  0.268484  0.274411  0.000000  1
  Pd  Pd6  1  0.338644  0.671016  0.000000  1
  Pd  Pd7  1  0.997872  0.000375  0.500000  1
  Rh  Rh8  1  0.667374  0.328350  0.000000  1
