# generated using pymatgen
data_La2PrCd3IrPd2
_symmetry_space_group_name_H-M   'P 1'
_cell_length_a   7.74598235
_cell_length_b   7.83440768
_cell_length_c   4.08809700
_cell_angle_alpha   90.00000000
_cell_angle_beta   90.00000000
_cell_angle_gamma   119.74789707
_symmetry_Int_Tables_number   1
_chemical_formula_structural   La2PrCd3IrPd2
_chemical_formula_sum   'La2 Pr1 Cd3 Ir1 Pd2'
_cell_volume   215.39328550
_cell_formula_units_Z   1
loop_
 _symmetry_equiv_pos_site_id
 _symmetry_equiv_pos_as_xyz
  1  'x, y, z'
loop_
 _atom_site_type_symbol
 _atom_site_label
 _atom_site_symmetry_multiplicity
 _atom_site_fract_x
 _atom_site_fract_y
 _atom_site_fract_z
 _atom_site_occupancy
  La  La0  1  0.419403  0.403471  0.500000  1
  La  La1  1  0.983843  0.580634  0.500000  1
  Pr  Pr2  1  0.598587  0.012937  0.500000  1
  Cd  Cd3  1  0.747477  0.753106  0.000000  1
  Cd  Cd4  1  0.249934  0.996116  0.000000  1
  Cd  Cd5  1  0.001751  0.250013  0.000000  1
  Ir  Ir6  1  0.667072  0.337618  0.000000  1
  Pd  Pd7  1  0.999799  0.000028  0.500000  1
  Pd  Pd8  1  0.332133  0.666076  0.000000  1
