# generated using pymatgen
data_Lu5ZrBi2Mo
_symmetry_space_group_name_H-M   'P 1'
_cell_length_a   8.07911900
_cell_length_b   8.09716760
_cell_length_c   4.26592800
_cell_angle_alpha   90.00000000
_cell_angle_beta   90.00000000
_cell_angle_gamma   119.92629665
_symmetry_Int_Tables_number   1
_chemical_formula_structural   Lu5ZrBi2Mo
_chemical_formula_sum   'Lu5 Zr1 Bi2 Mo1'
_cell_volume   241.85961172
_cell_formula_units_Z   1
loop_
 _symmetry_equiv_pos_site_id
 _symmetry_equiv_pos_as_xyz
  1  'x, y, z'
loop_
 _atom_site_type_symbol
 _atom_site_label
 _atom_site_symmetry_multiplicity
 _atom_site_fract_x
 _atom_site_fract_y
 _atom_site_fract_z
 _atom_site_occupancy
  Lu  Lu0  1  0.003270  0.236027  0.500000  1
  Lu  Lu1  1  0.767243  0.763973  0.500000  1
  Lu  Lu2  1  0.606819  0.000000  0.000000  1
  Lu  Lu3  1  0.004955  0.617787  0.000000  1
  Lu  Lu4  1  0.387168  0.382213  0.000000  1
  Zr  Zr5  1  0.226895  0.000000  0.500000  1
  Bi  Bi6  1  0.333402  0.669768  0.500000  1
  Bi  Bi7  1  0.663635  0.330232  0.500000  1
  Mo  Mo8  1  0.006614  0.000000  0.000000  1
