# generated using pymatgen
data_Ho2Fe3B8Os5
_symmetry_space_group_name_H-M   'P 1'
_cell_length_a   7.32003973
_cell_length_b   7.25535291
_cell_length_c   3.98075380
_cell_angle_alpha   90.25635560
_cell_angle_beta   90.22460383
_cell_angle_gamma   90.83527867
_symmetry_Int_Tables_number   1
_chemical_formula_structural   Ho2Fe3B8Os5
_chemical_formula_sum   'Ho2 Fe3 B8 Os5'
_cell_volume   211.38947016
_cell_formula_units_Z   1
loop_
 _symmetry_equiv_pos_site_id
 _symmetry_equiv_pos_as_xyz
  1  'x, y, z'
loop_
 _atom_site_type_symbol
 _atom_site_label
 _atom_site_symmetry_multiplicity
 _atom_site_fract_x
 _atom_site_fract_y
 _atom_site_fract_z
 _atom_site_occupancy
  Ho  Ho0  1  0.996728  0.002055  0.911822  1
  Ho  Ho1  1  0.507900  0.497440  0.380907  1
  Fe  Fe2  1  0.877269  0.624590  0.631084  1
  Fe  Fe3  1  0.114111  0.625400  0.130205  1
  Fe  Fe4  1  0.875118  0.387644  0.128723  1
  B  B5  1  0.816096  0.661119  0.125967  1
  B  B6  1  0.194028  0.335378  0.125174  1
  B  B7  1  0.836084  0.319716  0.624576  1
  B  B8  1  0.153506  0.687753  0.627810  1
  B  B9  1  0.728793  0.824064  0.402137  1
  B  B10  1  0.277516  0.168343  0.397770  1
  B  B11  1  0.676565  0.229785  0.904095  1
  B  B12  1  0.320776  0.774205  0.899816  1
  Os  Os13  1  0.396409  0.150254  0.896483  1
  Os  Os14  1  0.608147  0.839149  0.895087  1
  Os  Os15  1  0.342723  0.885209  0.394113  1
  Os  Os16  1  0.658267  0.106140  0.396661  1
  Os  Os17  1  0.119964  0.381755  0.627566  1
