# generated using pymatgen
data_CsAcSe2
_symmetry_space_group_name_H-M   'P 1'
_cell_length_a   4.64227700
_cell_length_b   4.64227741
_cell_length_c   16.89927100
_cell_angle_alpha   90.00000000
_cell_angle_beta   90.00000000
_cell_angle_gamma   120.00000419
_symmetry_Int_Tables_number   1
_chemical_formula_structural   CsAcSe2
_chemical_formula_sum   'Cs2 Ac2 Se4'
_cell_volume   315.39929912
_cell_formula_units_Z   2
loop_
 _symmetry_equiv_pos_site_id
 _symmetry_equiv_pos_as_xyz
  1  'x, y, z'
loop_
 _atom_site_type_symbol
 _atom_site_label
 _atom_site_symmetry_multiplicity
 _atom_site_fract_x
 _atom_site_fract_y
 _atom_site_fract_z
 _atom_site_occupancy
  Cs  Cs0  1  0.666667  0.333333  0.750000  1
  Cs  Cs1  1  0.333333  0.666667  0.250000  1
  Ac  Ac2  1  0.000000  0.000000  0.000000  1
  Ac  Ac3  1  0.000000  0.000000  0.500000  1
  Se  Se4  1  0.333333  0.666667  0.902093  1
  Se  Se5  1  0.666667  0.333333  0.402093  1
  Se  Se6  1  0.333333  0.666667  0.597907  1
  Se  Se7  1  0.666667  0.333333  0.097907  1
