# generated using pymatgen
data_TbPrHo4CoCl10
_symmetry_space_group_name_H-M   'P 1'
_cell_length_a   7.09610823
_cell_length_b   8.87718455
_cell_length_c   8.88301698
_cell_angle_alpha   108.71895658
_cell_angle_beta   95.84306593
_cell_angle_gamma   107.04202705
_symmetry_Int_Tables_number   1
_chemical_formula_structural   TbPrHo4CoCl10
_chemical_formula_sum   'Tb1 Pr1 Ho4 Co1 Cl10'
_cell_volume   494.70722744
_cell_formula_units_Z   1
loop_
 _symmetry_equiv_pos_site_id
 _symmetry_equiv_pos_as_xyz
  1  'x, y, z'
loop_
 _atom_site_type_symbol
 _atom_site_label
 _atom_site_symmetry_multiplicity
 _atom_site_fract_x
 _atom_site_fract_y
 _atom_site_fract_z
 _atom_site_occupancy
  Tb  Tb0  1  0.368733  0.948679  0.236324  1
  Pr  Pr1  1  0.634719  0.053169  0.756190  1
  Ho  Ho2  1  0.864716  0.141814  0.185931  1
  Ho  Ho3  1  0.135364  0.857637  0.813714  1
  Ho  Ho4  1  0.523233  0.694778  0.899667  1
  Ho  Ho5  1  0.475756  0.305993  0.104532  1
  Co  Co6  1  0.500663  0.000906  0.999384  1
  Cl  Cl7  1  0.744418  0.080017  0.443440  1
  Cl  Cl8  1  0.241959  0.914605  0.544197  1
  Cl  Cl9  1  0.951305  0.829337  0.077162  1
  Cl  Cl10  1  0.059720  0.174740  0.929580  1
  Cl  Cl11  1  0.286763  0.252193  0.344504  1
  Cl  Cl12  1  0.715728  0.735767  0.657533  1
  Cl  Cl13  1  0.585851  0.381393  0.844620  1
  Cl  Cl14  1  0.410401  0.629435  0.163081  1
  Cl  Cl15  1  0.853712  0.453636  0.275605  1
  Cl  Cl16  1  0.146958  0.545902  0.724536  1
