# generated using pymatgen
data_U8Ta11Si16Ru
_symmetry_space_group_name_H-M   'P 1'
_cell_length_a   6.99280969
_cell_length_b   7.00194021
_cell_length_c   12.93375529
_cell_angle_alpha   89.92292604
_cell_angle_beta   90.05871206
_cell_angle_gamma   90.01048860
_symmetry_Int_Tables_number   1
_chemical_formula_structural   U8Ta11Si16Ru
_chemical_formula_sum   'U8 Ta11 Si16 Ru1'
_cell_volume   633.27758788
_cell_formula_units_Z   1
loop_
 _symmetry_equiv_pos_site_id
 _symmetry_equiv_pos_as_xyz
  1  'x, y, z'
loop_
 _atom_site_type_symbol
 _atom_site_label
 _atom_site_symmetry_multiplicity
 _atom_site_fract_x
 _atom_site_fract_y
 _atom_site_fract_z
 _atom_site_occupancy
  U  U0  1  0.996435  0.334213  0.221367  1
  U  U1  1  0.007993  0.671599  0.717267  1
  U  U2  1  0.166520  0.498485  0.469318  1
  U  U3  1  0.503808  0.831004  0.033655  1
  U  U4  1  0.829694  0.506062  0.969656  1
  U  U5  1  0.495491  0.166199  0.528993  1
  U  U6  1  0.328485  0.992827  0.779444  1
  U  U7  1  0.670574  0.004647  0.279312  1
  Ta  Ta8  1  0.167771  0.166516  0.001050  1
  Ta  Ta9  1  0.830034  0.833085  0.500133  1
  Ta  Ta10  1  0.329462  0.665073  0.249296  1
  Ta  Ta11  1  0.667989  0.331244  0.749391  1
  Ta  Ta12  1  0.843600  0.001639  0.873905  1
  Ta  Ta13  1  0.495750  0.658542  0.623621  1
  Ta  Ta14  1  0.344185  0.499272  0.876019  1
  Ta  Ta15  1  0.495940  0.338320  0.125179  1
  Ta  Ta16  1  0.658999  0.498233  0.375507  1
  Ta  Ta17  1  0.997624  0.157434  0.627547  1
  Ta  Ta18  1  0.996692  0.839603  0.122772  1
  Si  Si19  1  0.292303  0.035078  0.188630  1
  Si  Si20  1  0.701067  0.960090  0.683915  1
  Si  Si21  1  0.459757  0.796575  0.432479  1
  Si  Si22  1  0.202274  0.537551  0.065110  1
  Si  Si23  1  0.538345  0.200393  0.934430  1
  Si  Si24  1  0.794741  0.460687  0.565313  1
  Si  Si25  1  0.040214  0.299206  0.816011  1
  Si  Si26  1  0.965572  0.716783  0.316159  1
  Si  Si27  1  0.370788  0.291892  0.317111  1
  Si  Si28  1  0.629444  0.706920  0.815453  1
  Si  Si29  1  0.203301  0.873024  0.562291  1
  Si  Si30  1  0.129495  0.793385  0.933650  1
  Si  Si31  1  0.793349  0.129947  0.066989  1
  Si  Si32  1  0.880523  0.200597  0.434050  1
  Si  Si33  1  0.293737  0.369617  0.683163  1
  Si  Si34  1  0.705797  0.624727  0.184789  1
  Ru  Ru35  1  0.172248  0.009528  0.377025  1
