# generated using pymatgen
data_Tb7Sm2Ho(In2Pd)4
_symmetry_space_group_name_H-M   'P 1'
_cell_length_a   3.64439100
_cell_length_b   8.20503705
_cell_length_c   18.42690112
_cell_angle_alpha   89.98715171
_cell_angle_beta   90.00000000
_cell_angle_gamma   90.00000000
_symmetry_Int_Tables_number   1
_chemical_formula_structural   Tb7Sm2Ho(In2Pd)4
_chemical_formula_sum   'Tb7 Sm2 Ho1 In8 Pd4'
_cell_volume   551.00787569
_cell_formula_units_Z   1
loop_
 _symmetry_equiv_pos_site_id
 _symmetry_equiv_pos_as_xyz
  1  'x, y, z'
loop_
 _atom_site_type_symbol
 _atom_site_label
 _atom_site_symmetry_multiplicity
 _atom_site_fract_x
 _atom_site_fract_y
 _atom_site_fract_z
 _atom_site_occupancy
  Tb  Tb0  1  0.000000  0.739637  0.280694  1
  Tb  Tb1  1  0.000000  0.260488  0.719405  1
  Tb  Tb2  1  0.000000  0.760481  0.780618  1
  Tb  Tb3  1  0.000000  0.239408  0.219449  1
  Tb  Tb4  1  0.000000  0.617804  0.083371  1
  Tb  Tb5  1  0.000000  0.382178  0.916670  1
  Tb  Tb6  1  0.000000  0.882192  0.583275  1
  Sm  Sm7  1  0.000000  0.499962  0.499991  1
  Sm  Sm8  1  0.000000  0.999967  0.000013  1
  Ho  Ho9  1  0.000000  0.117432  0.416161  1
  In  In10  1  0.500000  0.706189  0.931189  1
  In  In11  1  0.500000  0.293792  0.068812  1
  In  In12  1  0.500000  0.794527  0.431189  1
  In  In13  1  0.500000  0.206064  0.568580  1
  In  In14  1  0.500000  0.581455  0.651330  1
  In  In15  1  0.500000  0.418002  0.348779  1
  In  In16  1  0.500000  0.918626  0.151373  1
  In  In17  1  0.500000  0.081402  0.848673  1
  Pd  Pd18  1  0.500000  0.523377  0.196012  1
  Pd  Pd19  1  0.500000  0.476592  0.803984  1
  Pd  Pd20  1  0.500000  0.976636  0.696000  1
  Pd  Pd21  1  0.500000  0.023791  0.304433  1
