# generated using pymatgen
data_V4TcMoOs2
_symmetry_space_group_name_H-M   'P 1'
_cell_length_a   6.08895300
_cell_length_b   4.28510000
_cell_length_c   8.55743000
_cell_angle_alpha   90.00000000
_cell_angle_beta   89.99953041
_cell_angle_gamma   90.00000000
_symmetry_Int_Tables_number   1
_chemical_formula_structural   V4TcMoOs2
_chemical_formula_sum   'V8 Tc2 Mo2 Os4'
_cell_volume   223.27851674
_cell_formula_units_Z   2
loop_
 _symmetry_equiv_pos_site_id
 _symmetry_equiv_pos_as_xyz
  1  'x, y, z'
loop_
 _atom_site_type_symbol
 _atom_site_label
 _atom_site_symmetry_multiplicity
 _atom_site_fract_x
 _atom_site_fract_y
 _atom_site_fract_z
 _atom_site_occupancy
  V  V0  1  0.999726  0.750001  0.125098  1
  V  V1  1  0.500291  0.750001  0.125128  1
  V  V2  1  0.000293  0.250001  0.374911  1
  V  V3  1  0.499732  0.250001  0.374929  1
  V  V4  1  0.500258  0.750001  0.624527  1
  V  V5  1  0.999727  0.750001  0.624558  1
  V  V6  1  0.499719  0.250001  0.875393  1
  V  V7  1  0.000262  0.250001  0.875416  1
  Tc  Tc8  1  0.750002  0.250001  0.625461  1
  Tc  Tc9  1  0.249996  0.750001  0.874480  1
  Mo  Mo10  1  0.749978  0.250001  0.124481  1
  Mo  Mo11  1  0.250018  0.750001  0.375606  1
  Os  Os12  1  0.250029  0.250001  0.123109  1
  Os  Os13  1  0.750015  0.750001  0.376934  1
  Os  Os14  1  0.249981  0.250001  0.626857  1
  Os  Os15  1  0.749972  0.750001  0.873109  1
