# generated using pymatgen
data_Dy3Er(CuSi3)2
_symmetry_space_group_name_H-M   'P 1'
_cell_length_a   8.00582645
_cell_length_b   7.98264269
_cell_length_c   5.67905239
_cell_angle_alpha   69.41330275
_cell_angle_beta   68.97600413
_cell_angle_gamma   41.61069196
_symmetry_Int_Tables_number   1
_chemical_formula_structural   Dy3Er(CuSi3)2
_chemical_formula_sum   'Dy3 Er1 Cu2 Si6'
_cell_volume   222.92342274
_cell_formula_units_Z   1
loop_
 _symmetry_equiv_pos_site_id
 _symmetry_equiv_pos_as_xyz
  1  'x, y, z'
loop_
 _atom_site_type_symbol
 _atom_site_label
 _atom_site_symmetry_multiplicity
 _atom_site_fract_x
 _atom_site_fract_y
 _atom_site_fract_z
 _atom_site_occupancy
  Dy  Dy0  1  0.256635  0.743365  0.256636  1
  Dy  Dy1  1  0.743364  0.256636  0.743365  1
  Dy  Dy2  1  0.749999  0.750001  0.750000  1
  Er  Er3  1  0.249999  0.250001  0.250000  1
  Cu  Cu4  1  0.833218  0.833218  0.166782  1
  Cu  Cu5  1  0.166782  0.166782  0.833218  1
  Si  Si6  1  0.840000  0.328897  0.160133  1
  Si  Si7  1  0.670971  0.160133  0.328897  1
  Si  Si8  1  0.668600  0.668601  0.331400  1
  Si  Si9  1  0.331399  0.331400  0.668601  1
  Si  Si10  1  0.328897  0.839999  0.670971  1
  Si  Si11  1  0.160133  0.670971  0.839999  1
