# generated using pymatgen
data_Ho4Nb2Os5Ru
_symmetry_space_group_name_H-M   'P 1'
_cell_length_a   5.62413569
_cell_length_b   5.48983322
_cell_length_c   8.45651800
_cell_angle_alpha   90.00000000
_cell_angle_beta   90.00000000
_cell_angle_gamma   119.21450293
_symmetry_Int_Tables_number   1
_chemical_formula_structural   Ho4Nb2Os5Ru
_chemical_formula_sum   'Ho4 Nb2 Os5 Ru1'
_cell_volume   227.88751886
_cell_formula_units_Z   1
loop_
 _symmetry_equiv_pos_site_id
 _symmetry_equiv_pos_as_xyz
  1  'x, y, z'
loop_
 _atom_site_type_symbol
 _atom_site_label
 _atom_site_symmetry_multiplicity
 _atom_site_fract_x
 _atom_site_fract_y
 _atom_site_fract_z
 _atom_site_occupancy
  Ho  Ho0  1  0.665737  0.332882  0.565754  1
  Ho  Ho1  1  0.335932  0.667961  0.434166  1
  Ho  Ho2  1  0.335932  0.667961  0.065834  1
  Ho  Ho3  1  0.665737  0.332882  0.934246  1
  Nb  Nb4  1  0.000146  0.000076  0.498865  1
  Nb  Nb5  1  0.000146  0.000076  0.001135  1
  Os  Os6  1  0.172545  0.352827  0.750000  1
  Os  Os7  1  0.172584  0.819706  0.750000  1
  Os  Os8  1  0.663869  0.831970  0.750000  1
  Os  Os9  1  0.827365  0.645115  0.250000  1
  Os  Os10  1  0.827367  0.182243  0.250000  1
  Ru  Ru11  1  0.332641  0.166301  0.250000  1
