# generated using pymatgen
data_Y15Ho5Si15Ag
_symmetry_space_group_name_H-M   'P 1'
_cell_length_a   7.46830862
_cell_length_b   7.69680125
_cell_length_c   14.67982516
_cell_angle_alpha   90.22167402
_cell_angle_beta   90.67223067
_cell_angle_gamma   90.16107496
_symmetry_Int_Tables_number   1
_chemical_formula_structural   Y15Ho5Si15Ag
_chemical_formula_sum   'Y15 Ho5 Si15 Ag1'
_cell_volume   843.75915310
_cell_formula_units_Z   1
loop_
 _symmetry_equiv_pos_site_id
 _symmetry_equiv_pos_as_xyz
  1  'x, y, z'
loop_
 _atom_site_type_symbol
 _atom_site_label
 _atom_site_symmetry_multiplicity
 _atom_site_fract_x
 _atom_site_fract_y
 _atom_site_fract_z
 _atom_site_occupancy
  Y  Y0  1  0.817253  0.678654  0.121660  1
  Y  Y1  1  0.681215  0.178861  0.877835  1
  Y  Y2  1  0.176276  0.320916  0.623077  1
  Y  Y3  1  0.523897  0.675428  0.602021  1
  Y  Y4  1  0.028918  0.816382  0.901236  1
  Y  Y5  1  0.469372  0.318515  0.098654  1
  Y  Y6  1  0.979639  0.184695  0.398460  1
  Y  Y7  1  0.471890  0.325835  0.399854  1
  Y  Y8  1  0.970305  0.183075  0.098308  1
  Y  Y9  1  0.531117  0.682640  0.899607  1
  Y  Y10  1  0.025650  0.817229  0.601042  1
  Y  Y11  1  0.851211  0.507020  0.750107  1
  Y  Y12  1  0.349841  0.989887  0.748297  1
  Y  Y13  1  0.150955  0.490085  0.249667  1
  Y  Y14  1  0.651231  0.010459  0.249426  1
  Ho  Ho15  1  0.679175  0.174852  0.624655  1
  Ho  Ho16  1  0.182581  0.322041  0.877486  1
  Ho  Ho17  1  0.317739  0.820353  0.121544  1
  Ho  Ho18  1  0.825886  0.675550  0.376109  1
  Ho  Ho19  1  0.318508  0.825363  0.377589  1
  Si  Si20  1  0.145575  0.528471  0.040200  1
  Si  Si21  1  0.352971  0.029597  0.960139  1
  Si  Si22  1  0.846804  0.469769  0.540506  1
  Si  Si23  1  0.342829  0.028394  0.542176  1
  Si  Si24  1  0.856209  0.471348  0.958633  1
  Si  Si25  1  0.642563  0.970638  0.039562  1
  Si  Si26  1  0.149748  0.532427  0.460877  1
  Si  Si27  1  0.476984  0.392957  0.750737  1
  Si  Si28  1  0.976557  0.104846  0.752592  1
  Si  Si29  1  0.523526  0.610505  0.248967  1
  Si  Si30  1  0.025144  0.894286  0.248044  1
  Si  Si31  1  0.734003  0.871118  0.751645  1
  Si  Si32  1  0.232834  0.626008  0.751629  1
  Si  Si33  1  0.268938  0.126051  0.247287  1
  Si  Si34  1  0.765849  0.375735  0.248972  1
  Ag  Ag35  1  0.656807  0.970012  0.461401  1
