# generated using pymatgen
data_Tb4Al17GeIr6
_symmetry_space_group_name_H-M   'P 1'
_cell_length_a   7.57226740
_cell_length_b   7.55487551
_cell_length_c   9.46213631
_cell_angle_alpha   90.04526778
_cell_angle_beta   89.89121886
_cell_angle_gamma   119.58233111
_symmetry_Int_Tables_number   1
_chemical_formula_structural   Tb4Al17GeIr6
_chemical_formula_sum   'Tb4 Al17 Ge1 Ir6'
_cell_volume   470.74397879
_cell_formula_units_Z   1
loop_
 _symmetry_equiv_pos_site_id
 _symmetry_equiv_pos_as_xyz
  1  'x, y, z'
loop_
 _atom_site_type_symbol
 _atom_site_label
 _atom_site_symmetry_multiplicity
 _atom_site_fract_x
 _atom_site_fract_y
 _atom_site_fract_z
 _atom_site_occupancy
  Tb  Tb0  1  0.995666  0.666780  0.247689  1
  Tb  Tb1  1  0.005171  0.329351  0.755892  1
  Tb  Tb2  1  0.675137  0.000675  0.247589  1
  Tb  Tb3  1  0.328064  0.004813  0.750221  1
  Al  Al4  1  0.130346  0.125582  0.250357  1
  Al  Al5  1  0.871343  0.873233  0.748938  1
  Al  Al6  1  0.998304  0.670114  0.921835  1
  Al  Al7  1  0.999016  0.665429  0.574705  1
  Al  Al8  1  0.334825  0.999883  0.425488  1
  Al  Al9  1  0.001756  0.335168  0.430542  1
  Al  Al10  1  0.664126  0.998853  0.574619  1
  Al  Al11  1  0.659163  0.993175  0.921937  1
  Al  Al12  1  0.334475  0.000155  0.075559  1
  Al  Al13  1  0.333869  0.333099  0.553252  1
  Al  Al14  1  0.667379  0.667698  0.448358  1
  Al  Al15  1  0.666577  0.667107  0.053031  1
  Al  Al16  1  0.337541  0.333811  0.945842  1
  Al  Al17  1  0.344621  0.550948  0.250842  1
  Al  Al18  1  0.661156  0.451350  0.749027  1
  Al  Al19  1  0.545643  0.339411  0.249249  1
  Al  Al20  1  0.450281  0.658101  0.748862  1
  Ge  Ge21  1  0.999856  0.335211  0.082849  1
  Ir  Ir22  1  0.673283  0.328138  0.999349  1
  Ir  Ir23  1  0.324410  0.668455  0.999264  1
  Ir  Ir24  1  0.327197  0.670795  0.499030  1
  Ir  Ir25  1  0.672221  0.328488  0.497905  1
  Ir  Ir26  1  0.999186  0.003015  0.998978  1
  Ir  Ir27  1  0.999388  0.001161  0.498791  1
