# generated using pymatgen
data_La2Y3Tm(IrO7)2
_symmetry_space_group_name_H-M   'P 1'
_cell_length_a   6.48741065
_cell_length_b   6.48893888
_cell_length_c   7.52780500
_cell_angle_alpha   90.00000000
_cell_angle_beta   90.00000000
_cell_angle_gamma   109.60318638
_symmetry_Int_Tables_number   1
_chemical_formula_structural   La2Y3Tm(IrO7)2
_chemical_formula_sum   'La2 Y3 Tm1 Ir2 O14'
_cell_volume   298.52604174
_cell_formula_units_Z   1
loop_
 _symmetry_equiv_pos_site_id
 _symmetry_equiv_pos_as_xyz
  1  'x, y, z'
loop_
 _atom_site_type_symbol
 _atom_site_label
 _atom_site_symmetry_multiplicity
 _atom_site_fract_x
 _atom_site_fract_y
 _atom_site_fract_z
 _atom_site_occupancy
  La  La0  1  0.000486  0.001025  0.499124  1
  La  La1  1  0.000486  0.001025  0.000876  1
  Y  Y2  1  0.937011  0.484369  0.750000  1
  Y  Y3  1  0.483967  0.938491  0.750000  1
  Y  Y4  1  0.063156  0.515579  0.250000  1
  Tm  Tm5  1  0.513654  0.060473  0.250000  1
  Ir  Ir6  1  0.500959  0.501089  0.498953  1
  Ir  Ir7  1  0.500959  0.501089  0.001047  1
  O  O8  1  0.444321  0.181192  0.530344  1
  O  O9  1  0.819159  0.560258  0.465657  1
  O  O10  1  0.444321  0.181192  0.969656  1
  O  O11  1  0.819159  0.560258  0.034343  1
  O  O12  1  0.556510  0.819097  0.463051  1
  O  O13  1  0.182059  0.441878  0.533748  1
  O  O14  1  0.556510  0.819097  0.036949  1
  O  O15  1  0.182059  0.441878  0.966252  1
  O  O16  1  0.163988  0.879954  0.250000  1
  O  O17  1  0.120851  0.840215  0.750000  1
  O  O18  1  0.839895  0.120860  0.750000  1
  O  O19  1  0.873202  0.160603  0.250000  1
  O  O20  1  0.409096  0.402744  0.250000  1
  O  O21  1  0.588194  0.587634  0.750000  1
