# generated using pymatgen
data_Dy2HfZr(Al3Ir)6
_symmetry_space_group_name_H-M   'P 1'
_cell_length_a   7.52835311
_cell_length_b   7.51224278
_cell_length_c   9.36266000
_cell_angle_alpha   90.00000000
_cell_angle_beta   90.00000000
_cell_angle_gamma   119.72744230
_symmetry_Int_Tables_number   1
_chemical_formula_structural   Dy2HfZr(Al3Ir)6
_chemical_formula_sum   'Dy2 Hf1 Zr1 Al18 Ir6'
_cell_volume   459.81773503
_cell_formula_units_Z   1
loop_
 _symmetry_equiv_pos_site_id
 _symmetry_equiv_pos_as_xyz
  1  'x, y, z'
loop_
 _atom_site_type_symbol
 _atom_site_label
 _atom_site_symmetry_multiplicity
 _atom_site_fract_x
 _atom_site_fract_y
 _atom_site_fract_z
 _atom_site_occupancy
  Dy  Dy0  1  0.670606  0.994323  0.750000  1
  Dy  Dy1  1  0.329292  0.005717  0.250000  1
  Hf  Hf2  1  0.004728  0.328579  0.250000  1
  Zr  Zr3  1  0.995070  0.670929  0.750000  1
  Al  Al4  1  0.126355  0.124542  0.750000  1
  Al  Al5  1  0.873527  0.875616  0.250000  1
  Al  Al6  1  0.000068  0.337004  0.575159  1
  Al  Al7  1  0.999987  0.662765  0.424611  1
  Al  Al8  1  0.999987  0.662765  0.075389  1
  Al  Al9  1  0.332363  0.998529  0.921881  1
  Al  Al10  1  0.000068  0.337004  0.924841  1
  Al  Al11  1  0.667916  0.001729  0.078315  1
  Al  Al12  1  0.667916  0.001729  0.421685  1
  Al  Al13  1  0.332363  0.998529  0.578119  1
  Al  Al14  1  0.331205  0.333653  0.056695  1
  Al  Al15  1  0.668544  0.666350  0.943576  1
  Al  Al16  1  0.668544  0.666350  0.556424  1
  Al  Al17  1  0.331205  0.333653  0.443305  1
  Al  Al18  1  0.334487  0.547808  0.750000  1
  Al  Al19  1  0.665664  0.452262  0.250000  1
  Al  Al20  1  0.553778  0.343795  0.750000  1
  Al  Al21  1  0.445926  0.655863  0.250000  1
  Ir  Ir22  1  0.672510  0.327637  0.499162  1
  Ir  Ir23  1  0.327595  0.671964  0.500014  1
  Ir  Ir24  1  0.327595  0.671964  0.999986  1
  Ir  Ir25  1  0.672510  0.327637  0.000838  1
  Ir  Ir26  1  0.000095  0.000652  0.499485  1
  Ir  Ir27  1  0.000095  0.000652  0.000515  1
