# generated using pymatgen
data_Zr4Ti3Nb3Ge8
_symmetry_space_group_name_H-M   'P 1'
_cell_length_a   7.03117049
_cell_length_b   7.02970464
_cell_length_c   12.96188900
_cell_angle_alpha   90.02444342
_cell_angle_beta   90.03724013
_cell_angle_gamma   89.99903050
_symmetry_Int_Tables_number   1
_chemical_formula_structural   Zr4Ti3Nb3Ge8
_chemical_formula_sum   'Zr8 Ti6 Nb6 Ge16'
_cell_volume   640.66776517
_cell_formula_units_Z   2
loop_
 _symmetry_equiv_pos_site_id
 _symmetry_equiv_pos_as_xyz
  1  'x, y, z'
loop_
 _atom_site_type_symbol
 _atom_site_label
 _atom_site_symmetry_multiplicity
 _atom_site_fract_x
 _atom_site_fract_y
 _atom_site_fract_z
 _atom_site_occupancy
  Zr  Zr0  1  0.002658  0.661475  0.027433  1
  Zr  Zr1  1  0.996941  0.341919  0.527869  1
  Zr  Zr2  1  0.657340  0.000766  0.972006  1
  Zr  Zr3  1  0.160094  0.497212  0.777958  1
  Zr  Zr4  1  0.839611  0.503506  0.277631  1
  Zr  Zr5  1  0.496205  0.157623  0.222473  1
  Zr  Zr6  1  0.501278  0.842047  0.722115  1
  Zr  Zr7  1  0.341617  0.996268  0.472717  1
  Ti  Ti8  1  0.342760  0.505679  0.377808  1
  Ti  Ti9  1  0.842774  0.994820  0.372848  1
  Ti  Ti10  1  0.005593  0.157140  0.127676  1
  Ti  Ti11  1  0.994998  0.841867  0.627363  1
  Ti  Ti12  1  0.658517  0.494903  0.877035  1
  Ti  Ti13  1  0.505381  0.341804  0.621899  1
  Nb  Nb14  1  0.494891  0.656878  0.123406  1
  Nb  Nb15  1  0.157954  0.004701  0.872390  1
  Nb  Nb16  1  0.669556  0.668471  0.500027  1
  Nb  Nb17  1  0.831780  0.169256  0.749456  1
  Nb  Nb18  1  0.169481  0.830741  0.250254  1
  Nb  Nb19  1  0.330673  0.331218  0.999740  1
  Ge  Ge20  1  0.039784  0.705600  0.434116  1
  Ge  Ge21  1  0.958486  0.298716  0.934287  1
  Ge  Ge22  1  0.706436  0.038817  0.565746  1
  Ge  Ge23  1  0.200990  0.458098  0.185130  1
  Ge  Ge24  1  0.794378  0.539171  0.683528  1
  Ge  Ge25  1  0.462998  0.208705  0.814560  1
  Ge  Ge26  1  0.539930  0.796167  0.318019  1
  Ge  Ge27  1  0.293658  0.962769  0.066970  1
  Ge  Ge28  1  0.864525  0.795849  0.826203  1
  Ge  Ge29  1  0.130874  0.202885  0.328661  1
  Ge  Ge30  1  0.799211  0.870961  0.173661  1
  Ge  Ge31  1  0.297928  0.630510  0.577333  1
  Ge  Ge32  1  0.704887  0.364012  0.077361  1
  Ge  Ge33  1  0.630997  0.296740  0.422330  1
  Ge  Ge34  1  0.370917  0.701387  0.921524  1
  Ge  Ge35  1  0.203896  0.131321  0.670469  1
