# generated using pymatgen
data_Tb5Nd3Re3B24Os
_symmetry_space_group_name_H-M   'P 1'
_cell_length_a   3.72867500
_cell_length_b   9.25697645
_cell_length_c   11.69131539
_cell_angle_alpha   90.04744144
_cell_angle_beta   90.00000000
_cell_angle_gamma   90.00000000
_symmetry_Int_Tables_number   1
_chemical_formula_structural   Tb5Nd3Re3B24Os
_chemical_formula_sum   'Tb5 Nd3 Re3 B24 Os1'
_cell_volume   403.54030406
_cell_formula_units_Z   1
loop_
 _symmetry_equiv_pos_site_id
 _symmetry_equiv_pos_as_xyz
  1  'x, y, z'
loop_
 _atom_site_type_symbol
 _atom_site_label
 _atom_site_symmetry_multiplicity
 _atom_site_fract_x
 _atom_site_fract_y
 _atom_site_fract_z
 _atom_site_occupancy
  Tb  Tb0  1  0.000000  0.176300  0.913685  1
  Tb  Tb1  1  0.000000  0.942501  0.368756  1
  Tb  Tb2  1  0.000000  0.057048  0.630579  1
  Tb  Tb3  1  0.000000  0.441982  0.129938  1
  Tb  Tb4  1  0.000000  0.556994  0.870441  1
  Nd  Nd5  1  0.000000  0.321966  0.414426  1
  Nd  Nd6  1  0.000000  0.677269  0.587649  1
  Nd  Nd7  1  0.000000  0.824315  0.084458  1
  Re  Re8  1  0.000000  0.361088  0.680197  1
  Re  Re9  1  0.000000  0.138740  0.179179  1
  Re  Re10  1  0.000000  0.862660  0.820512  1
  B  B11  1  0.500000  0.554939  0.430792  1
  B  B12  1  0.500000  0.445182  0.569579  1
  B  B13  1  0.500000  0.055165  0.066982  1
  B  B14  1  0.500000  0.947682  0.931211  1
  B  B15  1  0.500000  0.748303  0.416060  1
  B  B16  1  0.500000  0.250820  0.584366  1
  B  B17  1  0.500000  0.248838  0.081326  1
  B  B18  1  0.500000  0.752398  0.916488  1
  B  B19  1  0.500000  0.789549  0.266158  1
  B  B20  1  0.500000  0.208542  0.735216  1
  B  B21  1  0.500000  0.290056  0.232893  1
  B  B22  1  0.500000  0.709826  0.766962  1
  B  B23  1  0.500000  0.630200  0.186787  1
  B  B24  1  0.500000  0.368635  0.814599  1
  B  B25  1  0.500000  0.130374  0.313071  1
  B  B26  1  0.500000  0.870365  0.687340  1
  B  B27  1  0.500000  0.985220  0.211714  1
  B  B28  1  0.500000  0.017521  0.787974  1
  B  B29  1  0.500000  0.485193  0.287284  1
  B  B30  1  0.500000  0.515342  0.713497  1
  B  B31  1  0.500000  0.598972  0.028000  1
  B  B32  1  0.500000  0.398417  0.972088  1
  B  B33  1  0.500000  0.097710  0.472420  1
  B  B34  1  0.500000  0.901242  0.527318  1
  Os  Os35  1  0.000000  0.638646  0.320056  1
