# generated using pymatgen
data_Er12Mn2OsPb2
_symmetry_space_group_name_H-M   'P 1'
_cell_length_a   8.34482309
_cell_length_b   8.34476575
_cell_length_c   8.34482200
_cell_angle_alpha   108.70524598
_cell_angle_beta   108.70477922
_cell_angle_gamma   111.01503496
_symmetry_Int_Tables_number   1
_chemical_formula_structural   Er12Mn2OsPb2
_chemical_formula_sum   'Er12 Mn2 Os1 Pb2'
_cell_volume   447.08255729
_cell_formula_units_Z   1
loop_
 _symmetry_equiv_pos_site_id
 _symmetry_equiv_pos_as_xyz
  1  'x, y, z'
loop_
 _atom_site_type_symbol
 _atom_site_label
 _atom_site_symmetry_multiplicity
 _atom_site_fract_x
 _atom_site_fract_y
 _atom_site_fract_z
 _atom_site_occupancy
  Er  Er0  1  0.308434  0.308451  0.616862  1
  Er  Er1  1  0.691566  0.691549  0.383138  1
  Er  Er2  1  0.308412  0.691565  0.999983  1
  Er  Er3  1  0.691588  0.308435  0.000017  1
  Er  Er4  1  0.428111  0.192799  0.235322  1
  Er  Er5  1  0.571889  0.807201  0.764678  1
  Er  Er6  1  0.957473  0.192783  0.764679  1
  Er  Er7  1  0.192776  0.957463  0.764666  1
  Er  Er8  1  0.042527  0.807217  0.235321  1
  Er  Er9  1  0.807224  0.042537  0.235334  1
  Er  Er10  1  0.192773  0.428112  0.235319  1
  Er  Er11  1  0.807227  0.571888  0.764681  1
  Mn  Mn12  1  0.387574  0.387575  0.000003  1
  Mn  Mn13  1  0.612426  0.612425  0.999997  1
  Os  Os14  1  0.000000  0.000000  0.000000  1
  Pb  Pb15  1  0.500000  0.000000  0.500000  1
  Pb  Pb16  1  0.000000  0.500000  0.500000  1
