# generated using pymatgen
data_Yb2Y3Ho(Si3Ru)8
_symmetry_space_group_name_H-M   'P 1'
_cell_length_a   10.16080275
_cell_length_b   10.16080334
_cell_length_c   8.15745016
_cell_angle_alpha   90.00070607
_cell_angle_beta   90.00076322
_cell_angle_gamma   132.65728622
_symmetry_Int_Tables_number   1
_chemical_formula_structural   Yb2Y3Ho(Si3Ru)8
_chemical_formula_sum   'Yb2 Y3 Ho1 Si24 Ru8'
_cell_volume   619.36392506
_cell_formula_units_Z   1
loop_
 _symmetry_equiv_pos_site_id
 _symmetry_equiv_pos_as_xyz
  1  'x, y, z'
loop_
 _atom_site_type_symbol
 _atom_site_label
 _atom_site_symmetry_multiplicity
 _atom_site_fract_x
 _atom_site_fract_y
 _atom_site_fract_z
 _atom_site_occupancy
  Yb  Yb0  1  0.501344  0.001333  0.749987  1
  Yb  Yb1  1  0.998668  0.498656  0.250013  1
  Y  Y2  1  0.499939  0.500061  0.500000  1
  Y  Y3  1  0.497321  0.997323  0.250020  1
  Y  Y4  1  0.002678  0.502679  0.749980  1
  Ho  Ho5  1  0.000071  0.999928  0.000001  1
  Si  Si6  1  0.794268  0.205732  0.500000  1
  Si  Si7  1  0.294015  0.705986  0.000000  1
  Si  Si8  1  0.205906  0.794094  0.500000  1
  Si  Si9  1  0.705800  0.294200  0.000000  1
  Si  Si10  1  0.330077  0.335344  0.833245  1
  Si  Si11  1  0.664656  0.669923  0.166755  1
  Si  Si12  1  0.169609  0.164290  0.332915  1
  Si  Si13  1  0.835710  0.830391  0.667085  1
  Si  Si14  1  0.122525  0.888575  0.727867  1
  Si  Si15  1  0.111425  0.877475  0.272133  1
  Si  Si16  1  0.611271  0.377070  0.227556  1
  Si  Si17  1  0.622930  0.388729  0.772444  1
  Si  Si18  1  0.877106  0.111021  0.272194  1
  Si  Si19  1  0.888979  0.122895  0.727806  1
  Si  Si20  1  0.388323  0.622561  0.772372  1
  Si  Si21  1  0.377439  0.611677  0.227628  1
  Si  Si22  1  0.344402  0.110688  0.504197  1
  Si  Si23  1  0.889313  0.655598  0.495803  1
  Si  Si24  1  0.388850  0.155435  0.004958  1
  Si  Si25  1  0.844565  0.611150  0.995042  1
  Si  Si26  1  0.655514  0.889166  0.495134  1
  Si  Si27  1  0.110834  0.344486  0.504866  1
  Si  Si28  1  0.610984  0.844484  0.995685  1
  Si  Si29  1  0.155516  0.389015  0.004315  1
  Ru  Ru30  1  0.669525  0.330474  0.500000  1
  Ru  Ru31  1  0.168757  0.831243  0.000000  1
  Ru  Ru32  1  0.331049  0.668951  0.500000  1
  Ru  Ru33  1  0.830640  0.169360  0.000000  1
  Ru  Ru34  1  0.125266  0.126813  0.626549  1
  Ru  Ru35  1  0.873186  0.874733  0.373451  1
  Ru  Ru36  1  0.374465  0.372926  0.126219  1
  Ru  Ru37  1  0.627075  0.625536  0.873780  1
