# generated using pymatgen
data_Tb3Ho(LuPb)6
_symmetry_space_group_name_H-M   'P 1'
_cell_length_a   8.95916300
_cell_length_b   8.99257968
_cell_length_c   6.53035800
_cell_angle_alpha   90.00000000
_cell_angle_beta   90.00000000
_cell_angle_gamma   120.07069150
_symmetry_Int_Tables_number   1
_chemical_formula_structural   Tb3Ho(LuPb)6
_chemical_formula_sum   'Tb3 Ho1 Lu6 Pb6'
_cell_volume   455.31247619
_cell_formula_units_Z   1
loop_
 _symmetry_equiv_pos_site_id
 _symmetry_equiv_pos_as_xyz
  1  'x, y, z'
loop_
 _atom_site_type_symbol
 _atom_site_label
 _atom_site_symmetry_multiplicity
 _atom_site_fract_x
 _atom_site_fract_y
 _atom_site_fract_z
 _atom_site_occupancy
  Tb  Tb0  1  0.235444  0.236407  0.750000  1
  Tb  Tb1  1  0.235079  0.999934  0.250000  1
  Tb  Tb2  1  0.764064  0.763317  0.250000  1
  Ho  Ho3  1  0.764296  0.000023  0.750000  1
  Lu  Lu4  1  0.334131  0.667799  0.999967  1
  Lu  Lu5  1  0.666383  0.332164  0.000012  1
  Lu  Lu6  1  0.999062  0.762653  0.750000  1
  Lu  Lu7  1  0.000687  0.237579  0.250000  1
  Lu  Lu8  1  0.334131  0.667799  0.500033  1
  Lu  Lu9  1  0.666383  0.332164  0.499988  1
  Pb  Pb10  1  0.999833  0.398624  0.750000  1
  Pb  Pb11  1  0.394205  0.396098  0.250000  1
  Pb  Pb12  1  0.605723  0.001558  0.250000  1
  Pb  Pb13  1  0.606222  0.604661  0.750000  1
  Pb  Pb14  1  0.394480  0.998363  0.750000  1
  Pb  Pb15  1  0.999877  0.600856  0.250000  1
