# generated using pymatgen
data_Pr6Nd10MgCo4Ag3
_symmetry_space_group_name_H-M   'P 1'
_cell_length_a   9.79468776
_cell_length_b   9.80032449
_cell_length_c   9.78803923
_cell_angle_alpha   60.24798344
_cell_angle_beta   60.23918811
_cell_angle_gamma   60.29825316
_symmetry_Int_Tables_number   1
_chemical_formula_structural   Pr6Nd10MgCo4Ag3
_chemical_formula_sum   'Pr6 Nd10 Mg1 Co4 Ag3'
_cell_volume   668.30930674
_cell_formula_units_Z   1
loop_
 _symmetry_equiv_pos_site_id
 _symmetry_equiv_pos_as_xyz
  1  'x, y, z'
loop_
 _atom_site_type_symbol
 _atom_site_label
 _atom_site_symmetry_multiplicity
 _atom_site_fract_x
 _atom_site_fract_y
 _atom_site_fract_z
 _atom_site_occupancy
  Pr  Pr0  1  0.901150  0.901411  0.901055  1
  Pr  Pr1  1  0.438528  0.438726  0.061346  1
  Pr  Pr2  1  0.313878  0.687785  0.686229  1
  Pr  Pr3  1  0.687195  0.314014  0.686291  1
  Pr  Pr4  1  0.058525  0.440153  0.059591  1
  Pr  Pr5  1  0.905203  0.286867  0.904010  1
  Nd  Nd6  1  0.286592  0.905171  0.904607  1
  Nd  Nd7  1  0.687127  0.687863  0.313154  1
  Nd  Nd8  1  0.904858  0.904197  0.287239  1
  Nd  Nd9  1  0.310253  0.687950  0.310282  1
  Nd  Nd10  1  0.687458  0.310068  0.310747  1
  Nd  Nd11  1  0.060758  0.438709  0.439077  1
  Nd  Nd12  1  0.440271  0.058062  0.059652  1
  Nd  Nd13  1  0.059500  0.058882  0.440292  1
  Nd  Nd14  1  0.310712  0.310098  0.687126  1
  Nd  Nd15  1  0.438340  0.060834  0.438952  1
  Mg  Mg16  1  0.680895  0.681452  0.680380  1
  Co  Co17  1  0.109936  0.108107  0.109957  1
  Co  Co18  1  0.109949  0.108760  0.670994  1
  Co  Co19  1  0.671309  0.107896  0.110240  1
  Co  Co20  1  0.108602  0.672137  0.109681  1
  Ag  Ag21  1  0.667008  0.668248  0.995016  1
  Ag  Ag22  1  0.994609  0.667997  0.666705  1
  Ag  Ag23  1  0.667341  0.994610  0.667376  1
