# generated using pymatgen
data_W2OF7
_symmetry_space_group_name_H-M   'P 1'
_cell_length_a   9.92026797
_cell_length_b   9.28583278
_cell_length_c   12.30272998
_cell_angle_alpha   109.21456449
_cell_angle_beta   102.93270638
_cell_angle_gamma   103.32158737
_symmetry_Int_Tables_number   1
_chemical_formula_structural   W2OF7
_chemical_formula_sum   'W2 O1 F7'
_cell_volume   984.45063803
_cell_formula_units_Z   1
loop_
 _symmetry_equiv_pos_site_id
 _symmetry_equiv_pos_as_xyz
  1  'x, y, z'
loop_
 _atom_site_type_symbol
 _atom_site_label
 _atom_site_symmetry_multiplicity
 _atom_site_fract_x
 _atom_site_fract_y
 _atom_site_fract_z
 _atom_site_occupancy
  W  W0  1  0.279583  0.130182  0.508149  1
  W  W1  1  0.276727  0.467224  0.503314  1
  O  O2  1  0.963795  0.671414  0.999706  1
  F  F3  1  0.146052  0.345587  0.985564  1
  F  F4  1  0.639851  0.970531  0.639146  1
  F  F5  1  0.269020  0.714581  0.485006  1
  F  F6  1  0.637970  0.307892  0.386155  1
  F  F7  1  0.925742  0.042473  0.977214  1
  F  F8  1  0.687696  0.579725  0.411980  1
  F  F9  1  0.920106  0.476451  0.665374  1
