# generated using pymatgen
data_Lu10Al5GaC8
_symmetry_space_group_name_H-M   'P 1'
_cell_length_a   10.66091300
_cell_length_b   10.66091300
_cell_length_c   3.43444400
_cell_angle_alpha   90.00000000
_cell_angle_beta   90.00000000
_cell_angle_gamma   90.00000000
_symmetry_Int_Tables_number   1
_chemical_formula_structural   Lu10Al5GaC8
_chemical_formula_sum   'Lu10 Al5 Ga1 C8'
_cell_volume   390.34195947
_cell_formula_units_Z   1
loop_
 _symmetry_equiv_pos_site_id
 _symmetry_equiv_pos_as_xyz
  1  'x, y, z'
loop_
 _atom_site_type_symbol
 _atom_site_label
 _atom_site_symmetry_multiplicity
 _atom_site_fract_x
 _atom_site_fract_y
 _atom_site_fract_z
 _atom_site_occupancy
  Lu  Lu0  1  0.549705  0.730714  0.500000  1
  Lu  Lu1  1  0.450295  0.269286  0.500000  1
  Lu  Lu2  1  0.049820  0.767882  0.500000  1
  Lu  Lu3  1  0.950180  0.232118  0.500000  1
  Lu  Lu4  1  0.269286  0.549705  0.500000  1
  Lu  Lu5  1  0.730714  0.450295  0.500000  1
  Lu  Lu6  1  0.232118  0.049820  0.500000  1
  Lu  Lu7  1  0.767882  0.950180  0.500000  1
  Lu  Lu8  1  0.500000  0.000000  0.000000  1
  Lu  Lu9  1  0.000000  0.500000  0.000000  1
  Al  Al10  1  0.707448  0.199285  0.000000  1
  Al  Al11  1  0.292552  0.800715  0.000000  1
  Al  Al12  1  0.199285  0.292552  0.000000  1
  Al  Al13  1  0.800715  0.707448  0.000000  1
  Al  Al14  1  0.000000  0.000000  0.000000  1
  Ga  Ga15  1  0.500000  0.500000  0.000000  1
  C  C16  1  0.627230  0.129328  0.500000  1
  C  C17  1  0.372770  0.870672  0.500000  1
  C  C18  1  0.129328  0.372770  0.500000  1
  C  C19  1  0.870672  0.627230  0.500000  1
  C  C20  1  0.161626  0.660511  0.000000  1
  C  C21  1  0.838374  0.339489  0.000000  1
  C  C22  1  0.660511  0.838374  0.000000  1
  C  C23  1  0.339489  0.161626  0.000000  1
