# generated using pymatgen
data_Nd3Lu2Si12Ir19
_symmetry_space_group_name_H-M   'P 1'
_cell_length_a   12.86404300
_cell_length_b   12.87820410
_cell_length_c   4.00074300
_cell_angle_alpha   90.00000000
_cell_angle_beta   90.00000000
_cell_angle_gamma   119.96363931
_symmetry_Int_Tables_number   1
_chemical_formula_structural   Nd3Lu2Si12Ir19
_chemical_formula_sum   'Nd3 Lu2 Si12 Ir19'
_cell_volume   574.19985562
_cell_formula_units_Z   1
loop_
 _symmetry_equiv_pos_site_id
 _symmetry_equiv_pos_as_xyz
  1  'x, y, z'
loop_
 _atom_site_type_symbol
 _atom_site_label
 _atom_site_symmetry_multiplicity
 _atom_site_fract_x
 _atom_site_fract_y
 _atom_site_fract_z
 _atom_site_occupancy
  Nd  Nd0  1  0.814958  0.000000  0.500000  1
  Nd  Nd1  1  0.333323  0.667238  0.000000  1
  Nd  Nd2  1  0.666086  0.332762  0.000000  1
  Lu  Lu3  1  0.000282  0.814468  0.500000  1
  Lu  Lu4  1  0.185813  0.185532  0.500000  1
  Si  Si5  1  0.003118  0.182581  0.000000  1
  Si  Si6  1  0.820537  0.817419  0.000000  1
  Si  Si7  1  0.180576  0.000000  0.000000  1
  Si  Si8  1  0.521378  0.687759  0.500000  1
  Si  Si9  1  0.311368  0.833578  0.500000  1
  Si  Si10  1  0.167575  0.479958  0.500000  1
  Si  Si11  1  0.477790  0.166422  0.500000  1
  Si  Si12  1  0.687617  0.520042  0.500000  1
  Si  Si13  1  0.833620  0.312241  0.500000  1
  Si  Si14  1  0.999946  0.632115  0.000000  1
  Si  Si15  1  0.367831  0.367885  0.000000  1
  Si  Si16  1  0.629944  0.000000  0.000000  1
  Ir  Ir17  1  0.001857  0.283025  0.500000  1
  Ir  Ir18  1  0.718832  0.716975  0.500000  1
  Ir  Ir19  1  0.280073  0.000000  0.500000  1
  Ir  Ir20  1  0.623416  0.804721  0.000000  1
  Ir  Ir21  1  0.191386  0.817856  0.000000  1
  Ir  Ir22  1  0.183237  0.375137  0.000000  1
  Ir  Ir23  1  0.373530  0.182144  0.000000  1
  Ir  Ir24  1  0.808100  0.624863  0.000000  1
  Ir  Ir25  1  0.818695  0.195279  0.000000  1
  Ir  Ir26  1  0.512701  0.874612  0.500000  1
  Ir  Ir27  1  0.124920  0.639335  0.500000  1
  Ir  Ir28  1  0.361474  0.486618  0.500000  1
  Ir  Ir29  1  0.485586  0.360665  0.500000  1
  Ir  Ir30  1  0.874858  0.513382  0.500000  1
  Ir  Ir31  1  0.638090  0.125388  0.500000  1
  Ir  Ir32  1  0.001967  0.000000  0.000000  1
  Ir  Ir33  1  0.000723  0.447745  0.000000  1
  Ir  Ir34  1  0.552977  0.552255  0.000000  1
  Ir  Ir35  1  0.445815  0.000000  0.000000  1
