# generated using pymatgen
data_Pr3Ho5(AgRh)2
_symmetry_space_group_name_H-M   'P 1'
_cell_length_a   9.63273816
_cell_length_b   9.63273749
_cell_length_c   9.63273700
_cell_angle_alpha   59.99999826
_cell_angle_beta   60.00000055
_cell_angle_gamma   59.99999808
_symmetry_Int_Tables_number   1
_chemical_formula_structural   Pr3Ho5(AgRh)2
_chemical_formula_sum   'Pr6 Ho10 Ag4 Rh4'
_cell_volume   632.02488100
_cell_formula_units_Z   2
loop_
 _symmetry_equiv_pos_site_id
 _symmetry_equiv_pos_as_xyz
  1  'x, y, z'
loop_
 _atom_site_type_symbol
 _atom_site_label
 _atom_site_symmetry_multiplicity
 _atom_site_fract_x
 _atom_site_fract_y
 _atom_site_fract_z
 _atom_site_occupancy
  Pr  Pr0  1  0.939257  0.560743  0.560743  1
  Pr  Pr1  1  0.560743  0.939257  0.939257  1
  Pr  Pr2  1  0.560743  0.939257  0.560743  1
  Pr  Pr3  1  0.939257  0.560743  0.939257  1
  Pr  Pr4  1  0.560743  0.560743  0.939257  1
  Pr  Pr5  1  0.939257  0.939257  0.560743  1
  Ho  Ho6  1  0.351096  0.351096  0.351096  1
  Ho  Ho7  1  0.351096  0.351096  0.946711  1
  Ho  Ho8  1  0.351096  0.946711  0.351096  1
  Ho  Ho9  1  0.946711  0.351096  0.351096  1
  Ho  Ho10  1  0.814571  0.185429  0.185429  1
  Ho  Ho11  1  0.185429  0.814572  0.814571  1
  Ho  Ho12  1  0.185429  0.814571  0.185428  1
  Ho  Ho13  1  0.814571  0.185429  0.814571  1
  Ho  Ho14  1  0.185429  0.185429  0.814571  1
  Ho  Ho15  1  0.814572  0.814572  0.185428  1
  Ag  Ag16  1  0.579564  0.579564  0.579564  1
  Ag  Ag17  1  0.579564  0.579564  0.261306  1
  Ag  Ag18  1  0.579564  0.261306  0.579564  1
  Ag  Ag19  1  0.261306  0.579564  0.579564  1
  Rh  Rh20  1  0.143013  0.143013  0.143013  1
  Rh  Rh21  1  0.143013  0.143013  0.570962  1
  Rh  Rh22  1  0.143013  0.570962  0.143013  1
  Rh  Rh23  1  0.570962  0.143013  0.143013  1
