# generated using pymatgen
data_PrGd4HoTa2O14
_symmetry_space_group_name_H-M   'P 1'
_cell_length_a   6.56037872
_cell_length_b   6.57371936
_cell_length_c   7.60154907
_cell_angle_alpha   89.86696740
_cell_angle_beta   90.07404504
_cell_angle_gamma   108.91698298
_symmetry_Int_Tables_number   1
_chemical_formula_structural   PrGd4HoTa2O14
_chemical_formula_sum   'Pr1 Gd4 Ho1 Ta2 O14'
_cell_volume   310.11813221
_cell_formula_units_Z   1
loop_
 _symmetry_equiv_pos_site_id
 _symmetry_equiv_pos_as_xyz
  1  'x, y, z'
loop_
 _atom_site_type_symbol
 _atom_site_label
 _atom_site_symmetry_multiplicity
 _atom_site_fract_x
 _atom_site_fract_y
 _atom_site_fract_z
 _atom_site_occupancy
  Pr  Pr0  1  0.515153  0.515855  0.498744  1
  Gd  Gd1  1  0.464592  0.462867  0.000795  1
  Gd  Gd2  1  0.998727  0.534645  0.241124  1
  Gd  Gd3  1  0.999313  0.466551  0.745191  1
  Gd  Gd4  1  0.533233  0.998716  0.758608  1
  Ho  Ho5  1  0.466174  0.998578  0.254461  1
  Ta  Ta6  1  0.001243  0.001615  0.498914  1
  Ta  Ta7  1  0.997078  0.997637  0.000986  1
  O  O8  1  0.937157  0.060943  0.749648  1
  O  O9  1  0.066310  0.937387  0.250361  1
  O  O10  1  0.359645  0.644462  0.242135  1
  O  O11  1  0.639181  0.358793  0.757546  1
  O  O12  1  0.368140  0.631223  0.757223  1
  O  O13  1  0.627865  0.361754  0.243900  1
  O  O14  1  0.325365  0.078340  0.978049  1
  O  O15  1  0.678323  0.928211  0.469208  1
  O  O16  1  0.312854  0.059142  0.536369  1
  O  O17  1  0.695615  0.954576  0.045762  1
  O  O18  1  0.062006  0.312314  0.460840  1
  O  O19  1  0.948184  0.694203  0.959522  1
  O  O20  1  0.923090  0.677799  0.525890  1
  O  O21  1  0.080753  0.324387  0.024724  1
