# generated using pymatgen
data_Zr4TiNb(Si2Mo)2
_symmetry_space_group_name_H-M   'P 1'
_cell_length_a   3.59507400
_cell_length_b   6.97673826
_cell_length_c   8.35539274
_cell_angle_alpha   90.21501282
_cell_angle_beta   90.00000000
_cell_angle_gamma   90.00000000
_symmetry_Int_Tables_number   1
_chemical_formula_structural   Zr4TiNb(Si2Mo)2
_chemical_formula_sum   'Zr4 Ti1 Nb1 Si4 Mo2'
_cell_volume   209.56756852
_cell_formula_units_Z   1
loop_
 _symmetry_equiv_pos_site_id
 _symmetry_equiv_pos_as_xyz
  1  'x, y, z'
loop_
 _atom_site_type_symbol
 _atom_site_label
 _atom_site_symmetry_multiplicity
 _atom_site_fract_x
 _atom_site_fract_y
 _atom_site_fract_z
 _atom_site_occupancy
  Zr  Zr0  1  0.250000  0.047801  0.335241  1
  Zr  Zr1  1  0.250000  0.548125  0.167719  1
  Zr  Zr2  1  0.750000  0.957929  0.666892  1
  Zr  Zr3  1  0.750000  0.456485  0.832771  1
  Ti  Ti4  1  0.250000  0.624172  0.557807  1
  Nb  Nb5  1  0.250000  0.128307  0.940631  1
  Si  Si6  1  0.250000  0.255297  0.635167  1
  Si  Si7  1  0.250000  0.752422  0.860834  1
  Si  Si8  1  0.750000  0.745987  0.360673  1
  Si  Si9  1  0.750000  0.246324  0.142378  1
  Mo  Mo10  1  0.750000  0.866880  0.059045  1
  Mo  Mo11  1  0.750000  0.370272  0.440843  1
