# generated using pymatgen
data_Sc2Fe10Ni2P7
_symmetry_space_group_name_H-M   'P 1'
_cell_length_a   8.84511857
_cell_length_b   8.89779113
_cell_length_c   3.57991500
_cell_angle_alpha   90.00000000
_cell_angle_beta   90.00000000
_cell_angle_gamma   119.46295693
_symmetry_Int_Tables_number   1
_chemical_formula_structural   Sc2Fe10Ni2P7
_chemical_formula_sum   'Sc2 Fe10 Ni2 P7'
_cell_volume   245.30934663
_cell_formula_units_Z   1
loop_
 _symmetry_equiv_pos_site_id
 _symmetry_equiv_pos_as_xyz
  1  'x, y, z'
loop_
 _atom_site_type_symbol
 _atom_site_label
 _atom_site_symmetry_multiplicity
 _atom_site_fract_x
 _atom_site_fract_y
 _atom_site_fract_z
 _atom_site_occupancy
  Sc  Sc0  1  0.671801  0.340415  0.500000  1
  Sc  Sc1  1  0.329756  0.661531  0.000000  1
  Fe  Fe2  1  0.383783  0.433759  0.500000  1
  Fe  Fe3  1  0.050504  0.612812  0.500000  1
  Fe  Fe4  1  0.220004  0.097691  0.500000  1
  Fe  Fe5  1  0.876044  0.779272  0.500000  1
  Fe  Fe6  1  0.900346  0.125588  0.500000  1
  Fe  Fe7  1  0.720578  0.880064  0.000000  1
  Fe  Fe8  1  0.119839  0.843944  0.000000  1
  Fe  Fe9  1  0.154426  0.272282  0.000000  1
  Fe  Fe10  1  0.942680  0.373252  0.000000  1
  Fe  Fe11  1  0.629613  0.569989  0.000000  1
  Ni  Ni12  1  0.438423  0.064019  0.000000  1
  Ni  Ni13  1  0.559673  0.946843  0.500000  1
  P  P14  1  0.996568  0.997923  0.000000  1
  P  P15  1  0.415969  0.302428  0.000000  1
  P  P16  1  0.593986  0.705952  0.500000  1
  P  P17  1  0.279758  0.875275  0.500000  1
  P  P18  1  0.116779  0.405181  0.500000  1
  P  P19  1  0.713863  0.122766  0.000000  1
  P  P20  1  0.885605  0.589012  0.000000  1
