# generated using pymatgen
data_Dy8Lu11ScSi15Au
_symmetry_space_group_name_H-M   'P 1'
_cell_length_a   7.28953026
_cell_length_b   7.56611055
_cell_length_c   14.41177376
_cell_angle_alpha   89.95833306
_cell_angle_beta   89.61965985
_cell_angle_gamma   90.14831920
_symmetry_Int_Tables_number   1
_chemical_formula_structural   Dy8Lu11ScSi15Au
_chemical_formula_sum   'Dy8 Lu11 Sc1 Si15 Au1'
_cell_volume   794.83780815
_cell_formula_units_Z   1
loop_
 _symmetry_equiv_pos_site_id
 _symmetry_equiv_pos_as_xyz
  1  'x, y, z'
loop_
 _atom_site_type_symbol
 _atom_site_label
 _atom_site_symmetry_multiplicity
 _atom_site_fract_x
 _atom_site_fract_y
 _atom_site_fract_z
 _atom_site_occupancy
  Dy  Dy0  1  0.016141  0.176880  0.098433  1
  Dy  Dy1  1  0.985094  0.823737  0.904882  1
  Dy  Dy2  1  0.483258  0.679257  0.903634  1
  Dy  Dy3  1  0.986204  0.827096  0.598511  1
  Dy  Dy4  1  0.514024  0.320827  0.096556  1
  Dy  Dy5  1  0.012895  0.175047  0.398127  1
  Dy  Dy6  1  0.512455  0.321237  0.399111  1
  Dy  Dy7  1  0.488474  0.680163  0.599070  1
  Lu  Lu8  1  0.163450  0.508966  0.750475  1
  Lu  Lu9  1  0.838840  0.493663  0.250305  1
  Lu  Lu10  1  0.336111  0.004104  0.248096  1
  Lu  Lu11  1  0.664616  0.991037  0.750632  1
  Lu  Lu12  1  0.335853  0.177570  0.623202  1
  Lu  Lu13  1  0.665676  0.822182  0.374604  1
  Lu  Lu14  1  0.170446  0.672264  0.374571  1
  Lu  Lu15  1  0.671159  0.823236  0.122929  1
  Lu  Lu16  1  0.830601  0.325666  0.623689  1
  Lu  Lu17  1  0.328803  0.178755  0.878912  1
  Lu  Lu18  1  0.828033  0.321613  0.878786  1
  Sc  Sc19  1  0.170212  0.677309  0.125404  1
  Si  Si20  1  0.037277  0.113882  0.752322  1
  Si  Si21  1  0.965970  0.885263  0.248319  1
  Si  Si22  1  0.464506  0.609467  0.245787  1
  Si  Si23  1  0.536055  0.391974  0.752612  1
  Si  Si24  1  0.281471  0.875894  0.751685  1
  Si  Si25  1  0.716412  0.127527  0.247579  1
  Si  Si26  1  0.218717  0.370369  0.245834  1
  Si  Si27  1  0.782923  0.628030  0.753693  1
  Si  Si28  1  0.834040  0.532730  0.458882  1
  Si  Si29  1  0.337281  0.966134  0.459258  1
  Si  Si30  1  0.850075  0.533739  0.040537  1
  Si  Si31  1  0.661381  0.034367  0.537468  1
  Si  Si32  1  0.156200  0.470057  0.965501  1
  Si  Si33  1  0.656839  0.030549  0.960437  1
  Si  Si34  1  0.336560  0.961377  0.040008  1
  Au  Au35  1  0.161948  0.468034  0.540148  1
