# generated using pymatgen
data_Nb3Ga2RuC
_symmetry_space_group_name_H-M   'P 1'
_cell_length_a   8.32662717
_cell_length_b   8.32662742
_cell_length_c   8.32662600
_cell_angle_alpha   60.00000563
_cell_angle_beta   60.00000467
_cell_angle_gamma   59.99999949
_symmetry_Int_Tables_number   1
_chemical_formula_structural   Nb3Ga2RuC
_chemical_formula_sum   'Nb12 Ga8 Ru4 C4'
_cell_volume   408.21818200
_cell_formula_units_Z   4
loop_
 _symmetry_equiv_pos_site_id
 _symmetry_equiv_pos_as_xyz
  1  'x, y, z'
loop_
 _atom_site_type_symbol
 _atom_site_label
 _atom_site_symmetry_multiplicity
 _atom_site_fract_x
 _atom_site_fract_y
 _atom_site_fract_z
 _atom_site_occupancy
  Nb  Nb0  1  0.693999  0.306001  0.693999  1
  Nb  Nb1  1  0.943999  0.556001  0.556001  1
  Nb  Nb2  1  0.556001  0.943999  0.943999  1
  Nb  Nb3  1  0.943999  0.556001  0.943999  1
  Nb  Nb4  1  0.556001  0.556001  0.943999  1
  Nb  Nb5  1  0.943999  0.943999  0.556001  1
  Nb  Nb6  1  0.693999  0.693999  0.306001  1
  Nb  Nb7  1  0.306001  0.693999  0.693999  1
  Nb  Nb8  1  0.693999  0.306001  0.306001  1
  Nb  Nb9  1  0.306001  0.306001  0.693999  1
  Nb  Nb10  1  0.556001  0.943999  0.556001  1
  Nb  Nb11  1  0.306001  0.693999  0.306001  1
  Ga  Ga12  1  0.336044  0.336044  0.336044  1
  Ga  Ga13  1  0.258130  0.913956  0.913956  1
  Ga  Ga14  1  0.913956  0.258130  0.913956  1
  Ga  Ga15  1  0.913956  0.913956  0.258130  1
  Ga  Ga16  1  0.336044  0.991870  0.336044  1
  Ga  Ga17  1  0.336044  0.336044  0.991870  1
  Ga  Ga18  1  0.991870  0.336044  0.336044  1
  Ga  Ga19  1  0.913956  0.913956  0.913956  1
  Ru  Ru20  1  0.125000  0.125000  0.125000  1
  Ru  Ru21  1  0.625000  0.125000  0.125000  1
  Ru  Ru22  1  0.125000  0.625000  0.125000  1
  Ru  Ru23  1  0.125000  0.125000  0.625000  1
  C  C24  1  0.625000  0.625000  0.625000  1
  C  C25  1  0.125000  0.625000  0.625000  1
  C  C26  1  0.625000  0.125000  0.625000  1
  C  C27  1  0.625000  0.625000  0.125000  1
