# generated using pymatgen
data_Ca3PrGe3Rh4
_symmetry_space_group_name_H-M   'P 1'
_cell_length_a   11.00728501
_cell_length_b   11.00728549
_cell_length_c   7.79141773
_cell_angle_alpha   72.04919439
_cell_angle_beta   72.04919346
_cell_angle_gamma   30.39216328
_symmetry_Int_Tables_number   1
_chemical_formula_structural   Ca3PrGe3Rh4
_chemical_formula_sum   'Ca6 Pr2 Ge6 Rh8'
_cell_volume   452.57905192
_cell_formula_units_Z   2
loop_
 _symmetry_equiv_pos_site_id
 _symmetry_equiv_pos_as_xyz
  1  'x, y, z'
loop_
 _atom_site_type_symbol
 _atom_site_label
 _atom_site_symmetry_multiplicity
 _atom_site_fract_x
 _atom_site_fract_y
 _atom_site_fract_z
 _atom_site_occupancy
  Ca  Ca0  1  0.446304  0.213995  0.905213  1
  Ca  Ca1  1  0.926891  0.206694  0.335597  1
  Ca  Ca2  1  0.793306  0.073109  0.164403  1
  Ca  Ca3  1  0.073769  0.792361  0.667887  1
  Ca  Ca4  1  0.207639  0.926231  0.832113  1
  Ca  Ca5  1  0.786005  0.553696  0.594787  1
  Pr  Pr6  1  0.211445  0.443556  0.405489  1
  Pr  Pr7  1  0.556444  0.788555  0.094511  1
  Ge  Ge8  1  0.613365  0.386635  0.750000  1
  Ge  Ge9  1  0.388513  0.611487  0.250000  1
  Ge  Ge10  1  0.301078  0.041867  0.443802  1
  Ge  Ge11  1  0.958133  0.698922  0.056198  1
  Ge  Ge12  1  0.702364  0.957865  0.561140  1
  Ge  Ge13  1  0.042135  0.297636  0.938860  1
  Rh  Rh14  1  0.299338  0.577762  0.025649  1
  Rh  Rh15  1  0.574153  0.303249  0.524306  1
  Rh  Rh16  1  0.696751  0.425847  0.975694  1
  Rh  Rh17  1  0.077802  0.365909  0.186413  1
  Rh  Rh18  1  0.634091  0.922198  0.313587  1
  Rh  Rh19  1  0.422238  0.700662  0.474351  1
  Rh  Rh20  1  0.920965  0.632730  0.811714  1
  Rh  Rh21  1  0.367270  0.079035  0.688286  1
