# generated using pymatgen
data_CrGaNiO4
_symmetry_space_group_name_H-M   'P 1'
_cell_length_a   5.92817728
_cell_length_b   5.92817754
_cell_length_c   5.92817729
_cell_angle_alpha   120.56839388
_cell_angle_beta   119.34305707
_cell_angle_gamma   90.07998407
_symmetry_Int_Tables_number   1
_chemical_formula_structural   CrGaNiO4
_chemical_formula_sum   'Cr2 Ga2 Ni2 O8'
_cell_volume   147.39292514
_cell_formula_units_Z   2
loop_
 _symmetry_equiv_pos_site_id
 _symmetry_equiv_pos_as_xyz
  1  'x, y, z'
loop_
 _atom_site_type_symbol
 _atom_site_label
 _atom_site_symmetry_multiplicity
 _atom_site_fract_x
 _atom_site_fract_y
 _atom_site_fract_z
 _atom_site_occupancy
  Cr  Cr0  1  0.500000  0.500000  0.000000  1
  Cr  Cr1  1  0.000000  0.500000  0.500000  1
  Ga  Ga2  1  0.383329  0.133329  0.250000  1
  Ga  Ga3  1  0.616671  0.866671  0.750000  1
  Ni  Ni4  1  0.000000  0.500000  0.000000  1
  Ni  Ni5  1  0.000000  0.000000  0.500000  1
  O  O6  1  0.750273  0.735791  0.485518  1
  O  O7  1  0.750273  0.264756  0.014482  1
  O  O8  1  0.232350  0.740357  0.491994  1
  O  O9  1  0.748363  0.740357  0.008006  1
  O  O10  1  0.249727  0.264209  0.514482  1
  O  O11  1  0.249727  0.735244  0.985518  1
  O  O12  1  0.767650  0.259643  0.508006  1
  O  O13  1  0.251637  0.259643  0.991994  1
