# generated using pymatgen
data_Na3Yb3GaAs4
_symmetry_space_group_name_H-M   'P 1'
_cell_length_a   9.42693400
_cell_length_b   9.42693459
_cell_length_c   7.18115000
_cell_angle_alpha   90.00000000
_cell_angle_beta   90.00000000
_cell_angle_gamma   119.99999795
_symmetry_Int_Tables_number   1
_chemical_formula_structural   Na3Yb3GaAs4
_chemical_formula_sum   'Na6 Yb6 Ga2 As8'
_cell_volume   552.66962863
_cell_formula_units_Z   2
loop_
 _symmetry_equiv_pos_site_id
 _symmetry_equiv_pos_as_xyz
  1  'x, y, z'
loop_
 _atom_site_type_symbol
 _atom_site_label
 _atom_site_symmetry_multiplicity
 _atom_site_fract_x
 _atom_site_fract_y
 _atom_site_fract_z
 _atom_site_occupancy
  Na  Na0  1  0.137603  0.862397  0.171358  1
  Na  Na1  1  0.275205  0.137603  0.671358  1
  Na  Na2  1  0.862397  0.724795  0.671358  1
  Na  Na3  1  0.724795  0.862397  0.171358  1
  Na  Na4  1  0.862397  0.137603  0.671358  1
  Na  Na5  1  0.137603  0.275205  0.171358  1
  Yb  Yb6  1  0.954707  0.477353  0.999592  1
  Yb  Yb7  1  0.522647  0.045293  0.999592  1
  Yb  Yb8  1  0.477353  0.954707  0.499592  1
  Yb  Yb9  1  0.045293  0.522647  0.499592  1
  Yb  Yb10  1  0.522647  0.477353  0.999592  1
  Yb  Yb11  1  0.477353  0.522647  0.499592  1
  Ga  Ga12  1  0.666667  0.333333  0.375877  1
  Ga  Ga13  1  0.333333  0.666667  0.875877  1
  As  As14  1  0.811047  0.188953  0.269924  1
  As  As15  1  0.188953  0.377906  0.769924  1
  As  As16  1  0.811047  0.622094  0.269924  1
  As  As17  1  0.666667  0.333333  0.732601  1
  As  As18  1  0.622094  0.811047  0.769924  1
  As  As19  1  0.333333  0.666667  0.232601  1
  As  As20  1  0.188953  0.811047  0.769924  1
  As  As21  1  0.377906  0.188953  0.269924  1
