# generated using pymatgen
data_Nd4CSe3
_symmetry_space_group_name_H-M   'P 1'
_cell_length_a   7.16744101
_cell_length_b   7.16744054
_cell_length_c   7.21591600
_cell_angle_alpha   79.30481141
_cell_angle_beta   79.30481213
_cell_angle_gamma   32.50773228
_symmetry_Int_Tables_number   1
_chemical_formula_structural   Nd4CSe3
_chemical_formula_sum   'Nd4 C1 Se3'
_cell_volume   195.46010813
_cell_formula_units_Z   1
loop_
 _symmetry_equiv_pos_site_id
 _symmetry_equiv_pos_as_xyz
  1  'x, y, z'
loop_
 _atom_site_type_symbol
 _atom_site_label
 _atom_site_symmetry_multiplicity
 _atom_site_fract_x
 _atom_site_fract_y
 _atom_site_fract_z
 _atom_site_occupancy
  Nd  Nd0  1  0.981924  0.981924  0.977467  1
  Nd  Nd1  1  0.768199  0.768199  0.772863  1
  Nd  Nd2  1  0.489784  0.489784  0.539286  1
  Nd  Nd3  1  0.259930  0.259930  0.210389  1
  C  C4  1  0.375173  0.375173  0.875290  1
  Se  Se5  1  0.134131  0.134131  0.621025  1
  Se  Se6  1  0.875065  0.875065  0.375083  1
  Se  Se7  1  0.615794  0.615794  0.128596  1
