# generated using pymatgen
data_Li(Er4Tc)3
_symmetry_space_group_name_H-M   'P 1'
_cell_length_a   6.27260868
_cell_length_b   7.40052066
_cell_length_c   9.18731500
_cell_angle_alpha   90.00000000
_cell_angle_beta   90.00000000
_cell_angle_gamma   89.57829987
_symmetry_Int_Tables_number   1
_chemical_formula_structural   Li(Er4Tc)3
_chemical_formula_sum   'Li1 Er12 Tc3'
_cell_volume   426.46884943
_cell_formula_units_Z   1
loop_
 _symmetry_equiv_pos_site_id
 _symmetry_equiv_pos_as_xyz
  1  'x, y, z'
loop_
 _atom_site_type_symbol
 _atom_site_label
 _atom_site_symmetry_multiplicity
 _atom_site_fract_x
 _atom_site_fract_y
 _atom_site_fract_z
 _atom_site_occupancy
  Li  Li0  1  0.547169  0.604340  0.750000  1
  Er  Er1  1  0.329538  0.677177  0.071259  1
  Er  Er2  1  0.168210  0.182322  0.435152  1
  Er  Er3  1  0.667102  0.305592  0.551289  1
  Er  Er4  1  0.853194  0.833313  0.946206  1
  Er  Er5  1  0.667102  0.305592  0.948711  1
  Er  Er6  1  0.853194  0.833313  0.553794  1
  Er  Er7  1  0.329538  0.677177  0.428741  1
  Er  Er8  1  0.168210  0.182322  0.064848  1
  Er  Er9  1  0.868540  0.542011  0.250000  1
  Er  Er10  1  0.622943  0.036619  0.250000  1
  Er  Er11  1  0.111605  0.450850  0.750000  1
  Er  Er12  1  0.367532  0.983116  0.750000  1
  Tc  Tc13  1  0.037841  0.887748  0.250000  1
  Tc  Tc14  1  0.462835  0.385121  0.250000  1
  Tc  Tc15  1  0.945448  0.113389  0.750000  1
