# generated using pymatgen
data_TbNd4P12PdRu18
_symmetry_space_group_name_H-M   'P 1'
_cell_length_a   4.01686400
_cell_length_b   12.67313453
_cell_length_c   12.57478205
_cell_angle_alpha   119.72295253
_cell_angle_beta   90.00000000
_cell_angle_gamma   90.00000000
_symmetry_Int_Tables_number   1
_chemical_formula_structural   TbNd4P12PdRu18
_chemical_formula_sum   'Tb1 Nd4 P12 Pd1 Ru18'
_cell_volume   555.91442106
_cell_formula_units_Z   1
loop_
 _symmetry_equiv_pos_site_id
 _symmetry_equiv_pos_as_xyz
  1  'x, y, z'
loop_
 _atom_site_type_symbol
 _atom_site_label
 _atom_site_symmetry_multiplicity
 _atom_site_fract_x
 _atom_site_fract_y
 _atom_site_fract_z
 _atom_site_occupancy
  Tb  Tb0  1  0.000000  0.660615  0.329989  1
  Nd  Nd1  1  0.500000  0.000970  0.183008  1
  Nd  Nd2  1  0.500000  0.183816  0.999055  1
  Nd  Nd3  1  0.500000  0.816281  0.815061  1
  Nd  Nd4  1  0.000000  0.338445  0.668678  1
  P  P5  1  0.000000  0.998514  0.807662  1
  P  P6  1  0.000000  0.814694  0.002419  1
  P  P7  1  0.000000  0.185898  0.186290  1
  P  P8  1  0.500000  0.306389  0.478339  1
  P  P9  1  0.500000  0.180266  0.701590  1
  P  P10  1  0.500000  0.527223  0.832110  1
  P  P11  1  0.500000  0.816776  0.518113  1
  P  P12  1  0.500000  0.475344  0.304467  1
  P  P13  1  0.500000  0.694213  0.174908  1
  P  P14  1  0.000000  0.000350  0.367152  1
  P  P15  1  0.000000  0.375435  0.000880  1
  P  P16  1  0.000000  0.624205  0.625219  1
  Pd  Pd17  1  0.000000  0.000012  0.552258  1
  Ru  Ru18  1  0.000000  0.555811  0.002199  1
  Ru  Ru19  1  0.000000  0.444236  0.445803  1
  Ru  Ru20  1  0.500000  0.998776  0.708331  1
  Ru  Ru21  1  0.500000  0.717072  0.003694  1
  Ru  Ru22  1  0.500000  0.284522  0.285381  1
  Ru  Ru23  1  0.000000  0.194570  0.380012  1
  Ru  Ru24  1  0.000000  0.185448  0.805297  1
  Ru  Ru25  1  0.000000  0.624683  0.818138  1
  Ru  Ru26  1  0.000000  0.812602  0.616956  1
  Ru  Ru27  1  0.000000  0.377441  0.193197  1
  Ru  Ru28  1  0.000000  0.805263  0.187524  1
  Ru  Ru29  1  0.500000  0.124389  0.492687  1
  Ru  Ru30  1  0.500000  0.370450  0.879196  1
  Ru  Ru31  1  0.500000  0.509942  0.635087  1
  Ru  Ru32  1  0.500000  0.628518  0.506288  1
  Ru  Ru33  1  0.500000  0.493519  0.127611  1
  Ru  Ru34  1  0.500000  0.873653  0.368539  1
  Ru  Ru35  1  0.000000  0.999558  0.996860  1
