# generated using pymatgen
data_Ho4Ga6Ir3Pd4
_symmetry_space_group_name_H-M   'P 1'
_cell_length_a   7.35823514
_cell_length_b   7.35826128
_cell_length_c   7.36202500
_cell_angle_alpha   109.48183016
_cell_angle_beta   109.48109064
_cell_angle_gamma   109.46111027
_symmetry_Int_Tables_number   1
_chemical_formula_structural   Ho4Ga6Ir3Pd4
_chemical_formula_sum   'Ho4 Ga6 Ir3 Pd4'
_cell_volume   306.80940004
_cell_formula_units_Z   1
loop_
 _symmetry_equiv_pos_site_id
 _symmetry_equiv_pos_as_xyz
  1  'x, y, z'
loop_
 _atom_site_type_symbol
 _atom_site_label
 _atom_site_symmetry_multiplicity
 _atom_site_fract_x
 _atom_site_fract_y
 _atom_site_fract_z
 _atom_site_occupancy
  Ho  Ho0  1  0.999999  0.999997  0.499998  1
  Ho  Ho1  1  0.011933  0.505968  0.005967  1
  Ho  Ho2  1  0.494033  0.988068  0.994034  1
  Ho  Ho3  1  0.494032  0.505968  0.500000  1
  Ga  Ga4  1  0.676809  0.680273  0.999558  1
  Ga  Ga5  1  0.319726  0.996536  0.319285  1
  Ga  Ga6  1  0.003466  0.323192  0.322750  1
  Ga  Ga7  1  0.319723  0.323188  0.000441  1
  Ga  Ga8  1  0.676810  0.996534  0.677253  1
  Ga  Ga9  1  0.003467  0.680274  0.680715  1
  Ir  Ir10  1  0.248504  0.497010  0.748504  1
  Ir  Ir11  1  0.248504  0.751496  0.499999  1
  Ir  Ir12  1  0.502989  0.751494  0.251493  1
  Pd  Pd13  1  0.748420  0.251582  0.499999  1
  Pd  Pd14  1  0.748419  0.496841  0.248423  1
  Pd  Pd15  1  0.503161  0.251580  0.751579  1
  Pd  Pd16  1  0.000004  0.999998  0.000001  1
