# generated using pymatgen
data_Cs3CrS3
_symmetry_space_group_name_H-M   'P 1'
_cell_length_a   10.70250420
_cell_length_b   10.70250411
_cell_length_c   13.49661600
_cell_angle_alpha   90.00000000
_cell_angle_beta   90.00000000
_cell_angle_gamma   139.29207631
_symmetry_Int_Tables_number   1
_chemical_formula_structural   Cs3CrS3
_chemical_formula_sum   'Cs12 Cr4 S12'
_cell_volume   1008.27420388
_cell_formula_units_Z   4
loop_
 _symmetry_equiv_pos_site_id
 _symmetry_equiv_pos_as_xyz
  1  'x, y, z'
loop_
 _atom_site_type_symbol
 _atom_site_label
 _atom_site_symmetry_multiplicity
 _atom_site_fract_x
 _atom_site_fract_y
 _atom_site_fract_z
 _atom_site_occupancy
  Cs  Cs0  1  0.875524  0.875524  0.681853  1
  Cs  Cs1  1  0.124476  0.124476  0.318147  1
  Cs  Cs2  1  0.624476  0.624476  0.181853  1
  Cs  Cs3  1  0.375524  0.375524  0.818147  1
  Cs  Cs4  1  0.163502  0.521959  0.127195  1
  Cs  Cs5  1  0.478041  0.836498  0.872805  1
  Cs  Cs6  1  0.978041  0.336498  0.627195  1
  Cs  Cs7  1  0.663502  0.021959  0.372805  1
  Cs  Cs8  1  0.836498  0.478041  0.872805  1
  Cs  Cs9  1  0.521959  0.163502  0.127195  1
  Cs  Cs10  1  0.021959  0.663502  0.372805  1
  Cs  Cs11  1  0.336498  0.978041  0.627195  1
  Cr  Cr12  1  0.924113  0.075887  0.000000  1
  Cr  Cr13  1  0.424113  0.575887  0.500000  1
  Cr  Cr14  1  0.075887  0.924113  0.000000  1
  Cr  Cr15  1  0.575887  0.424113  0.500000  1
  S  S16  1  0.296522  0.296522  0.562151  1
  S  S17  1  0.703478  0.703478  0.437849  1
  S  S18  1  0.203478  0.203478  0.062151  1
  S  S19  1  0.796522  0.796522  0.937849  1
  S  S20  1  0.727275  0.014953  0.114748  1
  S  S21  1  0.985047  0.272725  0.885252  1
  S  S22  1  0.485047  0.772725  0.614748  1
  S  S23  1  0.227275  0.514953  0.385252  1
  S  S24  1  0.272725  0.985047  0.885252  1
  S  S25  1  0.014953  0.727275  0.114748  1
  S  S26  1  0.514953  0.227275  0.385252  1
  S  S27  1  0.772725  0.485047  0.614748  1
