# generated using pymatgen
data_Tb7Ho(Co5B2)4
_symmetry_space_group_name_H-M   'P 1'
_cell_length_a   5.07006100
_cell_length_b   5.07006021
_cell_length_c   20.00508100
_cell_angle_alpha   90.00000000
_cell_angle_beta   90.00000000
_cell_angle_gamma   119.99999864
_symmetry_Int_Tables_number   1
_chemical_formula_structural   Tb7Ho(Co5B2)4
_chemical_formula_sum   'Tb7 Ho1 Co20 B8'
_cell_volume   445.34568951
_cell_formula_units_Z   1
loop_
 _symmetry_equiv_pos_site_id
 _symmetry_equiv_pos_as_xyz
  1  'x, y, z'
loop_
 _atom_site_type_symbol
 _atom_site_label
 _atom_site_symmetry_multiplicity
 _atom_site_fract_x
 _atom_site_fract_y
 _atom_site_fract_z
 _atom_site_occupancy
  Tb  Tb0  1  0.666667  0.333333  0.976836  1
  Tb  Tb1  1  0.333333  0.666667  0.477450  1
  Tb  Tb2  1  0.333333  0.666667  0.022193  1
  Tb  Tb3  1  0.333333  0.666667  0.174993  1
  Tb  Tb4  1  0.666667  0.333333  0.522772  1
  Tb  Tb5  1  0.666667  0.333333  0.675483  1
  Tb  Tb6  1  0.333333  0.666667  0.324946  1
  Ho  Ho7  1  0.666667  0.333333  0.824933  1
  Co  Co8  1  0.162300  0.324600  0.893519  1
  Co  Co9  1  0.162212  0.837788  0.606323  1
  Co  Co10  1  0.837710  0.162290  0.394174  1
  Co  Co11  1  0.334842  0.167421  0.250035  1
  Co  Co12  1  0.324579  0.162290  0.394174  1
  Co  Co13  1  0.837717  0.675435  0.105669  1
  Co  Co14  1  0.837710  0.675421  0.394174  1
  Co  Co15  1  0.832579  0.665158  0.250035  1
  Co  Co16  1  0.675578  0.837788  0.606323  1
  Co  Co17  1  0.665035  0.832517  0.750414  1
  Co  Co18  1  0.837717  0.162283  0.105669  1
  Co  Co19  1  0.675400  0.837700  0.893519  1
  Co  Co20  1  0.000000  0.000000  0.999481  1
  Co  Co21  1  0.167483  0.334965  0.750414  1
  Co  Co22  1  0.167483  0.832517  0.750414  1
  Co  Co23  1  0.832579  0.167421  0.250035  1
  Co  Co24  1  0.324565  0.162283  0.105669  1
  Co  Co25  1  0.000000  0.000000  0.500162  1
  Co  Co26  1  0.162300  0.837700  0.893519  1
  Co  Co27  1  0.162212  0.324422  0.606323  1
  B  B28  1  0.333333  0.666667  0.825246  1
  B  B29  1  0.333333  0.666667  0.674985  1
  B  B30  1  0.666667  0.333333  0.325430  1
  B  B31  1  0.000000  0.000000  0.822262  1
  B  B32  1  0.666667  0.333333  0.174534  1
  B  B33  1  0.000000  0.000000  0.677929  1
  B  B34  1  0.000000  0.000000  0.322565  1
  B  B35  1  0.000000  0.000000  0.177398  1
