# generated using pymatgen
data_LuTh(GaRh)2
_symmetry_space_group_name_H-M   'P 1'
_cell_length_a   4.34976600
_cell_length_b   6.86950700
_cell_length_c   7.85550800
_cell_angle_alpha   90.00000000
_cell_angle_beta   90.00000000
_cell_angle_gamma   90.00000000
_symmetry_Int_Tables_number   1
_chemical_formula_structural   LuTh(GaRh)2
_chemical_formula_sum   'Lu2 Th2 Ga4 Rh4'
_cell_volume   234.72845484
_cell_formula_units_Z   2
loop_
 _symmetry_equiv_pos_site_id
 _symmetry_equiv_pos_as_xyz
  1  'x, y, z'
loop_
 _atom_site_type_symbol
 _atom_site_label
 _atom_site_symmetry_multiplicity
 _atom_site_fract_x
 _atom_site_fract_y
 _atom_site_fract_z
 _atom_site_occupancy
  Lu  Lu0  1  0.750000  0.031528  0.695756  1
  Lu  Lu1  1  0.750000  0.531528  0.804244  1
  Th  Th2  1  0.250000  0.970821  0.320458  1
  Th  Th3  1  0.250000  0.470821  0.179542  1
  Ga  Ga4  1  0.250000  0.349913  0.577442  1
  Ga  Ga5  1  0.250000  0.849913  0.922558  1
  Ga  Ga6  1  0.750000  0.649196  0.440624  1
  Ga  Ga7  1  0.750000  0.149196  0.059376  1
  Rh  Rh8  1  0.250000  0.238402  0.891641  1
  Rh  Rh9  1  0.250000  0.738402  0.608359  1
  Rh  Rh10  1  0.750000  0.760142  0.112253  1
  Rh  Rh11  1  0.750000  0.260142  0.387747  1
