# generated using pymatgen
data_YbLuBO4
_symmetry_space_group_name_H-M   'P 1'
_cell_length_a   3.50193800
_cell_length_b   9.50631100
_cell_length_c   10.34748800
_cell_angle_alpha   90.00000000
_cell_angle_beta   90.00000000
_cell_angle_gamma   90.00000000
_symmetry_Int_Tables_number   1
_chemical_formula_structural   YbLuBO4
_chemical_formula_sum   'Yb4 Lu4 B4 O16'
_cell_volume   344.47317065
_cell_formula_units_Z   4
loop_
 _symmetry_equiv_pos_site_id
 _symmetry_equiv_pos_as_xyz
  1  'x, y, z'
loop_
 _atom_site_type_symbol
 _atom_site_label
 _atom_site_symmetry_multiplicity
 _atom_site_fract_x
 _atom_site_fract_y
 _atom_site_fract_z
 _atom_site_occupancy
  Yb  Yb0  1  0.250000  0.666712  0.084166  1
  Yb  Yb1  1  0.750000  0.333288  0.915834  1
  Yb  Yb2  1  0.750000  0.166712  0.415834  1
  Yb  Yb3  1  0.250000  0.833288  0.584166  1
  Lu  Lu4  1  0.250000  0.085999  0.110558  1
  Lu  Lu5  1  0.750000  0.914001  0.889442  1
  Lu  Lu6  1  0.750000  0.585999  0.389442  1
  Lu  Lu7  1  0.250000  0.414001  0.610558  1
  B  B8  1  0.250000  0.366865  0.200554  1
  B  B9  1  0.750000  0.633135  0.799446  1
  B  B10  1  0.750000  0.866865  0.299446  1
  B  B11  1  0.250000  0.133135  0.700554  1
  O  O12  1  0.250000  0.499684  0.255743  1
  O  O13  1  0.750000  0.500316  0.744257  1
  O  O14  1  0.750000  0.999684  0.244257  1
  O  O15  1  0.250000  0.000316  0.755743  1
  O  O16  1  0.250000  0.244414  0.274766  1
  O  O17  1  0.750000  0.755586  0.725234  1
  O  O18  1  0.750000  0.744414  0.225234  1
  O  O19  1  0.250000  0.255586  0.774766  1
  O  O20  1  0.250000  0.353305  0.066151  1
  O  O21  1  0.750000  0.646695  0.933849  1
  O  O22  1  0.750000  0.853305  0.433849  1
  O  O23  1  0.250000  0.146695  0.566151  1
  O  O24  1  0.250000  0.614902  0.507625  1
  O  O25  1  0.750000  0.385098  0.492375  1
  O  O26  1  0.750000  0.114902  0.992375  1
  O  O27  1  0.250000  0.885098  0.007625  1
