# generated using pymatgen
data_Sc12Si12Ir3Os
_symmetry_space_group_name_H-M   'P 1'
_cell_length_a   4.05009200
_cell_length_b   10.22148415
_cell_length_c   11.65054733
_cell_angle_alpha   90.03948118
_cell_angle_beta   90.00000000
_cell_angle_gamma   90.00000000
_symmetry_Int_Tables_number   1
_chemical_formula_structural   Sc12Si12Ir3Os
_chemical_formula_sum   'Sc12 Si12 Ir3 Os1'
_cell_volume   482.30867546
_cell_formula_units_Z   1
loop_
 _symmetry_equiv_pos_site_id
 _symmetry_equiv_pos_as_xyz
  1  'x, y, z'
loop_
 _atom_site_type_symbol
 _atom_site_label
 _atom_site_symmetry_multiplicity
 _atom_site_fract_x
 _atom_site_fract_y
 _atom_site_fract_z
 _atom_site_occupancy
  Sc  Sc0  1  0.250000  0.876576  0.019254  1
  Sc  Sc1  1  0.250000  0.621666  0.521017  1
  Sc  Sc2  1  0.750000  0.122641  0.980478  1
  Sc  Sc3  1  0.750000  0.376526  0.481491  1
  Sc  Sc4  1  0.250000  0.919958  0.602341  1
  Sc  Sc5  1  0.250000  0.580572  0.103077  1
  Sc  Sc6  1  0.750000  0.079559  0.396966  1
  Sc  Sc7  1  0.750000  0.420085  0.897271  1
  Sc  Sc8  1  0.250000  0.658185  0.798312  1
  Sc  Sc9  1  0.250000  0.841581  0.299410  1
  Sc  Sc10  1  0.750000  0.342339  0.200516  1
  Sc  Sc11  1  0.750000  0.158868  0.700827  1
  Si  Si12  1  0.250000  0.014442  0.821562  1
  Si  Si13  1  0.250000  0.486099  0.321742  1
  Si  Si14  1  0.750000  0.985796  0.178426  1
  Si  Si15  1  0.750000  0.513110  0.679568  1
  Si  Si16  1  0.250000  0.250737  0.841245  1
  Si  Si17  1  0.250000  0.250102  0.341839  1
  Si  Si18  1  0.750000  0.750461  0.157921  1
  Si  Si19  1  0.750000  0.750394  0.657868  1
  Si  Si20  1  0.250000  0.193526  0.545620  1
  Si  Si21  1  0.250000  0.306462  0.045326  1
  Si  Si22  1  0.750000  0.806522  0.454586  1
  Si  Si23  1  0.750000  0.692661  0.954210  1
  Ir  Ir24  1  0.250000  0.110035  0.175962  1
  Ir  Ir25  1  0.750000  0.610590  0.323704  1
  Ir  Ir26  1  0.750000  0.890149  0.824149  1
  Os  Os27  1  0.250000  0.390357  0.675311  1
