# generated using pymatgen
data_Eu2GaCu18Si7
_symmetry_space_group_name_H-M   'P 1'
_cell_length_a   8.20294234
_cell_length_b   8.20294339
_cell_length_c   8.18550833
_cell_angle_alpha   120.59158960
_cell_angle_beta   120.59159501
_cell_angle_gamma   88.89912206
_symmetry_Int_Tables_number   1
_chemical_formula_structural   Eu2GaCu18Si7
_chemical_formula_sum   'Eu2 Ga1 Cu18 Si7'
_cell_volume   386.17858438
_cell_formula_units_Z   1
loop_
 _symmetry_equiv_pos_site_id
 _symmetry_equiv_pos_as_xyz
  1  'x, y, z'
loop_
 _atom_site_type_symbol
 _atom_site_label
 _atom_site_symmetry_multiplicity
 _atom_site_fract_x
 _atom_site_fract_y
 _atom_site_fract_z
 _atom_site_occupancy
  Eu  Eu0  1  0.747991  0.749970  0.999662  1
  Eu  Eu1  1  0.249970  0.247991  0.999662  1
  Ga  Ga2  1  0.056772  0.556772  0.856264  1
  Cu  Cu3  1  0.064784  0.203466  0.267755  1
  Cu  Cu4  1  0.934710  0.799656  0.730428  1
  Cu  Cu5  1  0.565248  0.296165  0.863141  1
  Cu  Cu6  1  0.439302  0.705076  0.140061  1
  Cu  Cu7  1  0.796165  0.065248  0.863141  1
  Cu  Cu8  1  0.205076  0.939302  0.140061  1
  Cu  Cu9  1  0.703466  0.564784  0.267755  1
  Cu  Cu10  1  0.299656  0.434710  0.730428  1
  Cu  Cu11  1  0.440536  0.940536  0.748932  1
  Cu  Cu12  1  0.200060  0.700060  0.265411  1
  Cu  Cu13  1  0.940130  0.190075  0.495751  1
  Cu  Cu14  1  0.690075  0.440130  0.495751  1
  Cu  Cu15  1  0.559337  0.059337  0.252389  1
  Cu  Cu16  1  0.798518  0.298518  0.740201  1
  Cu  Cu17  1  0.058253  0.808589  0.500809  1
  Cu  Cu18  1  0.308589  0.558253  0.500809  1
  Cu  Cu19  1  0.999671  0.499671  0.496681  1
  Cu  Cu20  1  0.498940  0.998940  0.499666  1
  Si  Si21  1  0.706841  0.206841  0.148445  1
  Si  Si22  1  0.559665  0.707151  0.500432  1
  Si  Si23  1  0.207151  0.059665  0.500432  1
  Si  Si24  1  0.942893  0.442893  0.146321  1
  Si  Si25  1  0.291465  0.791465  0.851171  1
  Si  Si26  1  0.441945  0.292789  0.499220  1
  Si  Si27  1  0.792789  0.941945  0.499220  1
