# generated using pymatgen
data_Hf3Mg(B4Ru5)2
_symmetry_space_group_name_H-M   'P 1'
_cell_length_a   2.99487800
_cell_length_b   8.72264212
_cell_length_c   9.95893457
_cell_angle_alpha   90.95892322
_cell_angle_beta   90.00000000
_cell_angle_gamma   90.00000000
_symmetry_Int_Tables_number   1
_chemical_formula_structural   Hf3Mg(B4Ru5)2
_chemical_formula_sum   'Hf3 Mg1 B8 Ru10'
_cell_volume   260.12329193
_cell_formula_units_Z   1
loop_
 _symmetry_equiv_pos_site_id
 _symmetry_equiv_pos_as_xyz
  1  'x, y, z'
loop_
 _atom_site_type_symbol
 _atom_site_label
 _atom_site_symmetry_multiplicity
 _atom_site_fract_x
 _atom_site_fract_y
 _atom_site_fract_z
 _atom_site_occupancy
  Hf  Hf0  1  0.500000  0.663050  0.821139  1
  Hf  Hf1  1  0.500000  0.341596  0.184906  1
  Hf  Hf2  1  0.500000  0.159410  0.677100  1
  Mg  Mg3  1  0.500000  0.843084  0.311643  1
  B  B4  1  0.500000  0.852702  0.598387  1
  B  B5  1  0.500000  0.139036  0.395652  1
  B  B6  1  0.500000  0.356552  0.899584  1
  B  B7  1  0.500000  0.649375  0.108737  1
  B  B8  1  0.500000  0.967474  0.913398  1
  B  B9  1  0.500000  0.034261  0.082885  1
  B  B10  1  0.500000  0.463670  0.586248  1
  B  B11  1  0.500000  0.534153  0.417063  1
  Ru  Ru12  1  0.000000  0.408529  0.737014  1
  Ru  Ru13  1  0.000000  0.593094  0.269989  1
  Ru  Ru14  1  0.000000  0.910351  0.763727  1
  Ru  Ru15  1  0.000000  0.092927  0.231315  1
  Ru  Ru16  1  0.000000  0.995437  0.497185  1
  Ru  Ru17  1  0.000000  0.501859  0.002983  1
  Ru  Ru18  1  0.000000  0.664956  0.558676  1
  Ru  Ru19  1  0.000000  0.326067  0.449441  1
  Ru  Ru20  1  0.000000  0.174095  0.946417  1
  Ru  Ru21  1  0.000000  0.828326  0.046512  1
