# generated using pymatgen
data_La3TbDyP12Ru19
_symmetry_space_group_name_H-M   'P 1'
_cell_length_a   4.02242800
_cell_length_b   12.64135298
_cell_length_c   12.64050022
_cell_angle_alpha   120.00209818
_cell_angle_beta   90.00000000
_cell_angle_gamma   90.00000000
_symmetry_Int_Tables_number   1
_chemical_formula_structural   La3TbDyP12Ru19
_chemical_formula_sum   'La3 Tb1 Dy1 P12 Ru19'
_cell_volume   556.63120165
_cell_formula_units_Z   1
loop_
 _symmetry_equiv_pos_site_id
 _symmetry_equiv_pos_as_xyz
  1  'x, y, z'
loop_
 _atom_site_type_symbol
 _atom_site_label
 _atom_site_symmetry_multiplicity
 _atom_site_fract_x
 _atom_site_fract_y
 _atom_site_fract_z
 _atom_site_occupancy
  La  La0  1  0.500000  0.000002  0.182828  1
  La  La1  1  0.500000  0.182783  0.999980  1
  La  La2  1  0.500000  0.817133  0.817161  1
  Tb  Tb3  1  0.000000  0.666654  0.333371  1
  Dy  Dy4  1  0.000000  0.333311  0.666631  1
  P  P5  1  0.000000  0.000053  0.809652  1
  P  P6  1  0.000000  0.809623  0.999959  1
  P  P7  1  0.000000  0.190346  0.190402  1
  P  P8  1  0.500000  0.304113  0.478863  1
  P  P9  1  0.500000  0.174712  0.695880  1
  P  P10  1  0.500000  0.521147  0.825273  1
  P  P11  1  0.500000  0.825428  0.521359  1
  P  P12  1  0.500000  0.478610  0.304081  1
  P  P13  1  0.500000  0.695920  0.174562  1
  P  P14  1  0.000000  0.999993  0.375257  1
  P  P15  1  0.000000  0.375329  0.000028  1
  P  P16  1  0.000000  0.624760  0.624714  1
  Ru  Ru17  1  0.000000  0.999992  0.554095  1
  Ru  Ru18  1  0.000000  0.554147  0.999998  1
  Ru  Ru19  1  0.000000  0.445897  0.445897  1
  Ru  Ru20  1  0.500000  0.000057  0.711440  1
  Ru  Ru21  1  0.500000  0.711388  0.999921  1
  Ru  Ru22  1  0.500000  0.288542  0.288644  1
  Ru  Ru23  1  0.000000  0.196164  0.382000  1
  Ru  Ru24  1  0.000000  0.185861  0.803865  1
  Ru  Ru25  1  0.000000  0.618035  0.814144  1
  Ru  Ru26  1  0.000000  0.814289  0.618250  1
  Ru  Ru27  1  0.000000  0.381746  0.196043  1
  Ru  Ru28  1  0.000000  0.803979  0.185723  1
  Ru  Ru29  1  0.500000  0.125692  0.494341  1
  Ru  Ru30  1  0.500000  0.368639  0.874296  1
  Ru  Ru31  1  0.500000  0.505616  0.631359  1
  Ru  Ru32  1  0.500000  0.631355  0.506015  1
  Ru  Ru33  1  0.500000  0.493976  0.125347  1
  Ru  Ru34  1  0.500000  0.874594  0.368622  1
  Ru  Ru35  1  0.000000  0.000019  0.999999  1
