# generated using pymatgen
data_K2TaAgSe4
_symmetry_space_group_name_H-M   'P 1'
_cell_length_a   13.94245537
_cell_length_b   12.43561650
_cell_length_c   7.66035506
_cell_angle_alpha   84.29672200
_cell_angle_beta   62.56190485
_cell_angle_gamma   33.14137652
_symmetry_Int_Tables_number   1
_chemical_formula_structural   K2TaAgSe4
_chemical_formula_sum   'K4 Ta2 Ag2 Se8'
_cell_volume   520.14701882
_cell_formula_units_Z   2
loop_
 _symmetry_equiv_pos_site_id
 _symmetry_equiv_pos_as_xyz
  1  'x, y, z'
loop_
 _atom_site_type_symbol
 _atom_site_label
 _atom_site_symmetry_multiplicity
 _atom_site_fract_x
 _atom_site_fract_y
 _atom_site_fract_z
 _atom_site_occupancy
  K  K0  1  0.681819  0.681819  0.318181  1
  K  K1  1  0.318181  0.318181  0.681819  1
  K  K2  1  0.568181  0.568181  0.931819  1
  K  K3  1  0.931819  0.931819  0.568181  1
  Ta  Ta4  1  0.500000  0.500000  0.500000  1
  Ta  Ta5  1  0.750000  0.750000  0.750000  1
  Ag  Ag6  1  0.000000  0.000000  0.000000  1
  Ag  Ag7  1  0.250000  0.250000  0.250000  1
  Se  Se8  1  0.369874  0.012117  0.922629  1
  Se  Se9  1  0.237883  0.880126  0.554620  1
  Se  Se10  1  0.012117  0.369874  0.695380  1
  Se  Se11  1  0.695380  0.922629  0.012117  1
  Se  Se12  1  0.922629  0.695380  0.369874  1
  Se  Se13  1  0.554620  0.327371  0.237883  1
  Se  Se14  1  0.880126  0.237883  0.327371  1
  Se  Se15  1  0.327371  0.554620  0.880126  1
