# generated using pymatgen
data_BaMn(As4Ru)3
_symmetry_space_group_name_H-M   'P 1'
_cell_length_a   7.51942040
_cell_length_b   7.51941955
_cell_length_c   7.50751900
_cell_angle_alpha   109.43916134
_cell_angle_beta   109.43915907
_cell_angle_gamma   109.50326164
_symmetry_Int_Tables_number   1
_chemical_formula_structural   BaMn(As4Ru)3
_chemical_formula_sum   'Ba1 Mn1 As12 Ru3'
_cell_volume   326.89999845
_cell_formula_units_Z   1
loop_
 _symmetry_equiv_pos_site_id
 _symmetry_equiv_pos_as_xyz
  1  'x, y, z'
loop_
 _atom_site_type_symbol
 _atom_site_label
 _atom_site_symmetry_multiplicity
 _atom_site_fract_x
 _atom_site_fract_y
 _atom_site_fract_z
 _atom_site_occupancy
  Ba  Ba0  1  0.000000  0.000000  0.000000  1
  Mn  Mn1  1  0.000000  0.000000  0.500000  1
  As  As2  1  0.847491  0.645128  0.498048  1
  As  As3  1  0.152509  0.354872  0.501952  1
  As  As4  1  0.151328  0.650194  0.801607  1
  As  As5  1  0.848672  0.349806  0.198393  1
  As  As6  1  0.650194  0.498865  0.848588  1
  As  As7  1  0.349806  0.501135  0.151412  1
  As  As8  1  0.645128  0.797638  0.147080  1
  As  As9  1  0.354872  0.202362  0.852920  1
  As  As10  1  0.498865  0.848672  0.650278  1
  As  As11  1  0.501135  0.151328  0.349722  1
  As  As12  1  0.202362  0.847491  0.349443  1
  As  As13  1  0.797638  0.152509  0.650557  1
  Ru  Ru14  1  0.500000  0.500000  0.500000  1
  Ru  Ru15  1  0.500000  0.000000  0.000000  1
  Ru  Ru16  1  0.000000  0.500000  0.000000  1
