# generated using pymatgen
data_Cs2Pr3Sm(CuSe4)2
_symmetry_space_group_name_H-M   'P 1'
_cell_length_a   4.35245600
_cell_length_b   7.79921773
_cell_length_c   14.74359468
_cell_angle_alpha   89.86207523
_cell_angle_beta   90.00000000
_cell_angle_gamma   73.79758546
_symmetry_Int_Tables_number   1
_chemical_formula_structural   Cs2Pr3Sm(CuSe4)2
_chemical_formula_sum   'Cs2 Pr3 Sm1 Cu2 Se8'
_cell_volume   480.60270188
_cell_formula_units_Z   1
loop_
 _symmetry_equiv_pos_site_id
 _symmetry_equiv_pos_as_xyz
  1  'x, y, z'
loop_
 _atom_site_type_symbol
 _atom_site_label
 _atom_site_symmetry_multiplicity
 _atom_site_fract_x
 _atom_site_fract_y
 _atom_site_fract_z
 _atom_site_occupancy
  Cs  Cs0  1  0.894960  0.210081  0.249398  1
  Cs  Cs1  1  0.105252  0.789498  0.751108  1
  Pr  Pr2  1  0.633291  0.733420  0.060683  1
  Pr  Pr3  1  0.634535  0.730931  0.437897  1
  Pr  Pr4  1  0.366114  0.267774  0.563357  1
  Sm  Sm5  1  0.364858  0.270284  0.937856  1
  Cu  Cu6  1  0.166641  0.666717  0.249442  1
  Cu  Cu7  1  0.833687  0.332628  0.749698  1
  Se  Se8  1  0.997312  0.005377  0.998295  1
  Se  Se9  1  0.258295  0.483410  0.108837  1
  Se  Se10  1  0.576422  0.847159  0.249252  1
  Se  Se11  1  0.258545  0.482910  0.389198  1
  Se  Se12  1  0.000096  0.999808  0.500503  1
  Se  Se13  1  0.741650  0.516701  0.611141  1
  Se  Se14  1  0.423570  0.152861  0.752924  1
  Se  Se15  1  0.744781  0.510440  0.890411  1
