# generated using pymatgen
data_Hf2(Al3Rh)3
_symmetry_space_group_name_H-M   'P 1'
_cell_length_a   7.45577149
_cell_length_b   7.45577252
_cell_length_c   9.20755100
_cell_angle_alpha   90.00000000
_cell_angle_beta   90.00000000
_cell_angle_gamma   119.76509182
_symmetry_Int_Tables_number   1
_chemical_formula_structural   Hf2(Al3Rh)3
_chemical_formula_sum   'Hf4 Al18 Rh6'
_cell_volume   444.30700206
_cell_formula_units_Z   2
loop_
 _symmetry_equiv_pos_site_id
 _symmetry_equiv_pos_as_xyz
  1  'x, y, z'
loop_
 _atom_site_type_symbol
 _atom_site_label
 _atom_site_symmetry_multiplicity
 _atom_site_fract_x
 _atom_site_fract_y
 _atom_site_fract_z
 _atom_site_occupancy
  Hf  Hf0  1  0.993849  0.670963  0.250000  1
  Hf  Hf1  1  0.006151  0.329037  0.750000  1
  Hf  Hf2  1  0.670963  0.993849  0.250000  1
  Hf  Hf3  1  0.329037  0.006151  0.750000  1
  Al  Al4  1  0.122155  0.122155  0.250000  1
  Al  Al5  1  0.877845  0.877845  0.750000  1
  Al  Al6  1  0.997419  0.334543  0.076886  1
  Al  Al7  1  0.002581  0.665457  0.923114  1
  Al  Al8  1  0.002581  0.665457  0.576886  1
  Al  Al9  1  0.334543  0.997419  0.423114  1
  Al  Al10  1  0.997419  0.334543  0.423114  1
  Al  Al11  1  0.665457  0.002581  0.576886  1
  Al  Al12  1  0.665457  0.002581  0.923114  1
  Al  Al13  1  0.334543  0.997419  0.076886  1
  Al  Al14  1  0.331326  0.331326  0.558506  1
  Al  Al15  1  0.668674  0.668674  0.441494  1
  Al  Al16  1  0.668674  0.668674  0.058506  1
  Al  Al17  1  0.331326  0.331326  0.941494  1
  Al  Al18  1  0.338532  0.554681  0.250000  1
  Al  Al19  1  0.661468  0.445319  0.750000  1
  Al  Al20  1  0.554681  0.338532  0.250000  1
  Al  Al21  1  0.445319  0.661468  0.750000  1
  Rh  Rh22  1  0.673019  0.326981  0.000000  1
  Rh  Rh23  1  0.326981  0.673019  0.000000  1
  Rh  Rh24  1  0.326981  0.673019  0.500000  1
  Rh  Rh25  1  0.673019  0.326981  0.500000  1
  Rh  Rh26  1  0.000000  0.000000  0.000000  1
  Rh  Rh27  1  0.000000  0.000000  0.500000  1
