# generated using pymatgen
data_Tm4Al24Ni8Au
_symmetry_space_group_name_H-M   'P 1'
_cell_length_a   7.33363961
_cell_length_b   7.36798401
_cell_length_c   12.79211369
_cell_angle_alpha   84.45455028
_cell_angle_beta   78.97957835
_cell_angle_gamma   59.83500415
_symmetry_Int_Tables_number   1
_chemical_formula_structural   Tm4Al24Ni8Au
_chemical_formula_sum   'Tm4 Al24 Ni8 Au1'
_cell_volume   586.58786449
_cell_formula_units_Z   1
loop_
 _symmetry_equiv_pos_site_id
 _symmetry_equiv_pos_as_xyz
  1  'x, y, z'
loop_
 _atom_site_type_symbol
 _atom_site_label
 _atom_site_symmetry_multiplicity
 _atom_site_fract_x
 _atom_site_fract_y
 _atom_site_fract_z
 _atom_site_occupancy
  Tm  Tm0  1  0.390579  0.171175  0.807576  1
  Tm  Tm1  1  0.605984  0.831238  0.194953  1
  Tm  Tm2  1  0.737287  0.497738  0.807382  1
  Tm  Tm3  1  0.265071  0.502204  0.193450  1
  Al  Al4  1  0.677192  0.835666  0.949428  1
  Al  Al5  1  0.319564  0.166696  0.053473  1
  Al  Al6  1  0.146865  0.839469  0.555430  1
  Al  Al7  1  0.854904  0.166376  0.436808  1
  Al  Al8  1  0.493500  0.155400  0.554256  1
  Al  Al9  1  0.519652  0.833142  0.440229  1
  Al  Al10  1  0.216946  0.165087  0.333038  1
  Al  Al11  1  0.770510  0.846513  0.669863  1
  Al  Al12  1  0.449246  0.506658  0.670139  1
  Al  Al13  1  0.561254  0.494085  0.333014  1
  Al  Al14  1  0.110403  0.144133  0.667383  1
  Al  Al15  1  0.888523  0.840500  0.334412  1
  Al  Al16  1  0.357109  0.495763  0.949050  1
  Al  Al17  1  0.645039  0.504325  0.053426  1
  Al  Al18  1  0.012833  0.169368  0.962017  1
  Al  Al19  1  0.985994  0.830377  0.041243  1
  Al  Al20  1  0.189395  0.498982  0.432206  1
  Al  Al21  1  0.804231  0.498434  0.554259  1
  Al  Al22  1  0.727941  0.163836  0.184228  1
  Al  Al23  1  0.275035  0.836191  0.816752  1
  Al  Al24  1  0.058834  0.634183  0.823537  1
  Al  Al25  1  0.937817  0.374378  0.185928  1
  Al  Al26  1  0.846646  0.050392  0.816683  1
  Al  Al27  1  0.149889  0.952957  0.184168  1
  Ni  Ni28  1  0.879553  0.508198  0.360253  1
  Ni  Ni29  1  0.658956  0.171025  0.000584  1
  Ni  Ni30  1  0.340606  0.830136  0.000302  1
  Ni  Ni31  1  0.538139  0.166615  0.360872  1
  Ni  Ni32  1  0.463050  0.830964  0.636653  1
  Ni  Ni33  1  0.779865  0.172920  0.636809  1
  Ni  Ni34  1  0.221533  0.825765  0.360934  1
  Ni  Ni35  1  0.999801  0.499188  0.001080  1
  Au  Au36  1  0.120255  0.489926  0.638177  1
