# generated using pymatgen
data_Dy2Lu2Al17GaIr6
_symmetry_space_group_name_H-M   'P 1'
_cell_length_a   7.53235404
_cell_length_b   7.53235529
_cell_length_c   9.46360400
_cell_angle_alpha   90.00000000
_cell_angle_beta   90.00000000
_cell_angle_gamma   119.43778574
_symmetry_Int_Tables_number   1
_chemical_formula_structural   Dy2Lu2Al17GaIr6
_chemical_formula_sum   'Dy2 Lu2 Al17 Ga1 Ir6'
_cell_volume   467.60734431
_cell_formula_units_Z   1
loop_
 _symmetry_equiv_pos_site_id
 _symmetry_equiv_pos_as_xyz
  1  'x, y, z'
loop_
 _atom_site_type_symbol
 _atom_site_label
 _atom_site_symmetry_multiplicity
 _atom_site_fract_x
 _atom_site_fract_y
 _atom_site_fract_z
 _atom_site_occupancy
  Dy  Dy0  1  0.994032  0.674415  0.250000  1
  Dy  Dy1  1  0.674415  0.994032  0.250000  1
  Lu  Lu2  1  0.004996  0.327638  0.750000  1
  Lu  Lu3  1  0.327638  0.004996  0.750000  1
  Al  Al4  1  0.870703  0.870703  0.750000  1
  Al  Al5  1  0.001570  0.335612  0.072074  1
  Al  Al6  1  0.999388  0.664211  0.923703  1
  Al  Al7  1  0.999388  0.664211  0.576297  1
  Al  Al8  1  0.335612  0.001570  0.427926  1
  Al  Al9  1  0.001570  0.335612  0.427926  1
  Al  Al10  1  0.664211  0.999388  0.576297  1
  Al  Al11  1  0.664211  0.999388  0.923703  1
  Al  Al12  1  0.335612  0.001570  0.072074  1
  Al  Al13  1  0.332630  0.332630  0.556758  1
  Al  Al14  1  0.665594  0.665594  0.450610  1
  Al  Al15  1  0.665594  0.665594  0.049390  1
  Al  Al16  1  0.332630  0.332630  0.943242  1
  Al  Al17  1  0.338748  0.549400  0.250000  1
  Al  Al18  1  0.660604  0.449911  0.750000  1
  Al  Al19  1  0.549400  0.338748  0.250000  1
  Al  Al20  1  0.449911  0.660604  0.750000  1
  Ga  Ga21  1  0.134674  0.134674  0.250000  1
  Ir  Ir22  1  0.671289  0.327066  0.999281  1
  Ir  Ir23  1  0.327066  0.671289  0.999281  1
  Ir  Ir24  1  0.327066  0.671289  0.500719  1
  Ir  Ir25  1  0.671289  0.327066  0.500719  1
  Ir  Ir26  1  0.000079  0.000079  0.996207  1
  Ir  Ir27  1  0.000079  0.000079  0.503793  1
