# generated using pymatgen
data_Er2Tm14In4Ir3Os
_symmetry_space_group_name_H-M   'P 1'
_cell_length_a   9.57673777
_cell_length_b   9.56486326
_cell_length_c   9.57735730
_cell_angle_alpha   59.70551759
_cell_angle_beta   59.75371722
_cell_angle_gamma   59.68396946
_symmetry_Int_Tables_number   1
_chemical_formula_structural   Er2Tm14In4Ir3Os
_chemical_formula_sum   'Er2 Tm14 In4 Ir3 Os1'
_cell_volume   616.31163875
_cell_formula_units_Z   1
loop_
 _symmetry_equiv_pos_site_id
 _symmetry_equiv_pos_as_xyz
  1  'x, y, z'
loop_
 _atom_site_type_symbol
 _atom_site_label
 _atom_site_symmetry_multiplicity
 _atom_site_fract_x
 _atom_site_fract_y
 _atom_site_fract_z
 _atom_site_occupancy
  Er  Er0  1  0.439794  0.439071  0.060959  1
  Er  Er1  1  0.057489  0.444180  0.057797  1
  Tm  Tm2  1  0.057616  0.057234  0.444384  1
  Tm  Tm3  1  0.651216  0.045527  0.651006  1
  Tm  Tm4  1  0.191948  0.809734  0.192040  1
  Tm  Tm5  1  0.439666  0.060320  0.440002  1
  Tm  Tm6  1  0.192297  0.192351  0.809142  1
  Tm  Tm7  1  0.651268  0.650952  0.651371  1
  Tm  Tm8  1  0.045448  0.651125  0.650404  1
  Tm  Tm9  1  0.444545  0.056836  0.057510  1
  Tm  Tm10  1  0.650440  0.650925  0.045455  1
  Tm  Tm11  1  0.191459  0.809262  0.808284  1
  Tm  Tm12  1  0.809140  0.191420  0.808779  1
  Tm  Tm13  1  0.809509  0.192148  0.192241  1
  Tm  Tm14  1  0.808453  0.808999  0.191473  1
  Tm  Tm15  1  0.060301  0.439436  0.440450  1
  In  In16  1  0.750062  0.416725  0.417209  1
  In  In17  1  0.417240  0.416801  0.749753  1
  In  In18  1  0.416979  0.749863  0.416925  1
  In  In19  1  0.416736  0.417567  0.416700  1
  Ir  Ir20  1  0.421364  0.859232  0.858507  1
  Ir  Ir21  1  0.858635  0.858894  0.421429  1
  Ir  Ir22  1  0.858789  0.421713  0.858378  1
  Os  Os23  1  0.859607  0.859689  0.859803  1
