# generated using pymatgen
data_Sc4Al2Si3Ge
_symmetry_space_group_name_H-M   'P 1'
_cell_length_a   6.64444423
_cell_length_b   6.64444423
_cell_length_c   4.01232300
_cell_angle_alpha   90.00000000
_cell_angle_beta   90.00000000
_cell_angle_gamma   89.93027352
_symmetry_Int_Tables_number   1
_chemical_formula_structural   Sc4Al2Si3Ge
_chemical_formula_sum   'Sc4 Al2 Si3 Ge1'
_cell_volume   177.13846901
_cell_formula_units_Z   1
loop_
 _symmetry_equiv_pos_site_id
 _symmetry_equiv_pos_as_xyz
  1  'x, y, z'
loop_
 _atom_site_type_symbol
 _atom_site_label
 _atom_site_symmetry_multiplicity
 _atom_site_fract_x
 _atom_site_fract_y
 _atom_site_fract_z
 _atom_site_occupancy
  Sc  Sc0  1  0.827328  0.672672  0.500000  1
  Sc  Sc1  1  0.175305  0.324695  0.500000  1
  Sc  Sc2  1  0.674921  0.179059  0.500000  1
  Sc  Sc3  1  0.320941  0.825079  0.500000  1
  Al  Al4  1  0.003814  0.001470  0.000000  1
  Al  Al5  1  0.498530  0.496186  0.000000  1
  Si  Si6  1  0.370481  0.129519  0.000000  1
  Si  Si7  1  0.874587  0.373871  0.000000  1
  Si  Si8  1  0.126129  0.625413  0.000000  1
  Ge  Ge9  1  0.627964  0.872036  0.000000  1
