# generated using pymatgen
data_Hf20Fe2CoNiP12
_symmetry_space_group_name_H-M   'P 1'
_cell_length_a   3.60056700
_cell_length_b   10.20055148
_cell_length_c   17.00540813
_cell_angle_alpha   90.06091483
_cell_angle_beta   90.00000000
_cell_angle_gamma   90.00000000
_symmetry_Int_Tables_number   1
_chemical_formula_structural   Hf20Fe2CoNiP12
_chemical_formula_sum   'Hf20 Fe2 Co1 Ni1 P12'
_cell_volume   624.57034958
_cell_formula_units_Z   1
loop_
 _symmetry_equiv_pos_site_id
 _symmetry_equiv_pos_as_xyz
  1  'x, y, z'
loop_
 _atom_site_type_symbol
 _atom_site_label
 _atom_site_symmetry_multiplicity
 _atom_site_fract_x
 _atom_site_fract_y
 _atom_site_fract_z
 _atom_site_occupancy
  Hf  Hf0  1  0.250000  0.119849  0.476783  1
  Hf  Hf1  1  0.750000  0.876401  0.524012  1
  Hf  Hf2  1  0.750000  0.621683  0.023494  1
  Hf  Hf3  1  0.250000  0.376897  0.975956  1
  Hf  Hf4  1  0.250000  0.061465  0.075639  1
  Hf  Hf5  1  0.750000  0.940749  0.925029  1
  Hf  Hf6  1  0.750000  0.563635  0.423842  1
  Hf  Hf7  1  0.250000  0.440383  0.575880  1
  Hf  Hf8  1  0.250000  0.489148  0.271528  1
  Hf  Hf9  1  0.750000  0.514003  0.726915  1
  Hf  Hf10  1  0.750000  0.988123  0.227412  1
  Hf  Hf11  1  0.250000  0.014370  0.773109  1
  Hf  Hf12  1  0.250000  0.815637  0.368396  1
  Hf  Hf13  1  0.750000  0.183389  0.631818  1
  Hf  Hf14  1  0.750000  0.316348  0.130977  1
  Hf  Hf15  1  0.250000  0.682903  0.868588  1
  Hf  Hf16  1  0.250000  0.753429  0.168220  1
  Hf  Hf17  1  0.750000  0.246405  0.832113  1
  Hf  Hf18  1  0.750000  0.252282  0.330180  1
  Hf  Hf19  1  0.250000  0.746303  0.668011  1
  Fe  Fe20  1  0.750000  0.631459  0.590439  1
  Fe  Fe21  1  0.250000  0.130022  0.909740  1
  Co  Co22  1  0.750000  0.867075  0.087970  1
  Ni  Ni23  1  0.250000  0.366941  0.414240  1
  P  P24  1  0.250000  0.809626  0.009237  1
  P  P25  1  0.750000  0.189755  0.990996  1
  P  P26  1  0.750000  0.309625  0.490435  1
  P  P27  1  0.250000  0.688627  0.509083  1
  P  P28  1  0.250000  0.505528  0.115990  1
  P  P29  1  0.750000  0.494823  0.883902  1
  P  P30  1  0.750000  0.006755  0.383772  1
  P  P31  1  0.250000  0.994727  0.616270  1
  P  P32  1  0.250000  0.187145  0.217507  1
  P  P33  1  0.750000  0.814333  0.783397  1
  P  P34  1  0.750000  0.685886  0.282010  1
  P  P35  1  0.250000  0.314271  0.717108  1
