# generated using pymatgen
data_Nd2HoSn2Hg3
_symmetry_space_group_name_H-M   'P 1'
_cell_length_a   6.44299700
_cell_length_b   6.44299655
_cell_length_c   10.64172900
_cell_angle_alpha   90.00000000
_cell_angle_beta   90.00000000
_cell_angle_gamma   102.32682352
_symmetry_Int_Tables_number   1
_chemical_formula_structural   Nd2HoSn2Hg3
_chemical_formula_sum   'Nd4 Ho2 Sn4 Hg6'
_cell_volume   431.57717137
_cell_formula_units_Z   2
loop_
 _symmetry_equiv_pos_site_id
 _symmetry_equiv_pos_as_xyz
  1  'x, y, z'
loop_
 _atom_site_type_symbol
 _atom_site_label
 _atom_site_symmetry_multiplicity
 _atom_site_fract_x
 _atom_site_fract_y
 _atom_site_fract_z
 _atom_site_occupancy
  Nd  Nd0  1  0.201545  0.798455  0.500000  1
  Nd  Nd1  1  0.201545  0.798455  0.000000  1
  Nd  Nd2  1  0.798455  0.201545  0.500000  1
  Nd  Nd3  1  0.798455  0.201545  0.000000  1
  Ho  Ho4  1  0.632195  0.632195  0.250000  1
  Ho  Ho5  1  0.367805  0.367805  0.750000  1
  Sn  Sn6  1  0.317474  0.317474  0.046043  1
  Sn  Sn7  1  0.682526  0.682526  0.953957  1
  Sn  Sn8  1  0.317474  0.317474  0.453957  1
  Sn  Sn9  1  0.682526  0.682526  0.546043  1
  Hg  Hg10  1  0.010488  0.010488  0.250000  1
  Hg  Hg11  1  0.989512  0.989512  0.750000  1
  Hg  Hg12  1  0.507454  0.069376  0.250000  1
  Hg  Hg13  1  0.930624  0.492546  0.750000  1
  Hg  Hg14  1  0.492546  0.930624  0.750000  1
  Hg  Hg15  1  0.069376  0.507454  0.250000  1
