# generated using pymatgen
data_Y8Ti11Si16Ir
_symmetry_space_group_name_H-M   'P 1'
_cell_length_a   7.03156369
_cell_length_b   7.03156318
_cell_length_c   12.87050901
_cell_angle_alpha   89.88018866
_cell_angle_beta   90.11981256
_cell_angle_gamma   89.84354636
_symmetry_Int_Tables_number   1
_chemical_formula_structural   Y8Ti11Si16Ir
_chemical_formula_sum   'Y8 Ti11 Si16 Ir1'
_cell_volume   636.34992624
_cell_formula_units_Z   1
loop_
 _symmetry_equiv_pos_site_id
 _symmetry_equiv_pos_as_xyz
  1  'x, y, z'
loop_
 _atom_site_type_symbol
 _atom_site_label
 _atom_site_symmetry_multiplicity
 _atom_site_fract_x
 _atom_site_fract_y
 _atom_site_fract_z
 _atom_site_occupancy
  Y  Y0  1  0.996004  0.659673  0.032614  1
  Y  Y1  1  0.001952  0.341927  0.531378  1
  Y  Y2  1  0.659673  0.996004  0.967386  1
  Y  Y3  1  0.158667  0.503307  0.781830  1
  Y  Y4  1  0.841259  0.499226  0.285036  1
  Y  Y5  1  0.503307  0.158667  0.218170  1
  Y  Y6  1  0.499226  0.841259  0.714964  1
  Y  Y7  1  0.341927  0.001952  0.468622  1
  Ti  Ti8  1  0.343139  0.506439  0.375061  1
  Ti  Ti9  1  0.850236  0.996961  0.376208  1
  Ti  Ti10  1  0.006477  0.151548  0.124813  1
  Ti  Ti11  1  0.996961  0.850236  0.623792  1
  Ti  Ti12  1  0.506439  0.343139  0.624939  1
  Ti  Ti13  1  0.151548  0.006477  0.875187  1
  Ti  Ti14  1  0.824482  0.172749  0.748168  1
  Ti  Ti15  1  0.172749  0.824482  0.251832  1
  Ti  Ti16  1  0.326337  0.326337  0.000000  1
  Ti  Ti17  1  0.493091  0.650733  0.128158  1
  Ti  Ti18  1  0.650733  0.493091  0.871842  1
  Si  Si19  1  0.048523  0.713681  0.435941  1
  Si  Si20  1  0.951990  0.291126  0.934274  1
  Si  Si21  1  0.713681  0.048523  0.564059  1
  Si  Si22  1  0.208110  0.452749  0.184347  1
  Si  Si23  1  0.789909  0.550412  0.681563  1
  Si  Si24  1  0.452749  0.208110  0.815653  1
  Si  Si25  1  0.550412  0.789909  0.318437  1
  Si  Si26  1  0.291126  0.951990  0.065726  1
  Si  Si27  1  0.797958  0.867957  0.185794  1
  Si  Si28  1  0.298771  0.627087  0.565862  1
  Si  Si29  1  0.704050  0.369207  0.065486  1
  Si  Si30  1  0.627087  0.298771  0.434138  1
  Si  Si31  1  0.369207  0.704050  0.934514  1
  Si  Si32  1  0.131139  0.203341  0.315843  1
  Si  Si33  1  0.203341  0.131139  0.684157  1
  Si  Si34  1  0.867957  0.797958  0.814206  1
  Ir  Ir35  1  0.669783  0.669783  0.500000  1
