# generated using pymatgen
data_Sr3(RuO5)2
_symmetry_space_group_name_H-M   'P 1'
_cell_length_a   7.76763279
_cell_length_b   7.76763287
_cell_length_c   8.37485545
_cell_angle_alpha   72.01783153
_cell_angle_beta   72.01783259
_cell_angle_gamma   88.21703063
_symmetry_Int_Tables_number   1
_chemical_formula_structural   Sr3(RuO5)2
_chemical_formula_sum   'Sr6 Ru4 O20'
_cell_volume   455.99390158
_cell_formula_units_Z   2
loop_
 _symmetry_equiv_pos_site_id
 _symmetry_equiv_pos_as_xyz
  1  'x, y, z'
loop_
 _atom_site_type_symbol
 _atom_site_label
 _atom_site_symmetry_multiplicity
 _atom_site_fract_x
 _atom_site_fract_y
 _atom_site_fract_z
 _atom_site_occupancy
  Sr  Sr0  1  0.948331  0.748206  0.998202  1
  Sr  Sr1  1  0.251794  0.051669  0.501798  1
  Sr  Sr2  1  0.051669  0.251794  0.001798  1
  Sr  Sr3  1  0.748206  0.948331  0.498202  1
  Sr  Sr4  1  0.500000  0.500000  0.000000  1
  Sr  Sr5  1  0.500000  0.500000  0.500000  1
  Ru  Ru6  1  0.047666  0.419113  0.338954  1
  Ru  Ru7  1  0.580887  0.952334  0.161046  1
  Ru  Ru8  1  0.952334  0.580887  0.661046  1
  Ru  Ru9  1  0.419113  0.047666  0.838954  1
  O  O10  1  0.949151  0.342319  0.587232  1
  O  O11  1  0.657681  0.050849  0.912768  1
  O  O12  1  0.050849  0.657681  0.412768  1
  O  O13  1  0.342319  0.949151  0.087232  1
  O  O14  1  0.838781  0.510533  0.305292  1
  O  O15  1  0.489467  0.161219  0.194708  1
  O  O16  1  0.161219  0.489467  0.694708  1
  O  O17  1  0.510533  0.838781  0.805292  1
  O  O18  1  0.157657  0.514465  0.081492  1
  O  O19  1  0.485535  0.842343  0.418508  1
  O  O20  1  0.842343  0.485535  0.918508  1
  O  O21  1  0.514465  0.157657  0.581492  1
  O  O22  1  0.018972  0.182093  0.335087  1
  O  O23  1  0.817907  0.981028  0.164913  1
  O  O24  1  0.981028  0.817907  0.664913  1
  O  O25  1  0.182093  0.018972  0.835087  1
  O  O26  1  0.718654  0.586724  0.651162  1
  O  O27  1  0.413276  0.281346  0.848838  1
  O  O28  1  0.281346  0.413276  0.348838  1
  O  O29  1  0.586724  0.718654  0.151162  1
