# generated using pymatgen
data_Y17Ho3(Bi2Ru)4
_symmetry_space_group_name_H-M   'P 1'
_cell_length_a   7.99306308
_cell_length_b   9.06153763
_cell_length_c   12.46775002
_cell_angle_alpha   89.99385364
_cell_angle_beta   89.99457462
_cell_angle_gamma   89.97716302
_symmetry_Int_Tables_number   1
_chemical_formula_structural   Y17Ho3(Bi2Ru)4
_chemical_formula_sum   'Y17 Ho3 Bi8 Ru4'
_cell_volume   903.03209472
_cell_formula_units_Z   1
loop_
 _symmetry_equiv_pos_site_id
 _symmetry_equiv_pos_as_xyz
  1  'x, y, z'
loop_
 _atom_site_type_symbol
 _atom_site_label
 _atom_site_symmetry_multiplicity
 _atom_site_fract_x
 _atom_site_fract_y
 _atom_site_fract_z
 _atom_site_occupancy
  Y  Y0  1  0.343482  0.750257  0.707915  1
  Y  Y1  1  0.656343  0.250006  0.292356  1
  Y  Y2  1  0.843585  0.249501  0.792077  1
  Y  Y3  1  0.156343  0.750457  0.207767  1
  Y  Y4  1  0.876305  0.750848  0.806993  1
  Y  Y5  1  0.123885  0.249409  0.192749  1
  Y  Y6  1  0.376756  0.249758  0.692888  1
  Y  Y7  1  0.623992  0.750165  0.307358  1
  Y  Y8  1  0.675960  0.540708  0.564696  1
  Y  Y9  1  0.323834  0.459385  0.435578  1
  Y  Y10  1  0.176132  0.459507  0.935615  1
  Y  Y11  1  0.323487  0.040833  0.435344  1
  Y  Y12  1  0.823846  0.540632  0.064303  1
  Y  Y13  1  0.051904  0.750701  0.496226  1
  Y  Y14  1  0.947047  0.248985  0.504127  1
  Y  Y15  1  0.552507  0.248281  0.003940  1
  Y  Y16  1  0.447555  0.751799  0.995992  1
  Ho  Ho17  1  0.673847  0.958910  0.563724  1
  Ho  Ho18  1  0.825725  0.958845  0.063723  1
  Ho  Ho19  1  0.174300  0.041240  0.936153  1
  Bi  Bi20  1  0.570839  0.506729  0.828467  1
  Bi  Bi21  1  0.429417  0.493508  0.171661  1
  Bi  Bi22  1  0.070803  0.493269  0.672071  1
  Bi  Bi23  1  0.429856  0.006631  0.172301  1
  Bi  Bi24  1  0.929642  0.506500  0.327979  1
  Bi  Bi25  1  0.570483  0.993346  0.827574  1
  Bi  Bi26  1  0.929077  0.993304  0.327678  1
  Bi  Bi27  1  0.070887  0.006740  0.672011  1
  Ru  Ru28  1  0.072896  0.752582  0.989500  1
  Ru  Ru29  1  0.927195  0.247507  0.010334  1
  Ru  Ru30  1  0.574272  0.248704  0.510926  1
  Ru  Ru31  1  0.427797  0.750952  0.489977  1
