# generated using pymatgen
data_Dy4InPt10Rh
_symmetry_space_group_name_H-M   'P 1'
_cell_length_a   4.19769300
_cell_length_b   5.82282784
_cell_length_c   11.69838959
_cell_angle_alpha   87.08749966
_cell_angle_beta   90.00000000
_cell_angle_gamma   90.00000000
_symmetry_Int_Tables_number   1
_chemical_formula_structural   Dy4InPt10Rh
_chemical_formula_sum   'Dy4 In1 Pt10 Rh1'
_cell_volume   285.56788232
_cell_formula_units_Z   1
loop_
 _symmetry_equiv_pos_site_id
 _symmetry_equiv_pos_as_xyz
  1  'x, y, z'
loop_
 _atom_site_type_symbol
 _atom_site_label
 _atom_site_symmetry_multiplicity
 _atom_site_fract_x
 _atom_site_fract_y
 _atom_site_fract_z
 _atom_site_occupancy
  Dy  Dy0  1  0.500000  0.755772  0.374861  1
  Dy  Dy1  1  0.500000  0.714226  0.865704  1
  Dy  Dy2  1  0.500000  0.285774  0.134296  1
  Dy  Dy3  1  0.500000  0.244228  0.625139  1
  In  In4  1  0.000000  0.000000  0.000000  1
  Pt  Pt5  1  0.000000  0.017123  0.249881  1
  Pt  Pt6  1  0.000000  0.982877  0.750119  1
  Pt  Pt7  1  0.000000  0.500000  0.500000  1
  Pt  Pt8  1  0.000000  0.518226  0.249946  1
  Pt  Pt9  1  0.000000  0.481774  0.750054  1
  Pt  Pt10  1  0.500000  0.254162  0.377802  1
  Pt  Pt11  1  0.500000  0.228383  0.880639  1
  Pt  Pt12  1  0.500000  0.771617  0.119361  1
  Pt  Pt13  1  0.500000  0.745838  0.622198  1
  Pt  Pt14  1  0.000000  0.000000  0.500000  1
  Rh  Rh15  1  0.000000  0.500000  0.000000  1
