# generated using pymatgen
data_Tb7IrI12
_symmetry_space_group_name_H-M   'P 1'
_cell_length_a   9.87281100
_cell_length_b   9.87281064
_cell_length_c   9.87281197
_cell_angle_alpha   106.98594821
_cell_angle_beta   106.98595195
_cell_angle_gamma   106.98595062
_symmetry_Int_Tables_number   1
_chemical_formula_structural   Tb7IrI12
_chemical_formula_sum   'Tb7 Ir1 I12'
_cell_volume   801.74177442
_cell_formula_units_Z   1
loop_
 _symmetry_equiv_pos_site_id
 _symmetry_equiv_pos_as_xyz
  1  'x, y, z'
loop_
 _atom_site_type_symbol
 _atom_site_label
 _atom_site_symmetry_multiplicity
 _atom_site_fract_x
 _atom_site_fract_y
 _atom_site_fract_z
 _atom_site_occupancy
  Tb  Tb0  1  0.094806  0.022792  0.296084  1
  Tb  Tb1  1  0.296084  0.094806  0.022792  1
  Tb  Tb2  1  0.022792  0.296084  0.094806  1
  Tb  Tb3  1  0.905194  0.977208  0.703916  1
  Tb  Tb4  1  0.703916  0.905194  0.977208  1
  Tb  Tb5  1  0.977208  0.703916  0.905194  1
  Tb  Tb6  1  0.500000  0.500000  0.500000  1
  Ir  Ir7  1  0.000000  0.000000  0.000000  1
  I  I8  1  0.072571  0.677943  0.223846  1
  I  I9  1  0.223846  0.072571  0.677943  1
  I  I10  1  0.677943  0.223846  0.072571  1
  I  I11  1  0.927429  0.322057  0.776154  1
  I  I12  1  0.776154  0.927429  0.322057  1
  I  I13  1  0.322057  0.776154  0.927429  1
  I  I14  1  0.463053  0.163075  0.386900  1
  I  I15  1  0.386900  0.463053  0.163075  1
  I  I16  1  0.163075  0.386900  0.463053  1
  I  I17  1  0.536947  0.836925  0.613100  1
  I  I18  1  0.613100  0.536947  0.836925  1
  I  I19  1  0.836925  0.613100  0.536947  1
