# generated using pymatgen
data_Ce6As13Rh20
_symmetry_space_group_name_H-M   'P 1'
_cell_length_a   13.89321900
_cell_length_b   13.89321885
_cell_length_c   4.02198600
_cell_angle_alpha   90.00000000
_cell_angle_beta   90.00000000
_cell_angle_gamma   119.99999971
_symmetry_Int_Tables_number   1
_chemical_formula_structural   Ce6As13Rh20
_chemical_formula_sum   'Ce6 As13 Rh20'
_cell_volume   672.32141694
_cell_formula_units_Z   1
loop_
 _symmetry_equiv_pos_site_id
 _symmetry_equiv_pos_as_xyz
  1  'x, y, z'
loop_
 _atom_site_type_symbol
 _atom_site_label
 _atom_site_symmetry_multiplicity
 _atom_site_fract_x
 _atom_site_fract_y
 _atom_site_fract_z
 _atom_site_occupancy
  Ce  Ce0  1  0.717745  0.530274  0.000000  1
  Ce  Ce1  1  0.812530  0.282255  0.000000  1
  Ce  Ce2  1  0.469726  0.187470  0.000000  1
  Ce  Ce3  1  0.529331  0.810481  0.500000  1
  Ce  Ce4  1  0.281148  0.470669  0.500000  1
  Ce  Ce5  1  0.189519  0.718852  0.500000  1
  As  As6  1  0.862675  0.476149  0.500000  1
  As  As7  1  0.613474  0.137325  0.500000  1
  As  As8  1  0.523851  0.386526  0.500000  1
  As  As9  1  0.769746  0.722146  0.500000  1
  As  As10  1  0.952400  0.230254  0.500000  1
  As  As11  1  0.277854  0.047600  0.500000  1
  As  As12  1  0.387156  0.861769  0.000000  1
  As  As13  1  0.474614  0.612844  0.000000  1
  As  As14  1  0.138231  0.525386  0.000000  1
  As  As15  1  0.717007  0.946531  0.000000  1
  As  As16  1  0.229525  0.282993  0.000000  1
  As  As17  1  0.053469  0.770475  0.000000  1
  As  As18  1  0.000000  0.000000  0.000000  1
  Rh  Rh19  1  0.897214  0.800232  0.000000  1
  Rh  Rh20  1  0.903019  0.102786  0.000000  1
  Rh  Rh21  1  0.199768  0.096981  0.000000  1
  Rh  Rh22  1  0.666667  0.333333  0.500000  1
  Rh  Rh23  1  0.838981  0.922854  0.500000  1
  Rh  Rh24  1  0.083874  0.161019  0.500000  1
  Rh  Rh25  1  0.077146  0.916126  0.500000  1
  Rh  Rh26  1  0.333333  0.666667  0.000000  1
  Rh  Rh27  1  0.977240  0.561564  0.000000  1
  Rh  Rh28  1  0.584324  0.022760  0.000000  1
  Rh  Rh29  1  0.438436  0.415676  0.000000  1
  Rh  Rh30  1  0.927204  0.676522  0.500000  1
  Rh  Rh31  1  0.749318  0.072796  0.500000  1
  Rh  Rh32  1  0.323478  0.250682  0.500000  1
  Rh  Rh33  1  0.416700  0.980793  0.500000  1
  Rh  Rh34  1  0.564092  0.583300  0.500000  1
  Rh  Rh35  1  0.019207  0.435908  0.500000  1
  Rh  Rh36  1  0.671719  0.753406  0.000000  1
  Rh  Rh37  1  0.081686  0.328281  0.000000  1
  Rh  Rh38  1  0.246594  0.918314  0.000000  1
