# generated using pymatgen
data_Pu4CrB16Os3
_symmetry_space_group_name_H-M   'P 1'
_cell_length_a   5.98677796
_cell_length_b   11.60210580
_cell_length_c   3.52435800
_cell_angle_alpha   90.00000000
_cell_angle_beta   90.00000000
_cell_angle_gamma   90.09270117
_symmetry_Int_Tables_number   1
_chemical_formula_structural   Pu4CrB16Os3
_chemical_formula_sum   'Pu4 Cr1 B16 Os3'
_cell_volume   244.79887695
_cell_formula_units_Z   1
loop_
 _symmetry_equiv_pos_site_id
 _symmetry_equiv_pos_as_xyz
  1  'x, y, z'
loop_
 _atom_site_type_symbol
 _atom_site_label
 _atom_site_symmetry_multiplicity
 _atom_site_fract_x
 _atom_site_fract_y
 _atom_site_fract_z
 _atom_site_occupancy
  Pu  Pu0  1  0.627186  0.347371  0.000000  1
  Pu  Pu1  1  0.372744  0.650374  0.000000  1
  Pu  Pu2  1  0.124968  0.149194  0.000000  1
  Pu  Pu3  1  0.873047  0.851302  0.000000  1
  Cr  Cr4  1  0.635265  0.090222  0.000000  1
  B  B5  1  0.784593  0.185100  0.500000  1
  B  B6  1  0.213922  0.814617  0.500000  1
  B  B7  1  0.286907  0.312015  0.500000  1
  B  B8  1  0.712420  0.687197  0.500000  1
  B  B9  1  0.862706  0.032941  0.500000  1
  B  B10  1  0.135445  0.969312  0.500000  1
  B  B11  1  0.364950  0.467850  0.500000  1
  B  B12  1  0.634811  0.530686  0.500000  1
  B  B13  1  0.885687  0.452228  0.500000  1
  B  B14  1  0.114012  0.546697  0.500000  1
  B  B15  1  0.387423  0.047438  0.500000  1
  B  B16  1  0.614621  0.954988  0.500000  1
  B  B17  1  0.972077  0.307099  0.500000  1
  B  B18  1  0.028179  0.692179  0.500000  1
  B  B19  1  0.475969  0.190321  0.500000  1
  B  B20  1  0.526698  0.809536  0.500000  1
  Os  Os21  1  0.367210  0.911188  0.000000  1
  Os  Os22  1  0.138052  0.407547  0.000000  1
  Os  Os23  1  0.861106  0.592598  0.000000  1
