# generated using pymatgen
data_DyErCo7(P2Ru)3
_symmetry_space_group_name_H-M   'P 1'
_cell_length_a   3.71679000
_cell_length_b   10.42210300
_cell_length_c   11.84621000
_cell_angle_alpha   90.00000000
_cell_angle_beta   90.00000000
_cell_angle_gamma   90.00000000
_symmetry_Int_Tables_number   1
_chemical_formula_structural   DyErCo7(P2Ru)3
_chemical_formula_sum   'Dy2 Er2 Co14 P12 Ru6'
_cell_volume   458.88389093
_cell_formula_units_Z   2
loop_
 _symmetry_equiv_pos_site_id
 _symmetry_equiv_pos_as_xyz
  1  'x, y, z'
loop_
 _atom_site_type_symbol
 _atom_site_label
 _atom_site_symmetry_multiplicity
 _atom_site_fract_x
 _atom_site_fract_y
 _atom_site_fract_z
 _atom_site_occupancy
  Dy  Dy0  1  0.250000  0.586602  0.705524  1
  Dy  Dy1  1  0.250000  0.913398  0.205524  1
  Er  Er2  1  0.750000  0.414658  0.292058  1
  Er  Er3  1  0.750000  0.085342  0.792058  1
  Co  Co4  1  0.750000  0.597547  0.512693  1
  Co  Co5  1  0.750000  0.902453  0.012693  1
  Co  Co6  1  0.250000  0.225504  0.179471  1
  Co  Co7  1  0.250000  0.274496  0.679471  1
  Co  Co8  1  0.750000  0.777217  0.822190  1
  Co  Co9  1  0.750000  0.722783  0.322190  1
  Co  Co10  1  0.250000  0.884868  0.700610  1
  Co  Co11  1  0.250000  0.615132  0.200610  1
  Co  Co12  1  0.750000  0.114089  0.298537  1
  Co  Co13  1  0.750000  0.385911  0.798537  1
  Co  Co14  1  0.250000  0.464724  0.931328  1
  Co  Co15  1  0.250000  0.035276  0.431328  1
  Co  Co16  1  0.750000  0.537280  0.068233  1
  Co  Co17  1  0.750000  0.962720  0.568233  1
  P  P18  1  0.250000  0.422521  0.112680  1
  P  P19  1  0.250000  0.077479  0.612680  1
  P  P20  1  0.750000  0.578956  0.887231  1
  P  P21  1  0.750000  0.921044  0.387231  1
  P  P22  1  0.250000  0.272220  0.866300  1
  P  P23  1  0.250000  0.227780  0.366300  1
  P  P24  1  0.750000  0.729816  0.132570  1
  P  P25  1  0.750000  0.770184  0.632570  1
  P  P26  1  0.250000  0.600285  0.386685  1
  P  P27  1  0.250000  0.899715  0.886685  1
  P  P28  1  0.750000  0.402425  0.612463  1
  P  P29  1  0.750000  0.097575  0.112463  1
  Ru  Ru30  1  0.250000  0.713821  0.989412  1
  Ru  Ru31  1  0.250000  0.786179  0.489412  1
  Ru  Ru32  1  0.750000  0.290281  0.013584  1
  Ru  Ru33  1  0.750000  0.209719  0.513584  1
  Ru  Ru34  1  0.250000  0.408863  0.488431  1
  Ru  Ru35  1  0.250000  0.091137  0.988431  1
