# generated using pymatgen
data_Tb2YbSm4FeI12
_symmetry_space_group_name_H-M   'P 1'
_cell_length_a   9.93239210
_cell_length_b   9.86275075
_cell_length_c   9.83568267
_cell_angle_alpha   106.85924731
_cell_angle_beta   106.68943884
_cell_angle_gamma   107.27836598
_symmetry_Int_Tables_number   1
_chemical_formula_structural   Tb2YbSm4FeI12
_chemical_formula_sum   'Tb2 Yb1 Sm4 Fe1 I12'
_cell_volume   803.66182883
_cell_formula_units_Z   1
loop_
 _symmetry_equiv_pos_site_id
 _symmetry_equiv_pos_as_xyz
  1  'x, y, z'
loop_
 _atom_site_type_symbol
 _atom_site_label
 _atom_site_symmetry_multiplicity
 _atom_site_fract_x
 _atom_site_fract_y
 _atom_site_fract_z
 _atom_site_occupancy
  Tb  Tb0  1  0.976092  0.906289  0.714286  1
  Tb  Tb1  1  0.700225  0.973968  0.902552  1
  Yb  Yb2  1  0.500459  0.501085  0.499975  1
  Sm  Sm3  1  0.093501  0.289568  0.024448  1
  Sm  Sm4  1  0.024737  0.094533  0.290386  1
  Sm  Sm5  1  0.304667  0.025559  0.097229  1
  Sm  Sm6  1  0.904360  0.709740  0.975166  1
  Fe  Fe7  1  0.000047  0.999828  0.000995  1
  I  I8  1  0.457726  0.382620  0.153344  1
  I  I9  1  0.156134  0.459542  0.381687  1
  I  I10  1  0.380235  0.154689  0.459374  1
  I  I11  1  0.541509  0.622227  0.846296  1
  I  I12  1  0.845996  0.545192  0.618623  1
  I  I13  1  0.625959  0.849404  0.545889  1
  I  I14  1  0.772136  0.312694  0.924899  1
  I  I15  1  0.925867  0.774178  0.318358  1
  I  I16  1  0.313737  0.924788  0.769252  1
  I  I17  1  0.223100  0.681100  0.072585  1
  I  I18  1  0.071723  0.220377  0.681669  1
  I  I19  1  0.681789  0.072618  0.222989  1
