# generated using pymatgen
data_NaLa6PtBr12
_symmetry_space_group_name_H-M   'P 1'
_cell_length_a   9.82341286
_cell_length_b   9.83369482
_cell_length_c   9.67753159
_cell_angle_alpha   107.30455350
_cell_angle_beta   107.21487343
_cell_angle_gamma   107.51284255
_symmetry_Int_Tables_number   1
_chemical_formula_structural   NaLa6PtBr12
_chemical_formula_sum   'Na1 La6 Pt1 Br12'
_cell_volume   771.12647862
_cell_formula_units_Z   1
loop_
 _symmetry_equiv_pos_site_id
 _symmetry_equiv_pos_as_xyz
  1  'x, y, z'
loop_
 _atom_site_type_symbol
 _atom_site_label
 _atom_site_symmetry_multiplicity
 _atom_site_fract_x
 _atom_site_fract_y
 _atom_site_fract_z
 _atom_site_occupancy
  Na  Na0  1  0.500000  0.500000  0.500000  1
  La  La1  1  0.328917  0.119231  0.030384  1
  La  La2  1  0.031116  0.328230  0.118871  1
  La  La3  1  0.112457  0.028959  0.316397  1
  La  La4  1  0.887542  0.971041  0.683603  1
  La  La5  1  0.968884  0.671770  0.881128  1
  La  La6  1  0.671083  0.880769  0.969615  1
  Pt  Pt7  1  0.000000  0.000000  0.000000  1
  Br  Br8  1  0.684431  0.213093  0.070505  1
  Br  Br9  1  0.369638  0.454140  0.158905  1
  Br  Br10  1  0.071446  0.683987  0.215705  1
  Br  Br11  1  0.786299  0.929413  0.318777  1
  Br  Br12  1  0.453680  0.160135  0.371577  1
  Br  Br13  1  0.161250  0.370541  0.456972  1
  Br  Br14  1  0.838751  0.629459  0.543029  1
  Br  Br15  1  0.546320  0.839866  0.628423  1
  Br  Br16  1  0.213700  0.070587  0.681223  1
  Br  Br17  1  0.928554  0.316013  0.784294  1
  Br  Br18  1  0.630363  0.545861  0.841095  1
  Br  Br19  1  0.315569  0.786906  0.929495  1
