# generated using pymatgen
data_Tb9Nd(InBi)4
_symmetry_space_group_name_H-M   'P 1'
_cell_length_a   8.22004110
_cell_length_b   8.26051900
_cell_length_c   15.70885500
_cell_angle_alpha   90.00000000
_cell_angle_beta   89.45190658
_cell_angle_gamma   90.00000000
_symmetry_Int_Tables_number   1
_chemical_formula_structural   Tb9Nd(InBi)4
_chemical_formula_sum   'Tb18 Nd2 In8 Bi8'
_cell_volume   1066.61081581
_cell_formula_units_Z   2
loop_
 _symmetry_equiv_pos_site_id
 _symmetry_equiv_pos_as_xyz
  1  'x, y, z'
loop_
 _atom_site_type_symbol
 _atom_site_label
 _atom_site_symmetry_multiplicity
 _atom_site_fract_x
 _atom_site_fract_y
 _atom_site_fract_z
 _atom_site_occupancy
  Tb  Tb0  1  0.043078  0.176153  0.393604  1
  Tb  Tb1  1  0.386759  0.836102  0.121089  1
  Tb  Tb2  1  0.115901  0.337276  0.623116  1
  Tb  Tb3  1  0.454925  0.674337  0.893909  1
  Tb  Tb4  1  0.887508  0.663359  0.121512  1
  Tb  Tb5  1  0.113241  0.336102  0.878911  1
  Tb  Tb6  1  0.216107  0.499535  0.249931  1
  Tb  Tb7  1  0.716666  0.000451  0.249422  1
  Tb  Tb8  1  0.456922  0.676153  0.606396  1
  Tb  Tb9  1  0.283893  0.999535  0.750069  1
  Tb  Tb10  1  0.618271  0.162300  0.623421  1
  Tb  Tb11  1  0.783334  0.500451  0.750578  1
  Tb  Tb12  1  0.881729  0.662300  0.376579  1
  Tb  Tb13  1  0.045075  0.174337  0.106091  1
  Tb  Tb14  1  0.953470  0.825585  0.892715  1
  Tb  Tb15  1  0.612492  0.163359  0.878488  1
  Tb  Tb16  1  0.546530  0.325585  0.107285  1
  Tb  Tb17  1  0.384099  0.837276  0.376884  1
  Nd  Nd18  1  0.963655  0.820847  0.602713  1
  Nd  Nd19  1  0.536345  0.320847  0.397287  1
  In  In20  1  0.656596  0.862347  0.750793  1
  In  In21  1  0.843404  0.362347  0.249207  1
  In  In22  1  0.585815  0.617917  0.248823  1
  In  In23  1  0.414376  0.382031  0.750841  1
  In  In24  1  0.159367  0.636480  0.751678  1
  In  In25  1  0.914185  0.117917  0.751177  1
  In  In26  1  0.340633  0.136480  0.248322  1
  In  In27  1  0.085624  0.882031  0.249159  1
  Bi  Bi28  1  0.774592  0.474136  0.544526  1
  Bi  Bi29  1  0.725408  0.974136  0.455474  1
  Bi  Bi30  1  0.218117  0.532300  0.458167  1
  Bi  Bi31  1  0.272012  0.021786  0.956358  1
  Bi  Bi32  1  0.773090  0.477059  0.956807  1
  Bi  Bi33  1  0.227988  0.521786  0.043642  1
  Bi  Bi34  1  0.281883  0.032300  0.541833  1
  Bi  Bi35  1  0.726910  0.977059  0.043193  1
