# generated using pymatgen
data_PrNd15MgCo4Ag3
_symmetry_space_group_name_H-M   'P 1'
_cell_length_a   9.74694233
_cell_length_b   9.74604181
_cell_length_c   9.74694241
_cell_angle_alpha   60.33987742
_cell_angle_beta   60.34110704
_cell_angle_gamma   60.33988212
_symmetry_Int_Tables_number   1
_chemical_formula_structural   PrNd15MgCo4Ag3
_chemical_formula_sum   'Pr1 Nd15 Mg1 Co4 Ag3'
_cell_volume   659.75192896
_cell_formula_units_Z   1
loop_
 _symmetry_equiv_pos_site_id
 _symmetry_equiv_pos_as_xyz
  1  'x, y, z'
loop_
 _atom_site_type_symbol
 _atom_site_label
 _atom_site_symmetry_multiplicity
 _atom_site_fract_x
 _atom_site_fract_y
 _atom_site_fract_z
 _atom_site_occupancy
  Pr  Pr0  1  0.903770  0.288117  0.903770  1
  Nd  Nd1  1  0.287879  0.903721  0.903923  1
  Nd  Nd2  1  0.687309  0.687321  0.313076  1
  Nd  Nd3  1  0.903923  0.903721  0.287879  1
  Nd  Nd4  1  0.310539  0.688501  0.310539  1
  Nd  Nd5  1  0.688454  0.310563  0.310627  1
  Nd  Nd6  1  0.061292  0.438671  0.438448  1
  Nd  Nd7  1  0.441441  0.058971  0.058953  1
  Nd  Nd8  1  0.058953  0.058971  0.441441  1
  Nd  Nd9  1  0.310627  0.310563  0.688454  1
  Nd  Nd10  1  0.438596  0.061283  0.438596  1
  Nd  Nd11  1  0.901237  0.901047  0.901237  1
  Nd  Nd12  1  0.438448  0.438671  0.061292  1
  Nd  Nd13  1  0.313076  0.687321  0.687309  1
  Nd  Nd14  1  0.687249  0.313089  0.687249  1
  Nd  Nd15  1  0.058997  0.441497  0.058997  1
  Mg  Mg16  1  0.680443  0.680670  0.680443  1
  Co  Co17  1  0.109654  0.109256  0.109654  1
  Co  Co18  1  0.108210  0.107844  0.671999  1
  Co  Co19  1  0.671999  0.107844  0.108210  1
  Co  Co20  1  0.108041  0.672149  0.108041  1
  Ag  Ag21  1  0.668166  0.668385  0.993450  1
  Ag  Ag22  1  0.993450  0.668385  0.668166  1
  Ag  Ag23  1  0.668249  0.993438  0.668249  1
