# generated using pymatgen
data_Pr10Si16P
_symmetry_space_group_name_H-M   'P 1'
_cell_length_a   11.46099597
_cell_length_b   11.47982157
_cell_length_c   11.46099648
_cell_angle_alpha   145.19583364
_cell_angle_beta   135.50718485
_cell_angle_gamma   57.66177166
_symmetry_Int_Tables_number   1
_chemical_formula_structural   Pr10Si16P
_chemical_formula_sum   'Pr10 Si16 P1'
_cell_volume   598.29796854
_cell_formula_units_Z   1
loop_
 _symmetry_equiv_pos_site_id
 _symmetry_equiv_pos_as_xyz
  1  'x, y, z'
loop_
 _atom_site_type_symbol
 _atom_site_label
 _atom_site_symmetry_multiplicity
 _atom_site_fract_x
 _atom_site_fract_y
 _atom_site_fract_z
 _atom_site_occupancy
  Pr  Pr0  1  0.752227  0.762262  0.513323  1
  Pr  Pr1  1  0.452041  0.961870  0.013713  1
  Pr  Pr2  1  0.849289  0.368154  0.016296  1
  Pr  Pr3  1  0.948157  0.961870  0.509828  1
  Pr  Pr4  1  0.152421  0.166557  0.518367  1
  Pr  Pr5  1  0.351858  0.368154  0.518865  1
  Pr  Pr6  1  0.248939  0.762262  0.010035  1
  Pr  Pr7  1  0.552098  0.564069  0.516609  1
  Pr  Pr8  1  0.047460  0.564069  0.011971  1
  Pr  Pr9  1  0.648190  0.166557  0.014136  1
  Si  Si10  1  0.198897  0.595958  0.397060  1
  Si  Si11  1  0.000621  0.087877  0.087256  1
  Si  Si12  1  0.700838  0.294056  0.593218  1
  Si  Si13  1  0.802268  0.201687  0.399421  1
  Si  Si14  1  0.897923  0.502319  0.604396  1
  Si  Si15  1  0.410674  0.857389  0.446714  1
  Si  Si16  1  0.103430  0.709165  0.605734  1
  Si  Si17  1  0.299575  0.895929  0.596355  1
  Si  Si18  1  0.588583  0.039635  0.451052  1
  Si  Si19  1  0.001073  0.433973  0.432900  1
  Si  Si20  1  0.888057  0.840631  0.952574  1
  Si  Si21  1  0.400012  0.499245  0.099232  1
  Si  Si22  1  0.114260  0.067483  0.953223  1
  Si  Si23  1  0.290184  0.241383  0.951201  1
  Si  Si24  1  0.500317  0.404219  0.903903  1
  Si  Si25  1  0.598131  0.702068  0.103937  1
  P  P26  1  0.702478  0.642657  0.940179  1
