# generated using pymatgen
data_YbEuErGa8Ag3
_symmetry_space_group_name_H-M   'P 1'
_cell_length_a   4.39477795
_cell_length_b   8.42762189
_cell_length_c   8.42762218
_cell_angle_alpha   70.16046919
_cell_angle_beta   74.95275081
_cell_angle_gamma   74.95273468
_symmetry_Int_Tables_number   1
_chemical_formula_structural   YbEuErGa8Ag3
_chemical_formula_sum   'Yb1 Eu1 Er1 Ga8 Ag3'
_cell_volume   278.44509926
_cell_formula_units_Z   1
loop_
 _symmetry_equiv_pos_site_id
 _symmetry_equiv_pos_as_xyz
  1  'x, y, z'
loop_
 _atom_site_type_symbol
 _atom_site_label
 _atom_site_symmetry_multiplicity
 _atom_site_fract_x
 _atom_site_fract_y
 _atom_site_fract_z
 _atom_site_occupancy
  Yb  Yb0  1  0.198354  0.801369  0.801369  1
  Eu  Eu1  1  0.499323  0.500437  0.500437  1
  Er  Er2  1  0.798952  0.201485  0.201485  1
  Ga  Ga3  1  0.356722  0.361095  0.925727  1
  Ga  Ga4  1  0.646040  0.634774  0.073461  1
  Ga  Ga5  1  0.356722  0.925727  0.361095  1
  Ga  Ga6  1  0.646040  0.073461  0.634774  1
  Ga  Ga7  1  0.161655  0.470073  0.207249  1
  Ga  Ga8  1  0.836611  0.528868  0.796686  1
  Ga  Ga9  1  0.161655  0.207249  0.470073  1
  Ga  Ga10  1  0.836611  0.796686  0.528868  1
  Ag  Ag11  1  0.500000  0.999971  0.999971  1
  Ag  Ag12  1  0.000659  0.806751  0.192051  1
  Ag  Ag13  1  0.000659  0.192051  0.806751  1
