# generated using pymatgen
data_KPrTiS4
_symmetry_space_group_name_H-M   'P 1'
_cell_length_a   6.80719397
_cell_length_b   6.81536400
_cell_length_c   8.86328797
_cell_angle_alpha   90.00000000
_cell_angle_beta   107.99902388
_cell_angle_gamma   90.00000000
_symmetry_Int_Tables_number   1
_chemical_formula_structural   KPrTiS4
_chemical_formula_sum   'K2 Pr2 Ti2 S8'
_cell_volume   391.07564606
_cell_formula_units_Z   2
loop_
 _symmetry_equiv_pos_site_id
 _symmetry_equiv_pos_as_xyz
  1  'x, y, z'
loop_
 _atom_site_type_symbol
 _atom_site_label
 _atom_site_symmetry_multiplicity
 _atom_site_fract_x
 _atom_site_fract_y
 _atom_site_fract_z
 _atom_site_occupancy
  K  K0  1  0.779996  0.213831  0.067555  1
  K  K1  1  0.220004  0.713831  0.932444  1
  Pr  Pr2  1  0.276433  0.690760  0.448466  1
  Pr  Pr3  1  0.723567  0.190760  0.551534  1
  Ti  Ti4  1  0.725917  0.723066  0.320369  1
  Ti  Ti5  1  0.274084  0.223068  0.679631  1
  S  S6  1  0.927928  0.725658  0.162830  1
  S  S7  1  0.483225  0.961124  0.275190  1
  S  S8  1  0.517030  0.454019  0.295581  1
  S  S9  1  0.072090  0.283551  0.430608  1
  S  S10  1  0.927910  0.783552  0.569392  1
  S  S11  1  0.482970  0.954017  0.704419  1
  S  S12  1  0.516775  0.461124  0.724809  1
  S  S13  1  0.072071  0.225658  0.837170  1
