# generated using pymatgen
data_HfTa8GaS16
_symmetry_space_group_name_H-M   'P 1'
_cell_length_a   6.68150600
_cell_length_b   6.68150569
_cell_length_c   13.65774900
_cell_angle_alpha   90.00000000
_cell_angle_beta   90.00000000
_cell_angle_gamma   120.00001142
_symmetry_Int_Tables_number   1
_chemical_formula_structural   HfTa8GaS16
_chemical_formula_sum   'Hf1 Ta8 Ga1 S16'
_cell_volume   528.02977709
_cell_formula_units_Z   1
loop_
 _symmetry_equiv_pos_site_id
 _symmetry_equiv_pos_as_xyz
  1  'x, y, z'
loop_
 _atom_site_type_symbol
 _atom_site_label
 _atom_site_symmetry_multiplicity
 _atom_site_fract_x
 _atom_site_fract_y
 _atom_site_fract_z
 _atom_site_occupancy
  Hf  Hf0  1  0.000000  0.000000  0.500000  1
  Ta  Ta1  1  0.503833  0.496167  0.736650  1
  Ta  Ta2  1  0.007666  0.503833  0.263350  1
  Ta  Ta3  1  0.496167  0.992334  0.263350  1
  Ta  Ta4  1  0.503833  0.007666  0.736650  1
  Ta  Ta5  1  0.992334  0.496167  0.736650  1
  Ta  Ta6  1  0.496167  0.503833  0.263350  1
  Ta  Ta7  1  0.000000  0.000000  0.734578  1
  Ta  Ta8  1  0.000000  0.000000  0.265422  1
  Ga  Ga9  1  0.000000  0.000000  0.000000  1
  S  S10  1  0.831279  0.168721  0.380604  1
  S  S11  1  0.831279  0.662557  0.380604  1
  S  S12  1  0.337443  0.168721  0.380604  1
  S  S13  1  0.668900  0.834450  0.849314  1
  S  S14  1  0.168721  0.337443  0.619396  1
  S  S15  1  0.165550  0.834450  0.849314  1
  S  S16  1  0.165550  0.331100  0.849314  1
  S  S17  1  0.834450  0.165550  0.150686  1
  S  S18  1  0.331100  0.165550  0.150686  1
  S  S19  1  0.662557  0.831279  0.619396  1
  S  S20  1  0.333333  0.666667  0.147460  1
  S  S21  1  0.666667  0.333333  0.620760  1
  S  S22  1  0.666667  0.333333  0.852540  1
  S  S23  1  0.333333  0.666667  0.379240  1
  S  S24  1  0.834450  0.668900  0.150686  1
  S  S25  1  0.168721  0.831279  0.619396  1
