# generated using pymatgen
data_Dy6CoBr10
_symmetry_space_group_name_H-M   'P 1'
_cell_length_a   7.35660277
_cell_length_b   9.08609690
_cell_length_c   9.26883979
_cell_angle_alpha   107.92116269
_cell_angle_beta   97.00355962
_cell_angle_gamma   104.94958736
_symmetry_Int_Tables_number   1
_chemical_formula_structural   Dy6CoBr10
_chemical_formula_sum   'Dy6 Co1 Br10'
_cell_volume   555.71826186
_cell_formula_units_Z   1
loop_
 _symmetry_equiv_pos_site_id
 _symmetry_equiv_pos_as_xyz
  1  'x, y, z'
loop_
 _atom_site_type_symbol
 _atom_site_label
 _atom_site_symmetry_multiplicity
 _atom_site_fract_x
 _atom_site_fract_y
 _atom_site_fract_z
 _atom_site_occupancy
  Dy  Dy0  1  0.644928  0.868388  0.324158  1
  Dy  Dy1  1  0.355072  0.131612  0.675842  1
  Dy  Dy2  1  0.968304  0.283607  0.586539  1
  Dy  Dy3  1  0.031696  0.716393  0.413461  1
  Dy  Dy4  1  0.877782  0.953200  0.742180  1
  Dy  Dy5  1  0.122218  0.046800  0.257820  1
  Co  Co6  1  0.000000  0.000000  0.500000  1
  Br  Br7  1  0.546723  0.180065  0.415590  1
  Br  Br8  1  0.453277  0.819935  0.584410  1
  Br  Br9  1  0.215855  0.744314  0.156779  1
  Br  Br10  1  0.784145  0.255686  0.843221  1
  Br  Br11  1  0.915297  0.628544  0.671078  1
  Br  Br12  1  0.084703  0.371456  0.328922  1
  Br  Br13  1  0.750156  0.914955  0.043424  1
  Br  Br14  1  0.249844  0.085045  0.956576  1
  Br  Br15  1  0.653246  0.547986  0.228921  1
  Br  Br16  1  0.346754  0.452014  0.771079  1
