# generated using pymatgen
data_Ac7Pr13AgIr15
_symmetry_space_group_name_H-M   'P 1'
_cell_length_a   7.89122706
_cell_length_b   7.88108142
_cell_length_c   15.22871700
_cell_angle_alpha   90.08335104
_cell_angle_beta   89.57896313
_cell_angle_gamma   89.99255751
_symmetry_Int_Tables_number   1
_chemical_formula_structural   Ac7Pr13AgIr15
_chemical_formula_sum   'Ac7 Pr13 Ag1 Ir15'
_cell_volume   947.06869254
_cell_formula_units_Z   1
loop_
 _symmetry_equiv_pos_site_id
 _symmetry_equiv_pos_as_xyz
  1  'x, y, z'
loop_
 _atom_site_type_symbol
 _atom_site_label
 _atom_site_symmetry_multiplicity
 _atom_site_fract_x
 _atom_site_fract_y
 _atom_site_fract_z
 _atom_site_occupancy
  Ac  Ac0  1  0.358817  0.005533  0.449211  1
  Ac  Ac1  1  0.505349  0.850031  0.703157  1
  Ac  Ac2  1  0.507472  0.138447  0.201104  1
  Ac  Ac3  1  0.857314  0.494046  0.295380  1
  Ac  Ac4  1  0.139995  0.516904  0.803976  1
  Ac  Ac5  1  0.641357  0.992868  0.953675  1
  Ac  Ac6  1  0.990528  0.366380  0.541410  1
  Pr  Pr7  1  0.320430  0.324771  0.002097  1
  Pr  Pr8  1  0.179199  0.818299  0.247503  1
  Pr  Pr9  1  0.810968  0.180450  0.752652  1
  Pr  Pr10  1  0.669796  0.684351  0.493938  1
  Pr  Pr11  1  0.995777  0.633623  0.053458  1
  Pr  Pr12  1  0.143041  0.994915  0.881451  1
  Pr  Pr13  1  0.508353  0.639209  0.125163  1
  Pr  Pr14  1  0.500860  0.367624  0.623499  1
  Pr  Pr15  1  0.644642  0.510312  0.879365  1
  Pr  Pr16  1  0.354109  0.492421  0.374877  1
  Pr  Pr17  1  0.861314  0.007094  0.374215  1
  Pr  Pr18  1  0.993786  0.138172  0.124040  1
  Pr  Pr19  1  0.993764  0.844173  0.622283  1
  Ag  Ag20  1  0.202980  0.147151  0.685891  1
  Ir  Ir21  1  0.346326  0.697501  0.942272  1
  Ir  Ir22  1  0.649064  0.304418  0.437696  1
  Ir  Ir23  1  0.699156  0.348697  0.061205  1
  Ir  Ir24  1  0.302243  0.655151  0.562800  1
  Ir  Ir25  1  0.805053  0.844905  0.186860  1
  Ir  Ir26  1  0.153715  0.197342  0.309202  1
  Ir  Ir27  1  0.855644  0.807586  0.812296  1
  Ir  Ir28  1  0.291983  0.942279  0.062509  1
  Ir  Ir29  1  0.558360  0.790369  0.308848  1
  Ir  Ir30  1  0.449775  0.212356  0.810007  1
  Ir  Ir31  1  0.795874  0.552720  0.690896  1
  Ir  Ir32  1  0.204159  0.443401  0.187866  1
  Ir  Ir33  1  0.709551  0.057253  0.560843  1
  Ir  Ir34  1  0.945189  0.292002  0.939410  1
  Ir  Ir35  1  0.054055  0.707246  0.438948  1
