# generated using pymatgen
data_Tb(Ga3Pd)3
_symmetry_space_group_name_H-M   'P 1'
_cell_length_a   10.48810480
_cell_length_b   10.48810471
_cell_length_c   10.48810454
_cell_angle_alpha   42.39262067
_cell_angle_beta   42.39261963
_cell_angle_gamma   42.39262143
_symmetry_Int_Tables_number   1
_chemical_formula_structural   Tb(Ga3Pd)3
_chemical_formula_sum   'Tb2 Ga18 Pd6'
_cell_volume   474.74792184
_cell_formula_units_Z   2
loop_
 _symmetry_equiv_pos_site_id
 _symmetry_equiv_pos_as_xyz
  1  'x, y, z'
loop_
 _atom_site_type_symbol
 _atom_site_label
 _atom_site_symmetry_multiplicity
 _atom_site_fract_x
 _atom_site_fract_y
 _atom_site_fract_z
 _atom_site_occupancy
  Tb  Tb0  1  0.166887  0.166887  0.166887  1
  Tb  Tb1  1  0.833113  0.833113  0.833113  1
  Ga  Ga2  1  0.049087  0.049087  0.049087  1
  Ga  Ga3  1  0.703954  0.500000  0.296046  1
  Ga  Ga4  1  0.665253  0.334747  0.000000  1
  Ga  Ga5  1  0.108594  0.437478  0.767611  1
  Ga  Ga6  1  0.437478  0.767611  0.108594  1
  Ga  Ga7  1  0.384689  0.384689  0.384689  1
  Ga  Ga8  1  0.334747  0.000000  0.665253  1
  Ga  Ga9  1  0.615311  0.615311  0.615311  1
  Ga  Ga10  1  0.232389  0.562522  0.891406  1
  Ga  Ga11  1  0.562522  0.891406  0.232389  1
  Ga  Ga12  1  0.500000  0.296046  0.703954  1
  Ga  Ga13  1  0.767611  0.108594  0.437478  1
  Ga  Ga14  1  0.950913  0.950913  0.950913  1
  Ga  Ga15  1  0.296046  0.703954  0.500000  1
  Ga  Ga16  1  0.000000  0.665253  0.334747  1
  Ga  Ga17  1  0.715135  0.715135  0.715135  1
  Ga  Ga18  1  0.284865  0.284865  0.284865  1
  Ga  Ga19  1  0.891406  0.232389  0.562522  1
  Pd  Pd20  1  0.240281  0.922007  0.581106  1
  Pd  Pd21  1  0.922007  0.581106  0.240281  1
  Pd  Pd22  1  0.759719  0.418894  0.077993  1
  Pd  Pd23  1  0.077993  0.759719  0.418894  1
  Pd  Pd24  1  0.418894  0.077993  0.759719  1
  Pd  Pd25  1  0.581106  0.240281  0.922007  1
