# generated using pymatgen
data_LaNd7TiPd24
_symmetry_space_group_name_H-M   'P 1'
_cell_length_a   8.51800812
_cell_length_b   8.51800812
_cell_length_c   8.51800812
_cell_angle_alpha   89.98631763
_cell_angle_beta   90.01368237
_cell_angle_gamma   90.01368237
_symmetry_Int_Tables_number   1
_chemical_formula_structural   LaNd7TiPd24
_chemical_formula_sum   'La1 Nd7 Ti1 Pd24'
_cell_volume   618.03648276
_cell_formula_units_Z   1
loop_
 _symmetry_equiv_pos_site_id
 _symmetry_equiv_pos_as_xyz
  1  'x, y, z'
loop_
 _atom_site_type_symbol
 _atom_site_label
 _atom_site_symmetry_multiplicity
 _atom_site_fract_x
 _atom_site_fract_y
 _atom_site_fract_z
 _atom_site_occupancy
  La  La0  1  0.746385  0.253615  0.253615  1
  Nd  Nd1  1  0.252355  0.252465  0.252465  1
  Nd  Nd2  1  0.747366  0.747445  0.747445  1
  Nd  Nd3  1  0.747535  0.747645  0.252465  1
  Nd  Nd4  1  0.747535  0.252465  0.747645  1
  Nd  Nd5  1  0.252555  0.252634  0.747445  1
  Nd  Nd6  1  0.252555  0.747445  0.252634  1
  Nd  Nd7  1  0.252560  0.747440  0.747440  1
  Ti  Ti8  1  0.000886  0.999114  0.999114  1
  Pd  Pd9  1  0.262568  0.500118  0.999899  1
  Pd  Pd10  1  0.737458  0.500473  0.999412  1
  Pd  Pd11  1  0.000588  0.262542  0.500473  1
  Pd  Pd12  1  0.499527  0.262542  0.999412  1
  Pd  Pd13  1  0.000101  0.737432  0.500118  1
  Pd  Pd14  1  0.499882  0.737432  0.999899  1
  Pd  Pd15  1  0.499527  0.999412  0.262542  1
  Pd  Pd16  1  0.262568  0.999899  0.500118  1
  Pd  Pd17  1  0.499882  0.999899  0.737432  1
  Pd  Pd18  1  0.737458  0.999412  0.500473  1
  Pd  Pd19  1  0.000588  0.500473  0.262542  1
  Pd  Pd20  1  0.000101  0.500118  0.737432  1
  Pd  Pd21  1  0.253585  0.500107  0.500107  1
  Pd  Pd22  1  0.746343  0.500560  0.500560  1
  Pd  Pd23  1  0.499440  0.253657  0.500560  1
  Pd  Pd24  1  0.499893  0.746415  0.500107  1
  Pd  Pd25  1  0.499440  0.500560  0.253657  1
  Pd  Pd26  1  0.499893  0.500107  0.746415  1
  Pd  Pd27  1  0.296519  0.999994  0.999994  1
  Pd  Pd28  1  0.703389  0.999246  0.999246  1
  Pd  Pd29  1  0.000754  0.296611  0.999246  1
  Pd  Pd30  1  0.000006  0.703481  0.999994  1
  Pd  Pd31  1  0.000754  0.999246  0.296611  1
  Pd  Pd32  1  0.000006  0.999994  0.703481  1
