# generated using pymatgen
data_Tb3Pr17Si15Sn
_symmetry_space_group_name_H-M   'P 1'
_cell_length_a   7.94104763
_cell_length_b   7.91964372
_cell_length_c   15.31945905
_cell_angle_alpha   90.16478758
_cell_angle_beta   89.70489331
_cell_angle_gamma   89.78970906
_symmetry_Int_Tables_number   1
_chemical_formula_structural   Tb3Pr17Si15Sn
_chemical_formula_sum   'Tb3 Pr17 Si15 Sn1'
_cell_volume   963.42157877
_cell_formula_units_Z   1
loop_
 _symmetry_equiv_pos_site_id
 _symmetry_equiv_pos_as_xyz
  1  'x, y, z'
loop_
 _atom_site_type_symbol
 _atom_site_label
 _atom_site_symmetry_multiplicity
 _atom_site_fract_x
 _atom_site_fract_y
 _atom_site_fract_z
 _atom_site_occupancy
  Tb  Tb0  1  0.310777  0.310122  0.000556  1
  Tb  Tb1  1  0.190638  0.811271  0.249751  1
  Tb  Tb2  1  0.801441  0.188568  0.752574  1
  Pr  Pr3  1  0.689632  0.693206  0.496744  1
  Pr  Pr4  1  0.375151  0.014089  0.449128  1
  Pr  Pr5  1  0.494454  0.871408  0.698274  1
  Pr  Pr6  1  0.510749  0.122471  0.197010  1
  Pr  Pr7  1  0.878107  0.487832  0.300557  1
  Pr  Pr8  1  0.120365  0.516170  0.806501  1
  Pr  Pr9  1  0.623969  0.986319  0.949305  1
  Pr  Pr10  1  0.005131  0.383783  0.546899  1
  Pr  Pr11  1  0.988511  0.621685  0.054130  1
  Pr  Pr12  1  0.127943  0.978752  0.880380  1
  Pr  Pr13  1  0.520890  0.626602  0.127364  1
  Pr  Pr14  1  0.488839  0.384369  0.627095  1
  Pr  Pr15  1  0.628101  0.522417  0.875950  1
  Pr  Pr16  1  0.374955  0.479798  0.370805  1
  Pr  Pr17  1  0.871869  0.021042  0.376537  1
  Pr  Pr18  1  0.979717  0.127391  0.123567  1
  Pr  Pr19  1  0.008697  0.858155  0.619824  1
  Si  Si20  1  0.328764  0.690416  0.956753  1
  Si  Si21  1  0.666312  0.305177  0.452988  1
  Si  Si22  1  0.692267  0.328600  0.046078  1
  Si  Si23  1  0.306003  0.670713  0.544236  1
  Si  Si24  1  0.808422  0.829844  0.204019  1
  Si  Si25  1  0.169597  0.191911  0.295900  1
  Si  Si26  1  0.832720  0.808453  0.797469  1
  Si  Si27  1  0.286812  0.922710  0.063104  1
  Si  Si28  1  0.574200  0.790843  0.308682  1
  Si  Si29  1  0.433092  0.211789  0.816563  1
  Si  Si30  1  0.790557  0.572967  0.692679  1
  Si  Si31  1  0.212638  0.421152  0.187592  1
  Si  Si32  1  0.711771  0.083024  0.563413  1
  Si  Si33  1  0.923648  0.287027  0.938575  1
  Si  Si34  1  0.082358  0.715241  0.434964  1
  Sn  Sn35  1  0.190902  0.164688  0.694040  1
