# generated using pymatgen
data_Zn3FeAs(PN2)6
_symmetry_space_group_name_H-M   'P 1'
_cell_length_a   7.18337029
_cell_length_b   7.17157386
_cell_length_c   7.18337121
_cell_angle_alpha   109.43795857
_cell_angle_beta   109.50446825
_cell_angle_gamma   109.43795581
_symmetry_Int_Tables_number   1
_chemical_formula_structural   Zn3FeAs(PN2)6
_chemical_formula_sum   'Zn3 Fe1 As1 P6 N12'
_cell_volume   284.98843960
_cell_formula_units_Z   1
loop_
 _symmetry_equiv_pos_site_id
 _symmetry_equiv_pos_as_xyz
  1  'x, y, z'
loop_
 _atom_site_type_symbol
 _atom_site_label
 _atom_site_symmetry_multiplicity
 _atom_site_fract_x
 _atom_site_fract_y
 _atom_site_fract_z
 _atom_site_occupancy
  Zn  Zn0  1  0.667617  0.667627  0.667617  1
  Zn  Zn1  1  0.332383  0.000010  0.000000  1
  Zn  Zn2  1  0.000000  0.000010  0.332383  1
  Fe  Fe3  1  0.000000  0.347919  0.000000  1
  As  As4  1  0.000000  0.011276  0.000000  1
  P  P5  1  0.750110  0.248501  0.498335  1
  P  P6  1  0.251774  0.750166  0.501665  1
  P  P7  1  0.501665  0.750166  0.251774  1
  P  P8  1  0.498335  0.248501  0.750110  1
  P  P9  1  0.748226  0.498392  0.249890  1
  P  P10  1  0.249890  0.498392  0.748226  1
  N  N11  1  0.559117  0.270035  0.000000  1
  N  N12  1  0.445134  0.444048  0.718161  1
  N  N13  1  0.000000  0.270035  0.559117  1
  N  N14  1  0.273027  0.998914  0.554866  1
  N  N15  1  0.718161  0.444048  0.445134  1
  N  N16  1  0.000000  0.554167  0.272145  1
  N  N17  1  0.554866  0.998914  0.273027  1
  N  N18  1  0.440883  0.710918  0.440883  1
  N  N19  1  0.272145  0.554167  0.000000  1
  N  N20  1  0.727855  0.282022  0.727855  1
  N  N21  1  0.726973  0.725887  0.281839  1
  N  N22  1  0.281839  0.725887  0.726973  1
