# generated using pymatgen
data_Pr3DyHoP12Ru19
_symmetry_space_group_name_H-M   'P 1'
_cell_length_a   12.61312900
_cell_length_b   12.61312863
_cell_length_c   4.01157100
_cell_angle_alpha   90.00000000
_cell_angle_beta   90.00000000
_cell_angle_gamma   119.99999834
_symmetry_Int_Tables_number   1
_chemical_formula_structural   Pr3DyHoP12Ru19
_chemical_formula_sum   'Pr3 Dy1 Ho1 P12 Ru19'
_cell_volume   552.70167961
_cell_formula_units_Z   1
loop_
 _symmetry_equiv_pos_site_id
 _symmetry_equiv_pos_as_xyz
  1  'x, y, z'
loop_
 _atom_site_type_symbol
 _atom_site_label
 _atom_site_symmetry_multiplicity
 _atom_site_fract_x
 _atom_site_fract_y
 _atom_site_fract_z
 _atom_site_occupancy
  Pr  Pr0  1  0.815994  0.999991  0.500000  1
  Pr  Pr1  1  0.183996  0.184006  0.500000  1
  Pr  Pr2  1  0.000009  0.816004  0.500000  1
  Dy  Dy3  1  0.333333  0.666667  0.000000  1
  Ho  Ho4  1  0.666667  0.333333  0.000000  1
  P  P5  1  0.625206  0.999982  0.000000  1
  P  P6  1  0.374776  0.374794  0.000000  1
  P  P7  1  0.000018  0.625224  0.000000  1
  P  P8  1  0.695124  0.521294  0.500000  1
  P  P9  1  0.826172  0.304876  0.500000  1
  P  P10  1  0.304846  0.826274  0.500000  1
  P  P11  1  0.521426  0.695154  0.500000  1
  P  P12  1  0.188530  0.000014  0.000000  1
  P  P13  1  0.811485  0.811470  0.000000  1
  P  P14  1  0.999986  0.188515  0.000000  1
  P  P15  1  0.478706  0.173828  0.500000  1
  P  P16  1  0.173726  0.478574  0.500000  1
  Ru  Ru17  1  0.618765  0.804241  0.000000  1
  Ru  Ru18  1  0.185474  0.381235  0.000000  1
  Ru  Ru19  1  0.381375  0.185544  0.000000  1
  Ru  Ru20  1  0.195759  0.814526  0.000000  1
  Ru  Ru21  1  0.804170  0.618625  0.000000  1
  Ru  Ru22  1  0.874095  0.506182  0.500000  1
  Ru  Ru23  1  0.493818  0.367914  0.500000  1
  Ru  Ru24  1  0.632086  0.125905  0.500000  1
  Ru  Ru25  1  0.125707  0.632084  0.500000  1
  Ru  Ru26  1  0.367916  0.493624  0.500000  1
  Ru  Ru27  1  0.506376  0.874293  0.500000  1
  Ru  Ru28  1  0.000000  0.000000  0.000000  1
  Ru  Ru29  1  0.713070  0.713055  0.500000  1
  Ru  Ru30  1  0.999986  0.286930  0.500000  1
  Ru  Ru31  1  0.445640  0.999987  0.000000  1
  Ru  Ru32  1  0.554347  0.554360  0.000000  1
  Ru  Ru33  1  0.000013  0.445653  0.000000  1
  Ru  Ru34  1  0.814456  0.195830  0.000000  1
  Ru  Ru35  1  0.286945  0.000014  0.500000  1
