# generated using pymatgen
data_Tb6P12Rh20Pb
_symmetry_space_group_name_H-M   'P 1'
_cell_length_a   13.48593800
_cell_length_b   13.48593672
_cell_length_c   3.92162600
_cell_angle_alpha   90.00000000
_cell_angle_beta   90.00000000
_cell_angle_gamma   119.99999824
_symmetry_Int_Tables_number   1
_chemical_formula_structural   Tb6P12Rh20Pb
_chemical_formula_sum   'Tb6 P12 Rh20 Pb1'
_cell_volume   617.67367014
_cell_formula_units_Z   1
loop_
 _symmetry_equiv_pos_site_id
 _symmetry_equiv_pos_as_xyz
  1  'x, y, z'
loop_
 _atom_site_type_symbol
 _atom_site_label
 _atom_site_symmetry_multiplicity
 _atom_site_fract_x
 _atom_site_fract_y
 _atom_site_fract_z
 _atom_site_occupancy
  Tb  Tb0  1  0.529379  0.716288  0.252382  1
  Tb  Tb1  1  0.283712  0.813091  0.252382  1
  Tb  Tb2  1  0.186909  0.470621  0.252382  1
  Tb  Tb3  1  0.470621  0.283712  0.747618  1
  Tb  Tb4  1  0.716288  0.186909  0.747618  1
  Tb  Tb5  1  0.813091  0.529379  0.747618  1
  P  P6  1  0.527837  0.138989  0.249203  1
  P  P7  1  0.861011  0.388849  0.249203  1
  P  P8  1  0.611151  0.472163  0.249203  1
  P  P9  1  0.948486  0.714471  0.243783  1
  P  P10  1  0.285529  0.234015  0.243783  1
  P  P11  1  0.765985  0.051514  0.243783  1
  P  P12  1  0.388849  0.527837  0.750797  1
  P  P13  1  0.472163  0.861011  0.750797  1
  P  P14  1  0.138989  0.611151  0.750797  1
  P  P15  1  0.714471  0.765985  0.756217  1
  P  P16  1  0.234015  0.948486  0.756217  1
  P  P17  1  0.051514  0.285529  0.756217  1
  Rh  Rh18  1  0.333333  0.666667  0.754191  1
  Rh  Rh19  1  0.917559  0.253330  0.241023  1
  Rh  Rh20  1  0.746670  0.664227  0.241023  1
  Rh  Rh21  1  0.335773  0.082441  0.241023  1
  Rh  Rh22  1  0.442534  0.025683  0.747732  1
  Rh  Rh23  1  0.974317  0.416853  0.747732  1
  Rh  Rh24  1  0.583147  0.557466  0.747732  1
  Rh  Rh25  1  0.666667  0.333333  0.245809  1
  Rh  Rh26  1  0.100088  0.210084  0.270301  1
  Rh  Rh27  1  0.789916  0.890004  0.270301  1
  Rh  Rh28  1  0.109996  0.899912  0.270301  1
  Rh  Rh29  1  0.025683  0.583147  0.252268  1
  Rh  Rh30  1  0.416853  0.442534  0.252268  1
  Rh  Rh31  1  0.557466  0.974317  0.252268  1
  Rh  Rh32  1  0.664227  0.917559  0.758977  1
  Rh  Rh33  1  0.082441  0.746670  0.758977  1
  Rh  Rh34  1  0.253330  0.335773  0.758977  1
  Rh  Rh35  1  0.899912  0.789916  0.729699  1
  Rh  Rh36  1  0.210084  0.109996  0.729699  1
  Rh  Rh37  1  0.890004  0.100088  0.729699  1
  Pb  Pb38  1  0.000000  0.000000  0.000000  1
