# generated using pymatgen
data_LuTiAsRh5
_symmetry_space_group_name_H-M   'P 1'
_cell_length_a   4.05643700
_cell_length_b   5.52421559
_cell_length_c   10.87883300
_cell_angle_alpha   90.66367197
_cell_angle_beta   90.00000000
_cell_angle_gamma   90.00000000
_symmetry_Int_Tables_number   1
_chemical_formula_structural   LuTiAsRh5
_chemical_formula_sum   'Lu2 Ti2 As2 Rh10'
_cell_volume   243.76341701
_cell_formula_units_Z   2
loop_
 _symmetry_equiv_pos_site_id
 _symmetry_equiv_pos_as_xyz
  1  'x, y, z'
loop_
 _atom_site_type_symbol
 _atom_site_label
 _atom_site_symmetry_multiplicity
 _atom_site_fract_x
 _atom_site_fract_y
 _atom_site_fract_z
 _atom_site_occupancy
  Lu  Lu0  1  0.500000  0.320833  0.141521  1
  Lu  Lu1  1  0.500000  0.679167  0.858479  1
  Ti  Ti2  1  0.500000  0.830301  0.356861  1
  Ti  Ti3  1  0.500000  0.169699  0.643139  1
  As  As4  1  0.000000  0.000000  0.000000  1
  As  As5  1  0.000000  0.500000  0.500000  1
  Rh  Rh6  1  0.000000  0.000000  0.500000  1
  Rh  Rh7  1  0.000000  0.500000  0.000000  1
  Rh  Rh8  1  0.000000  0.060367  0.254132  1
  Rh  Rh9  1  0.000000  0.939633  0.745868  1
  Rh  Rh10  1  0.000000  0.574856  0.267618  1
  Rh  Rh11  1  0.000000  0.425144  0.732382  1
  Rh  Rh12  1  0.500000  0.306443  0.402733  1
  Rh  Rh13  1  0.500000  0.693557  0.597267  1
  Rh  Rh14  1  0.500000  0.816086  0.116920  1
  Rh  Rh15  1  0.500000  0.183914  0.883080  1
