# generated using pymatgen
data_Dy8Sc12Sn15Os
_symmetry_space_group_name_H-M   'P 1'
_cell_length_a   7.63011400
_cell_length_b   7.97220664
_cell_length_c   14.75046800
_cell_angle_alpha   90.00000000
_cell_angle_beta   90.00000000
_cell_angle_gamma   89.63065335
_symmetry_Int_Tables_number   1
_chemical_formula_structural   Dy8Sc12Sn15Os
_chemical_formula_sum   'Dy8 Sc12 Sn15 Os1'
_cell_volume   897.23529654
_cell_formula_units_Z   1
loop_
 _symmetry_equiv_pos_site_id
 _symmetry_equiv_pos_as_xyz
  1  'x, y, z'
loop_
 _atom_site_type_symbol
 _atom_site_label
 _atom_site_symmetry_multiplicity
 _atom_site_fract_x
 _atom_site_fract_y
 _atom_site_fract_z
 _atom_site_occupancy
  Dy  Dy0  1  0.992297  0.180370  0.093044  1
  Dy  Dy1  1  0.005291  0.833959  0.902768  1
  Dy  Dy2  1  0.508341  0.681866  0.905264  1
  Dy  Dy3  1  0.005291  0.833959  0.597232  1
  Dy  Dy4  1  0.494115  0.324129  0.093517  1
  Dy  Dy5  1  0.992297  0.180370  0.406956  1
  Dy  Dy6  1  0.494115  0.324129  0.406483  1
  Dy  Dy7  1  0.508341  0.681866  0.594736  1
  Sc  Sc8  1  0.173748  0.494400  0.750000  1
  Sc  Sc9  1  0.832048  0.503159  0.250000  1
  Sc  Sc10  1  0.332181  0.998789  0.250000  1
  Sc  Sc11  1  0.688838  0.006080  0.750000  1
  Sc  Sc12  1  0.301245  0.159049  0.634934  1
  Sc  Sc13  1  0.663686  0.839339  0.373802  1
  Sc  Sc14  1  0.161946  0.664213  0.373238  1
  Sc  Sc15  1  0.663686  0.839339  0.126198  1
  Sc  Sc16  1  0.867169  0.316083  0.637362  1
  Sc  Sc17  1  0.301245  0.159049  0.865066  1
  Sc  Sc18  1  0.867169  0.316083  0.862638  1
  Sc  Sc19  1  0.161946  0.664213  0.126762  1
  Sn  Sn20  1  0.968972  0.876440  0.250000  1
  Sn  Sn21  1  0.471048  0.624354  0.250000  1
  Sn  Sn22  1  0.532505  0.374323  0.750000  1
  Sn  Sn23  1  0.304469  0.853883  0.750000  1
  Sn  Sn24  1  0.689602  0.151378  0.250000  1
  Sn  Sn25  1  0.189410  0.350503  0.250000  1
  Sn  Sn26  1  0.806236  0.642441  0.750000  1
  Sn  Sn27  1  0.184052  0.465147  0.541706  1
  Sn  Sn28  1  0.820312  0.540998  0.462569  1
  Sn  Sn29  1  0.321072  0.960673  0.458620  1
  Sn  Sn30  1  0.820312  0.540998  0.037431  1
  Sn  Sn31  1  0.673226  0.046165  0.543171  1
  Sn  Sn32  1  0.184052  0.465147  0.958294  1
  Sn  Sn33  1  0.673226  0.046165  0.956829  1
  Sn  Sn34  1  0.321072  0.960673  0.041380  1
  Os  Os35  1  0.025439  0.100265  0.750000  1
