# generated using pymatgen
data_Y5Ho(Sb4Au3)2
_symmetry_space_group_name_H-M   'P 1'
_cell_length_a   8.61760797
_cell_length_b   8.61758081
_cell_length_c   8.61766112
_cell_angle_alpha   109.50080476
_cell_angle_beta   109.50052225
_cell_angle_gamma   109.41263539
_symmetry_Int_Tables_number   1
_chemical_formula_structural   Y5Ho(Sb4Au3)2
_chemical_formula_sum   'Y5 Ho1 Sb8 Au6'
_cell_volume   492.64916718
_cell_formula_units_Z   1
loop_
 _symmetry_equiv_pos_site_id
 _symmetry_equiv_pos_as_xyz
  1  'x, y, z'
loop_
 _atom_site_type_symbol
 _atom_site_label
 _atom_site_symmetry_multiplicity
 _atom_site_fract_x
 _atom_site_fract_y
 _atom_site_fract_z
 _atom_site_occupancy
  Y  Y0  1  0.250041  0.125033  0.874994  1
  Y  Y1  1  0.750033  0.375044  0.625004  1
  Y  Y2  1  0.874971  0.249962  0.125003  1
  Y  Y3  1  0.125001  0.874996  0.250002  1
  Y  Y4  1  0.624948  0.749966  0.374988  1
  Ho  Ho5  1  0.375016  0.624952  0.750000  1
  Sb  Sb6  1  0.322066  0.322100  0.322139  1
  Sb  Sb7  1  0.499960  0.999931  0.177861  1
  Sb  Sb8  1  0.178437  0.500181  0.000055  1
  Sb  Sb9  1  0.000118  0.178387  0.499945  1
  Sb  Sb10  1  0.821614  0.821565  0.821734  1
  Sb  Sb11  1  0.499824  0.999880  0.678263  1
  Sb  Sb12  1  0.000072  0.677937  0.500031  1
  Sb  Sb13  1  0.677899  0.500043  0.999971  1
  Au  Au14  1  0.375183  0.251395  0.625649  1
  Au  Au15  1  0.748607  0.874262  0.123797  1
  Au  Au16  1  0.250467  0.624819  0.376212  1
  Au  Au17  1  0.625000  0.375004  0.250000  1
  Au  Au18  1  0.125740  0.749540  0.874352  1
  Au  Au19  1  0.875001  0.125004  0.750001  1
