# generated using pymatgen
data_Nd2YTm3Th2(MgIr)2
_symmetry_space_group_name_H-M   'P 1'
_cell_length_a   9.82333585
_cell_length_b   9.82333557
_cell_length_c   9.83548200
_cell_angle_alpha   59.95909563
_cell_angle_beta   59.95909657
_cell_angle_gamma   60.08181824
_symmetry_Int_Tables_number   1
_chemical_formula_structural   Nd2YTm3Th2(MgIr)2
_chemical_formula_sum   'Nd4 Y2 Tm6 Th4 Mg4 Ir4'
_cell_volume   671.11558957
_cell_formula_units_Z   2
loop_
 _symmetry_equiv_pos_site_id
 _symmetry_equiv_pos_as_xyz
  1  'x, y, z'
loop_
 _atom_site_type_symbol
 _atom_site_label
 _atom_site_symmetry_multiplicity
 _atom_site_fract_x
 _atom_site_fract_y
 _atom_site_fract_z
 _atom_site_occupancy
  Nd  Nd0  1  0.185813  0.814187  0.814187  1
  Nd  Nd1  1  0.814187  0.185813  0.185813  1
  Nd  Nd2  1  0.814187  0.185813  0.814187  1
  Nd  Nd3  1  0.185813  0.814187  0.185813  1
  Y  Y4  1  0.810779  0.810779  0.189221  1
  Y  Y5  1  0.189221  0.189221  0.810779  1
  Tm  Tm6  1  0.065145  0.434855  0.434855  1
  Tm  Tm7  1  0.434855  0.065145  0.065145  1
  Tm  Tm8  1  0.434855  0.065145  0.434855  1
  Tm  Tm9  1  0.065145  0.434855  0.065145  1
  Tm  Tm10  1  0.434458  0.434458  0.065542  1
  Tm  Tm11  1  0.065542  0.065542  0.434458  1
  Th  Th12  1  0.597355  0.597355  0.598025  1
  Th  Th13  1  0.597355  0.597355  0.207264  1
  Th  Th14  1  0.598025  0.207264  0.597355  1
  Th  Th15  1  0.207264  0.598025  0.597355  1
  Mg  Mg16  1  0.829160  0.829160  0.831095  1
  Mg  Mg17  1  0.829160  0.829160  0.510585  1
  Mg  Mg18  1  0.831095  0.510585  0.829160  1
  Mg  Mg19  1  0.510585  0.831095  0.829160  1
  Ir  Ir20  1  0.391709  0.391709  0.394063  1
  Ir  Ir21  1  0.391709  0.391709  0.822518  1
  Ir  Ir22  1  0.394063  0.822518  0.391709  1
  Ir  Ir23  1  0.822518  0.394063  0.391709  1
