# generated using pymatgen
data_Y4Al18ReNi2Pd3
_symmetry_space_group_name_H-M   'P 1'
_cell_length_a   7.56339248
_cell_length_b   7.56339110
_cell_length_c   9.44412026
_cell_angle_alpha   90.08420039
_cell_angle_beta   90.08420745
_cell_angle_gamma   119.47952483
_symmetry_Int_Tables_number   1
_chemical_formula_structural   Y4Al18ReNi2Pd3
_chemical_formula_sum   'Y4 Al18 Re1 Ni2 Pd3'
_cell_volume   470.30262636
_cell_formula_units_Z   1
loop_
 _symmetry_equiv_pos_site_id
 _symmetry_equiv_pos_as_xyz
  1  'x, y, z'
loop_
 _atom_site_type_symbol
 _atom_site_label
 _atom_site_symmetry_multiplicity
 _atom_site_fract_x
 _atom_site_fract_y
 _atom_site_fract_z
 _atom_site_occupancy
  Y  Y0  1  0.990415  0.666740  0.247918  1
  Y  Y1  1  0.998519  0.324693  0.751718  1
  Y  Y2  1  0.675307  0.001481  0.248282  1
  Y  Y3  1  0.333260  0.009585  0.752082  1
  Al  Al4  1  0.131788  0.132150  0.250044  1
  Al  Al5  1  0.867850  0.868212  0.749956  1
  Al  Al6  1  0.007733  0.341565  0.073281  1
  Al  Al7  1  0.004476  0.660289  0.926230  1
  Al  Al8  1  0.008672  0.667814  0.576500  1
  Al  Al9  1  0.332186  0.991328  0.423500  1
  Al  Al10  1  0.009065  0.343170  0.425279  1
  Al  Al11  1  0.656830  0.990935  0.574721  1
  Al  Al12  1  0.658435  0.992267  0.926719  1
  Al  Al13  1  0.339711  0.995524  0.073770  1
  Al  Al14  1  0.333465  0.340921  0.556878  1
  Al  Al15  1  0.659079  0.666535  0.443122  1
  Al  Al16  1  0.663285  0.661836  0.050088  1
  Al  Al17  1  0.338164  0.336715  0.949912  1
  Al  Al18  1  0.338229  0.557683  0.249080  1
  Al  Al19  1  0.661195  0.457054  0.752754  1
  Al  Al20  1  0.542946  0.338805  0.247246  1
  Al  Al21  1  0.442317  0.661771  0.750920  1
  Re  Re22  1  0.674404  0.325596  0.000000  1
  Ni  Ni23  1  0.330815  0.669185  0.000000  1
  Ni  Ni24  1  0.328790  0.671210  0.500000  1
  Pd  Pd25  1  0.671987  0.328013  0.500000  1
  Pd  Pd26  1  0.001489  0.998511  0.000000  1
  Pd  Pd27  1  0.999585  0.000415  0.500000  1
