# generated using pymatgen
data_YbLu(TaSe2)6
_symmetry_space_group_name_H-M   'P 1'
_cell_length_a   6.10297100
_cell_length_b   6.10297132
_cell_length_c   14.52196000
_cell_angle_alpha   90.00000000
_cell_angle_beta   90.00000000
_cell_angle_gamma   120.00000371
_symmetry_Int_Tables_number   1
_chemical_formula_structural   YbLu(TaSe2)6
_chemical_formula_sum   'Yb1 Lu1 Ta6 Se12'
_cell_volume   468.42329712
_cell_formula_units_Z   1
loop_
 _symmetry_equiv_pos_site_id
 _symmetry_equiv_pos_as_xyz
  1  'x, y, z'
loop_
 _atom_site_type_symbol
 _atom_site_label
 _atom_site_symmetry_multiplicity
 _atom_site_fract_x
 _atom_site_fract_y
 _atom_site_fract_z
 _atom_site_occupancy
  Yb  Yb0  1  0.666667  0.333333  0.750000  1
  Lu  Lu1  1  0.333333  0.666667  0.250000  1
  Ta  Ta2  1  0.333333  0.666667  0.007737  1
  Ta  Ta3  1  0.000000  0.000000  0.006739  1
  Ta  Ta4  1  0.666667  0.333333  0.005533  1
  Ta  Ta5  1  0.333333  0.666667  0.492263  1
  Ta  Ta6  1  0.000000  0.000000  0.493261  1
  Ta  Ta7  1  0.666667  0.333333  0.494467  1
  Se  Se8  1  0.672025  0.665445  0.378451  1
  Se  Se9  1  0.666272  0.671431  0.607625  1
  Se  Se10  1  0.005159  0.671431  0.892375  1
  Se  Se11  1  0.666272  0.994841  0.892375  1
  Se  Se12  1  0.672025  0.006582  0.121549  1
  Se  Se13  1  0.334555  0.006582  0.378451  1
  Se  Se14  1  0.005159  0.333728  0.607625  1
  Se  Se15  1  0.328569  0.994841  0.607625  1
  Se  Se16  1  0.993418  0.665445  0.121549  1
  Se  Se17  1  0.328569  0.333728  0.892375  1
  Se  Se18  1  0.993418  0.327975  0.378451  1
  Se  Se19  1  0.334555  0.327975  0.121549  1
