# generated using pymatgen
data_La2Co2Os
_symmetry_space_group_name_H-M   'P 1'
_cell_length_a   5.77720218
_cell_length_b   5.77720263
_cell_length_c   7.33423600
_cell_angle_alpha   90.00000000
_cell_angle_beta   90.00000000
_cell_angle_gamma   125.13199068
_symmetry_Int_Tables_number   1
_chemical_formula_structural   La2Co2Os
_chemical_formula_sum   'La4 Co4 Os2'
_cell_volume   200.19457702
_cell_formula_units_Z   2
loop_
 _symmetry_equiv_pos_site_id
 _symmetry_equiv_pos_as_xyz
  1  'x, y, z'
loop_
 _atom_site_type_symbol
 _atom_site_label
 _atom_site_symmetry_multiplicity
 _atom_site_fract_x
 _atom_site_fract_y
 _atom_site_fract_z
 _atom_site_occupancy
  La  La0  1  0.842139  0.157861  0.593484  1
  La  La1  1  0.157861  0.842139  0.406516  1
  La  La2  1  0.342139  0.657861  0.906516  1
  La  La3  1  0.657861  0.342139  0.093484  1
  Co  Co4  1  0.835888  0.664112  0.750000  1
  Co  Co5  1  0.164112  0.335888  0.250000  1
  Co  Co6  1  0.335888  0.164112  0.750000  1
  Co  Co7  1  0.664112  0.835888  0.250000  1
  Os  Os8  1  0.000000  0.000000  0.000000  1
  Os  Os9  1  0.500000  0.500000  0.500000  1
