# generated using pymatgen
data_TiMnAlFe4Si
_symmetry_space_group_name_H-M   'P 1'
_cell_length_a   6.97108839
_cell_length_b   6.97108862
_cell_length_c   6.97108906
_cell_angle_alpha   33.49456207
_cell_angle_beta   33.49456304
_cell_angle_gamma   33.49456405
_symmetry_Int_Tables_number   1
_chemical_formula_structural   TiMnAlFe4Si
_chemical_formula_sum   'Ti1 Mn1 Al1 Fe4 Si1'
_cell_volume   91.88707669
_cell_formula_units_Z   1
loop_
 _symmetry_equiv_pos_site_id
 _symmetry_equiv_pos_as_xyz
  1  'x, y, z'
loop_
 _atom_site_type_symbol
 _atom_site_label
 _atom_site_symmetry_multiplicity
 _atom_site_fract_x
 _atom_site_fract_y
 _atom_site_fract_z
 _atom_site_occupancy
  Ti  Ti0  1  0.249619  0.249619  0.249619  1
  Mn  Mn1  1  0.748864  0.748864  0.748864  1
  Al  Al2  1  0.001030  0.001030  0.001030  1
  Fe  Fe3  1  0.870819  0.870819  0.870819  1
  Fe  Fe4  1  0.379479  0.379479  0.379479  1
  Fe  Fe5  1  0.125257  0.125257  0.125257  1
  Fe  Fe6  1  0.624879  0.624879  0.624879  1
  Si  Si7  1  0.500052  0.500052  0.500052  1
