# generated using pymatgen
data_Ho3Lu13(InIr)4
_symmetry_space_group_name_H-M   'P 1'
_cell_length_a   9.50728723
_cell_length_b   9.50522104
_cell_length_c   9.49718510
_cell_angle_alpha   60.04236534
_cell_angle_beta   59.98750115
_cell_angle_gamma   59.93689117
_symmetry_Int_Tables_number   1
_chemical_formula_structural   Ho3Lu13(InIr)4
_chemical_formula_sum   'Ho3 Lu13 In4 Ir4'
_cell_volume   606.72078723
_cell_formula_units_Z   1
loop_
 _symmetry_equiv_pos_site_id
 _symmetry_equiv_pos_as_xyz
  1  'x, y, z'
loop_
 _atom_site_type_symbol
 _atom_site_label
 _atom_site_symmetry_multiplicity
 _atom_site_fract_x
 _atom_site_fract_y
 _atom_site_fract_z
 _atom_site_occupancy
  Ho  Ho0  1  0.190559  0.809441  0.190559  1
  Ho  Ho1  1  0.812246  0.812989  0.187023  1
  Ho  Ho2  1  0.187023  0.187742  0.812246  1
  Lu  Lu3  1  0.600343  0.597470  0.597020  1
  Lu  Lu4  1  0.599934  0.599619  0.203992  1
  Lu  Lu5  1  0.597020  0.205168  0.600343  1
  Lu  Lu6  1  0.203992  0.596454  0.599934  1
  Lu  Lu7  1  0.059251  0.439832  0.440215  1
  Lu  Lu8  1  0.440215  0.060702  0.059251  1
  Lu  Lu9  1  0.440226  0.059774  0.440226  1
  Lu  Lu10  1  0.059351  0.440649  0.059351  1
  Lu  Lu11  1  0.441394  0.440723  0.058332  1
  Lu  Lu12  1  0.058332  0.059552  0.441394  1
  Lu  Lu13  1  0.192733  0.807001  0.806899  1
  Lu  Lu14  1  0.806899  0.193365  0.192733  1
  Lu  Lu15  1  0.809434  0.190566  0.809434  1
  In  In16  1  0.833633  0.833670  0.833301  1
  In  In17  1  0.832517  0.833593  0.501361  1
  In  In18  1  0.833301  0.499396  0.833633  1
  In  In19  1  0.501361  0.832529  0.832517  1
  Ir  Ir20  1  0.392801  0.390870  0.389066  1
  Ir  Ir21  1  0.391286  0.392701  0.827085  1
  Ir  Ir22  1  0.389066  0.827265  0.392801  1
  Ir  Ir23  1  0.827085  0.388929  0.391286  1
