# generated using pymatgen
data_Lu5Bi2Sb
_symmetry_space_group_name_H-M   'P 1'
_cell_length_a   8.04543800
_cell_length_b   9.31529400
_cell_length_c   11.71643700
_cell_angle_alpha   90.00000000
_cell_angle_beta   90.00000000
_cell_angle_gamma   90.00000000
_symmetry_Int_Tables_number   1
_chemical_formula_structural   Lu5Bi2Sb
_chemical_formula_sum   'Lu20 Bi8 Sb4'
_cell_volume   878.09563901
_cell_formula_units_Z   4
loop_
 _symmetry_equiv_pos_site_id
 _symmetry_equiv_pos_as_xyz
  1  'x, y, z'
loop_
 _atom_site_type_symbol
 _atom_site_label
 _atom_site_symmetry_multiplicity
 _atom_site_fract_x
 _atom_site_fract_y
 _atom_site_fract_z
 _atom_site_occupancy
  Lu  Lu0  1  0.189274  0.566080  0.441817  1
  Lu  Lu1  1  0.689274  0.933920  0.058183  1
  Lu  Lu2  1  0.810726  0.066080  0.558183  1
  Lu  Lu3  1  0.310726  0.433920  0.941817  1
  Lu  Lu4  1  0.810726  0.433920  0.558183  1
  Lu  Lu5  1  0.310726  0.066080  0.941817  1
  Lu  Lu6  1  0.189274  0.933920  0.441817  1
  Lu  Lu7  1  0.689274  0.566080  0.058183  1
  Lu  Lu8  1  0.027603  0.750000  0.988933  1
  Lu  Lu9  1  0.527603  0.750000  0.511067  1
  Lu  Lu10  1  0.972397  0.250000  0.011067  1
  Lu  Lu11  1  0.472397  0.250000  0.488933  1
  Lu  Lu12  1  0.184049  0.750000  0.715963  1
  Lu  Lu13  1  0.684049  0.750000  0.784037  1
  Lu  Lu14  1  0.815951  0.250000  0.284037  1
  Lu  Lu15  1  0.315951  0.250000  0.215963  1
  Lu  Lu16  1  0.854675  0.750000  0.284577  1
  Lu  Lu17  1  0.354675  0.750000  0.215423  1
  Lu  Lu18  1  0.145325  0.250000  0.715423  1
  Lu  Lu19  1  0.645325  0.250000  0.784577  1
  Bi  Bi20  1  0.933260  0.496855  0.824880  1
  Bi  Bi21  1  0.433260  0.003145  0.675120  1
  Bi  Bi22  1  0.066740  0.996855  0.175120  1
  Bi  Bi23  1  0.566740  0.503145  0.324880  1
  Bi  Bi24  1  0.066740  0.503145  0.175120  1
  Bi  Bi25  1  0.566740  0.996855  0.324880  1
  Bi  Bi26  1  0.933260  0.003145  0.824880  1
  Bi  Bi27  1  0.433260  0.496855  0.675120  1
  Sb  Sb28  1  0.904333  0.750000  0.541967  1
  Sb  Sb29  1  0.404333  0.750000  0.958033  1
  Sb  Sb30  1  0.095667  0.250000  0.458033  1
  Sb  Sb31  1  0.595667  0.250000  0.041967  1
