# generated using pymatgen
data_TbPr2Y3IrI10
_symmetry_space_group_name_H-M   'P 1'
_cell_length_a   7.83661792
_cell_length_b   9.88089758
_cell_length_c   9.91398159
_cell_angle_alpha   106.89712491
_cell_angle_beta   96.30670946
_cell_angle_gamma   105.08690878
_symmetry_Int_Tables_number   1
_chemical_formula_structural   TbPr2Y3IrI10
_chemical_formula_sum   'Tb1 Pr2 Y3 Ir1 I10'
_cell_volume   694.76426527
_cell_formula_units_Z   1
loop_
 _symmetry_equiv_pos_site_id
 _symmetry_equiv_pos_as_xyz
  1  'x, y, z'
loop_
 _atom_site_type_symbol
 _atom_site_label
 _atom_site_symmetry_multiplicity
 _atom_site_fract_x
 _atom_site_fract_y
 _atom_site_fract_z
 _atom_site_occupancy
  Tb  Tb0  1  0.970118  0.286411  0.086300  1
  Pr  Pr1  1  0.117221  0.043686  0.761134  1
  Pr  Pr2  1  0.882870  0.956088  0.238787  1
  Y  Y3  1  0.029583  0.713403  0.913692  1
  Y  Y4  1  0.348470  0.125501  0.165131  1
  Y  Y5  1  0.651631  0.874336  0.834863  1
  Ir  Ir6  1  0.000082  0.000176  0.000053  1
  I  I7  1  0.348237  0.447275  0.270047  1
  I  I8  1  0.652089  0.552796  0.730070  1
  I  I9  1  0.267439  0.089898  0.456976  1
  I  I10  1  0.732576  0.910072  0.543035  1
  I  I11  1  0.083656  0.378821  0.825228  1
  I  I12  1  0.916444  0.621705  0.174541  1
  I  I13  1  0.447955  0.817322  0.087771  1
  I  I14  1  0.551871  0.182572  0.912135  1
  I  I15  1  0.774471  0.261303  0.342126  1
  I  I16  1  0.225287  0.738636  0.658113  1
