# generated using pymatgen
data_Y4Al4IrPd2Rh
_symmetry_space_group_name_H-M   'P 1'
_cell_length_a   4.36369500
_cell_length_b   6.90582603
_cell_length_c   7.86590117
_cell_angle_alpha   89.93736986
_cell_angle_beta   90.00000000
_cell_angle_gamma   90.00000000
_symmetry_Int_Tables_number   1
_chemical_formula_structural   Y4Al4IrPd2Rh
_chemical_formula_sum   'Y4 Al4 Ir1 Pd2 Rh1'
_cell_volume   237.03814941
_cell_formula_units_Z   1
loop_
 _symmetry_equiv_pos_site_id
 _symmetry_equiv_pos_as_xyz
  1  'x, y, z'
loop_
 _atom_site_type_symbol
 _atom_site_label
 _atom_site_symmetry_multiplicity
 _atom_site_fract_x
 _atom_site_fract_y
 _atom_site_fract_z
 _atom_site_occupancy
  Y  Y0  1  0.250000  0.034120  0.321982  1
  Y  Y1  1  0.250000  0.534019  0.177957  1
  Y  Y2  1  0.750000  0.974496  0.682325  1
  Y  Y3  1  0.750000  0.471736  0.816898  1
  Al  Al4  1  0.250000  0.140046  0.933568  1
  Al  Al5  1  0.250000  0.639636  0.565047  1
  Al  Al6  1  0.750000  0.856074  0.059623  1
  Al  Al7  1  0.750000  0.355368  0.440794  1
  Ir  Ir8  1  0.250000  0.270528  0.618333  1
  Pd  Pd9  1  0.750000  0.727041  0.379770  1
  Pd  Pd10  1  0.750000  0.226991  0.120166  1
  Rh  Rh11  1  0.250000  0.769946  0.883537  1
