# generated using pymatgen
data_Y3Cd3Hg2Ru
_symmetry_space_group_name_H-M   'P 1'
_cell_length_a   8.11275800
_cell_length_b   8.11275841
_cell_length_c   3.78115400
_cell_angle_alpha   90.00000000
_cell_angle_beta   90.00000000
_cell_angle_gamma   119.99999831
_symmetry_Int_Tables_number   1
_chemical_formula_structural   Y3Cd3Hg2Ru
_chemical_formula_sum   'Y3 Cd3 Hg2 Ru1'
_cell_volume   215.52222885
_cell_formula_units_Z   1
loop_
 _symmetry_equiv_pos_site_id
 _symmetry_equiv_pos_as_xyz
  1  'x, y, z'
loop_
 _atom_site_type_symbol
 _atom_site_label
 _atom_site_symmetry_multiplicity
 _atom_site_fract_x
 _atom_site_fract_y
 _atom_site_fract_z
 _atom_site_occupancy
  Y  Y0  1  0.616843  0.040755  0.000000  1
  Y  Y1  1  0.959245  0.576087  0.000000  1
  Y  Y2  1  0.423913  0.383157  0.000000  1
  Cd  Cd3  1  0.279080  0.000889  0.500000  1
  Cd  Cd4  1  0.999111  0.278192  0.500000  1
  Cd  Cd5  1  0.721808  0.720920  0.500000  1
  Hg  Hg6  1  0.333333  0.666667  0.500000  1
  Hg  Hg7  1  0.000000  0.000000  0.000000  1
  Ru  Ru8  1  0.666667  0.333333  0.500000  1
