# generated using pymatgen
data_Tb4ScPt9
_symmetry_space_group_name_H-M   'P 1'
_cell_length_a   9.72855700
_cell_length_b   9.72855700
_cell_length_c   5.74859000
_cell_angle_alpha   90.00000000
_cell_angle_beta   90.00000000
_cell_angle_gamma   90.00000000
_symmetry_Int_Tables_number   1
_chemical_formula_structural   Tb4ScPt9
_chemical_formula_sum   'Tb8 Sc2 Pt18'
_cell_volume   544.07427329
_cell_formula_units_Z   2
loop_
 _symmetry_equiv_pos_site_id
 _symmetry_equiv_pos_as_xyz
  1  'x, y, z'
loop_
 _atom_site_type_symbol
 _atom_site_label
 _atom_site_symmetry_multiplicity
 _atom_site_fract_x
 _atom_site_fract_y
 _atom_site_fract_z
 _atom_site_occupancy
  Tb  Tb0  1  0.450777  0.810442  0.000000  1
  Tb  Tb1  1  0.549223  0.189558  0.000000  1
  Tb  Tb2  1  0.189558  0.549223  0.000000  1
  Tb  Tb3  1  0.810442  0.450777  0.000000  1
  Tb  Tb4  1  0.310442  0.049223  0.500000  1
  Tb  Tb5  1  0.689558  0.950777  0.500000  1
  Tb  Tb6  1  0.950777  0.689558  0.500000  1
  Tb  Tb7  1  0.049223  0.310442  0.500000  1
  Sc  Sc8  1  0.500000  0.500000  0.500000  1
  Sc  Sc9  1  0.000000  0.000000  0.000000  1
  Pt  Pt10  1  0.187584  0.812416  0.250150  1
  Pt  Pt11  1  0.812416  0.187584  0.749850  1
  Pt  Pt12  1  0.812416  0.187584  0.250150  1
  Pt  Pt13  1  0.187584  0.812416  0.749850  1
  Pt  Pt14  1  0.437659  0.773938  0.500000  1
  Pt  Pt15  1  0.562341  0.226062  0.500000  1
  Pt  Pt16  1  0.226062  0.562341  0.500000  1
  Pt  Pt17  1  0.773938  0.437659  0.500000  1
  Pt  Pt18  1  0.312416  0.312416  0.249850  1
  Pt  Pt19  1  0.687584  0.687584  0.750150  1
  Pt  Pt20  1  0.687584  0.687584  0.249850  1
  Pt  Pt21  1  0.312416  0.312416  0.750150  1
  Pt  Pt22  1  0.273938  0.062341  0.000000  1
  Pt  Pt23  1  0.726062  0.937659  0.000000  1
  Pt  Pt24  1  0.937659  0.726062  0.000000  1
  Pt  Pt25  1  0.062341  0.273938  0.000000  1
  Pt  Pt26  1  0.000000  0.000000  0.500000  1
  Pt  Pt27  1  0.500000  0.500000  0.000000  1
