# generated using pymatgen
data_Cs2Sn(PS3)2
_symmetry_space_group_name_H-M   'P 1'
_cell_length_a   12.99506700
_cell_length_b   6.85471204
_cell_length_c   9.93034787
_cell_angle_alpha   53.62200702
_cell_angle_beta   90.00000000
_cell_angle_gamma   90.00000000
_symmetry_Int_Tables_number   1
_chemical_formula_structural   Cs2Sn(PS3)2
_chemical_formula_sum   'Cs4 Sn2 P4 S12'
_cell_volume   712.18646381
_cell_formula_units_Z   2
loop_
 _symmetry_equiv_pos_site_id
 _symmetry_equiv_pos_as_xyz
  1  'x, y, z'
loop_
 _atom_site_type_symbol
 _atom_site_label
 _atom_site_symmetry_multiplicity
 _atom_site_fract_x
 _atom_site_fract_y
 _atom_site_fract_z
 _atom_site_occupancy
  Cs  Cs0  1  0.327796  0.208645  0.522624  1
  Cs  Cs1  1  0.672204  0.791355  0.477376  1
  Cs  Cs2  1  0.827796  0.791355  0.977376  1
  Cs  Cs3  1  0.172204  0.208645  0.022624  1
  Sn  Sn4  1  0.500000  0.500000  0.000000  1
  Sn  Sn5  1  0.000000  0.500000  0.500000  1
  P  P6  1  0.461291  0.850843  0.121758  1
  P  P7  1  0.038709  0.850843  0.621758  1
  P  P8  1  0.961291  0.149157  0.378242  1
  P  P9  1  0.538709  0.149157  0.878242  1
  S  S10  1  0.077219  0.997862  0.742236  1
  S  S11  1  0.663130  0.253516  0.946502  1
  S  S12  1  0.066524  0.422102  0.253318  1
  S  S13  1  0.922781  0.002138  0.257764  1
  S  S14  1  0.422781  0.997862  0.242236  1
  S  S15  1  0.336870  0.746484  0.053498  1
  S  S16  1  0.433476  0.422102  0.753318  1
  S  S17  1  0.566524  0.577898  0.246682  1
  S  S18  1  0.577219  0.002138  0.757764  1
  S  S19  1  0.163130  0.746484  0.553498  1
  S  S20  1  0.933476  0.577898  0.746682  1
  S  S21  1  0.836870  0.253516  0.446502  1
