# generated using pymatgen
data_Rb8LaDy(NpBr10)2
_symmetry_space_group_name_H-M   'P 1'
_cell_length_a   8.81516090
_cell_length_b   9.39568200
_cell_length_c   14.16293341
_cell_angle_alpha   90.00000000
_cell_angle_beta   90.02950327
_cell_angle_gamma   90.00000000
_symmetry_Int_Tables_number   1
_chemical_formula_structural   Rb8LaDy(NpBr10)2
_chemical_formula_sum   'Rb8 La1 Dy1 Np2 Br20'
_cell_volume   1173.03699543
_cell_formula_units_Z   1
loop_
 _symmetry_equiv_pos_site_id
 _symmetry_equiv_pos_as_xyz
  1  'x, y, z'
loop_
 _atom_site_type_symbol
 _atom_site_label
 _atom_site_symmetry_multiplicity
 _atom_site_fract_x
 _atom_site_fract_y
 _atom_site_fract_z
 _atom_site_occupancy
  Rb  Rb0  1  0.945409  0.004694  0.828470  1
  Rb  Rb1  1  0.055281  0.998031  0.171609  1
  Rb  Rb2  1  0.445460  0.996404  0.672076  1
  Rb  Rb3  1  0.055281  0.501969  0.171609  1
  Rb  Rb4  1  0.554338  0.004666  0.328068  1
  Rb  Rb5  1  0.945409  0.495306  0.828470  1
  Rb  Rb6  1  0.554338  0.495334  0.328068  1
  Rb  Rb7  1  0.445460  0.503596  0.672076  1
  La  La8  1  0.570980  0.750000  0.004382  1
  Dy  Dy9  1  0.428130  0.250000  0.996981  1
  Np  Np10  1  0.931856  0.750000  0.502614  1
  Np  Np11  1  0.068010  0.250000  0.497684  1
  Br  Br12  1  0.122992  0.750000  0.674554  1
  Br  Br13  1  0.881769  0.250000  0.326015  1
  Br  Br14  1  0.612947  0.250000  0.831472  1
  Br  Br15  1  0.376208  0.750000  0.177520  1
  Br  Br16  1  0.839009  0.040588  0.574294  1
  Br  Br17  1  0.158164  0.958954  0.425694  1
  Br  Br18  1  0.339992  0.964713  0.926783  1
  Br  Br19  1  0.158164  0.541046  0.425694  1
  Br  Br20  1  0.659215  0.049788  0.072465  1
  Br  Br21  1  0.839009  0.459412  0.574294  1
  Br  Br22  1  0.659215  0.450212  0.072465  1
  Br  Br23  1  0.339992  0.535287  0.926783  1
  Br  Br24  1  0.592717  0.750000  0.510361  1
  Br  Br25  1  0.406648  0.250000  0.489105  1
  Br  Br26  1  0.098682  0.250000  0.987982  1
  Br  Br27  1  0.912997  0.750000  0.011245  1
  Br  Br28  1  0.656791  0.750000  0.800286  1
  Br  Br29  1  0.346793  0.250000  0.192718  1
  Br  Br30  1  0.153906  0.250000  0.697375  1
  Br  Br31  1  0.844838  0.750000  0.300791  1
