# generated using pymatgen
data_SrTbSi7Ir12
_symmetry_space_group_name_H-M   'P 1'
_cell_length_a   9.79864000
_cell_length_b   9.79863986
_cell_length_c   3.90591500
_cell_angle_alpha   90.00000000
_cell_angle_beta   90.00000000
_cell_angle_gamma   120.00000048
_symmetry_Int_Tables_number   1
_chemical_formula_structural   SrTbSi7Ir12
_chemical_formula_sum   'Sr1 Tb1 Si7 Ir12'
_cell_volume   324.77681278
_cell_formula_units_Z   1
loop_
 _symmetry_equiv_pos_site_id
 _symmetry_equiv_pos_as_xyz
  1  'x, y, z'
loop_
 _atom_site_type_symbol
 _atom_site_label
 _atom_site_symmetry_multiplicity
 _atom_site_fract_x
 _atom_site_fract_y
 _atom_site_fract_z
 _atom_site_occupancy
  Sr  Sr0  1  0.666667  0.333333  0.250294  1
  Tb  Tb1  1  0.333333  0.666667  0.750116  1
  Si  Si2  1  0.000000  0.000000  0.501140  1
  Si  Si3  1  0.290667  0.886963  0.248895  1
  Si  Si4  1  0.596295  0.709333  0.248895  1
  Si  Si5  1  0.113037  0.403705  0.248895  1
  Si  Si6  1  0.711427  0.113774  0.750769  1
  Si  Si7  1  0.402347  0.288573  0.750769  1
  Si  Si8  1  0.886226  0.597653  0.750769  1
  Ir  Ir9  1  0.259756  0.116234  0.253964  1
  Ir  Ir10  1  0.856480  0.740244  0.253964  1
  Ir  Ir11  1  0.883766  0.143520  0.253964  1
  Ir  Ir12  1  0.740277  0.884860  0.745644  1
  Ir  Ir13  1  0.144582  0.259723  0.745644  1
  Ir  Ir14  1  0.115140  0.855418  0.745644  1
  Ir  Ir15  1  0.065015  0.621401  0.248819  1
  Ir  Ir16  1  0.556387  0.934985  0.248819  1
  Ir  Ir17  1  0.378599  0.443613  0.248819  1
  Ir  Ir18  1  0.945023  0.384514  0.751393  1
  Ir  Ir19  1  0.439489  0.054977  0.751393  1
  Ir  Ir20  1  0.615486  0.560511  0.751393  1
