# generated using pymatgen
data_Y7Tm9Cd4(RuPt)2
_symmetry_space_group_name_H-M   'P 1'
_cell_length_a   9.59633254
_cell_length_b   9.59633349
_cell_length_c   9.63260700
_cell_angle_alpha   59.87488527
_cell_angle_beta   59.87488197
_cell_angle_gamma   59.95243072
_symmetry_Int_Tables_number   1
_chemical_formula_structural   Y7Tm9Cd4(RuPt)2
_chemical_formula_sum   'Y7 Tm9 Cd4 Ru2 Pt2'
_cell_volume   625.83490477
_cell_formula_units_Z   1
loop_
 _symmetry_equiv_pos_site_id
 _symmetry_equiv_pos_as_xyz
  1  'x, y, z'
loop_
 _atom_site_type_symbol
 _atom_site_label
 _atom_site_symmetry_multiplicity
 _atom_site_fract_x
 _atom_site_fract_y
 _atom_site_fract_z
 _atom_site_occupancy
  Y  Y0  1  0.808677  0.808677  0.191323  1
  Y  Y1  1  0.938661  0.557619  0.565890  1
  Y  Y2  1  0.557619  0.938661  0.937829  1
  Y  Y3  1  0.557619  0.938661  0.565890  1
  Y  Y4  1  0.938661  0.557619  0.937829  1
  Y  Y5  1  0.562167  0.562167  0.937833  1
  Y  Y6  1  0.939227  0.939227  0.560773  1
  Tm  Tm7  1  0.348996  0.348996  0.351897  1
  Tm  Tm8  1  0.348996  0.348996  0.950111  1
  Tm  Tm9  1  0.345130  0.956636  0.349117  1
  Tm  Tm10  1  0.956636  0.345130  0.349117  1
  Tm  Tm11  1  0.815888  0.187731  0.189352  1
  Tm  Tm12  1  0.187731  0.815888  0.807030  1
  Tm  Tm13  1  0.187731  0.815888  0.189352  1
  Tm  Tm14  1  0.815888  0.187731  0.807030  1
  Tm  Tm15  1  0.186906  0.186906  0.813094  1
  Cd  Cd16  1  0.579394  0.579394  0.581406  1
  Cd  Cd17  1  0.579394  0.579394  0.259806  1
  Cd  Cd18  1  0.580542  0.256248  0.581605  1
  Cd  Cd19  1  0.256248  0.580542  0.581605  1
  Ru  Ru20  1  0.143972  0.143972  0.138462  1
  Ru  Ru21  1  0.143972  0.143972  0.573595  1
  Pt  Pt22  1  0.147615  0.572330  0.140028  1
  Pt  Pt23  1  0.572330  0.147615  0.140028  1
