# generated using pymatgen
data_PrNdDyRuBr3
_symmetry_space_group_name_H-M   'P 1'
_cell_length_a   4.24272100
_cell_length_b   8.68399186
_cell_length_c   12.16347948
_cell_angle_alpha   84.95243886
_cell_angle_beta   90.00000000
_cell_angle_gamma   90.00000000
_symmetry_Int_Tables_number   1
_chemical_formula_structural   PrNdDyRuBr3
_chemical_formula_sum   'Pr2 Nd2 Dy2 Ru2 Br6'
_cell_volume   446.41033779
_cell_formula_units_Z   2
loop_
 _symmetry_equiv_pos_site_id
 _symmetry_equiv_pos_as_xyz
  1  'x, y, z'
loop_
 _atom_site_type_symbol
 _atom_site_label
 _atom_site_symmetry_multiplicity
 _atom_site_fract_x
 _atom_site_fract_y
 _atom_site_fract_z
 _atom_site_occupancy
  Pr  Pr0  1  0.250000  0.880711  0.828699  1
  Pr  Pr1  1  0.750000  0.119289  0.171301  1
  Nd  Nd2  1  0.250000  0.289711  0.399299  1
  Nd  Nd3  1  0.750000  0.710289  0.600701  1
  Dy  Dy4  1  0.250000  0.877946  0.372409  1
  Dy  Dy5  1  0.750000  0.122054  0.627591  1
  Ru  Ru6  1  0.250000  0.935449  0.596292  1
  Ru  Ru7  1  0.750000  0.064551  0.403708  1
  Br  Br8  1  0.250000  0.416538  0.632115  1
  Br  Br9  1  0.750000  0.583462  0.367885  1
  Br  Br10  1  0.250000  0.878422  0.114832  1
  Br  Br11  1  0.750000  0.121578  0.885168  1
  Br  Br12  1  0.250000  0.366049  0.144530  1
  Br  Br13  1  0.750000  0.633951  0.855470  1
