# generated using pymatgen
data_Tb(Al5Rh)2
_symmetry_space_group_name_H-M   'P 1'
_cell_length_a   6.85038583
_cell_length_b   6.85038689
_cell_length_c   9.15667200
_cell_angle_alpha   90.00000000
_cell_angle_beta   90.00000000
_cell_angle_gamma   97.07624519
_symmetry_Int_Tables_number   1
_chemical_formula_structural   Tb(Al5Rh)2
_chemical_formula_sum   'Tb2 Al20 Rh4'
_cell_volume   426.42940983
_cell_formula_units_Z   2
loop_
 _symmetry_equiv_pos_site_id
 _symmetry_equiv_pos_as_xyz
  1  'x, y, z'
loop_
 _atom_site_type_symbol
 _atom_site_label
 _atom_site_symmetry_multiplicity
 _atom_site_fract_x
 _atom_site_fract_y
 _atom_site_fract_z
 _atom_site_occupancy
  Tb  Tb0  1  0.871920  0.128080  0.750000  1
  Tb  Tb1  1  0.128080  0.871920  0.250000  1
  Al  Al2  1  0.621980  0.378020  0.550031  1
  Al  Al3  1  0.378020  0.621980  0.449969  1
  Al  Al4  1  0.378020  0.621980  0.050031  1
  Al  Al5  1  0.621980  0.378020  0.949969  1
  Al  Al6  1  0.221583  0.221583  0.500000  1
  Al  Al7  1  0.778417  0.778417  0.500000  1
  Al  Al8  1  0.778417  0.778417  0.000000  1
  Al  Al9  1  0.221583  0.221583  0.000000  1
  Al  Al10  1  0.846070  0.153930  0.103180  1
  Al  Al11  1  0.153930  0.846070  0.896820  1
  Al  Al12  1  0.153930  0.846070  0.603180  1
  Al  Al13  1  0.846070  0.153930  0.396820  1
  Al  Al14  1  0.857857  0.592896  0.750000  1
  Al  Al15  1  0.142143  0.407104  0.250000  1
  Al  Al16  1  0.407104  0.142143  0.750000  1
  Al  Al17  1  0.592896  0.857857  0.250000  1
  Al  Al18  1  0.226505  0.480655  0.750000  1
  Al  Al19  1  0.773495  0.519345  0.250000  1
  Al  Al20  1  0.519345  0.773495  0.750000  1
  Al  Al21  1  0.480655  0.226505  0.250000  1
  Rh  Rh22  1  0.000000  0.500000  0.500000  1
  Rh  Rh23  1  0.000000  0.500000  0.000000  1
  Rh  Rh24  1  0.500000  0.000000  0.000000  1
  Rh  Rh25  1  0.500000  0.000000  0.500000  1
