# generated using pymatgen
data_Ac(Sn3Ru2)2
_symmetry_space_group_name_H-M   'P 1'
_cell_length_a   7.02372014
_cell_length_b   7.02372008
_cell_length_c   7.02371939
_cell_angle_alpha   119.97181468
_cell_angle_beta   119.97181612
_cell_angle_gamma   90.04882581
_symmetry_Int_Tables_number   1
_chemical_formula_structural   Ac(Sn3Ru2)2
_chemical_formula_sum   'Ac1 Sn6 Ru4'
_cell_volume   245.11582223
_cell_formula_units_Z   1
loop_
 _symmetry_equiv_pos_site_id
 _symmetry_equiv_pos_as_xyz
  1  'x, y, z'
loop_
 _atom_site_type_symbol
 _atom_site_label
 _atom_site_symmetry_multiplicity
 _atom_site_fract_x
 _atom_site_fract_y
 _atom_site_fract_z
 _atom_site_occupancy
  Ac  Ac0  1  0.000000  0.000000  0.000000  1
  Sn  Sn1  1  0.475296  0.119248  0.000000  1
  Sn  Sn2  1  0.119248  0.475296  0.000000  1
  Sn  Sn3  1  0.880752  0.880752  0.356048  1
  Sn  Sn4  1  0.524704  0.524704  0.643952  1
  Sn  Sn5  1  0.000000  0.500000  0.500000  1
  Sn  Sn6  1  0.500000  0.000000  0.500000  1
  Ru  Ru7  1  0.408995  0.749974  0.000000  1
  Ru  Ru8  1  0.749974  0.408995  0.000000  1
  Ru  Ru9  1  0.250026  0.250026  0.659021  1
  Ru  Ru10  1  0.591005  0.591005  0.340979  1
