# generated using pymatgen
data_La2CdSi2HgPt4
_symmetry_space_group_name_H-M   'P 1'
_cell_length_a   4.24157200
_cell_length_b   4.24157200
_cell_length_c   11.42319700
_cell_angle_alpha   90.00000000
_cell_angle_beta   90.00000000
_cell_angle_gamma   90.00000000
_symmetry_Int_Tables_number   1
_chemical_formula_structural   La2CdSi2HgPt4
_chemical_formula_sum   'La2 Cd1 Si2 Hg1 Pt4'
_cell_volume   205.51397223
_cell_formula_units_Z   1
loop_
 _symmetry_equiv_pos_site_id
 _symmetry_equiv_pos_as_xyz
  1  'x, y, z'
loop_
 _atom_site_type_symbol
 _atom_site_label
 _atom_site_symmetry_multiplicity
 _atom_site_fract_x
 _atom_site_fract_y
 _atom_site_fract_z
 _atom_site_occupancy
  La  La0  1  0.000000  0.500000  0.238172  1
  La  La1  1  0.500000  0.000000  0.761828  1
  Cd  Cd2  1  0.500000  0.500000  0.500000  1
  Si  Si3  1  0.000000  0.500000  0.887729  1
  Si  Si4  1  0.500000  0.000000  0.112271  1
  Hg  Hg5  1  0.000000  0.000000  0.500000  1
  Pt  Pt6  1  0.000000  0.000000  0.000000  1
  Pt  Pt7  1  0.500000  0.500000  0.000000  1
  Pt  Pt8  1  0.000000  0.500000  0.681294  1
  Pt  Pt9  1  0.500000  0.000000  0.318706  1
