# generated using pymatgen
data_Zr16Ni4Mo2OsPt
_symmetry_space_group_name_H-M   'P 1'
_cell_length_a   8.77457481
_cell_length_b   8.76820640
_cell_length_c   8.79705000
_cell_angle_alpha   59.89111468
_cell_angle_beta   59.91522582
_cell_angle_gamma   59.78390613
_symmetry_Int_Tables_number   1
_chemical_formula_structural   Zr16Ni4Mo2OsPt
_chemical_formula_sum   'Zr16 Ni4 Mo2 Os1 Pt1'
_cell_volume   477.10007525
_cell_formula_units_Z   1
loop_
 _symmetry_equiv_pos_site_id
 _symmetry_equiv_pos_as_xyz
  1  'x, y, z'
loop_
 _atom_site_type_symbol
 _atom_site_label
 _atom_site_symmetry_multiplicity
 _atom_site_fract_x
 _atom_site_fract_y
 _atom_site_fract_z
 _atom_site_occupancy
  Zr  Zr0  1  0.194930  0.601774  0.601649  1
  Zr  Zr1  1  0.602100  0.194486  0.601708  1
  Zr  Zr2  1  0.604257  0.602304  0.605058  1
  Zr  Zr3  1  0.604257  0.602304  0.188383  1
  Zr  Zr4  1  0.456003  0.452251  0.045873  1
  Zr  Zr5  1  0.047323  0.046118  0.453279  1
  Zr  Zr6  1  0.450934  0.050428  0.049760  1
  Zr  Zr7  1  0.049097  0.451770  0.452205  1
  Zr  Zr8  1  0.049097  0.451770  0.046928  1
  Zr  Zr9  1  0.450934  0.050428  0.448877  1
  Zr  Zr10  1  0.813683  0.815143  0.185587  1
  Zr  Zr11  1  0.176726  0.190632  0.816321  1
  Zr  Zr12  1  0.813708  0.182164  0.187337  1
  Zr  Zr13  1  0.176926  0.815328  0.816832  1
  Zr  Zr14  1  0.176926  0.815328  0.190912  1
  Zr  Zr15  1  0.813708  0.182164  0.816792  1
  Ni  Ni16  1  0.824964  0.393812  0.390612  1
  Ni  Ni17  1  0.395635  0.824969  0.389698  1
  Ni  Ni18  1  0.394038  0.391789  0.387351  1
  Ni  Ni19  1  0.394038  0.391789  0.826824  1
  Mo  Mo20  1  0.834255  0.830503  0.831860  1
  Mo  Mo21  1  0.834255  0.830503  0.503383  1
  Os  Os22  1  0.838763  0.498450  0.831394  1
  Pt  Pt23  1  0.503447  0.833794  0.831379  1
