# generated using pymatgen
data_Sc2Fe2NiP7Ru9
_symmetry_space_group_name_H-M   'P 1'
_cell_length_a   9.25561156
_cell_length_b   9.33074713
_cell_length_c   3.79379600
_cell_angle_alpha   90.00000000
_cell_angle_beta   90.00000000
_cell_angle_gamma   120.44956448
_symmetry_Int_Tables_number   1
_chemical_formula_structural   Sc2Fe2NiP7Ru9
_chemical_formula_sum   'Sc2 Fe2 Ni1 P7 Ru9'
_cell_volume   282.44953532
_cell_formula_units_Z   1
loop_
 _symmetry_equiv_pos_site_id
 _symmetry_equiv_pos_as_xyz
  1  'x, y, z'
loop_
 _atom_site_type_symbol
 _atom_site_label
 _atom_site_symmetry_multiplicity
 _atom_site_fract_x
 _atom_site_fract_y
 _atom_site_fract_z
 _atom_site_occupancy
  Sc  Sc0  1  0.665814  0.332712  0.500000  1
  Sc  Sc1  1  0.336532  0.672993  0.000000  1
  Fe  Fe2  1  0.728387  0.886731  0.000000  1
  Fe  Fe3  1  0.113073  0.841197  0.000000  1
  Ni  Ni4  1  0.159958  0.270060  0.000000  1
  P  P5  1  0.597466  0.718200  0.500000  1
  P  P6  1  0.998468  0.994516  0.000000  1
  P  P7  1  0.282231  0.881358  0.500000  1
  P  P8  1  0.116592  0.405281  0.500000  1
  P  P9  1  0.888002  0.584591  0.000000  1
  P  P10  1  0.419257  0.303026  0.000000  1
  P  P11  1  0.697736  0.109296  0.000000  1
  Ru  Ru12  1  0.558468  0.944119  0.500000  1
  Ru  Ru13  1  0.382829  0.439260  0.500000  1
  Ru  Ru14  1  0.912904  0.118949  0.500000  1
  Ru  Ru15  1  0.206056  0.085434  0.500000  1
  Ru  Ru16  1  0.881940  0.795990  0.500000  1
  Ru  Ru17  1  0.428403  0.065912  0.000000  1
  Ru  Ru18  1  0.935932  0.361915  0.000000  1
  Ru  Ru19  1  0.637095  0.573690  0.000000  1
  Ru  Ru20  1  0.052859  0.614769  0.500000  1
