# generated using pymatgen
data_Zr10ZnSn2Sb5
_symmetry_space_group_name_H-M   'P 1'
_cell_length_a   5.91014418
_cell_length_b   8.76799652
_cell_length_c   8.76063456
_cell_angle_alpha   120.02779450
_cell_angle_beta   89.98483551
_cell_angle_gamma   90.03030857
_symmetry_Int_Tables_number   1
_chemical_formula_structural   Zr10ZnSn2Sb5
_chemical_formula_sum   'Zr10 Zn1 Sn2 Sb5'
_cell_volume   393.04554343
_cell_formula_units_Z   1
loop_
 _symmetry_equiv_pos_site_id
 _symmetry_equiv_pos_as_xyz
  1  'x, y, z'
loop_
 _atom_site_type_symbol
 _atom_site_label
 _atom_site_symmetry_multiplicity
 _atom_site_fract_x
 _atom_site_fract_y
 _atom_site_fract_z
 _atom_site_occupancy
  Zr  Zr0  1  0.498498  0.333362  0.667339  1
  Zr  Zr1  1  0.498498  0.666023  0.332661  1
  Zr  Zr2  1  0.000870  0.666192  0.332451  1
  Zr  Zr3  1  0.000870  0.333741  0.667549  1
  Zr  Zr4  1  0.741572  0.272745  0.000000  1
  Zr  Zr5  1  0.740556  0.727625  0.727345  1
  Zr  Zr6  1  0.740556  0.000281  0.272655  1
  Zr  Zr7  1  0.259263  0.722783  0.000000  1
  Zr  Zr8  1  0.259838  0.276214  0.275677  1
  Zr  Zr9  1  0.259838  0.000536  0.724323  1
  Zn  Zn10  1  0.497273  0.999081  0.000000  1
  Sn  Sn11  1  0.248313  0.614718  0.614759  1
  Sn  Sn12  1  0.248313  0.999959  0.385241  1
  Sb  Sb13  1  0.749965  0.611164  0.000000  1
  Sb  Sb14  1  0.751069  0.390418  0.391121  1
  Sb  Sb15  1  0.751069  0.999296  0.608879  1
  Sb  Sb16  1  0.250219  0.386653  0.000000  1
  Sb  Sb17  1  0.003419  0.999209  0.000000  1
