# generated using pymatgen
data_Nd3PuBe8(B5O11)4
_symmetry_space_group_name_H-M   'P 1'
_cell_length_a   4.38771290
_cell_length_b   6.79195035
_cell_length_c   26.08993000
_cell_angle_alpha   90.02739960
_cell_angle_beta   90.16817723
_cell_angle_gamma   89.82523076
_symmetry_Int_Tables_number   1
_chemical_formula_structural   Nd3PuBe8(B5O11)4
_chemical_formula_sum   'Nd3 Pu1 Be8 B20 O44'
_cell_volume   777.50229543
_cell_formula_units_Z   1
loop_
 _symmetry_equiv_pos_site_id
 _symmetry_equiv_pos_as_xyz
  1  'x, y, z'
loop_
 _atom_site_type_symbol
 _atom_site_label
 _atom_site_symmetry_multiplicity
 _atom_site_fract_x
 _atom_site_fract_y
 _atom_site_fract_z
 _atom_site_occupancy
  Nd  Nd0  1  0.856277  0.370291  0.919388  1
  Nd  Nd1  1  0.143775  0.869305  0.080875  1
  Nd  Nd2  1  0.359872  0.868415  0.580470  1
  Pu  Pu3  1  0.640752  0.368739  0.418706  1
  Be  Be4  1  0.163590  0.453947  0.789100  1
  Be  Be5  1  0.835071  0.954782  0.211070  1
  Be  Be6  1  0.662848  0.953755  0.710190  1
  Be  Be7  1  0.335475  0.454757  0.289562  1
  Be  Be8  1  0.659372  0.230962  0.791106  1
  Be  Be9  1  0.338970  0.732174  0.209069  1
  Be  Be10  1  0.158693  0.730777  0.708097  1
  Be  Be11  1  0.839740  0.233016  0.291760  1
  B  B12  1  0.375580  0.038801  0.867047  1
  B  B13  1  0.624298  0.538927  0.133437  1
  B  B14  1  0.877526  0.537031  0.632235  1
  B  B15  1  0.122827  0.039518  0.367640  1
  B  B16  1  0.153135  0.711110  0.868159  1
  B  B17  1  0.847035  0.210818  0.132200  1
  B  B18  1  0.652993  0.210400  0.631257  1
  B  B19  1  0.343467  0.711914  0.368553  1
  B  B20  1  0.039857  0.936838  0.940941  1
  B  B21  1  0.960084  0.436379  0.059545  1
  B  B22  1  0.540731  0.434721  0.558333  1
  B  B23  1  0.462655  0.936436  0.441213  1
  B  B24  1  0.549872  0.953918  0.994865  1
  B  B25  1  0.450198  0.453535  0.005609  1
  B  B26  1  0.049982  0.452725  0.504813  1
  B  B27  1  0.954385  0.953204  0.494762  1
  B  B28  1  0.173038  0.090181  0.751214  1
  B  B29  1  0.825357  0.591502  0.248844  1
  B  B30  1  0.673069  0.590051  0.747859  1
  B  B31  1  0.325519  0.091565  0.251980  1
  O  O32  1  0.354334  0.847417  0.847285  1
  O  O33  1  0.646488  0.347794  0.153295  1
  O  O34  1  0.855734  0.346159  0.652146  1
  O  O35  1  0.140696  0.848541  0.347822  1
  O  O36  1  0.642338  0.922301  0.043758  1
  O  O37  1  0.357629  0.422390  0.956706  1
  O  O38  1  0.143102  0.423135  0.455880  1
  O  O39  1  0.861865  0.921905  0.543582  1
  O  O40  1  0.006551  0.746315  0.914723  1
  O  O41  1  0.993761  0.245718  0.085676  1
  O  O42  1  0.505979  0.244894  0.584616  1
  O  O43  1  0.490292  0.746006  0.415083  1
  O  O44  1  0.236093  0.923407  0.987284  1
  O  O45  1  0.764377  0.423600  0.013138  1
  O  O46  1  0.737660  0.419426  0.512300  1
  O  O47  1  0.269350  0.925989  0.487598  1
  O  O48  1  0.167036  0.084711  0.905696  1
  O  O49  1  0.832599  0.584430  0.094836  1
  O  O50  1  0.669740  0.582608  0.593361  1
  O  O51  1  0.335262  0.085099  0.405796  1
  O  O52  1  0.094447  0.531540  0.847262  1
  O  O53  1  0.905016  0.030842  0.152940  1
  O  O54  1  0.592575  0.031660  0.652329  1
  O  O55  1  0.404511  0.533141  0.347292  1
  O  O56  1  0.574211  0.177818  0.850844  1
  O  O57  1  0.424391  0.678223  0.149482  1
  O  O58  1  0.074940  0.676794  0.648504  1
  O  O59  1  0.924851  0.180083  0.351550  1
  O  O60  1  0.736603  0.014390  0.954959  1
  O  O61  1  0.263214  0.513349  0.045627  1
  O  O62  1  0.238266  0.513625  0.544491  1
  O  O63  1  0.768098  0.010228  0.454396  1
  O  O64  1  0.023458  0.227623  0.781420  1
  O  O65  1  0.975076  0.728854  0.218877  1
  O  O66  1  0.523120  0.727452  0.717626  1
  O  O67  1  0.475659  0.228877  0.282058  1
  O  O68  1  0.486240  0.089332  0.751259  1
  O  O69  1  0.512337  0.590546  0.248771  1
  O  O70  1  0.986258  0.589500  0.747981  1
  O  O71  1  0.012331  0.091199  0.251989  1
  O  O72  1  0.022685  0.953752  0.721709  1
  O  O73  1  0.976058  0.454656  0.278204  1
  O  O74  1  0.523065  0.453912  0.777363  1
  O  O75  1  0.475658  0.954707  0.222589  1
