# generated using pymatgen
data_NaNb8FeSe16
_symmetry_space_group_name_H-M   'P 1'
_cell_length_a   6.97681100
_cell_length_b   6.97683198
_cell_length_c   13.96490900
_cell_angle_alpha   90.00036149
_cell_angle_beta   89.99857567
_cell_angle_gamma   120.00015992
_symmetry_Int_Tables_number   1
_chemical_formula_structural   NaNb8FeSe16
_chemical_formula_sum   'Na1 Nb8 Fe1 Se16'
_cell_volume   588.68539932
_cell_formula_units_Z   1
loop_
 _symmetry_equiv_pos_site_id
 _symmetry_equiv_pos_as_xyz
  1  'x, y, z'
loop_
 _atom_site_type_symbol
 _atom_site_label
 _atom_site_symmetry_multiplicity
 _atom_site_fract_x
 _atom_site_fract_y
 _atom_site_fract_z
 _atom_site_occupancy
  Na  Na0  1  0.000000  0.000000  0.500000  1
  Nb  Nb1  1  0.999986  0.999999  0.219703  1
  Nb  Nb2  1  0.000014  0.000001  0.780297  1
  Nb  Nb3  1  0.506699  0.013424  0.217481  1
  Nb  Nb4  1  0.986560  0.493288  0.217481  1
  Nb  Nb5  1  0.506697  0.493287  0.217480  1
  Nb  Nb6  1  0.493301  0.986576  0.782519  1
  Nb  Nb7  1  0.013440  0.506712  0.782519  1
  Nb  Nb8  1  0.493303  0.506713  0.782520  1
  Fe  Fe9  1  0.000000  0.000000  0.000000  1
  Se  Se10  1  0.333337  0.666665  0.905412  1
  Se  Se11  1  0.666663  0.333335  0.094588  1
  Se  Se12  1  0.666645  0.333332  0.342498  1
  Se  Se13  1  0.333355  0.666668  0.657502  1
  Se  Se14  1  0.168224  0.831746  0.338131  1
  Se  Se15  1  0.168223  0.336489  0.338130  1
  Se  Se16  1  0.663490  0.831751  0.338132  1
  Se  Se17  1  0.831776  0.168254  0.661869  1
  Se  Se18  1  0.831777  0.663511  0.661870  1
  Se  Se19  1  0.336510  0.168249  0.661868  1
  Se  Se20  1  0.834676  0.165327  0.899543  1
  Se  Se21  1  0.834681  0.669347  0.899545  1
  Se  Se22  1  0.330658  0.165326  0.899542  1
  Se  Se23  1  0.165324  0.834673  0.100457  1
  Se  Se24  1  0.165319  0.330653  0.100455  1
  Se  Se25  1  0.669342  0.834674  0.100458  1
