# generated using pymatgen
data_Tm3ThZnIr
_symmetry_space_group_name_H-M   'P 1'
_cell_length_a   9.53332468
_cell_length_b   9.53332530
_cell_length_c   9.54612400
_cell_angle_alpha   59.95543149
_cell_angle_beta   59.95548915
_cell_angle_gamma   59.91854534
_symmetry_Int_Tables_number   1
_chemical_formula_structural   Tm3ThZnIr
_chemical_formula_sum   'Tm12 Th4 Zn4 Ir4'
_cell_volume   612.68953929
_cell_formula_units_Z   4
loop_
 _symmetry_equiv_pos_site_id
 _symmetry_equiv_pos_as_xyz
  1  'x, y, z'
loop_
 _atom_site_type_symbol
 _atom_site_label
 _atom_site_symmetry_multiplicity
 _atom_site_fract_x
 _atom_site_fract_y
 _atom_site_fract_z
 _atom_site_occupancy
  Tm  Tm0  1  0.061691  0.438387  0.438261  1
  Tm  Tm1  1  0.438383  0.061684  0.061669  1
  Tm  Tm2  1  0.438383  0.061686  0.438265  1
  Tm  Tm3  1  0.061687  0.438386  0.061663  1
  Tm  Tm4  1  0.438658  0.438662  0.061341  1
  Tm  Tm5  1  0.061998  0.061993  0.438004  1
  Tm  Tm6  1  0.184812  0.816328  0.815699  1
  Tm  Tm7  1  0.816328  0.184809  0.183164  1
  Tm  Tm8  1  0.816331  0.184810  0.815698  1
  Tm  Tm9  1  0.184810  0.816329  0.183160  1
  Tm  Tm10  1  0.816385  0.816380  0.183617  1
  Tm  Tm11  1  0.184326  0.184328  0.815672  1
  Th  Th12  1  0.605021  0.605019  0.603838  1
  Th  Th13  1  0.605021  0.605019  0.186122  1
  Th  Th14  1  0.606117  0.184145  0.604869  1
  Th  Th15  1  0.184140  0.606120  0.604869  1
  Zn  Zn16  1  0.833429  0.833432  0.835116  1
  Zn  Zn17  1  0.833428  0.833430  0.498026  1
  Zn  Zn18  1  0.833017  0.497669  0.834656  1
  Zn  Zn19  1  0.497666  0.833019  0.834657  1
  Ir  Ir20  1  0.392591  0.392592  0.394008  1
  Ir  Ir21  1  0.392590  0.392590  0.820809  1
  Ir  Ir22  1  0.392052  0.821133  0.393407  1
  Ir  Ir23  1  0.821136  0.392050  0.393408  1
