# generated using pymatgen
data_Y3CdSn2Rh3
_symmetry_space_group_name_H-M   'P 1'
_cell_length_a   7.64483100
_cell_length_b   7.55288313
_cell_length_c   3.87546200
_cell_angle_alpha   90.00000000
_cell_angle_beta   90.00000000
_cell_angle_gamma   120.40353678
_symmetry_Int_Tables_number   1
_chemical_formula_structural   Y3CdSn2Rh3
_chemical_formula_sum   'Y3 Cd1 Sn2 Rh3'
_cell_volume   192.99870441
_cell_formula_units_Z   1
loop_
 _symmetry_equiv_pos_site_id
 _symmetry_equiv_pos_as_xyz
  1  'x, y, z'
loop_
 _atom_site_type_symbol
 _atom_site_label
 _atom_site_symmetry_multiplicity
 _atom_site_fract_x
 _atom_site_fract_y
 _atom_site_fract_z
 _atom_site_occupancy
  Y  Y0  1  0.406698  0.000000  0.500000  1
  Y  Y1  1  0.003733  0.408150  0.500000  1
  Y  Y2  1  0.595583  0.591850  0.500000  1
  Cd  Cd3  1  0.738399  0.000000  0.000000  1
  Sn  Sn4  1  0.000757  0.740796  0.000000  1
  Sn  Sn5  1  0.259961  0.259204  0.000000  1
  Rh  Rh6  1  0.321235  0.659413  0.000000  1
  Rh  Rh7  1  0.661823  0.340587  0.000000  1
  Rh  Rh8  1  0.011812  0.000000  0.500000  1
