# generated using pymatgen
data_Ho2Lu4GaTcNi
_symmetry_space_group_name_H-M   'P 1'
_cell_length_a   8.23647103
_cell_length_b   8.23647197
_cell_length_c   8.23647199
_cell_angle_alpha   113.30257535
_cell_angle_beta   111.56515487
_cell_angle_gamma   103.70095017
_symmetry_Int_Tables_number   1
_chemical_formula_structural   Ho2Lu4GaTcNi
_chemical_formula_sum   'Ho4 Lu8 Ga2 Tc2 Ni2'
_cell_volume   426.79501711
_cell_formula_units_Z   2
loop_
 _symmetry_equiv_pos_site_id
 _symmetry_equiv_pos_as_xyz
  1  'x, y, z'
loop_
 _atom_site_type_symbol
 _atom_site_label
 _atom_site_symmetry_multiplicity
 _atom_site_fract_x
 _atom_site_fract_y
 _atom_site_fract_z
 _atom_site_occupancy
  Ho  Ho0  1  0.435925  0.245052  0.190873  1
  Ho  Ho1  1  0.564075  0.754948  0.809127  1
  Ho  Ho2  1  0.054180  0.245052  0.809127  1
  Ho  Ho3  1  0.945820  0.754948  0.190873  1
  Lu  Lu4  1  0.179505  0.282633  0.462138  1
  Lu  Lu5  1  0.820495  0.717367  0.537862  1
  Lu  Lu6  1  0.179505  0.717367  0.896872  1
  Lu  Lu7  1  0.820495  0.282633  0.103128  1
  Lu  Lu8  1  0.334624  0.651315  0.316692  1
  Lu  Lu9  1  0.665376  0.348685  0.683308  1
  Lu  Lu10  1  0.334624  0.017933  0.683308  1
  Lu  Lu11  1  0.665376  0.982067  0.316692  1
  Ga  Ga12  1  0.500000  0.500000  0.000000  1
  Ga  Ga13  1  0.000000  0.000000  0.000000  1
  Tc  Tc14  1  0.318407  0.000000  0.318407  1
  Tc  Tc15  1  0.681593  0.000000  0.681593  1
  Ni  Ni16  1  0.120085  0.620085  0.500000  1
  Ni  Ni17  1  0.879915  0.379915  0.500000  1
