# generated using pymatgen
data_Dy3Lu2Tc3(P3Ir4)4
_symmetry_space_group_name_H-M   'P 1'
_cell_length_a   12.65709700
_cell_length_b   12.64499118
_cell_length_c   3.97551100
_cell_angle_alpha   90.00000000
_cell_angle_beta   90.00000000
_cell_angle_gamma   120.03167169
_symmetry_Int_Tables_number   1
_chemical_formula_structural   Dy3Lu2Tc3(P3Ir4)4
_chemical_formula_sum   'Dy3 Lu2 Tc3 P12 Ir16'
_cell_volume   550.85530840
_cell_formula_units_Z   1
loop_
 _symmetry_equiv_pos_site_id
 _symmetry_equiv_pos_as_xyz
  1  'x, y, z'
loop_
 _atom_site_type_symbol
 _atom_site_label
 _atom_site_symmetry_multiplicity
 _atom_site_fract_x
 _atom_site_fract_y
 _atom_site_fract_z
 _atom_site_occupancy
  Dy  Dy0  1  0.333378  0.666845  0.500000  1
  Dy  Dy1  1  0.666535  0.333155  0.500000  1
  Dy  Dy2  1  0.817672  0.000000  0.000000  1
  Lu  Lu3  1  0.000266  0.818850  0.000000  1
  Lu  Lu4  1  0.181416  0.181150  0.000000  1
  Tc  Tc5  1  0.000450  0.455856  0.500000  1
  Tc  Tc6  1  0.544594  0.544144  0.500000  1
  Tc  Tc7  1  0.454955  0.000000  0.500000  1
  P  P8  1  0.999940  0.639919  0.500000  1
  P  P9  1  0.360022  0.360081  0.500000  1
  P  P10  1  0.638956  0.000000  0.500000  1
  P  P11  1  0.515695  0.684940  0.000000  1
  P  P12  1  0.315206  0.830795  0.000000  1
  P  P13  1  0.169345  0.484624  0.000000  1
  P  P14  1  0.484411  0.169205  0.000000  1
  P  P15  1  0.684721  0.515376  0.000000  1
  P  P16  1  0.830756  0.315060  0.000000  1
  P  P17  1  0.000733  0.175921  0.500000  1
  P  P18  1  0.824812  0.824079  0.500000  1
  P  P19  1  0.176127  0.000000  0.500000  1
  Ir  Ir20  1  0.510368  0.868369  0.000000  1
  Ir  Ir21  1  0.131860  0.642421  0.000000  1
  Ir  Ir22  1  0.357771  0.489588  0.000000  1
  Ir  Ir23  1  0.489440  0.357579  0.000000  1
  Ir  Ir24  1  0.868184  0.510412  0.000000  1
  Ir  Ir25  1  0.642000  0.131631  0.000000  1
  Ir  Ir26  1  0.000353  0.290809  0.000000  1
  Ir  Ir27  1  0.709544  0.709191  0.000000  1
  Ir  Ir28  1  0.290470  0.000000  0.000000  1
  Ir  Ir29  1  0.627262  0.805932  0.500000  1
  Ir  Ir30  1  0.192091  0.821032  0.500000  1
  Ir  Ir31  1  0.179088  0.371031  0.500000  1
  Ir  Ir32  1  0.371059  0.178968  0.500000  1
  Ir  Ir33  1  0.808057  0.628969  0.500000  1
  Ir  Ir34  1  0.821330  0.194068  0.500000  1
  Ir  Ir35  1  0.001130  0.000000  0.500000  1
