# generated using pymatgen
data_YHo4ThRh18
_symmetry_space_group_name_H-M   'P 1'
_cell_length_a   5.27159100
_cell_length_b   5.27159099
_cell_length_c   17.59578400
_cell_angle_alpha   90.00000000
_cell_angle_beta   90.00000000
_cell_angle_gamma   119.99999380
_symmetry_Int_Tables_number   1
_chemical_formula_structural   YHo4ThRh18
_chemical_formula_sum   'Y1 Ho4 Th1 Rh18'
_cell_volume   423.47004563
_cell_formula_units_Z   1
loop_
 _symmetry_equiv_pos_site_id
 _symmetry_equiv_pos_as_xyz
  1  'x, y, z'
loop_
 _atom_site_type_symbol
 _atom_site_label
 _atom_site_symmetry_multiplicity
 _atom_site_fract_x
 _atom_site_fract_y
 _atom_site_fract_z
 _atom_site_occupancy
  Y  Y0  1  0.666667  0.333333  0.250000  1
  Ho  Ho1  1  0.333333  0.666667  0.961152  1
  Ho  Ho2  1  0.666667  0.333333  0.043201  1
  Ho  Ho3  1  0.666667  0.333333  0.456799  1
  Ho  Ho4  1  0.333333  0.666667  0.538848  1
  Th  Th5  1  0.333333  0.666667  0.750000  1
  Rh  Rh6  1  0.167162  0.832838  0.373888  1
  Rh  Rh7  1  0.167162  0.334323  0.373888  1
  Rh  Rh8  1  0.665677  0.832838  0.373888  1
  Rh  Rh9  1  0.832720  0.167280  0.623800  1
  Rh  Rh10  1  0.832720  0.665440  0.623800  1
  Rh  Rh11  1  0.334560  0.167280  0.623800  1
  Rh  Rh12  1  0.832720  0.167280  0.876200  1
  Rh  Rh13  1  0.832720  0.665440  0.876200  1
  Rh  Rh14  1  0.334560  0.167280  0.876200  1
  Rh  Rh15  1  0.167162  0.832838  0.126112  1
  Rh  Rh16  1  0.167162  0.334323  0.126112  1
  Rh  Rh17  1  0.665677  0.832838  0.126112  1
  Rh  Rh18  1  0.333333  0.666667  0.250000  1
  Rh  Rh19  1  0.666667  0.333333  0.750000  1
  Rh  Rh20  1  0.000000  0.000000  0.250000  1
  Rh  Rh21  1  0.000000  0.000000  0.750000  1
  Rh  Rh22  1  0.000000  0.000000  0.499207  1
  Rh  Rh23  1  0.000000  0.000000  0.000793  1
