# generated using pymatgen
data_Be8V12Fe4CN3
_symmetry_space_group_name_H-M   'P 1'
_cell_length_a   7.37016863
_cell_length_b   7.36721009
_cell_length_c   7.36721000
_cell_angle_alpha   60.00000038
_cell_angle_beta   60.01327840
_cell_angle_gamma   60.01328337
_symmetry_Int_Tables_number   1
_chemical_formula_structural   Be8V12Fe4CN3
_chemical_formula_sum   'Be8 V12 Fe4 C1 N3'
_cell_volume   282.91481045
_cell_formula_units_Z   1
loop_
 _symmetry_equiv_pos_site_id
 _symmetry_equiv_pos_as_xyz
  1  'x, y, z'
loop_
 _atom_site_type_symbol
 _atom_site_label
 _atom_site_symmetry_multiplicity
 _atom_site_fract_x
 _atom_site_fract_y
 _atom_site_fract_z
 _atom_site_occupancy
  Be  Be0  1  0.737308  0.420897  0.420897  1
  Be  Be1  1  0.421059  0.738764  0.420088  1
  Be  Be2  1  0.421059  0.420088  0.738764  1
  Be  Be3  1  0.421059  0.420088  0.420088  1
  Be  Be4  1  0.512692  0.829103  0.829103  1
  Be  Be5  1  0.828941  0.511236  0.829912  1
  Be  Be6  1  0.828941  0.829912  0.511236  1
  Be  Be7  1  0.828941  0.829912  0.829912  1
  V  V8  1  0.796647  0.794441  0.204456  1
  V  V9  1  0.202610  0.203234  0.797078  1
  V  V10  1  0.796647  0.204456  0.794441  1
  V  V11  1  0.202610  0.797078  0.203234  1
  V  V12  1  0.202610  0.797078  0.797078  1
  V  V13  1  0.796647  0.204456  0.204456  1
  V  V14  1  0.453353  0.455559  0.045544  1
  V  V15  1  0.047390  0.046766  0.452922  1
  V  V16  1  0.453353  0.045544  0.455559  1
  V  V17  1  0.047390  0.452922  0.046766  1
  V  V18  1  0.047390  0.452922  0.452922  1
  V  V19  1  0.453353  0.045544  0.045544  1
  Fe  Fe20  1  0.125000  0.625000  0.625000  1
  Fe  Fe21  1  0.625000  0.125000  0.625000  1
  Fe  Fe22  1  0.625000  0.625000  0.125000  1
  Fe  Fe23  1  0.625000  0.625000  0.625000  1
  C  C24  1  0.625000  0.125000  0.125000  1
  N  N25  1  0.125000  0.625000  0.125000  1
  N  N26  1  0.125000  0.125000  0.625000  1
  N  N27  1  0.125000  0.125000  0.125000  1
