# generated using pymatgen
data_HoPa3CoNi3Sn2
_symmetry_space_group_name_H-M   'P 1'
_cell_length_a   7.41577376
_cell_length_b   7.41577372
_cell_length_c   3.54350200
_cell_angle_alpha   90.00000000
_cell_angle_beta   90.00000000
_cell_angle_gamma   91.10415052
_symmetry_Int_Tables_number   1
_chemical_formula_structural   HoPa3CoNi3Sn2
_chemical_formula_sum   'Ho1 Pa3 Co1 Ni3 Sn2'
_cell_volume   194.83410281
_cell_formula_units_Z   1
loop_
 _symmetry_equiv_pos_site_id
 _symmetry_equiv_pos_as_xyz
  1  'x, y, z'
loop_
 _atom_site_type_symbol
 _atom_site_label
 _atom_site_symmetry_multiplicity
 _atom_site_fract_x
 _atom_site_fract_y
 _atom_site_fract_z
 _atom_site_occupancy
  Ho  Ho0  1  0.828829  0.671171  0.500000  1
  Pa  Pa1  1  0.668098  0.175005  0.500000  1
  Pa  Pa2  1  0.324995  0.831902  0.500000  1
  Pa  Pa3  1  0.177560  0.322440  0.500000  1
  Co  Co4  1  0.366308  0.133692  0.000000  1
  Ni  Ni5  1  0.882911  0.361624  0.000000  1
  Ni  Ni6  1  0.138376  0.617089  0.000000  1
  Ni  Ni7  1  0.613239  0.886761  0.000000  1
  Sn  Sn8  1  0.506651  0.506969  0.000000  1
  Sn  Sn9  1  0.993031  0.993349  0.000000  1
