# generated using pymatgen
data_TbYb3(PrSn)16
_symmetry_space_group_name_H-M   'P 1'
_cell_length_a   8.15854721
_cell_length_b   8.51045040
_cell_length_c   16.19893400
_cell_angle_alpha   90.00000000
_cell_angle_beta   90.00000000
_cell_angle_gamma   89.88349804
_symmetry_Int_Tables_number   1
_chemical_formula_structural   TbYb3(PrSn)16
_chemical_formula_sum   'Tb1 Yb3 Pr16 Sn16'
_cell_volume   1124.73682421
_cell_formula_units_Z   1
loop_
 _symmetry_equiv_pos_site_id
 _symmetry_equiv_pos_as_xyz
  1  'x, y, z'
loop_
 _atom_site_type_symbol
 _atom_site_label
 _atom_site_symmetry_multiplicity
 _atom_site_fract_x
 _atom_site_fract_y
 _atom_site_fract_z
 _atom_site_occupancy
  Tb  Tb0  1  0.824142  0.503785  0.750000  1
  Yb  Yb1  1  0.324324  0.996924  0.750000  1
  Yb  Yb2  1  0.176730  0.496576  0.250000  1
  Yb  Yb3  1  0.675362  0.002892  0.250000  1
  Pr  Pr4  1  0.653138  0.170230  0.624696  1
  Pr  Pr5  1  0.155360  0.329394  0.875987  1
  Pr  Pr6  1  0.346668  0.828591  0.124569  1
  Pr  Pr7  1  0.846706  0.668427  0.377173  1
  Pr  Pr8  1  0.346668  0.828591  0.375431  1
  Pr  Pr9  1  0.846706  0.668427  0.122827  1
  Pr  Pr10  1  0.653138  0.170230  0.875304  1
  Pr  Pr11  1  0.155360  0.329394  0.624013  1
  Pr  Pr12  1  0.497579  0.681559  0.597607  1
  Pr  Pr13  1  0.001190  0.818542  0.903197  1
  Pr  Pr14  1  0.500496  0.317904  0.096394  1
  Pr  Pr15  1  0.999191  0.184689  0.403807  1
  Pr  Pr16  1  0.500496  0.317904  0.403606  1
  Pr  Pr17  1  0.999191  0.184689  0.096193  1
  Pr  Pr18  1  0.497579  0.681559  0.902393  1
  Pr  Pr19  1  0.001190  0.818542  0.596803  1
  Sn  Sn20  1  0.681663  0.961699  0.462643  1
  Sn  Sn21  1  0.187213  0.536750  0.038066  1
  Sn  Sn22  1  0.316883  0.037419  0.962612  1
  Sn  Sn23  1  0.814812  0.464584  0.541925  1
  Sn  Sn24  1  0.316883  0.037419  0.537388  1
  Sn  Sn25  1  0.814812  0.464584  0.958075  1
  Sn  Sn26  1  0.681663  0.961699  0.037357  1
  Sn  Sn27  1  0.187213  0.536750  0.461934  1
  Sn  Sn28  1  0.457705  0.396112  0.750000  1
  Sn  Sn29  1  0.956135  0.109011  0.750000  1
  Sn  Sn30  1  0.545494  0.604608  0.250000  1
  Sn  Sn31  1  0.043089  0.895797  0.250000  1
  Sn  Sn32  1  0.698801  0.853300  0.750000  1
  Sn  Sn33  1  0.190587  0.641843  0.750000  1
  Sn  Sn34  1  0.302362  0.141295  0.250000  1
  Sn  Sn35  1  0.803473  0.358284  0.250000  1
