# generated using pymatgen
data_Ac4ThIr2
_symmetry_space_group_name_H-M   'P 1'
_cell_length_a   6.89307962
_cell_length_b   7.56787018
_cell_length_c   9.79707804
_cell_angle_alpha   96.60787051
_cell_angle_beta   110.59701153
_cell_angle_gamma   89.99999415
_symmetry_Int_Tables_number   1
_chemical_formula_structural   Ac4ThIr2
_chemical_formula_sum   'Ac8 Th2 Ir4'
_cell_volume   474.77616059
_cell_formula_units_Z   2
loop_
 _symmetry_equiv_pos_site_id
 _symmetry_equiv_pos_as_xyz
  1  'x, y, z'
loop_
 _atom_site_type_symbol
 _atom_site_label
 _atom_site_symmetry_multiplicity
 _atom_site_fract_x
 _atom_site_fract_y
 _atom_site_fract_z
 _atom_site_occupancy
  Ac  Ac0  1  0.806164  0.081113  0.813544  1
  Ac  Ac1  1  0.992620  0.418887  0.186456  1
  Ac  Ac2  1  0.193836  0.918887  0.186456  1
  Ac  Ac3  1  0.007380  0.581113  0.813544  1
  Ac  Ac4  1  0.223194  0.181821  0.585485  1
  Ac  Ac5  1  0.637710  0.318179  0.414515  1
  Ac  Ac6  1  0.776806  0.818179  0.414515  1
  Ac  Ac7  1  0.362290  0.681821  0.585485  1
  Th  Th8  1  0.431888  0.250000  0.000000  1
  Th  Th9  1  0.568112  0.750000  0.000000  1
  Ir  Ir10  1  0.583714  0.430132  0.813842  1
  Ir  Ir11  1  0.769871  0.069868  0.186158  1
  Ir  Ir12  1  0.416286  0.569868  0.186158  1
  Ir  Ir13  1  0.230129  0.930132  0.813842  1
