# generated using pymatgen
data_Zr7Ti9(NbSi4)4
_symmetry_space_group_name_H-M   'P 1'
_cell_length_a   6.85364029
_cell_length_b   6.85126411
_cell_length_c   12.60340794
_cell_angle_alpha   90.08718912
_cell_angle_beta   89.97518009
_cell_angle_gamma   90.02238439
_symmetry_Int_Tables_number   1
_chemical_formula_structural   Zr7Ti9(NbSi4)4
_chemical_formula_sum   'Zr7 Ti9 Nb4 Si16'
_cell_volume   591.80609515
_cell_formula_units_Z   1
loop_
 _symmetry_equiv_pos_site_id
 _symmetry_equiv_pos_as_xyz
  1  'x, y, z'
loop_
 _atom_site_type_symbol
 _atom_site_label
 _atom_site_symmetry_multiplicity
 _atom_site_fract_x
 _atom_site_fract_y
 _atom_site_fract_z
 _atom_site_occupancy
  Zr  Zr0  1  0.997948  0.342131  0.530962  1
  Zr  Zr1  1  0.658501  0.001436  0.969404  1
  Zr  Zr2  1  0.157389  0.498450  0.781632  1
  Zr  Zr3  1  0.842241  0.501525  0.280514  1
  Zr  Zr4  1  0.498569  0.157194  0.217607  1
  Zr  Zr5  1  0.502244  0.842109  0.719916  1
  Zr  Zr6  1  0.342431  0.997828  0.468810  1
  Ti  Ti7  1  0.347604  0.505450  0.376886  1
  Ti  Ti8  1  0.847513  0.994267  0.371035  1
  Ti  Ti9  1  0.004092  0.151425  0.127597  1
  Ti  Ti10  1  0.994497  0.847164  0.628380  1
  Ti  Ti11  1  0.651909  0.496871  0.878851  1
  Ti  Ti12  1  0.505346  0.347435  0.622507  1
  Ti  Ti13  1  0.493167  0.652040  0.122000  1
  Ti  Ti14  1  0.150723  0.006916  0.873288  1
  Ti  Ti15  1  0.006195  0.654929  0.031335  1
  Nb  Nb16  1  0.669987  0.669947  0.499789  1
  Nb  Nb17  1  0.830301  0.170466  0.751110  1
  Nb  Nb18  1  0.169527  0.828971  0.248992  1
  Nb  Nb19  1  0.329432  0.330994  0.000311  1
  Si  Si20  1  0.046019  0.705996  0.437459  1
  Si  Si21  1  0.954653  0.300587  0.939427  1
  Si  Si22  1  0.706240  0.045773  0.562420  1
  Si  Si23  1  0.202574  0.455729  0.185653  1
  Si  Si24  1  0.793938  0.546210  0.688236  1
  Si  Si25  1  0.454398  0.206154  0.813046  1
  Si  Si26  1  0.547031  0.794161  0.311271  1
  Si  Si27  1  0.291184  0.951971  0.062050  1
  Si  Si28  1  0.867570  0.790663  0.825733  1
  Si  Si29  1  0.134254  0.208127  0.322971  1
  Si  Si30  1  0.796204  0.860150  0.172533  1
  Si  Si31  1  0.292162  0.633879  0.573507  1
  Si  Si32  1  0.710998  0.369929  0.074122  1
  Si  Si33  1  0.633654  0.291574  0.426088  1
  Si  Si34  1  0.361446  0.707723  0.927766  1
  Si  Si35  1  0.208062  0.133825  0.676793  1
