# generated using pymatgen
data_LiTb8Yb(SiB4)4
_symmetry_space_group_name_H-M   'P 1'
_cell_length_a   7.20080100
_cell_length_b   7.20080100
_cell_length_c   8.03528500
_cell_angle_alpha   90.00000000
_cell_angle_beta   90.00000000
_cell_angle_gamma   90.00000000
_symmetry_Int_Tables_number   1
_chemical_formula_structural   LiTb8Yb(SiB4)4
_chemical_formula_sum   'Li1 Tb8 Yb1 Si4 B16'
_cell_volume   416.64186175
_cell_formula_units_Z   1
loop_
 _symmetry_equiv_pos_site_id
 _symmetry_equiv_pos_as_xyz
  1  'x, y, z'
loop_
 _atom_site_type_symbol
 _atom_site_label
 _atom_site_symmetry_multiplicity
 _atom_site_fract_x
 _atom_site_fract_y
 _atom_site_fract_z
 _atom_site_occupancy
  Li  Li0  1  0.500000  0.500000  0.500000  1
  Tb  Tb1  1  0.681884  0.184011  0.231633  1
  Tb  Tb2  1  0.318116  0.815989  0.768367  1
  Tb  Tb3  1  0.318116  0.815989  0.231633  1
  Tb  Tb4  1  0.815989  0.681884  0.231633  1
  Tb  Tb5  1  0.815989  0.681884  0.768367  1
  Tb  Tb6  1  0.681884  0.184011  0.768367  1
  Tb  Tb7  1  0.184011  0.318116  0.768367  1
  Tb  Tb8  1  0.184011  0.318116  0.231633  1
  Yb  Yb9  1  0.000000  0.000000  0.500000  1
  Si  Si10  1  0.120526  0.607823  0.500000  1
  Si  Si11  1  0.879474  0.392177  0.500000  1
  Si  Si12  1  0.392177  0.120526  0.500000  1
  Si  Si13  1  0.607823  0.879474  0.500000  1
  B  B14  1  0.173128  0.039874  0.000000  1
  B  B15  1  0.826872  0.960126  0.000000  1
  B  B16  1  0.960126  0.173128  0.000000  1
  B  B17  1  0.325460  0.539179  0.000000  1
  B  B18  1  0.039874  0.826872  0.000000  1
  B  B19  1  0.674540  0.460821  0.000000  1
  B  B20  1  0.539179  0.674540  0.000000  1
  B  B21  1  0.460821  0.325460  0.000000  1
  B  B22  1  0.088858  0.589375  0.000000  1
  B  B23  1  0.911142  0.410625  0.000000  1
  B  B24  1  0.410625  0.088858  0.000000  1
  B  B25  1  0.589375  0.911142  0.000000  1
  B  B26  1  0.000000  0.000000  0.158630  1
  B  B27  1  0.000000  0.000000  0.841370  1
  B  B28  1  0.500000  0.500000  0.844193  1
  B  B29  1  0.500000  0.500000  0.155807  1
