# generated using pymatgen
data_LaEu3Mn(CuSb4)2
_symmetry_space_group_name_H-M   'P 1'
_cell_length_a   11.09541008
_cell_length_b   11.09418707
_cell_length_c   11.10014309
_cell_angle_alpha   147.14916378
_cell_angle_beta   147.15101509
_cell_angle_gamma   47.07830387
_symmetry_Int_Tables_number   1
_chemical_formula_structural   LaEu3Mn(CuSb4)2
_chemical_formula_sum   'La1 Eu3 Mn1 Cu2 Sb8'
_cell_volume   400.61578780
_cell_formula_units_Z   1
loop_
 _symmetry_equiv_pos_site_id
 _symmetry_equiv_pos_as_xyz
  1  'x, y, z'
loop_
 _atom_site_type_symbol
 _atom_site_label
 _atom_site_symmetry_multiplicity
 _atom_site_fract_x
 _atom_site_fract_y
 _atom_site_fract_z
 _atom_site_occupancy
  La  La0  1  0.871349  0.372627  0.000000  1
  Eu  Eu1  1  0.625556  0.625570  0.494807  1
  Eu  Eu2  1  0.130749  0.130763  0.505193  1
  Eu  Eu3  1  0.373126  0.870217  0.000000  1
  Mn  Mn4  1  0.999589  0.999401  0.000000  1
  Cu  Cu5  1  0.000213  0.500042  0.500726  1
  Cu  Cu6  1  0.499487  0.999316  0.499274  1
  Sb  Sb7  1  0.322034  0.321895  0.506679  1
  Sb  Sb8  1  0.815355  0.815216  0.493321  1
  Sb  Sb9  1  0.678875  0.185162  0.000000  1
  Sb  Sb10  1  0.183819  0.678695  0.000000  1
  Sb  Sb11  1  0.249080  0.250346  0.000000  1
  Sb  Sb12  1  0.750564  0.750739  0.000000  1
  Sb  Sb13  1  0.750312  0.250215  0.500420  1
  Sb  Sb14  1  0.249892  0.749795  0.499580  1
