# generated using pymatgen
data_Dy4CdRu
_symmetry_space_group_name_H-M   'P 1'
_cell_length_a   9.61436583
_cell_length_b   9.61436673
_cell_length_c   9.61436600
_cell_angle_alpha   60.00000251
_cell_angle_beta   59.99999941
_cell_angle_gamma   60.00000469
_symmetry_Int_Tables_number   1
_chemical_formula_structural   Dy4CdRu
_chemical_formula_sum   'Dy16 Cd4 Ru4'
_cell_volume   628.41566366
_cell_formula_units_Z   4
loop_
 _symmetry_equiv_pos_site_id
 _symmetry_equiv_pos_as_xyz
  1  'x, y, z'
loop_
 _atom_site_type_symbol
 _atom_site_label
 _atom_site_symmetry_multiplicity
 _atom_site_fract_x
 _atom_site_fract_y
 _atom_site_fract_z
 _atom_site_occupancy
  Dy  Dy0  1  0.561357  0.561357  0.938643  1
  Dy  Dy1  1  0.153150  0.540550  0.153150  1
  Dy  Dy2  1  0.689347  0.310653  0.310653  1
  Dy  Dy3  1  0.938643  0.561357  0.561357  1
  Dy  Dy4  1  0.938643  0.561357  0.938643  1
  Dy  Dy5  1  0.689347  0.689347  0.310653  1
  Dy  Dy6  1  0.561357  0.938643  0.938643  1
  Dy  Dy7  1  0.153150  0.153150  0.153150  1
  Dy  Dy8  1  0.310653  0.689347  0.310653  1
  Dy  Dy9  1  0.540550  0.153150  0.153150  1
  Dy  Dy10  1  0.310653  0.310653  0.689347  1
  Dy  Dy11  1  0.310653  0.689347  0.689347  1
  Dy  Dy12  1  0.153150  0.153150  0.540550  1
  Dy  Dy13  1  0.689347  0.310653  0.689347  1
  Dy  Dy14  1  0.938643  0.938643  0.561357  1
  Dy  Dy15  1  0.561357  0.938643  0.561357  1
  Cd  Cd16  1  0.919832  0.919832  0.919832  1
  Cd  Cd17  1  0.240503  0.919832  0.919832  1
  Cd  Cd18  1  0.919832  0.919832  0.240503  1
  Cd  Cd19  1  0.919832  0.240503  0.919832  1
  Ru  Ru20  1  0.360975  0.360975  0.917073  1
  Ru  Ru21  1  0.360975  0.360975  0.360975  1
  Ru  Ru22  1  0.917073  0.360975  0.360975  1
  Ru  Ru23  1  0.360975  0.917073  0.360975  1
