# generated using pymatgen
data_La8Ho2Ru3Rh
_symmetry_space_group_name_H-M   'P 1'
_cell_length_a   6.62781328
_cell_length_b   7.26654560
_cell_length_c   9.06882104
_cell_angle_alpha   94.98350789
_cell_angle_beta   111.38346735
_cell_angle_gamma   89.85093521
_symmetry_Int_Tables_number   1
_chemical_formula_structural   La8Ho2Ru3Rh
_chemical_formula_sum   'La8 Ho2 Ru3 Rh1'
_cell_volume   404.96330979
_cell_formula_units_Z   1
loop_
 _symmetry_equiv_pos_site_id
 _symmetry_equiv_pos_as_xyz
  1  'x, y, z'
loop_
 _atom_site_type_symbol
 _atom_site_label
 _atom_site_symmetry_multiplicity
 _atom_site_fract_x
 _atom_site_fract_y
 _atom_site_fract_z
 _atom_site_occupancy
  La  La0  1  0.982027  0.916838  0.180472  1
  La  La1  1  0.797091  0.589834  0.815970  1
  La  La2  1  0.019846  0.088432  0.817302  1
  La  La3  1  0.206872  0.409287  0.181398  1
  La  La4  1  0.635229  0.816615  0.428681  1
  La  La5  1  0.213625  0.684888  0.576348  1
  La  La6  1  0.359757  0.186212  0.571975  1
  La  La7  1  0.790337  0.312565  0.430493  1
  Ho  Ho8  1  0.429211  0.750962  0.999577  1
  Ho  Ho9  1  0.570008  0.247700  0.997820  1
  Ru  Ru10  1  0.603190  0.919269  0.782531  1
  Ru  Ru11  1  0.180104  0.422683  0.781415  1
  Ru  Ru12  1  0.398674  0.078432  0.219037  1
  Rh  Rh13  1  0.814029  0.576280  0.216983  1
