# generated using pymatgen
data_Hf5H8
_symmetry_space_group_name_H-M   'P 1'
_cell_length_a   5.75300082
_cell_length_b   5.75300047
_cell_length_c   5.75300085
_cell_angle_alpha   99.55082008
_cell_angle_beta   99.55082055
_cell_angle_gamma   131.92485168
_symmetry_Int_Tables_number   1
_chemical_formula_structural   Hf5H8
_chemical_formula_sum   'Hf5 H8'
_cell_volume   129.38150026
_cell_formula_units_Z   1
loop_
 _symmetry_equiv_pos_site_id
 _symmetry_equiv_pos_as_xyz
  1  'x, y, z'
loop_
 _atom_site_type_symbol
 _atom_site_label
 _atom_site_symmetry_multiplicity
 _atom_site_fract_x
 _atom_site_fract_y
 _atom_site_fract_z
 _atom_site_occupancy
  Hf  Hf0  1  0.000000  0.000000  0.000000  1
  Hf  Hf1  1  0.405356  0.812487  0.217842  1
  Hf  Hf2  1  0.812487  0.594645  0.407132  1
  Hf  Hf3  1  0.187514  0.405356  0.592869  1
  Hf  Hf4  1  0.594645  0.187514  0.782159  1
  H  H5  1  0.451336  0.151615  0.099302  1
  H  H6  1  0.947688  0.647967  0.099302  1
  H  H7  1  0.352034  0.451336  0.299722  1
  H  H8  1  0.848386  0.947688  0.299722  1
  H  H9  1  0.151615  0.052312  0.700279  1
  H  H10  1  0.647967  0.548664  0.700279  1
  H  H11  1  0.052312  0.352034  0.900698  1
  H  H12  1  0.548664  0.848386  0.900698  1
