# generated using pymatgen
data_Ce2InRhAu
_symmetry_space_group_name_H-M   'P 1'
_cell_length_a   7.93422919
_cell_length_b   7.93422919
_cell_length_c   3.76756500
_cell_angle_alpha   90.00000000
_cell_angle_beta   90.00000000
_cell_angle_gamma   88.80117765
_symmetry_Int_Tables_number   1
_chemical_formula_structural   Ce2InRhAu
_chemical_formula_sum   'Ce4 In2 Rh2 Au2'
_cell_volume   237.12381011
_cell_formula_units_Z   2
loop_
 _symmetry_equiv_pos_site_id
 _symmetry_equiv_pos_as_xyz
  1  'x, y, z'
loop_
 _atom_site_type_symbol
 _atom_site_label
 _atom_site_symmetry_multiplicity
 _atom_site_fract_x
 _atom_site_fract_y
 _atom_site_fract_z
 _atom_site_occupancy
  Ce  Ce0  1  0.660423  0.160423  0.500000  1
  Ce  Ce1  1  0.339577  0.839577  0.500000  1
  Ce  Ce2  1  0.184851  0.315149  0.500000  1
  Ce  Ce3  1  0.815149  0.684851  0.500000  1
  In  In4  1  0.000000  0.000000  0.000000  1
  In  In5  1  0.500000  0.500000  0.000000  1
  Rh  Rh6  1  0.636004  0.863996  0.000000  1
  Rh  Rh7  1  0.363996  0.136004  0.000000  1
  Au  Au8  1  0.128871  0.628871  0.000000  1
  Au  Au9  1  0.871129  0.371129  0.000000  1
