# generated using pymatgen
data_Ac3Dy(InPd)4
_symmetry_space_group_name_H-M   'P 1'
_cell_length_a   4.69280800
_cell_length_b   7.50974208
_cell_length_c   8.67879900
_cell_angle_alpha   88.84603233
_cell_angle_beta   90.00000000
_cell_angle_gamma   90.00000000
_symmetry_Int_Tables_number   1
_chemical_formula_structural   Ac3Dy(InPd)4
_chemical_formula_sum   'Ac3 Dy1 In4 Pd4'
_cell_volume   305.79427325
_cell_formula_units_Z   1
loop_
 _symmetry_equiv_pos_site_id
 _symmetry_equiv_pos_as_xyz
  1  'x, y, z'
loop_
 _atom_site_type_symbol
 _atom_site_label
 _atom_site_symmetry_multiplicity
 _atom_site_fract_x
 _atom_site_fract_y
 _atom_site_fract_z
 _atom_site_occupancy
  Ac  Ac0  1  0.750000  0.034336  0.324229  1
  Ac  Ac1  1  0.250000  0.460040  0.816196  1
  Ac  Ac2  1  0.750000  0.538988  0.182020  1
  Dy  Dy3  1  0.250000  0.957780  0.684269  1
  In  In4  1  0.250000  0.859947  0.053596  1
  In  In5  1  0.250000  0.350262  0.442715  1
  In  In6  1  0.750000  0.653061  0.563855  1
  In  In7  1  0.750000  0.137869  0.933396  1
  Pd  Pd8  1  0.250000  0.742435  0.386082  1
  Pd  Pd9  1  0.750000  0.255995  0.621411  1
  Pd  Pd10  1  0.750000  0.772706  0.867749  1
  Pd  Pd11  1  0.250000  0.236581  0.124478  1
