# generated using pymatgen
data_La9PrIn5Sn
_symmetry_space_group_name_H-M   'P 1'
_cell_length_a   9.69220678
_cell_length_b   9.69276443
_cell_length_c   9.60447893
_cell_angle_alpha   96.11865103
_cell_angle_beta   96.11552187
_cell_angle_gamma   142.07453505
_symmetry_Int_Tables_number   1
_chemical_formula_structural   La9PrIn5Sn
_chemical_formula_sum   'La9 Pr1 In5 Sn1'
_cell_volume   523.91097014
_cell_formula_units_Z   1
loop_
 _symmetry_equiv_pos_site_id
 _symmetry_equiv_pos_as_xyz
  1  'x, y, z'
loop_
 _atom_site_type_symbol
 _atom_site_label
 _atom_site_symmetry_multiplicity
 _atom_site_fract_x
 _atom_site_fract_y
 _atom_site_fract_z
 _atom_site_occupancy
  La  La0  1  0.248605  0.747923  0.500004  1
  La  La1  1  0.913601  0.218958  0.132934  1
  La  La2  1  0.219675  0.088145  0.307419  1
  La  La3  1  0.780028  0.912387  0.692083  1
  La  La4  1  0.086612  0.780467  0.867417  1
  La  La5  1  0.719202  0.413065  0.132576  1
  La  La6  1  0.280674  0.586027  0.867065  1
  La  La7  1  0.587948  0.720311  0.307912  1
  La  La8  1  0.412258  0.280724  0.692584  1
  Pr  Pr9  1  0.752101  0.251330  0.499999  1
  In  In10  1  0.749762  0.750161  0.999986  1
  In  In11  1  0.249775  0.250174  0.000011  1
  In  In12  1  0.839554  0.659439  0.500004  1
  In  In13  1  0.660584  0.160579  0.820152  1
  In  In14  1  0.340444  0.840433  0.179855  1
  Sn  Sn15  1  0.159178  0.339874  0.499999  1
