# generated using pymatgen
data_CaAl2Pd
_symmetry_space_group_name_H-M   'P 1'
_cell_length_a   4.28793200
_cell_length_b   5.52578850
_cell_length_c   7.21250000
_cell_angle_alpha   90.00000000
_cell_angle_beta   90.00000000
_cell_angle_gamma   67.17034989
_symmetry_Int_Tables_number   1
_chemical_formula_structural   CaAl2Pd
_chemical_formula_sum   'Ca2 Al4 Pd2'
_cell_volume   157.50701019
_cell_formula_units_Z   2
loop_
 _symmetry_equiv_pos_site_id
 _symmetry_equiv_pos_as_xyz
  1  'x, y, z'
loop_
 _atom_site_type_symbol
 _atom_site_label
 _atom_site_symmetry_multiplicity
 _atom_site_fract_x
 _atom_site_fract_y
 _atom_site_fract_z
 _atom_site_occupancy
  Ca  Ca0  1  0.563659  0.872686  0.249999  1
  Ca  Ca1  1  0.436342  0.127314  0.749999  1
  Al  Al2  1  0.845316  0.309372  0.056454  1
  Al  Al3  1  0.845316  0.309372  0.443547  1
  Al  Al4  1  0.154685  0.690628  0.556453  1
  Al  Al5  1  0.154685  0.690628  0.943546  1
  Pd  Pd6  1  0.284890  0.430219  0.249999  1
  Pd  Pd7  1  0.715112  0.569779  0.749999  1
