# generated using pymatgen
data_Ta2InMoO8
_symmetry_space_group_name_H-M   'P 1'
_cell_length_a   5.85397300
_cell_length_b   4.86738524
_cell_length_c   5.23883249
_cell_angle_alpha   88.88805276
_cell_angle_beta   90.00000000
_cell_angle_gamma   90.00000000
_symmetry_Int_Tables_number   1
_chemical_formula_structural   Ta2InMoO8
_chemical_formula_sum   'Ta2 In1 Mo1 O8'
_cell_volume   149.24478260
_cell_formula_units_Z   1
loop_
 _symmetry_equiv_pos_site_id
 _symmetry_equiv_pos_as_xyz
  1  'x, y, z'
loop_
 _atom_site_type_symbol
 _atom_site_label
 _atom_site_symmetry_multiplicity
 _atom_site_fract_x
 _atom_site_fract_y
 _atom_site_fract_z
 _atom_site_occupancy
  Ta  Ta0  1  0.832784  0.000000  0.250000  1
  Ta  Ta1  1  0.170733  0.000000  0.750000  1
  In  In2  1  0.675793  0.500000  0.750000  1
  Mo  Mo3  1  0.338759  0.500000  0.250000  1
  O  O4  1  0.618094  0.741573  0.398074  1
  O  O5  1  0.618094  0.258427  0.101926  1
  O  O6  1  0.375632  0.260498  0.598226  1
  O  O7  1  0.375632  0.739502  0.901774  1
  O  O8  1  0.103235  0.784792  0.434504  1
  O  O9  1  0.103235  0.215208  0.065496  1
  O  O10  1  0.894004  0.212854  0.565386  1
  O  O11  1  0.894004  0.787146  0.934614  1
