# generated using pymatgen
data_LiTh3Sb5
_symmetry_space_group_name_H-M   'P 1'
_cell_length_a   9.52191500
_cell_length_b   9.52191674
_cell_length_c   6.23723300
_cell_angle_alpha   90.00000000
_cell_angle_beta   90.00000000
_cell_angle_gamma   119.99999744
_symmetry_Int_Tables_number   1
_chemical_formula_structural   LiTh3Sb5
_chemical_formula_sum   'Li2 Th6 Sb10'
_cell_volume   489.74644336
_cell_formula_units_Z   2
loop_
 _symmetry_equiv_pos_site_id
 _symmetry_equiv_pos_as_xyz
  1  'x, y, z'
loop_
 _atom_site_type_symbol
 _atom_site_label
 _atom_site_symmetry_multiplicity
 _atom_site_fract_x
 _atom_site_fract_y
 _atom_site_fract_z
 _atom_site_occupancy
  Li  Li0  1  0.000000  0.000000  0.000000  1
  Li  Li1  1  0.000000  0.000000  0.500000  1
  Th  Th2  1  0.621599  0.000000  0.250000  1
  Th  Th3  1  0.378401  0.000000  0.750000  1
  Th  Th4  1  0.000000  0.621599  0.250000  1
  Th  Th5  1  0.000000  0.378401  0.750000  1
  Th  Th6  1  0.378401  0.378401  0.250000  1
  Th  Th7  1  0.621599  0.621599  0.750000  1
  Sb  Sb8  1  0.266349  0.000000  0.250000  1
  Sb  Sb9  1  0.733651  0.000000  0.750000  1
  Sb  Sb10  1  0.000000  0.266349  0.250000  1
  Sb  Sb11  1  0.000000  0.733651  0.750000  1
  Sb  Sb12  1  0.733651  0.733651  0.250000  1
  Sb  Sb13  1  0.266349  0.266349  0.750000  1
  Sb  Sb14  1  0.333333  0.666667  0.000000  1
  Sb  Sb15  1  0.666667  0.333333  0.000000  1
  Sb  Sb16  1  0.666667  0.333333  0.500000  1
  Sb  Sb17  1  0.333333  0.666667  0.500000  1
