# generated using pymatgen
data_Tm4B8OsRu3
_symmetry_space_group_name_H-M   'P 1'
_cell_length_a   5.85952782
_cell_length_b   5.28486900
_cell_length_c   6.31773342
_cell_angle_alpha   90.00000000
_cell_angle_beta   89.81287303
_cell_angle_gamma   90.00000000
_symmetry_Int_Tables_number   1
_chemical_formula_structural   Tm4B8OsRu3
_chemical_formula_sum   'Tm4 B8 Os1 Ru3'
_cell_volume   195.63917704
_cell_formula_units_Z   1
loop_
 _symmetry_equiv_pos_site_id
 _symmetry_equiv_pos_as_xyz
  1  'x, y, z'
loop_
 _atom_site_type_symbol
 _atom_site_label
 _atom_site_symmetry_multiplicity
 _atom_site_fract_x
 _atom_site_fract_y
 _atom_site_fract_z
 _atom_site_occupancy
  Tm  Tm0  1  0.011295  0.250000  0.334951  1
  Tm  Tm1  1  0.511726  0.250000  0.165809  1
  Tm  Tm2  1  0.988773  0.750000  0.663849  1
  Tm  Tm3  1  0.488272  0.750000  0.834840  1
  B  B4  1  0.365536  0.082615  0.537957  1
  B  B5  1  0.866517  0.416311  0.963887  1
  B  B6  1  0.633304  0.584107  0.463660  1
  B  B7  1  0.134244  0.916716  0.036435  1
  B  B8  1  0.633304  0.915893  0.463660  1
  B  B9  1  0.134244  0.583284  0.036435  1
  B  B10  1  0.365536  0.417385  0.537957  1
  B  B11  1  0.866517  0.083689  0.963887  1
  Os  Os12  1  0.181069  0.250000  0.817294  1
  Ru  Ru13  1  0.681788  0.250000  0.681406  1
  Ru  Ru14  1  0.818767  0.750000  0.180520  1
  Ru  Ru15  1  0.319105  0.750000  0.317452  1
