# generated using pymatgen
data_NdTm3(RuO4)4
_symmetry_space_group_name_H-M   'P 1'
_cell_length_a   5.31726819
_cell_length_b   7.60054556
_cell_length_c   7.36067700
_cell_angle_alpha   80.94331989
_cell_angle_beta   90.78037979
_cell_angle_gamma   93.06200628
_symmetry_Int_Tables_number   1
_chemical_formula_structural   NdTm3(RuO4)4
_chemical_formula_sum   'Nd1 Tm3 Ru4 O16'
_cell_volume   293.34332542
_cell_formula_units_Z   1
loop_
 _symmetry_equiv_pos_site_id
 _symmetry_equiv_pos_as_xyz
  1  'x, y, z'
loop_
 _atom_site_type_symbol
 _atom_site_label
 _atom_site_symmetry_multiplicity
 _atom_site_fract_x
 _atom_site_fract_y
 _atom_site_fract_z
 _atom_site_occupancy
  Nd  Nd0  1  0.741149  0.369637  0.391840  1
  Tm  Tm1  1  0.267064  0.623712  0.612861  1
  Tm  Tm2  1  0.197513  0.670988  0.105267  1
  Tm  Tm3  1  0.811693  0.334622  0.895508  1
  Ru  Ru4  1  0.758364  0.836599  0.794442  1
  Ru  Ru5  1  0.715965  0.837434  0.298807  1
  Ru  Ru6  1  0.287981  0.161615  0.701308  1
  Ru  Ru7  1  0.240291  0.160468  0.199976  1
  O  O8  1  0.074202  0.952255  0.696836  1
  O  O9  1  0.396216  0.934014  0.197351  1
  O  O10  1  0.609896  0.826312  0.553152  1
  O  O11  1  0.851850  0.828319  0.055429  1
  O  O12  1  0.455618  0.701104  0.873794  1
  O  O13  1  0.956711  0.614774  0.824389  1
  O  O14  1  0.985284  0.671675  0.382378  1
  O  O15  1  0.486122  0.609564  0.323104  1
  O  O16  1  0.505932  0.392906  0.688391  1
  O  O17  1  0.032518  0.340189  0.630140  1
  O  O18  1  0.051361  0.392109  0.159498  1
  O  O19  1  0.538551  0.294779  0.116459  1
  O  O20  1  0.136593  0.157434  0.946594  1
  O  O21  1  0.370066  0.172276  0.446094  1
  O  O22  1  0.606437  0.066569  0.802125  1
  O  O23  1  0.922625  0.050647  0.304255  1
