# generated using pymatgen
data_LaTb3Np2O12
_symmetry_space_group_name_H-M   'P 1'
_cell_length_a   5.62737300
_cell_length_b   7.95201345
_cell_length_c   11.97902397
_cell_angle_alpha   73.80869429
_cell_angle_beta   90.00000000
_cell_angle_gamma   90.00000000
_symmetry_Int_Tables_number   1
_chemical_formula_structural   LaTb3Np2O12
_chemical_formula_sum   'La2 Tb6 Np4 O24'
_cell_volume   514.78686437
_cell_formula_units_Z   2
loop_
 _symmetry_equiv_pos_site_id
 _symmetry_equiv_pos_as_xyz
  1  'x, y, z'
loop_
 _atom_site_type_symbol
 _atom_site_label
 _atom_site_symmetry_multiplicity
 _atom_site_fract_x
 _atom_site_fract_y
 _atom_site_fract_z
 _atom_site_occupancy
  La  La0  1  0.695304  0.500000  0.750000  1
  La  La1  1  0.304696  0.500000  0.250000  1
  Tb  Tb2  1  0.745617  0.000000  0.750000  1
  Tb  Tb3  1  0.254383  0.000000  0.250000  1
  Tb  Tb4  1  0.188018  0.797187  0.577849  1
  Tb  Tb5  1  0.811982  0.797187  0.077849  1
  Tb  Tb6  1  0.188018  0.202813  0.922151  1
  Tb  Tb7  1  0.811982  0.202813  0.422151  1
  Np  Np8  1  0.254366  0.726269  0.885508  1
  Np  Np9  1  0.745634  0.726269  0.385508  1
  Np  Np10  1  0.254366  0.273731  0.614492  1
  Np  Np11  1  0.745634  0.273731  0.114492  1
  O  O12  1  0.042728  0.945375  0.896786  1
  O  O13  1  0.550862  0.848971  0.931521  1
  O  O14  1  0.957272  0.945375  0.396786  1
  O  O15  1  0.448348  0.802165  0.727339  1
  O  O16  1  0.449138  0.848971  0.431521  1
  O  O17  1  0.971554  0.722366  0.766230  1
  O  O18  1  0.551652  0.802165  0.227339  1
  O  O19  1  0.878968  0.633647  0.549687  1
  O  O20  1  0.373310  0.484710  0.886507  1
  O  O21  1  0.028446  0.722366  0.266230  1
  O  O22  1  0.373310  0.515290  0.613493  1
  O  O23  1  0.878968  0.366353  0.950313  1
  O  O24  1  0.121032  0.633647  0.049687  1
  O  O25  1  0.626690  0.484710  0.386507  1
  O  O26  1  0.971554  0.277634  0.733770  1
  O  O27  1  0.626690  0.515290  0.113493  1
  O  O28  1  0.121032  0.366353  0.450313  1
  O  O29  1  0.448348  0.197835  0.772661  1
  O  O30  1  0.028446  0.277634  0.233770  1
  O  O31  1  0.550862  0.151029  0.568479  1
  O  O32  1  0.551652  0.197835  0.272661  1
  O  O33  1  0.042728  0.054625  0.603214  1
  O  O34  1  0.449138  0.151029  0.068479  1
  O  O35  1  0.957272  0.054625  0.103214  1
