# generated using pymatgen
data_Nd4Mn3Zn(BO2)20
_symmetry_space_group_name_H-M   'P 1'
_cell_length_a   8.79792021
_cell_length_b   7.77116334
_cell_length_c   9.55520815
_cell_angle_alpha   90.13069313
_cell_angle_beta   92.27200185
_cell_angle_gamma   90.02685430
_symmetry_Int_Tables_number   1
_chemical_formula_structural   Nd4Mn3Zn(BO2)20
_chemical_formula_sum   'Nd4 Mn3 Zn1 B20 O40'
_cell_volume   652.77493719
_cell_formula_units_Z   1
loop_
 _symmetry_equiv_pos_site_id
 _symmetry_equiv_pos_as_xyz
  1  'x, y, z'
loop_
 _atom_site_type_symbol
 _atom_site_label
 _atom_site_symmetry_multiplicity
 _atom_site_fract_x
 _atom_site_fract_y
 _atom_site_fract_z
 _atom_site_occupancy
  Nd  Nd0  1  0.186478  0.186204  0.236745  1
  Nd  Nd1  1  0.313495  0.686865  0.263602  1
  Nd  Nd2  1  0.685909  0.314482  0.736431  1
  Nd  Nd3  1  0.813249  0.813309  0.764087  1
  Mn  Mn4  1  0.604669  0.410830  0.123225  1
  Mn  Mn5  1  0.892799  0.909867  0.374649  1
  Mn  Mn6  1  0.107288  0.090146  0.625848  1
  Zn  Zn7  1  0.388387  0.590245  0.874828  1
  B  B8  1  0.849776  0.598059  0.000584  1
  B  B9  1  0.780782  0.030679  0.052758  1
  B  B10  1  0.567298  0.817239  0.083840  1
  B  B11  1  0.015909  0.827046  0.105231  1
  B  B12  1  0.584465  0.078303  0.238070  1
  B  B13  1  0.914681  0.579242  0.261401  1
  B  B14  1  0.483976  0.326950  0.394724  1
  B  B15  1  0.930716  0.317381  0.411562  1
  B  B16  1  0.718924  0.530198  0.446489  1
  B  B17  1  0.650673  0.098707  0.499266  1
  B  B18  1  0.349555  0.900601  0.501351  1
  B  B19  1  0.281278  0.470161  0.554531  1
  B  B20  1  0.069834  0.683103  0.589004  1
  B  B21  1  0.516126  0.672898  0.606761  1
  B  B22  1  0.086823  0.421753  0.739499  1
  B  B23  1  0.416017  0.919279  0.762119  1
  B  B24  1  0.985038  0.173351  0.895119  1
  B  B25  1  0.428922  0.184449  0.910429  1
  B  B26  1  0.219330  0.967851  0.946883  1
  B  B27  1  0.153147  0.401840  0.000664  1
  O  O28  1  0.687042  0.874341  0.008120  1
  O  O29  1  0.042764  0.274738  0.015997  1
  O  O30  1  0.496713  0.658860  0.066627  1
  O  O31  1  0.172522  0.892696  0.083582  1
  O  O32  1  0.234175  0.453479  0.116735  1
  O  O33  1  0.685484  0.146468  0.132126  1
  O  O34  1  0.822201  0.536374  0.131945  1
  O  O35  1  0.914680  0.972685  0.141540  1
  O  O36  1  0.509966  0.916551  0.190200  1
  O  O37  1  0.029360  0.715541  0.233566  1
  O  O38  1  0.469715  0.214217  0.266505  1
  O  O39  1  0.989911  0.418754  0.308033  1
  O  O40  1  0.585054  0.472166  0.357180  1
  O  O41  1  0.676245  0.035487  0.367640  1
  O  O42  1  0.813269  0.646616  0.367417  1
  O  O43  1  0.267432  0.954480  0.386565  1
  O  O44  1  0.328399  0.393660  0.417877  1
  O  O45  1  0.999251  0.158653  0.425752  1
  O  O46  1  0.458837  0.772641  0.484682  1
  O  O47  1  0.812641  0.374305  0.489793  1
  O  O48  1  0.187422  0.625657  0.510445  1
  O  O49  1  0.541396  0.226697  0.515995  1
  O  O50  1  0.000838  0.841449  0.574544  1
  O  O51  1  0.671959  0.605871  0.583511  1
  O  O52  1  0.733276  0.045743  0.614017  1
  O  O53  1  0.187291  0.353653  0.633603  1
  O  O54  1  0.323340  0.962863  0.632956  1
  O  O55  1  0.414217  0.528846  0.645180  1
  O  O56  1  0.011510  0.582026  0.693278  1
  O  O57  1  0.531050  0.785061  0.734041  1
  O  O58  1  0.972372  0.285686  0.767585  1
  O  O59  1  0.490124  0.081431  0.808749  1
  O  O60  1  0.085305  0.026415  0.858404  1
  O  O61  1  0.180932  0.465820  0.869648  1
  O  O62  1  0.314412  0.850282  0.867432  1
  O  O63  1  0.767979  0.544372  0.885537  1
  O  O64  1  0.828256  0.108054  0.916830  1
  O  O65  1  0.495303  0.345424  0.923086  1
  O  O66  1  0.959140  0.725805  0.984084  1
  O  O67  1  0.312672  0.125099  0.989490  1
