# generated using pymatgen
data_PrNd15MgIn3Ir4
_symmetry_space_group_name_H-M   'P 1'
_cell_length_a   10.00308282
_cell_length_b   9.99595905
_cell_length_c   9.97299500
_cell_angle_alpha   60.07596942
_cell_angle_beta   60.09945255
_cell_angle_gamma   60.16112630
_symmetry_Int_Tables_number   1
_chemical_formula_structural   PrNd15MgIn3Ir4
_chemical_formula_sum   'Pr1 Nd15 Mg1 In3 Ir4'
_cell_volume   706.92095238
_cell_formula_units_Z   1
loop_
 _symmetry_equiv_pos_site_id
 _symmetry_equiv_pos_as_xyz
  1  'x, y, z'
loop_
 _atom_site_type_symbol
 _atom_site_label
 _atom_site_symmetry_multiplicity
 _atom_site_fract_x
 _atom_site_fract_y
 _atom_site_fract_z
 _atom_site_occupancy
  Pr  Pr0  1  0.937900  0.939367  0.561366  1
  Nd  Nd1  1  0.348004  0.347334  0.346322  1
  Nd  Nd2  1  0.348004  0.347334  0.958341  1
  Nd  Nd3  1  0.349098  0.956893  0.347005  1
  Nd  Nd4  1  0.955315  0.349195  0.347746  1
  Nd  Nd5  1  0.807101  0.191698  0.193221  1
  Nd  Nd6  1  0.188463  0.809944  0.811083  1
  Nd  Nd7  1  0.188463  0.809944  0.190511  1
  Nd  Nd8  1  0.807101  0.191698  0.807982  1
  Nd  Nd9  1  0.188989  0.189331  0.810840  1
  Nd  Nd10  1  0.807242  0.807222  0.192769  1
  Nd  Nd11  1  0.938643  0.560839  0.561641  1
  Nd  Nd12  1  0.560035  0.940662  0.939435  1
  Nd  Nd13  1  0.560035  0.940662  0.559867  1
  Nd  Nd14  1  0.938643  0.560839  0.938876  1
  Nd  Nd15  1  0.560652  0.560304  0.939521  1
  Mg  Mg16  1  0.272666  0.575211  0.576062  1
  In  In17  1  0.580782  0.581439  0.581242  1
  In  In18  1  0.580782  0.581439  0.256538  1
  In  In19  1  0.579792  0.257018  0.581596  1
  Ir  Ir20  1  0.141955  0.141576  0.140268  1
  Ir  Ir21  1  0.141955  0.141576  0.576199  1
  Ir  Ir22  1  0.141973  0.576683  0.140672  1
  Ir  Ir23  1  0.576410  0.141794  0.140898  1
