# generated using pymatgen
data_Pt2Rh6W
_symmetry_space_group_name_H-M   'P 1'
_cell_length_a   6.15768116
_cell_length_b   6.15767771
_cell_length_c   6.15767945
_cell_angle_alpha   95.90668847
_cell_angle_beta   95.47792184
_cell_angle_gamma   143.28597040
_symmetry_Int_Tables_number   1
_chemical_formula_structural   Pt2Rh6W
_chemical_formula_sum   'Pt2 Rh6 W1'
_cell_volume   132.47584726
_cell_formula_units_Z   1
loop_
 _symmetry_equiv_pos_site_id
 _symmetry_equiv_pos_as_xyz
  1  'x, y, z'
loop_
 _atom_site_type_symbol
 _atom_site_label
 _atom_site_symmetry_multiplicity
 _atom_site_fract_x
 _atom_site_fract_y
 _atom_site_fract_z
 _atom_site_occupancy
  Pt  Pt0  1  0.670246  0.000000  0.670246  1
  Pt  Pt1  1  0.329754  0.000000  0.329754  1
  Rh  Rh2  1  0.339145  0.338169  0.677317  1
  Rh  Rh3  1  0.660855  0.661831  0.322683  1
  Rh  Rh4  1  0.660852  0.338169  0.999025  1
  Rh  Rh5  1  0.339148  0.661831  0.000975  1
  Rh  Rh6  1  0.000002  0.326834  0.326832  1
  Rh  Rh7  1  0.999998  0.673166  0.673168  1
  W  W8  1  0.000000  0.000000  0.000000  1
