# generated using pymatgen
data_Tb5YHo14(Cd3Ru)2
_symmetry_space_group_name_H-M   'P 1'
_cell_length_a   9.58611400
_cell_length_b   9.58611379
_cell_length_c   9.81650300
_cell_angle_alpha   90.00000000
_cell_angle_beta   90.00000000
_cell_angle_gamma   120.00000074
_symmetry_Int_Tables_number   1
_chemical_formula_structural   Tb5YHo14(Cd3Ru)2
_chemical_formula_sum   'Tb5 Y1 Ho14 Cd6 Ru2'
_cell_volume   781.21864741
_cell_formula_units_Z   1
loop_
 _symmetry_equiv_pos_site_id
 _symmetry_equiv_pos_as_xyz
  1  'x, y, z'
loop_
 _atom_site_type_symbol
 _atom_site_label
 _atom_site_symmetry_multiplicity
 _atom_site_fract_x
 _atom_site_fract_y
 _atom_site_fract_z
 _atom_site_occupancy
  Tb  Tb0  1  0.541200  0.458800  0.250000  1
  Tb  Tb1  1  0.541200  0.082399  0.250000  1
  Tb  Tb2  1  0.917601  0.458800  0.250000  1
  Tb  Tb3  1  0.458800  0.541200  0.750000  1
  Tb  Tb4  1  0.458800  0.917601  0.750000  1
  Y  Y5  1  0.082399  0.541200  0.750000  1
  Ho  Ho6  1  0.000000  0.000000  0.500000  1
  Ho  Ho7  1  0.000000  0.000000  0.000000  1
  Ho  Ho8  1  0.209934  0.790066  0.439724  1
  Ho  Ho9  1  0.209934  0.419868  0.439724  1
  Ho  Ho10  1  0.580132  0.790066  0.439724  1
  Ho  Ho11  1  0.790066  0.209934  0.560276  1
  Ho  Ho12  1  0.790066  0.580132  0.560276  1
  Ho  Ho13  1  0.419868  0.209934  0.560276  1
  Ho  Ho14  1  0.790066  0.209934  0.939724  1
  Ho  Ho15  1  0.790066  0.580132  0.939724  1
  Ho  Ho16  1  0.419868  0.209934  0.939724  1
  Ho  Ho17  1  0.209934  0.790066  0.060276  1
  Ho  Ho18  1  0.209934  0.419868  0.060276  1
  Ho  Ho19  1  0.580132  0.790066  0.060276  1
  Cd  Cd20  1  0.885436  0.114564  0.250000  1
  Cd  Cd21  1  0.885436  0.770873  0.250000  1
  Cd  Cd22  1  0.229127  0.114564  0.250000  1
  Cd  Cd23  1  0.114564  0.885436  0.750000  1
  Cd  Cd24  1  0.114564  0.229127  0.750000  1
  Cd  Cd25  1  0.770873  0.885436  0.750000  1
  Ru  Ru26  1  0.333333  0.666667  0.250000  1
  Ru  Ru27  1  0.666667  0.333333  0.750000  1
