# generated using pymatgen
data_DyTmZr2(Al8Pt3)3
_symmetry_space_group_name_H-M   'P 1'
_cell_length_a   7.50944675
_cell_length_b   7.51584098
_cell_length_c   13.04783723
_cell_angle_alpha   84.52545474
_cell_angle_beta   78.95258347
_cell_angle_gamma   59.94081667
_symmetry_Int_Tables_number   1
_chemical_formula_structural   DyTmZr2(Al8Pt3)3
_chemical_formula_sum   'Dy1 Tm1 Zr2 Al24 Pt9'
_cell_volume   625.56412753
_cell_formula_units_Z   1
loop_
 _symmetry_equiv_pos_site_id
 _symmetry_equiv_pos_as_xyz
  1  'x, y, z'
loop_
 _atom_site_type_symbol
 _atom_site_label
 _atom_site_symmetry_multiplicity
 _atom_site_fract_x
 _atom_site_fract_y
 _atom_site_fract_z
 _atom_site_occupancy
  Dy  Dy0  1  0.266484  0.501433  0.191887  1
  Tm  Tm1  1  0.733870  0.498619  0.807375  1
  Zr  Zr2  1  0.393826  0.167413  0.810028  1
  Zr  Zr3  1  0.606244  0.832392  0.190025  1
  Al  Al4  1  0.681560  0.835515  0.943324  1
  Al  Al5  1  0.318692  0.163935  0.056133  1
  Al  Al6  1  0.145999  0.833111  0.563014  1
  Al  Al7  1  0.853914  0.166970  0.437113  1
  Al  Al8  1  0.479928  0.166892  0.561175  1
  Al  Al9  1  0.520064  0.833074  0.439019  1
  Al  Al10  1  0.220232  0.163490  0.327529  1
  Al  Al11  1  0.779554  0.836262  0.672900  1
  Al  Al12  1  0.436907  0.504406  0.672944  1
  Al  Al13  1  0.563350  0.495554  0.327468  1
  Al  Al14  1  0.110653  0.160671  0.671733  1
  Al  Al15  1  0.888797  0.839710  0.328730  1
  Al  Al16  1  0.353864  0.496897  0.941875  1
  Al  Al17  1  0.646918  0.503061  0.057347  1
  Al  Al18  1  0.018043  0.168085  0.950844  1
  Al  Al19  1  0.981614  0.832343  0.048644  1
  Al  Al20  1  0.186503  0.499613  0.440569  1
  Al  Al21  1  0.813355  0.500384  0.559684  1
  Al  Al22  1  0.734123  0.158494  0.183758  1
  Al  Al23  1  0.266551  0.841064  0.816264  1
  Al  Al24  1  0.065686  0.626398  0.815146  1
  Al  Al25  1  0.933783  0.373381  0.184881  1
  Al  Al26  1  0.850397  0.041401  0.815755  1
  Al  Al27  1  0.149369  0.959409  0.184252  1
  Pt  Pt28  1  0.119573  0.491058  0.639311  1
  Pt  Pt29  1  0.879778  0.508920  0.360955  1
  Pt  Pt30  1  0.656985  0.172995  0.999541  1
  Pt  Pt31  1  0.343240  0.827018  0.000283  1
  Pt  Pt32  1  0.537107  0.166674  0.361664  1
  Pt  Pt33  1  0.463277  0.832865  0.638644  1
  Pt  Pt34  1  0.778466  0.176467  0.637803  1
  Pt  Pt35  1  0.221371  0.824117  0.362479  1
  Pt  Pt36  1  0.999926  0.499910  0.999900  1
