# generated using pymatgen
data_TbTmNi7P4
_symmetry_space_group_name_H-M   'P 1'
_cell_length_a   3.68332700
_cell_length_b   9.13026000
_cell_length_c   10.23664800
_cell_angle_alpha   90.00000000
_cell_angle_beta   90.00000000
_cell_angle_gamma   90.00000000
_symmetry_Int_Tables_number   1
_chemical_formula_structural   TbTmNi7P4
_chemical_formula_sum   'Tb2 Tm2 Ni14 P8'
_cell_volume   344.25574085
_cell_formula_units_Z   2
loop_
 _symmetry_equiv_pos_site_id
 _symmetry_equiv_pos_as_xyz
  1  'x, y, z'
loop_
 _atom_site_type_symbol
 _atom_site_label
 _atom_site_symmetry_multiplicity
 _atom_site_fract_x
 _atom_site_fract_y
 _atom_site_fract_z
 _atom_site_occupancy
  Tb  Tb0  1  0.000000  0.436249  0.178571  1
  Tb  Tb1  1  0.500000  0.563751  0.678571  1
  Tm  Tm2  1  0.000000  0.057860  0.395425  1
  Tm  Tm3  1  0.500000  0.942140  0.895425  1
  Ni  Ni4  1  0.000000  0.055057  0.700181  1
  Ni  Ni5  1  0.500000  0.944943  0.200181  1
  Ni  Ni6  1  0.000000  0.726708  0.509988  1
  Ni  Ni7  1  0.500000  0.273292  0.009988  1
  Ni  Ni8  1  0.000000  0.096111  0.093487  1
  Ni  Ni9  1  0.500000  0.903889  0.593487  1
  Ni  Ni10  1  0.000000  0.747777  0.273449  1
  Ni  Ni11  1  0.500000  0.252223  0.773449  1
  Ni  Ni12  1  0.000000  0.304255  0.601634  1
  Ni  Ni13  1  0.500000  0.695745  0.101634  1
  Ni  Ni14  1  0.000000  0.687420  0.911547  1
  Ni  Ni15  1  0.500000  0.312580  0.411547  1
  Ni  Ni16  1  0.000000  0.416636  0.870439  1
  Ni  Ni17  1  0.500000  0.583364  0.370439  1
  P  P18  1  0.000000  0.178613  0.889585  1
  P  P19  1  0.500000  0.821387  0.389585  1
  P  P20  1  0.000000  0.846573  0.082601  1
  P  P21  1  0.500000  0.153427  0.582601  1
  P  P22  1  0.000000  0.809730  0.715615  1
  P  P23  1  0.500000  0.190270  0.215615  1
  P  P24  1  0.000000  0.480254  0.461575  1
  P  P25  1  0.500000  0.519746  0.961575  1
