# generated using pymatgen
data_Er2Lu10Ir3I16
_symmetry_space_group_name_H-M   'P 1'
_cell_length_a   9.48610296
_cell_length_b   12.13446218
_cell_length_c   12.86030182
_cell_angle_alpha   117.24831921
_cell_angle_beta   101.29801682
_cell_angle_gamma   100.77948644
_symmetry_Int_Tables_number   1
_chemical_formula_structural   Er2Lu10Ir3I16
_chemical_formula_sum   'Er2 Lu10 Ir3 I16'
_cell_volume   1223.81705976
_cell_formula_units_Z   1
loop_
 _symmetry_equiv_pos_site_id
 _symmetry_equiv_pos_as_xyz
  1  'x, y, z'
loop_
 _atom_site_type_symbol
 _atom_site_label
 _atom_site_symmetry_multiplicity
 _atom_site_fract_x
 _atom_site_fract_y
 _atom_site_fract_z
 _atom_site_occupancy
  Er  Er0  1  0.085195  0.267483  0.356248  1
  Er  Er1  1  0.914805  0.732517  0.643752  1
  Lu  Lu2  1  0.781773  0.533753  0.327731  1
  Lu  Lu3  1  0.218227  0.466247  0.672269  1
  Lu  Lu4  1  0.274194  0.730536  0.641652  1
  Lu  Lu5  1  0.725806  0.269464  0.358348  1
  Lu  Lu6  1  0.142619  0.535437  0.328349  1
  Lu  Lu7  1  0.857381  0.464563  0.671651  1
  Lu  Lu8  1  0.406084  0.358691  0.273084  1
  Lu  Lu9  1  0.593916  0.641309  0.726916  1
  Lu  Lu10  1  0.459996  0.312103  0.521374  1
  Lu  Lu11  1  0.540004  0.687897  0.478626  1
  Ir  Ir12  1  0.000000  0.500000  0.500000  1
  Ir  Ir13  1  0.340765  0.500723  0.499865  1
  Ir  Ir14  1  0.659236  0.499277  0.500135  1
  I  I15  1  0.395899  0.747008  0.893397  1
  I  I16  1  0.604101  0.252992  0.106603  1
  I  I17  1  0.195069  0.976398  0.789256  1
  I  I18  1  0.804931  0.023602  0.210744  1
  I  I19  1  0.334519  0.087096  0.246932  1
  I  I20  1  0.665481  0.912904  0.753068  1
  I  I21  1  0.559861  0.436342  0.804961  1
  I  I22  1  0.440139  0.563658  0.195039  1
  I  I23  1  0.306415  0.834345  0.461883  1
  I  I24  1  0.693585  0.165655  0.538117  1
  I  I25  1  0.162843  0.166188  0.536718  1
  I  I26  1  0.837157  0.833812  0.463282  1
  I  I27  1  0.925184  0.578176  0.154649  1
  I  I28  1  0.074816  0.421824  0.845351  1
  I  I29  1  0.930821  0.744943  0.894441  1
  I  I30  1  0.069179  0.255057  0.105559  1
