# generated using pymatgen
data_Ca(Si2Ir3)2
_symmetry_space_group_name_H-M   'P 1'
_cell_length_a   7.06346743
_cell_length_b   7.06346795
_cell_length_c   3.82427900
_cell_angle_alpha   90.00000000
_cell_angle_beta   90.00000000
_cell_angle_gamma   120.04119449
_symmetry_Int_Tables_number   1
_chemical_formula_structural   Ca(Si2Ir3)2
_chemical_formula_sum   'Ca1 Si4 Ir6'
_cell_volume   165.17172314
_cell_formula_units_Z   1
loop_
 _symmetry_equiv_pos_site_id
 _symmetry_equiv_pos_as_xyz
  1  'x, y, z'
loop_
 _atom_site_type_symbol
 _atom_site_label
 _atom_site_symmetry_multiplicity
 _atom_site_fract_x
 _atom_site_fract_y
 _atom_site_fract_z
 _atom_site_occupancy
  Ca  Ca0  1  0.999602  0.000398  0.000000  1
  Si  Si1  1  0.666845  0.333155  0.000000  1
  Si  Si2  1  0.197330  0.394118  0.500000  1
  Si  Si3  1  0.605882  0.802670  0.500000  1
  Si  Si4  1  0.196143  0.803857  0.500000  1
  Ir  Ir5  1  0.467201  0.933536  0.000000  1
  Ir  Ir6  1  0.066464  0.532799  0.000000  1
  Ir  Ir7  1  0.467061  0.532939  0.000000  1
  Ir  Ir8  1  0.801397  0.602946  0.500000  1
  Ir  Ir9  1  0.397054  0.198603  0.500000  1
  Ir  Ir10  1  0.801688  0.198312  0.500000  1
