# generated using pymatgen
data_Na2Dy3Si6P6Ir19
_symmetry_space_group_name_H-M   'P 1'
_cell_length_a   12.77013094
_cell_length_b   12.75352977
_cell_length_c   3.94757500
_cell_angle_alpha   90.00000000
_cell_angle_beta   90.00000000
_cell_angle_gamma   119.94225266
_symmetry_Int_Tables_number   1
_chemical_formula_structural   Na2Dy3Si6P6Ir19
_chemical_formula_sum   'Na2 Dy3 Si6 P6 Ir19'
_cell_volume   557.10774282
_cell_formula_units_Z   1
loop_
 _symmetry_equiv_pos_site_id
 _symmetry_equiv_pos_as_xyz
  1  'x, y, z'
loop_
 _atom_site_type_symbol
 _atom_site_label
 _atom_site_symmetry_multiplicity
 _atom_site_fract_x
 _atom_site_fract_y
 _atom_site_fract_z
 _atom_site_occupancy
  Na  Na0  1  0.001968  0.817827  0.000000  1
  Na  Na1  1  0.182959  0.183424  0.000000  1
  Dy  Dy2  1  0.333787  0.667386  0.500000  1
  Dy  Dy3  1  0.666398  0.332339  0.500000  1
  Dy  Dy4  1  0.819800  0.999403  0.000000  1
  Si  Si5  1  0.001499  0.637859  0.500000  1
  Si  Si6  1  0.362408  0.363545  0.500000  1
  Si  Si7  1  0.635070  0.998816  0.500000  1
  Si  Si8  1  0.520068  0.682304  0.000000  1
  Si  Si9  1  0.315267  0.837433  0.000000  1
  Si  Si10  1  0.163582  0.479167  0.000000  1
  P  P11  1  0.481209  0.176754  0.000000  1
  P  P12  1  0.695832  0.517893  0.000000  1
  P  P13  1  0.822650  0.305333  0.000000  1
  P  P14  1  0.001457  0.179515  0.500000  1
  P  P15  1  0.824026  0.819194  0.500000  1
  P  P16  1  0.178349  0.000902  0.500000  1
  Ir  Ir17  1  0.514391  0.869174  0.000000  1
  Ir  Ir18  1  0.128998  0.643381  0.000000  1
  Ir  Ir19  1  0.354798  0.484089  0.000000  1
  Ir  Ir20  1  0.497364  0.370566  0.000000  1
  Ir  Ir21  1  0.872954  0.504156  0.000000  1
  Ir  Ir22  1  0.631150  0.126982  0.000000  1
  Ir  Ir23  1  0.006181  0.453650  0.500000  1
  Ir  Ir24  1  0.542197  0.556592  0.500000  1
  Ir  Ir25  1  0.445983  0.989739  0.500000  1
  Ir  Ir26  1  0.991802  0.279177  0.000000  1
  Ir  Ir27  1  0.720891  0.714919  0.000000  1
  Ir  Ir28  1  0.285690  0.007612  0.000000  1
  Ir  Ir29  1  0.632656  0.808940  0.500000  1
  Ir  Ir30  1  0.192711  0.821933  0.500000  1
  Ir  Ir31  1  0.177558  0.371598  0.500000  1
  Ir  Ir32  1  0.385502  0.185364  0.500000  1
  Ir  Ir33  1  0.798989  0.614323  0.500000  1
  Ir  Ir34  1  0.817093  0.198760  0.500000  1
  Ir  Ir35  1  0.996760  0.999954  0.500000  1
