# generated using pymatgen
data_TbHo11Th4Mg3CdRh4
_symmetry_space_group_name_H-M   'P 1'
_cell_length_a   9.76465999
_cell_length_b   9.76466030
_cell_length_c   9.78051600
_cell_angle_alpha   59.94627789
_cell_angle_beta   59.94627684
_cell_angle_gamma   59.87641705
_symmetry_Int_Tables_number   1
_chemical_formula_structural   TbHo11Th4Mg3CdRh4
_chemical_formula_sum   'Tb1 Ho11 Th4 Mg3 Cd1 Rh4'
_cell_volume   658.26580876
_cell_formula_units_Z   1
loop_
 _symmetry_equiv_pos_site_id
 _symmetry_equiv_pos_as_xyz
  1  'x, y, z'
loop_
 _atom_site_type_symbol
 _atom_site_label
 _atom_site_symmetry_multiplicity
 _atom_site_fract_x
 _atom_site_fract_y
 _atom_site_fract_z
 _atom_site_occupancy
  Tb  Tb0  1  0.934223  0.934223  0.565787  1
  Ho  Ho1  1  0.813437  0.186954  0.186308  1
  Ho  Ho2  1  0.187295  0.812899  0.812915  1
  Ho  Ho3  1  0.186954  0.813437  0.186308  1
  Ho  Ho4  1  0.812899  0.187295  0.812915  1
  Ho  Ho5  1  0.187321  0.187321  0.812782  1
  Ho  Ho6  1  0.813411  0.813411  0.186370  1
  Ho  Ho7  1  0.933639  0.565523  0.565835  1
  Ho  Ho8  1  0.565816  0.934582  0.933422  1
  Ho  Ho9  1  0.565523  0.933639  0.565835  1
  Ho  Ho10  1  0.934582  0.565816  0.933422  1
  Ho  Ho11  1  0.566349  0.566349  0.932419  1
  Th  Th12  1  0.348687  0.348687  0.347863  1
  Th  Th13  1  0.349084  0.349084  0.953916  1
  Th  Th14  1  0.350365  0.951939  0.349171  1
  Th  Th15  1  0.951939  0.350365  0.349171  1
  Mg  Mg16  1  0.579976  0.579976  0.259407  1
  Mg  Mg17  1  0.579309  0.259581  0.581175  1
  Mg  Mg18  1  0.259581  0.579309  0.581175  1
  Cd  Cd19  1  0.580865  0.580865  0.582648  1
  Rh  Rh20  1  0.143824  0.143824  0.144430  1
  Rh  Rh21  1  0.143935  0.143935  0.567627  1
  Rh  Rh22  1  0.143175  0.567811  0.144551  1
  Rh  Rh23  1  0.567811  0.143175  0.144551  1
