# generated using pymatgen
data_Dy4Lu4B24MoOs3
_symmetry_space_group_name_H-M   'P 1'
_cell_length_a   3.62354400
_cell_length_b   9.10817059
_cell_length_c   11.50486600
_cell_angle_alpha   89.90742603
_cell_angle_beta   90.00000000
_cell_angle_gamma   90.00000000
_symmetry_Int_Tables_number   1
_chemical_formula_structural   Dy4Lu4B24MoOs3
_chemical_formula_sum   'Dy4 Lu4 B24 Mo1 Os3'
_cell_volume   379.70445554
_cell_formula_units_Z   1
loop_
 _symmetry_equiv_pos_site_id
 _symmetry_equiv_pos_as_xyz
  1  'x, y, z'
loop_
 _atom_site_type_symbol
 _atom_site_label
 _atom_site_symmetry_multiplicity
 _atom_site_fract_x
 _atom_site_fract_y
 _atom_site_fract_z
 _atom_site_occupancy
  Dy  Dy0  1  0.000000  0.321640  0.413175  1
  Dy  Dy1  1  0.000000  0.678003  0.584941  1
  Dy  Dy2  1  0.000000  0.820026  0.087232  1
  Dy  Dy3  1  0.000000  0.178161  0.914590  1
  Lu  Lu4  1  0.000000  0.945111  0.372830  1
  Lu  Lu5  1  0.000000  0.057281  0.628239  1
  Lu  Lu6  1  0.000000  0.443630  0.126868  1
  Lu  Lu7  1  0.000000  0.556504  0.871539  1
  B  B8  1  0.500000  0.551470  0.435130  1
  B  B9  1  0.500000  0.445776  0.568231  1
  B  B10  1  0.500000  0.053981  0.067236  1
  B  B11  1  0.500000  0.945826  0.932880  1
  B  B12  1  0.500000  0.752149  0.421109  1
  B  B13  1  0.500000  0.250746  0.581481  1
  B  B14  1  0.500000  0.249689  0.080688  1
  B  B15  1  0.500000  0.750079  0.918660  1
  B  B16  1  0.500000  0.794881  0.264848  1
  B  B17  1  0.500000  0.208066  0.734408  1
  B  B18  1  0.500000  0.291331  0.232951  1
  B  B19  1  0.500000  0.708678  0.765791  1
  B  B20  1  0.500000  0.630658  0.182809  1
  B  B21  1  0.500000  0.369081  0.815388  1
  B  B22  1  0.500000  0.130483  0.314282  1
  B  B23  1  0.500000  0.870165  0.685140  1
  B  B24  1  0.500000  0.982872  0.213229  1
  B  B25  1  0.500000  0.017599  0.787392  1
  B  B26  1  0.500000  0.478242  0.285844  1
  B  B27  1  0.500000  0.516961  0.713608  1
  B  B28  1  0.500000  0.602724  0.026957  1
  B  B29  1  0.500000  0.396780  0.970830  1
  B  B30  1  0.500000  0.103752  0.471969  1
  B  B31  1  0.500000  0.898951  0.529395  1
  Mo  Mo32  1  0.000000  0.638082  0.320637  1
  Os  Os33  1  0.000000  0.360553  0.681152  1
  Os  Os34  1  0.000000  0.138178  0.178385  1
  Os  Os35  1  0.000000  0.861888  0.820155  1
