# generated using pymatgen
data_DySc6Sn23Ru6
_symmetry_space_group_name_H-M   'P 1'
_cell_length_a   9.73476300
_cell_length_b   9.73476407
_cell_length_c   9.90152600
_cell_angle_alpha   90.00000000
_cell_angle_beta   90.00000000
_cell_angle_gamma   119.99999978
_symmetry_Int_Tables_number   1
_chemical_formula_structural   DySc6Sn23Ru6
_chemical_formula_sum   'Dy1 Sc6 Sn23 Ru6'
_cell_volume   812.61264856
_cell_formula_units_Z   1
loop_
 _symmetry_equiv_pos_site_id
 _symmetry_equiv_pos_as_xyz
  1  'x, y, z'
loop_
 _atom_site_type_symbol
 _atom_site_label
 _atom_site_symmetry_multiplicity
 _atom_site_fract_x
 _atom_site_fract_y
 _atom_site_fract_z
 _atom_site_occupancy
  Dy  Dy0  1  0.000000  0.000000  0.000000  1
  Sc  Sc1  1  0.489186  0.510814  0.302322  1
  Sc  Sc2  1  0.510814  0.489186  0.697678  1
  Sc  Sc3  1  0.489186  0.978371  0.302322  1
  Sc  Sc4  1  0.510814  0.021629  0.697678  1
  Sc  Sc5  1  0.021629  0.510814  0.302322  1
  Sc  Sc6  1  0.978371  0.489186  0.697678  1
  Sn  Sn7  1  0.350122  0.000000  0.000000  1
  Sn  Sn8  1  0.649878  0.000000  0.000000  1
  Sn  Sn9  1  0.000000  0.350122  0.000000  1
  Sn  Sn10  1  0.000000  0.649878  0.000000  1
  Sn  Sn11  1  0.649878  0.649878  0.000000  1
  Sn  Sn12  1  0.350122  0.350122  0.000000  1
  Sn  Sn13  1  0.333333  0.666667  0.826386  1
  Sn  Sn14  1  0.666667  0.333333  0.173614  1
  Sn  Sn15  1  0.000000  0.000000  0.500000  1
  Sn  Sn16  1  0.777063  0.222937  0.465686  1
  Sn  Sn17  1  0.222937  0.777063  0.534314  1
  Sn  Sn18  1  0.777063  0.554127  0.465686  1
  Sn  Sn19  1  0.222937  0.445873  0.534314  1
  Sn  Sn20  1  0.445873  0.222937  0.465686  1
  Sn  Sn21  1  0.554127  0.777063  0.534314  1
  Sn  Sn22  1  0.333333  0.666667  0.145229  1
  Sn  Sn23  1  0.666667  0.333333  0.854771  1
  Sn  Sn24  1  0.122749  0.877251  0.277280  1
  Sn  Sn25  1  0.877251  0.122749  0.722720  1
  Sn  Sn26  1  0.122749  0.245500  0.277280  1
  Sn  Sn27  1  0.877251  0.754500  0.722720  1
  Sn  Sn28  1  0.754500  0.877251  0.277280  1
  Sn  Sn29  1  0.245500  0.122749  0.722720  1
  Ru  Ru30  1  0.828180  0.171820  0.205000  1
  Ru  Ru31  1  0.171820  0.828180  0.795000  1
  Ru  Ru32  1  0.828180  0.656358  0.205000  1
  Ru  Ru33  1  0.171820  0.343642  0.795000  1
  Ru  Ru34  1  0.343642  0.171820  0.205000  1
  Ru  Ru35  1  0.656358  0.828180  0.795000  1
