# generated using pymatgen
data_KHoTa6Cl18
_symmetry_space_group_name_H-M   'P 1'
_cell_length_a   10.16952665
_cell_length_b   10.16952676
_cell_length_c   10.16952713
_cell_angle_alpha   55.62594880
_cell_angle_beta   55.62594748
_cell_angle_gamma   55.62595086
_symmetry_Int_Tables_number   1
_chemical_formula_structural   KHoTa6Cl18
_chemical_formula_sum   'K1 Ho1 Ta6 Cl18'
_cell_volume   668.19657784
_cell_formula_units_Z   1
loop_
 _symmetry_equiv_pos_site_id
 _symmetry_equiv_pos_as_xyz
  1  'x, y, z'
loop_
 _atom_site_type_symbol
 _atom_site_label
 _atom_site_symmetry_multiplicity
 _atom_site_fract_x
 _atom_site_fract_y
 _atom_site_fract_z
 _atom_site_occupancy
  K  K0  1  0.220871  0.220871  0.220871  1
  Ho  Ho1  1  0.498933  0.498933  0.498933  1
  Ta  Ta2  1  0.804067  0.147427  0.911431  1
  Ta  Ta3  1  0.911431  0.804067  0.147427  1
  Ta  Ta4  1  0.147427  0.911431  0.804067  1
  Ta  Ta5  1  0.196998  0.852955  0.087549  1
  Ta  Ta6  1  0.087549  0.196998  0.852955  1
  Ta  Ta7  1  0.852955  0.087549  0.196998  1
  Cl  Cl8  1  0.866546  0.411899  0.725035  1
  Cl  Cl9  1  0.725035  0.866546  0.411899  1
  Cl  Cl10  1  0.411899  0.725035  0.866546  1
  Cl  Cl11  1  0.133154  0.587304  0.276339  1
  Cl  Cl12  1  0.276339  0.133154  0.587304  1
  Cl  Cl13  1  0.587304  0.276339  0.133154  1
  Cl  Cl14  1  0.539742  0.339418  0.799287  1
  Cl  Cl15  1  0.799287  0.539742  0.339418  1
  Cl  Cl16  1  0.339418  0.799287  0.539742  1
  Cl  Cl17  1  0.455447  0.661906  0.204438  1
  Cl  Cl18  1  0.204438  0.455447  0.661906  1
  Cl  Cl19  1  0.661906  0.204438  0.455447  1
  Cl  Cl20  1  0.660364  0.940907  0.070419  1
  Cl  Cl21  1  0.070419  0.660364  0.940907  1
  Cl  Cl22  1  0.940907  0.070419  0.660364  1
  Cl  Cl23  1  0.340296  0.059229  0.929177  1
  Cl  Cl24  1  0.929177  0.340296  0.059229  1
  Cl  Cl25  1  0.059229  0.929177  0.340296  1
