# generated using pymatgen
data_Th2Tc3Ge4
_symmetry_space_group_name_H-M   'P 1'
_cell_length_a   8.43550300
_cell_length_b   5.85251838
_cell_length_c   7.08237616
_cell_angle_alpha   76.32413470
_cell_angle_beta   90.00000000
_cell_angle_gamma   90.00000000
_symmetry_Int_Tables_number   1
_chemical_formula_structural   Th2Tc3Ge4
_chemical_formula_sum   'Th4 Tc6 Ge8'
_cell_volume   339.73639711
_cell_formula_units_Z   2
loop_
 _symmetry_equiv_pos_site_id
 _symmetry_equiv_pos_as_xyz
  1  'x, y, z'
loop_
 _atom_site_type_symbol
 _atom_site_label
 _atom_site_symmetry_multiplicity
 _atom_site_fract_x
 _atom_site_fract_y
 _atom_site_fract_z
 _atom_site_occupancy
  Th  Th0  1  0.556641  0.074657  0.248696  1
  Th  Th1  1  0.056641  0.425343  0.751304  1
  Th  Th2  1  0.443359  0.925343  0.751304  1
  Th  Th3  1  0.943359  0.574657  0.248696  1
  Tc  Tc4  1  0.207754  0.117381  0.109060  1
  Tc  Tc5  1  0.707754  0.382619  0.890940  1
  Tc  Tc6  1  0.792246  0.882619  0.890940  1
  Tc  Tc7  1  0.292246  0.617381  0.109060  1
  Tc  Tc8  1  0.000000  0.000000  0.500000  1
  Tc  Tc9  1  0.500000  0.500000  0.500000  1
  Ge  Ge10  1  0.905410  0.116583  0.125501  1
  Ge  Ge11  1  0.405410  0.383417  0.874499  1
  Ge  Ge12  1  0.094590  0.883417  0.874499  1
  Ge  Ge13  1  0.594590  0.616583  0.125501  1
  Ge  Ge14  1  0.749800  0.222635  0.586563  1
  Ge  Ge15  1  0.249800  0.277365  0.413437  1
  Ge  Ge16  1  0.250200  0.777365  0.413437  1
  Ge  Ge17  1  0.750200  0.722635  0.586563  1
