# generated using pymatgen
data_Tb2LuTa3(B2Ru5)2
_symmetry_space_group_name_H-M   'P 1'
_cell_length_a   9.59192278
_cell_length_b   9.59192298
_cell_length_c   3.11726400
_cell_angle_alpha   90.00000000
_cell_angle_beta   90.00000000
_cell_angle_gamma   90.51403225
_symmetry_Int_Tables_number   1
_chemical_formula_structural   Tb2LuTa3(B2Ru5)2
_chemical_formula_sum   'Tb2 Lu1 Ta3 B4 Ru10'
_cell_volume   286.79228416
_cell_formula_units_Z   1
loop_
 _symmetry_equiv_pos_site_id
 _symmetry_equiv_pos_as_xyz
  1  'x, y, z'
loop_
 _atom_site_type_symbol
 _atom_site_label
 _atom_site_symmetry_multiplicity
 _atom_site_fract_x
 _atom_site_fract_y
 _atom_site_fract_z
 _atom_site_occupancy
  Tb  Tb0  1  0.823988  0.675237  0.000000  1
  Tb  Tb1  1  0.175237  0.323988  0.000000  1
  Lu  Lu2  1  0.325690  0.825690  0.000000  1
  Ta  Ta3  1  0.675161  0.175161  0.000000  1
  Ta  Ta4  1  0.497867  0.503330  0.000000  1
  Ta  Ta5  1  0.003330  0.997867  0.000000  1
  B  B6  1  0.622165  0.881574  0.000000  1
  B  B7  1  0.381574  0.122165  0.000000  1
  B  B8  1  0.120386  0.620386  0.000000  1
  B  B9  1  0.875674  0.375674  0.000000  1
  Ru  Ru10  1  0.568953  0.722675  0.500000  1
  Ru  Ru11  1  0.441178  0.279982  0.500000  1
  Ru  Ru12  1  0.071888  0.781529  0.500000  1
  Ru  Ru13  1  0.915247  0.212789  0.500000  1
  Ru  Ru14  1  0.281529  0.571888  0.500000  1
  Ru  Ru15  1  0.712789  0.415247  0.500000  1
  Ru  Ru16  1  0.222675  0.068953  0.500000  1
  Ru  Ru17  1  0.779982  0.941178  0.500000  1
  Ru  Ru18  1  0.508466  0.008466  0.500000  1
  Ru  Ru19  1  0.996221  0.496221  0.500000  1
