# generated using pymatgen
data_Tb3Lu9Os4
_symmetry_space_group_name_H-M   'P 1'
_cell_length_a   7.35513084
_cell_length_b   8.84537600
_cell_length_c   6.23500440
_cell_angle_alpha   90.00000000
_cell_angle_beta   89.89932284
_cell_angle_gamma   90.00000000
_symmetry_Int_Tables_number   1
_chemical_formula_structural   Tb3Lu9Os4
_chemical_formula_sum   'Tb3 Lu9 Os4'
_cell_volume   405.64188822
_cell_formula_units_Z   1
loop_
 _symmetry_equiv_pos_site_id
 _symmetry_equiv_pos_as_xyz
  1  'x, y, z'
loop_
 _atom_site_type_symbol
 _atom_site_label
 _atom_site_symmetry_multiplicity
 _atom_site_fract_x
 _atom_site_fract_y
 _atom_site_fract_z
 _atom_site_occupancy
  Tb  Tb0  1  0.539212  0.250000  0.872766  1
  Tb  Tb1  1  0.039225  0.250000  0.627534  1
  Tb  Tb2  1  0.460624  0.750000  0.127692  1
  Lu  Lu3  1  0.675587  0.062163  0.334828  1
  Lu  Lu4  1  0.173852  0.438056  0.165960  1
  Lu  Lu5  1  0.324663  0.563059  0.664830  1
  Lu  Lu6  1  0.825508  0.936551  0.833449  1
  Lu  Lu7  1  0.324663  0.936941  0.664830  1
  Lu  Lu8  1  0.825508  0.563449  0.833449  1
  Lu  Lu9  1  0.675587  0.437837  0.334828  1
  Lu  Lu10  1  0.173852  0.061944  0.165960  1
  Lu  Lu11  1  0.960432  0.750000  0.371891  1
  Os  Os12  1  0.883679  0.250000  0.043018  1
  Os  Os13  1  0.383289  0.250000  0.456920  1
  Os  Os14  1  0.115411  0.750000  0.960527  1
  Os  Os15  1  0.618908  0.750000  0.541519  1
