# generated using pymatgen
data_Nd16Mg3CdNiOs3
_symmetry_space_group_name_H-M   'P 1'
_cell_length_a   9.85572403
_cell_length_b   10.06758866
_cell_length_c   10.06758900
_cell_angle_alpha   59.99999560
_cell_angle_beta   59.28630873
_cell_angle_gamma   59.28630935
_symmetry_Int_Tables_number   1
_chemical_formula_structural   Nd16Mg3CdNiOs3
_chemical_formula_sum   'Nd16 Mg3 Cd1 Ni1 Os3'
_cell_volume   698.64140629
_cell_formula_units_Z   1
loop_
 _symmetry_equiv_pos_site_id
 _symmetry_equiv_pos_as_xyz
  1  'x, y, z'
loop_
 _atom_site_type_symbol
 _atom_site_label
 _atom_site_symmetry_multiplicity
 _atom_site_fract_x
 _atom_site_fract_y
 _atom_site_fract_z
 _atom_site_occupancy
  Nd  Nd0  1  0.597127  0.594436  0.594436  1
  Nd  Nd1  1  0.597127  0.594436  0.214002  1
  Nd  Nd2  1  0.597127  0.214002  0.594436  1
  Nd  Nd3  1  0.222076  0.592642  0.592642  1
  Nd  Nd4  1  0.061722  0.438183  0.438183  1
  Nd  Nd5  1  0.437224  0.061153  0.061153  1
  Nd  Nd6  1  0.437224  0.061153  0.440470  1
  Nd  Nd7  1  0.061722  0.438183  0.061913  1
  Nd  Nd8  1  0.437224  0.440470  0.061153  1
  Nd  Nd9  1  0.061722  0.061913  0.438183  1
  Nd  Nd10  1  0.189464  0.810898  0.810898  1
  Nd  Nd11  1  0.807654  0.187539  0.187539  1
  Nd  Nd12  1  0.807654  0.187539  0.817267  1
  Nd  Nd13  1  0.189464  0.810898  0.188738  1
  Nd  Nd14  1  0.807654  0.817267  0.187539  1
  Nd  Nd15  1  0.189464  0.188738  0.810898  1
  Mg  Mg16  1  0.824618  0.828770  0.828770  1
  Mg  Mg17  1  0.824618  0.828770  0.517844  1
  Mg  Mg18  1  0.824618  0.517844  0.828770  1
  Cd  Cd19  1  0.509554  0.830149  0.830149  1
  Ni  Ni20  1  0.831725  0.389425  0.389425  1
  Os  Os21  1  0.394407  0.387087  0.387087  1
  Os  Os22  1  0.394407  0.387087  0.831418  1
  Os  Os23  1  0.394407  0.831418  0.387087  1
