# generated using pymatgen
data_Sc19GaSi15W
_symmetry_space_group_name_H-M   'P 1'
_cell_length_a   6.87896675
_cell_length_b   7.18367412
_cell_length_c   13.63444823
_cell_angle_alpha   90.02169763
_cell_angle_beta   89.92413842
_cell_angle_gamma   89.81130574
_symmetry_Int_Tables_number   1
_chemical_formula_structural   Sc19GaSi15W
_chemical_formula_sum   'Sc19 Ga1 Si15 W1'
_cell_volume   673.75908184
_cell_formula_units_Z   1
loop_
 _symmetry_equiv_pos_site_id
 _symmetry_equiv_pos_as_xyz
  1  'x, y, z'
loop_
 _atom_site_type_symbol
 _atom_site_label
 _atom_site_symmetry_multiplicity
 _atom_site_fract_x
 _atom_site_fract_y
 _atom_site_fract_z
 _atom_site_occupancy
  Sc  Sc0  1  0.838396  0.006372  0.249561  1
  Sc  Sc1  1  0.338732  0.494142  0.249848  1
  Sc  Sc2  1  0.661035  0.510159  0.750417  1
  Sc  Sc3  1  0.993152  0.682148  0.600495  1
  Sc  Sc4  1  0.009352  0.322206  0.404784  1
  Sc  Sc5  1  0.510749  0.179536  0.404512  1
  Sc  Sc6  1  0.010773  0.319968  0.093663  1
  Sc  Sc7  1  0.490218  0.820249  0.598606  1
  Sc  Sc8  1  0.993845  0.685224  0.900490  1
  Sc  Sc9  1  0.487220  0.822794  0.902517  1
  Sc  Sc10  1  0.510561  0.179790  0.094334  1
  Sc  Sc11  1  0.334141  0.323366  0.628413  1
  Sc  Sc12  1  0.666800  0.677039  0.373982  1
  Sc  Sc13  1  0.169137  0.824953  0.375865  1
  Sc  Sc14  1  0.668233  0.676988  0.125561  1
  Sc  Sc15  1  0.828075  0.171346  0.628074  1
  Sc  Sc16  1  0.332168  0.320569  0.873115  1
  Sc  Sc17  1  0.828380  0.172121  0.872443  1
  Sc  Sc18  1  0.170044  0.825558  0.122477  1
  Ga  Ga19  1  0.165150  0.029588  0.545802  1
  Si  Si20  1  0.033440  0.387113  0.750386  1
  Si  Si21  1  0.968602  0.605155  0.249558  1
  Si  Si22  1  0.465955  0.896134  0.249793  1
  Si  Si23  1  0.521845  0.090908  0.749946  1
  Si  Si24  1  0.283403  0.648728  0.750119  1
  Si  Si25  1  0.714713  0.364397  0.249810  1
  Si  Si26  1  0.212188  0.136424  0.249450  1
  Si  Si27  1  0.797357  0.864703  0.750285  1
  Si  Si28  1  0.835298  0.967719  0.462188  1
  Si  Si29  1  0.339289  0.532347  0.463144  1
  Si  Si30  1  0.837081  0.968131  0.036855  1
  Si  Si31  1  0.664517  0.467477  0.538195  1
  Si  Si32  1  0.159847  0.027972  0.952590  1
  Si  Si33  1  0.664469  0.468037  0.961601  1
  Si  Si34  1  0.340755  0.531993  0.036868  1
  W  W35  1  0.155079  0.998644  0.754252  1
