# generated using pymatgen
data_DyY2Si3Ru2
_symmetry_space_group_name_H-M   'P 1'
_cell_length_a   5.76438718
_cell_length_b   5.76438717
_cell_length_c   13.79561031
_cell_angle_alpha   89.97752151
_cell_angle_beta   90.02247929
_cell_angle_gamma   137.47392557
_symmetry_Int_Tables_number   1
_chemical_formula_structural   DyY2Si3Ru2
_chemical_formula_sum   'Dy2 Y4 Si6 Ru4'
_cell_volume   309.84614743
_cell_formula_units_Z   2
loop_
 _symmetry_equiv_pos_site_id
 _symmetry_equiv_pos_as_xyz
  1  'x, y, z'
loop_
 _atom_site_type_symbol
 _atom_site_label
 _atom_site_symmetry_multiplicity
 _atom_site_fract_x
 _atom_site_fract_y
 _atom_site_fract_z
 _atom_site_occupancy
  Dy  Dy0  1  0.924065  0.075935  0.114447  1
  Dy  Dy1  1  0.075935  0.924065  0.885553  1
  Y  Y2  1  0.924260  0.075740  0.385134  1
  Y  Y3  1  0.075740  0.924260  0.614866  1
  Y  Y4  1  0.642844  0.357156  0.249883  1
  Y  Y5  1  0.357156  0.642844  0.750117  1
  Si  Si6  1  0.618550  0.381450  0.461547  1
  Si  Si7  1  0.381450  0.618550  0.538453  1
  Si  Si8  1  0.618307  0.381693  0.038431  1
  Si  Si9  1  0.381693  0.618307  0.961569  1
  Si  Si10  1  0.329810  0.670190  0.249878  1
  Si  Si11  1  0.670190  0.329810  0.750122  1
  Ru  Ru12  1  0.786300  0.213700  0.919532  1
  Ru  Ru13  1  0.213700  0.786300  0.080468  1
  Ru  Ru14  1  0.786371  0.213629  0.580651  1
  Ru  Ru15  1  0.213629  0.786371  0.419349  1
