# generated using pymatgen
data_Dy2YU5(ReB6)4
_symmetry_space_group_name_H-M   'P 1'
_cell_length_a   3.63765400
_cell_length_b   9.30149379
_cell_length_c   11.41036500
_cell_angle_alpha   89.97505703
_cell_angle_beta   90.00000000
_cell_angle_gamma   90.00000000
_symmetry_Int_Tables_number   1
_chemical_formula_structural   Dy2YU5(ReB6)4
_chemical_formula_sum   'Dy2 Y1 U5 Re4 B24'
_cell_volume   386.07669306
_cell_formula_units_Z   1
loop_
 _symmetry_equiv_pos_site_id
 _symmetry_equiv_pos_as_xyz
  1  'x, y, z'
loop_
 _atom_site_type_symbol
 _atom_site_label
 _atom_site_symmetry_multiplicity
 _atom_site_fract_x
 _atom_site_fract_y
 _atom_site_fract_z
 _atom_site_occupancy
  Dy  Dy0  1  0.000000  0.663304  0.591883  1
  Dy  Dy1  1  0.000000  0.835630  0.093009  1
  Y  Y2  1  0.000000  0.336916  0.407705  1
  U  U3  1  0.000000  0.163358  0.907222  1
  U  U4  1  0.000000  0.956198  0.396869  1
  U  U5  1  0.000000  0.042687  0.603407  1
  U  U6  1  0.000000  0.457716  0.103869  1
  U  U7  1  0.000000  0.543625  0.896956  1
  Re  Re8  1  0.000000  0.645795  0.318838  1
  Re  Re9  1  0.000000  0.352286  0.683836  1
  Re  Re10  1  0.000000  0.146082  0.177999  1
  Re  Re11  1  0.000000  0.857271  0.819528  1
  B  B12  1  0.500000  0.551729  0.431306  1
  B  B13  1  0.500000  0.447699  0.569761  1
  B  B14  1  0.500000  0.052524  0.067563  1
  B  B15  1  0.500000  0.950203  0.930480  1
  B  B16  1  0.500000  0.743010  0.423231  1
  B  B17  1  0.500000  0.256899  0.576925  1
  B  B18  1  0.500000  0.242914  0.075832  1
  B  B19  1  0.500000  0.756526  0.922725  1
  B  B20  1  0.500000  0.802301  0.275122  1
  B  B21  1  0.500000  0.196453  0.726410  1
  B  B22  1  0.500000  0.302371  0.224810  1
  B  B23  1  0.500000  0.697971  0.774832  1
  B  B24  1  0.500000  0.643934  0.188675  1
  B  B25  1  0.500000  0.354774  0.812169  1
  B  B26  1  0.500000  0.144184  0.310934  1
  B  B27  1  0.500000  0.855230  0.688364  1
  B  B28  1  0.500000  0.989293  0.219458  1
  B  B29  1  0.500000  0.013051  0.781078  1
  B  B30  1  0.500000  0.488823  0.280741  1
  B  B31  1  0.500000  0.511177  0.719580  1
  B  B32  1  0.500000  0.640780  0.038737  1
  B  B33  1  0.500000  0.357278  0.960444  1
  B  B34  1  0.500000  0.140068  0.460854  1
  B  B35  1  0.500000  0.859943  0.538852  1
