# generated using pymatgen
data_Y7Ho(Tm3Sn4)4
_symmetry_space_group_name_H-M   'P 1'
_cell_length_a   7.98598809
_cell_length_b   8.11550803
_cell_length_c   15.34048711
_cell_angle_alpha   90.00163753
_cell_angle_beta   90.01353337
_cell_angle_gamma   89.98959512
_symmetry_Int_Tables_number   1
_chemical_formula_structural   Y7Ho(Tm3Sn4)4
_chemical_formula_sum   'Y7 Ho1 Tm12 Sn16'
_cell_volume   994.22230173
_cell_formula_units_Z   1
loop_
 _symmetry_equiv_pos_site_id
 _symmetry_equiv_pos_as_xyz
  1  'x, y, z'
loop_
 _atom_site_type_symbol
 _atom_site_label
 _atom_site_symmetry_multiplicity
 _atom_site_fract_x
 _atom_site_fract_y
 _atom_site_fract_z
 _atom_site_occupancy
  Y  Y0  1  0.022291  0.178965  0.597346  1
  Y  Y1  1  0.477701  0.678948  0.402662  1
  Y  Y2  1  0.977695  0.821060  0.097336  1
  Y  Y3  1  0.477680  0.678913  0.097320  1
  Y  Y4  1  0.977702  0.821050  0.402665  1
  Y  Y5  1  0.522300  0.321061  0.597321  1
  Y  Y6  1  0.022315  0.178972  0.902663  1
  Ho  Ho7  1  0.522286  0.321018  0.902593  1
  Tm  Tm8  1  0.367355  0.836704  0.877275  1
  Tm  Tm9  1  0.867328  0.663321  0.622737  1
  Tm  Tm10  1  0.632658  0.163339  0.377274  1
  Tm  Tm11  1  0.132616  0.336646  0.122727  1
  Tm  Tm12  1  0.632589  0.163408  0.122646  1
  Tm  Tm13  1  0.132657  0.336662  0.377264  1
  Tm  Tm14  1  0.367358  0.836668  0.622737  1
  Tm  Tm15  1  0.867307  0.663292  0.877274  1
  Tm  Tm16  1  0.198295  0.504144  0.750045  1
  Tm  Tm17  1  0.698129  0.995894  0.750048  1
  Tm  Tm18  1  0.801825  0.495797  0.249999  1
  Tm  Tm19  1  0.301824  0.004192  0.249994  1
  Sn  Sn20  1  0.294073  0.036846  0.041806  1
  Sn  Sn21  1  0.794044  0.463222  0.458169  1
  Sn  Sn22  1  0.705956  0.963226  0.541841  1
  Sn  Sn23  1  0.206295  0.536561  0.958113  1
  Sn  Sn24  1  0.705850  0.963399  0.958123  1
  Sn  Sn25  1  0.205958  0.536778  0.541841  1
  Sn  Sn26  1  0.294049  0.036779  0.458166  1
  Sn  Sn27  1  0.793843  0.463117  0.041725  1
  Sn  Sn28  1  0.564414  0.620728  0.750060  1
  Sn  Sn29  1  0.064409  0.879101  0.750011  1
  Sn  Sn30  1  0.435564  0.379141  0.249994  1
  Sn  Sn31  1  0.935567  0.120882  0.250000  1
  Sn  Sn32  1  0.331348  0.147787  0.750158  1
  Sn  Sn33  1  0.830994  0.352379  0.750067  1
  Sn  Sn34  1  0.668862  0.852395  0.249997  1
  Sn  Sn35  1  0.168862  0.647604  0.250003  1
