# generated using pymatgen
data_Dy2Ho14Cd4CoRu3
_symmetry_space_group_name_H-M   'P 1'
_cell_length_a   9.60384352
_cell_length_b   9.59688248
_cell_length_c   9.51942685
_cell_angle_alpha   59.68693183
_cell_angle_beta   59.70883734
_cell_angle_gamma   59.97139586
_symmetry_Int_Tables_number   1
_chemical_formula_structural   Dy2Ho14Cd4CoRu3
_chemical_formula_sum   'Dy2 Ho14 Cd4 Co1 Ru3'
_cell_volume   617.41838481
_cell_formula_units_Z   1
loop_
 _symmetry_equiv_pos_site_id
 _symmetry_equiv_pos_as_xyz
  1  'x, y, z'
loop_
 _atom_site_type_symbol
 _atom_site_label
 _atom_site_symmetry_multiplicity
 _atom_site_fract_x
 _atom_site_fract_y
 _atom_site_fract_z
 _atom_site_occupancy
  Dy  Dy0  1  0.937648  0.937730  0.560590  1
  Dy  Dy1  1  0.811462  0.189891  0.187097  1
  Ho  Ho2  1  0.937570  0.564238  0.560425  1
  Ho  Ho3  1  0.939086  0.561193  0.938752  1
  Ho  Ho4  1  0.811536  0.811099  0.186892  1
  Ho  Ho5  1  0.343861  0.344138  0.351234  1
  Ho  Ho6  1  0.560779  0.939309  0.939022  1
  Ho  Ho7  1  0.563847  0.937713  0.560567  1
  Ho  Ho8  1  0.188750  0.815290  0.807445  1
  Ho  Ho9  1  0.188708  0.188370  0.807250  1
  Ho  Ho10  1  0.346307  0.346000  0.961455  1
  Ho  Ho11  1  0.344027  0.961226  0.351066  1
  Ho  Ho12  1  0.815617  0.188462  0.807390  1
  Ho  Ho13  1  0.561009  0.561306  0.938599  1
  Ho  Ho14  1  0.190581  0.811049  0.186729  1
  Ho  Ho15  1  0.960803  0.344281  0.351157  1
  Cd  Cd16  1  0.580860  0.580706  0.257551  1
  Cd  Cd17  1  0.259051  0.580390  0.579624  1
  Cd  Cd18  1  0.580914  0.580579  0.579611  1
  Cd  Cd19  1  0.580628  0.258708  0.579845  1
  Co  Co20  1  0.139800  0.140496  0.579951  1
  Ru  Ru21  1  0.580791  0.138638  0.142465  1
  Ru  Ru22  1  0.138155  0.138717  0.142283  1
  Ru  Ru23  1  0.138212  0.580475  0.143000  1
