# generated using pymatgen
data_Y5Sc(P2Ir3)6
_symmetry_space_group_name_H-M   'P 1'
_cell_length_a   12.70671703
_cell_length_b   12.89688627
_cell_length_c   3.97389700
_cell_angle_alpha   90.00000000
_cell_angle_beta   90.00000000
_cell_angle_gamma   120.49632090
_symmetry_Int_Tables_number   1
_chemical_formula_structural   Y5Sc(P2Ir3)6
_chemical_formula_sum   'Y5 Sc1 P12 Ir18'
_cell_volume   561.14054466
_cell_formula_units_Z   1
loop_
 _symmetry_equiv_pos_site_id
 _symmetry_equiv_pos_as_xyz
  1  'x, y, z'
loop_
 _atom_site_type_symbol
 _atom_site_label
 _atom_site_symmetry_multiplicity
 _atom_site_fract_x
 _atom_site_fract_y
 _atom_site_fract_z
 _atom_site_occupancy
  Y  Y0  1  0.329805  0.664449  0.500000  1
  Y  Y1  1  0.670195  0.334643  0.500000  1
  Y  Y2  1  0.000000  0.814590  0.000000  1
  Y  Y3  1  0.184988  0.187547  0.000000  1
  Y  Y4  1  0.815012  0.002558  0.000000  1
  Sc  Sc5  1  0.000000  0.444556  0.500000  1
  P  P6  1  0.000000  0.645379  0.500000  1
  P  P7  1  0.357694  0.353371  0.500000  1
  P  P8  1  0.642306  0.995679  0.500000  1
  P  P9  1  0.515110  0.688943  0.000000  1
  P  P10  1  0.311569  0.830388  0.000000  1
  P  P11  1  0.167908  0.483841  0.000000  1
  P  P12  1  0.484890  0.173832  0.000000  1
  P  P13  1  0.688431  0.518819  0.000000  1
  P  P14  1  0.832092  0.315934  0.000000  1
  P  P15  1  0.000000  0.175899  0.500000  1
  P  P16  1  0.820063  0.821847  0.500000  1
  P  P17  1  0.179937  0.001784  0.500000  1
  Ir  Ir18  1  0.507710  0.868880  0.000000  1
  Ir  Ir19  1  0.131785  0.643402  0.000000  1
  Ir  Ir20  1  0.359975  0.495253  0.000000  1
  Ir  Ir21  1  0.492290  0.361169  0.000000  1
  Ir  Ir22  1  0.868215  0.511615  0.000000  1
  Ir  Ir23  1  0.640025  0.135277  0.000000  1
  Ir  Ir24  1  0.536096  0.534665  0.500000  1
  Ir  Ir25  1  0.463904  0.998569  0.500000  1
  Ir  Ir26  1  0.000000  0.279859  0.000000  1
  Ir  Ir27  1  0.714462  0.716408  0.000000  1
  Ir  Ir28  1  0.285538  0.001946  0.000000  1
  Ir  Ir29  1  0.620112  0.801137  0.500000  1
  Ir  Ir30  1  0.198631  0.826296  0.500000  1
  Ir  Ir31  1  0.183999  0.374201  0.500000  1
  Ir  Ir32  1  0.379888  0.181025  0.500000  1
  Ir  Ir33  1  0.801369  0.627666  0.500000  1
  Ir  Ir34  1  0.816001  0.190202  0.500000  1
  Ir  Ir35  1  0.000000  0.998368  0.500000  1
