# generated using pymatgen
data_PrThMnCo16
_symmetry_space_group_name_H-M   'P 1'
_cell_length_a   6.34408688
_cell_length_b   6.34408686
_cell_length_c   6.34408693
_cell_angle_alpha   83.18184827
_cell_angle_beta   83.18184812
_cell_angle_gamma   83.18184262
_symmetry_Int_Tables_number   1
_chemical_formula_structural   PrThMnCo16
_chemical_formula_sum   'Pr1 Th1 Mn1 Co16'
_cell_volume   250.31308855
_cell_formula_units_Z   1
loop_
 _symmetry_equiv_pos_site_id
 _symmetry_equiv_pos_as_xyz
  1  'x, y, z'
loop_
 _atom_site_type_symbol
 _atom_site_label
 _atom_site_symmetry_multiplicity
 _atom_site_fract_x
 _atom_site_fract_y
 _atom_site_fract_z
 _atom_site_occupancy
  Pr  Pr0  1  0.345549  0.345549  0.345549  1
  Th  Th1  1  0.655855  0.655855  0.655855  1
  Mn  Mn2  1  0.095908  0.095908  0.095908  1
  Co  Co3  1  0.715749  0.285316  0.998180  1
  Co  Co4  1  0.998180  0.715749  0.285316  1
  Co  Co5  1  0.285316  0.998180  0.715749  1
  Co  Co6  1  0.998180  0.285316  0.715749  1
  Co  Co7  1  0.715749  0.998180  0.285316  1
  Co  Co8  1  0.285316  0.715749  0.998180  1
  Co  Co9  1  0.346455  0.346455  0.847942  1
  Co  Co10  1  0.847942  0.346455  0.346455  1
  Co  Co11  1  0.346455  0.847942  0.346455  1
  Co  Co12  1  0.657345  0.657345  0.148081  1
  Co  Co13  1  0.148081  0.657345  0.657345  1
  Co  Co14  1  0.657345  0.148081  0.657345  1
  Co  Co15  1  0.998887  0.998887  0.504649  1
  Co  Co16  1  0.504649  0.998887  0.998887  1
  Co  Co17  1  0.998887  0.504649  0.998887  1
  Co  Co18  1  0.898153  0.898153  0.898153  1
