# generated using pymatgen
data_Ba2CaGa2FeF14
_symmetry_space_group_name_H-M   'P 1'
_cell_length_a   7.47230373
_cell_length_b   7.47230452
_cell_length_c   15.07637024
_cell_angle_alpha   88.67297831
_cell_angle_beta   88.67297897
_cell_angle_gamma   42.54428823
_symmetry_Int_Tables_number   1
_chemical_formula_structural   Ba2CaGa2FeF14
_chemical_formula_sum   'Ba4 Ca2 Ga4 Fe2 F28'
_cell_volume   569.01161180
_cell_formula_units_Z   2
loop_
 _symmetry_equiv_pos_site_id
 _symmetry_equiv_pos_as_xyz
  1  'x, y, z'
loop_
 _atom_site_type_symbol
 _atom_site_label
 _atom_site_symmetry_multiplicity
 _atom_site_fract_x
 _atom_site_fract_y
 _atom_site_fract_z
 _atom_site_occupancy
  Ba  Ba0  1  0.644478  0.737185  0.878809  1
  Ba  Ba1  1  0.355522  0.262815  0.121191  1
  Ba  Ba2  1  0.262815  0.355522  0.621191  1
  Ba  Ba3  1  0.737185  0.644478  0.378809  1
  Ca  Ca4  1  0.943419  0.056581  0.750000  1
  Ca  Ca5  1  0.056581  0.943419  0.250000  1
  Ga  Ga6  1  0.616988  0.622150  0.623986  1
  Ga  Ga7  1  0.383012  0.377850  0.376014  1
  Ga  Ga8  1  0.377850  0.383012  0.876014  1
  Ga  Ga9  1  0.622150  0.616988  0.123986  1
  Fe  Fe10  1  0.000000  0.000000  0.500000  1
  Fe  Fe11  1  0.000000  0.000000  0.000000  1
  F  F12  1  0.346119  0.901533  0.702883  1
  F  F13  1  0.653881  0.098467  0.297117  1
  F  F14  1  0.098467  0.653881  0.797117  1
  F  F15  1  0.901533  0.346119  0.202883  1
  F  F16  1  0.551659  0.127382  0.778673  1
  F  F17  1  0.448341  0.872618  0.221327  1
  F  F18  1  0.872618  0.448341  0.721327  1
  F  F19  1  0.127382  0.551659  0.278673  1
  F  F20  1  0.406926  0.765253  0.518767  1
  F  F21  1  0.593074  0.234747  0.481233  1
  F  F22  1  0.234747  0.593074  0.981233  1
  F  F23  1  0.765253  0.406926  0.018767  1
  F  F24  1  0.582927  0.402214  0.656199  1
  F  F25  1  0.417073  0.597786  0.343801  1
  F  F26  1  0.597786  0.417073  0.843801  1
  F  F27  1  0.402214  0.582927  0.156199  1
  F  F28  1  0.666376  0.077893  0.951889  1
  F  F29  1  0.333624  0.922107  0.048111  1
  F  F30  1  0.922107  0.333624  0.548111  1
  F  F31  1  0.077893  0.666376  0.451889  1
  F  F32  1  0.859534  0.028466  0.119922  1
  F  F33  1  0.140466  0.971534  0.880078  1
  F  F34  1  0.971534  0.140466  0.380078  1
  F  F35  1  0.028466  0.859534  0.619922  1
  F  F36  1  0.694577  0.806516  0.591052  1
  F  F37  1  0.305423  0.193484  0.408948  1
  F  F38  1  0.193484  0.305423  0.908948  1
  F  F39  1  0.806516  0.694577  0.091052  1
