# generated using pymatgen
data_Yb2Bi3
_symmetry_space_group_name_H-M   'P 1'
_cell_length_a   6.49432300
_cell_length_b   6.77735200
_cell_length_c   14.97750600
_cell_angle_alpha   90.00000000
_cell_angle_beta   90.00000000
_cell_angle_gamma   90.00000000
_symmetry_Int_Tables_number   1
_chemical_formula_structural   Yb2Bi3
_chemical_formula_sum   'Yb8 Bi12'
_cell_volume   659.22463663
_cell_formula_units_Z   4
loop_
 _symmetry_equiv_pos_site_id
 _symmetry_equiv_pos_as_xyz
  1  'x, y, z'
loop_
 _atom_site_type_symbol
 _atom_site_label
 _atom_site_symmetry_multiplicity
 _atom_site_fract_x
 _atom_site_fract_y
 _atom_site_fract_z
 _atom_site_occupancy
  Yb  Yb0  1  0.938611  0.000000  0.250000  1
  Yb  Yb1  1  0.561389  0.500000  0.250000  1
  Yb  Yb2  1  0.061389  0.000000  0.750000  1
  Yb  Yb3  1  0.438611  0.500000  0.750000  1
  Yb  Yb4  1  0.750000  0.750000  0.999756  1
  Yb  Yb5  1  0.750000  0.250000  0.500244  1
  Yb  Yb6  1  0.250000  0.250000  0.000244  1
  Yb  Yb7  1  0.250000  0.750000  0.499756  1
  Bi  Bi8  1  0.750000  0.750000  0.433705  1
  Bi  Bi9  1  0.750000  0.250000  0.066295  1
  Bi  Bi10  1  0.250000  0.250000  0.566295  1
  Bi  Bi11  1  0.250000  0.750000  0.933705  1
  Bi  Bi12  1  0.420815  0.933740  0.150182  1
  Bi  Bi13  1  0.420815  0.066260  0.349818  1
  Bi  Bi14  1  0.079185  0.433740  0.349818  1
  Bi  Bi15  1  0.079185  0.566260  0.150182  1
  Bi  Bi16  1  0.579185  0.066260  0.849818  1
  Bi  Bi17  1  0.579185  0.933740  0.650182  1
  Bi  Bi18  1  0.920815  0.566260  0.650182  1
  Bi  Bi19  1  0.920815  0.433740  0.849818  1
