# generated using pymatgen
data_Sr2CaReN4
_symmetry_space_group_name_H-M   'P 1'
_cell_length_a   10.60581320
_cell_length_b   10.21285114
_cell_length_c   7.84406278
_cell_angle_alpha   70.55093987
_cell_angle_beta   65.23050443
_cell_angle_gamma   44.21855484
_symmetry_Int_Tables_number   1
_chemical_formula_structural   Sr2CaReN4
_chemical_formula_sum   'Sr8 Ca4 Re4 N16'
_cell_volume   537.30216946
_cell_formula_units_Z   4
loop_
 _symmetry_equiv_pos_site_id
 _symmetry_equiv_pos_as_xyz
  1  'x, y, z'
loop_
 _atom_site_type_symbol
 _atom_site_label
 _atom_site_symmetry_multiplicity
 _atom_site_fract_x
 _atom_site_fract_y
 _atom_site_fract_z
 _atom_site_occupancy
  Sr  Sr0  1  0.566203  0.933797  0.933797  1
  Sr  Sr1  1  0.933797  0.566203  0.566203  1
  Sr  Sr2  1  0.316203  0.683797  0.683797  1
  Sr  Sr3  1  0.112620  0.112620  0.887380  1
  Sr  Sr4  1  0.137380  0.137380  0.362620  1
  Sr  Sr5  1  0.362620  0.362620  0.137380  1
  Sr  Sr6  1  0.683797  0.316203  0.316203  1
  Sr  Sr7  1  0.887380  0.887380  0.112620  1
  Ca  Ca8  1  0.337997  0.337997  0.662003  1
  Ca  Ca9  1  0.912003  0.912003  0.587997  1
  Ca  Ca10  1  0.662003  0.662003  0.337997  1
  Ca  Ca11  1  0.587997  0.587997  0.912003  1
  Re  Re12  1  0.491146  0.008854  0.491146  1
  Re  Re13  1  0.008854  0.491146  0.008854  1
  Re  Re14  1  0.758854  0.241146  0.758854  1
  Re  Re15  1  0.241146  0.758854  0.241146  1
  N  N16  1  0.006280  0.663261  0.826575  1
  N  N17  1  0.704315  0.270388  0.011998  1
  N  N18  1  0.663261  0.006280  0.503884  1
  N  N19  1  0.503884  0.826575  0.663261  1
  N  N20  1  0.243720  0.586739  0.423425  1
  N  N21  1  0.746116  0.423425  0.586739  1
  N  N22  1  0.011998  0.013298  0.704315  1
  N  N23  1  0.545685  0.979612  0.238002  1
  N  N24  1  0.423425  0.746116  0.243720  1
  N  N25  1  0.979612  0.545685  0.236702  1
  N  N26  1  0.270388  0.704315  0.013298  1
  N  N27  1  0.826575  0.503884  0.006280  1
  N  N28  1  0.236702  0.238002  0.979612  1
  N  N29  1  0.586739  0.243720  0.746116  1
  N  N30  1  0.238002  0.236702  0.545685  1
  N  N31  1  0.013298  0.011998  0.270388  1
