# generated using pymatgen
data_HoPaS6
_symmetry_space_group_name_H-M   'P 1'
_cell_length_a   9.55634324
_cell_length_b   9.55634280
_cell_length_c   3.99711200
_cell_angle_alpha   90.00000000
_cell_angle_beta   90.00000000
_cell_angle_gamma   147.26635437
_symmetry_Int_Tables_number   1
_chemical_formula_structural   HoPaS6
_chemical_formula_sum   'Ho1 Pa1 S6'
_cell_volume   197.38482668
_cell_formula_units_Z   1
loop_
 _symmetry_equiv_pos_site_id
 _symmetry_equiv_pos_as_xyz
  1  'x, y, z'
loop_
 _atom_site_type_symbol
 _atom_site_label
 _atom_site_symmetry_multiplicity
 _atom_site_fract_x
 _atom_site_fract_y
 _atom_site_fract_z
 _atom_site_occupancy
  Ho  Ho0  1  0.672758  0.327240  0.749999  1
  Pa  Pa1  1  0.320297  0.679701  0.249999  1
  S  S2  1  0.786243  0.213756  0.249999  1
  S  S3  1  0.394280  0.215877  0.249999  1
  S  S4  1  0.784121  0.605718  0.249999  1
  S  S5  1  0.217523  0.398972  0.749999  1
  S  S6  1  0.601026  0.782475  0.749999  1
  S  S7  1  0.223745  0.776254  0.749999  1
