# generated using pymatgen
data_Ho4Al21Pt10
_symmetry_space_group_name_H-M   'P 1'
_cell_length_a   10.97784383
_cell_length_b   10.97784440
_cell_length_c   16.00140800
_cell_angle_alpha   55.94161851
_cell_angle_beta   55.94161648
_cell_angle_gamma   22.05801501
_symmetry_Int_Tables_number   1
_chemical_formula_structural   Ho4Al21Pt10
_chemical_formula_sum   'Ho4 Al21 Pt10'
_cell_volume   594.74024240
_cell_formula_units_Z   1
loop_
 _symmetry_equiv_pos_site_id
 _symmetry_equiv_pos_as_xyz
  1  'x, y, z'
loop_
 _atom_site_type_symbol
 _atom_site_label
 _atom_site_symmetry_multiplicity
 _atom_site_fract_x
 _atom_site_fract_y
 _atom_site_fract_z
 _atom_site_occupancy
  Ho  Ho0  1  0.877718  0.877718  0.334246  1
  Ho  Ho1  1  0.122282  0.122282  0.665754  1
  Ho  Ho2  1  0.228863  0.228863  0.176610  1
  Ho  Ho3  1  0.771137  0.771137  0.823390  1
  Al  Al4  1  0.459358  0.459358  0.368916  1
  Al  Al5  1  0.540642  0.540642  0.631084  1
  Al  Al6  1  0.800553  0.800553  0.001197  1
  Al  Al7  1  0.199447  0.199447  0.998803  1
  Al  Al8  1  0.701280  0.701280  0.496947  1
  Al  Al9  1  0.298720  0.298720  0.503053  1
  Al  Al10  1  0.884186  0.884186  0.550104  1
  Al  Al11  1  0.115814  0.115814  0.449896  1
  Al  Al12  1  0.614962  0.614962  0.297128  1
  Al  Al13  1  0.385038  0.385038  0.702872  1
  Al  Al14  1  0.751013  0.751013  0.293203  1
  Al  Al15  1  0.248987  0.248987  0.706797  1
  Al  Al16  1  0.602216  0.602216  0.003435  1
  Al  Al17  1  0.397784  0.397784  0.996565  1
  Al  Al18  1  0.992584  0.992584  0.092041  1
  Al  Al19  1  0.007416  0.007416  0.907959  1
  Al  Al20  1  0.935808  0.935808  0.796434  1
  Al  Al21  1  0.064192  0.064192  0.203566  1
  Al  Al22  1  0.500000  0.500000  0.500000  1
  Al  Al23  1  0.371180  0.371180  0.194966  1
  Al  Al24  1  0.628820  0.628820  0.805034  1
  Pt  Pt25  1  0.493602  0.493602  0.186655  1
  Pt  Pt26  1  0.506398  0.506398  0.813345  1
  Pt  Pt27  1  0.867301  0.867301  0.102635  1
  Pt  Pt28  1  0.132699  0.132699  0.897365  1
  Pt  Pt29  1  0.749301  0.749301  0.614929  1
  Pt  Pt30  1  0.250699  0.250699  0.385071  1
  Pt  Pt31  1  0.656408  0.656408  0.111349  1
  Pt  Pt32  1  0.343592  0.343592  0.888651  1
  Pt  Pt33  1  0.973639  0.973639  0.612143  1
  Pt  Pt34  1  0.026361  0.026361  0.387857  1
