# generated using pymatgen
data_DyY11ZnGaCo4
_symmetry_space_group_name_H-M   'P 1'
_cell_length_a   8.28333654
_cell_length_b   8.30388362
_cell_length_c   8.30388362
_cell_angle_alpha   107.07874391
_cell_angle_beta   109.52666612
_cell_angle_gamma   111.95143448
_symmetry_Int_Tables_number   1
_chemical_formula_structural   DyY11ZnGaCo4
_chemical_formula_sum   'Dy1 Y11 Zn1 Ga1 Co4'
_cell_volume   438.31579609
_cell_formula_units_Z   1
loop_
 _symmetry_equiv_pos_site_id
 _symmetry_equiv_pos_as_xyz
  1  'x, y, z'
loop_
 _atom_site_type_symbol
 _atom_site_label
 _atom_site_symmetry_multiplicity
 _atom_site_fract_x
 _atom_site_fract_y
 _atom_site_fract_z
 _atom_site_occupancy
  Dy  Dy0  1  0.601640  0.780625  0.821016  1
  Y  Y1  1  0.305805  0.263125  0.568253  1
  Y  Y2  1  0.694695  0.737178  0.432361  1
  Y  Y3  1  0.305805  0.737550  0.042680  1
  Y  Y4  1  0.694695  0.262336  0.957517  1
  Y  Y5  1  0.188999  0.515852  0.327060  1
  Y  Y6  1  0.188999  0.861938  0.673147  1
  Y  Y7  1  0.811156  0.484377  0.673176  1
  Y  Y8  1  0.811156  0.137980  0.326778  1
  Y  Y9  1  0.399041  0.219472  0.179569  1
  Y  Y10  1  0.039545  0.219497  0.820049  1
  Y  Y11  1  0.960066  0.780206  0.179859  1
  Zn  Zn12  1  0.500139  0.500191  0.999949  1
  Ga  Ga13  1  0.499978  0.000111  0.499867  1
  Co  Co14  1  0.165326  0.500729  0.664597  1
  Co  Co15  1  0.836231  0.500075  0.336156  1
  Co  Co16  1  0.998362  0.113524  0.113126  1
  Co  Co17  1  0.998362  0.885237  0.884839  1
