# generated using pymatgen
data_TbEr7(AgPt)2
_symmetry_space_group_name_H-M   'P 1'
_cell_length_a   9.54609326
_cell_length_b   9.54609505
_cell_length_c   9.54090800
_cell_angle_alpha   60.01796592
_cell_angle_beta   60.01795975
_cell_angle_gamma   59.96405702
_symmetry_Int_Tables_number   1
_chemical_formula_structural   TbEr7(AgPt)2
_chemical_formula_sum   'Tb2 Er14 Ag4 Pt4'
_cell_volume   614.78862630
_cell_formula_units_Z   2
loop_
 _symmetry_equiv_pos_site_id
 _symmetry_equiv_pos_as_xyz
  1  'x, y, z'
loop_
 _atom_site_type_symbol
 _atom_site_label
 _atom_site_symmetry_multiplicity
 _atom_site_fract_x
 _atom_site_fract_y
 _atom_site_fract_z
 _atom_site_occupancy
  Tb  Tb0  1  0.566358  0.566358  0.933642  1
  Tb  Tb1  1  0.933642  0.933642  0.566358  1
  Er  Er2  1  0.354470  0.354470  0.354291  1
  Er  Er3  1  0.354470  0.354470  0.936769  1
  Er  Er4  1  0.354291  0.936769  0.354470  1
  Er  Er5  1  0.936769  0.354291  0.354470  1
  Er  Er6  1  0.810782  0.189218  0.189218  1
  Er  Er7  1  0.189218  0.810782  0.810782  1
  Er  Er8  1  0.189218  0.810782  0.189218  1
  Er  Er9  1  0.810782  0.189218  0.810782  1
  Er  Er10  1  0.189275  0.189275  0.810725  1
  Er  Er11  1  0.810725  0.810725  0.189275  1
  Er  Er12  1  0.935074  0.564926  0.564926  1
  Er  Er13  1  0.564926  0.935074  0.935074  1
  Er  Er14  1  0.564926  0.935074  0.564926  1
  Er  Er15  1  0.935074  0.564926  0.935074  1
  Ag  Ag16  1  0.582765  0.582765  0.581485  1
  Ag  Ag17  1  0.582765  0.582765  0.252984  1
  Ag  Ag18  1  0.581485  0.252984  0.582765  1
  Ag  Ag19  1  0.252984  0.581485  0.582765  1
  Pt  Pt20  1  0.144178  0.144178  0.143397  1
  Pt  Pt21  1  0.144178  0.144178  0.568247  1
  Pt  Pt22  1  0.143397  0.568247  0.144178  1
  Pt  Pt23  1  0.568247  0.143397  0.144178  1
