# generated using pymatgen
data_Lu2Co6SiGeB2
_symmetry_space_group_name_H-M   'P 1'
_cell_length_a   5.10553300
_cell_length_b   5.10553214
_cell_length_c   6.48026300
_cell_angle_alpha   90.00000000
_cell_angle_beta   90.00000000
_cell_angle_gamma   120.00001203
_symmetry_Int_Tables_number   1
_chemical_formula_structural   Lu2Co6SiGeB2
_chemical_formula_sum   'Lu2 Co6 Si1 Ge1 B2'
_cell_volume   146.28685845
_cell_formula_units_Z   1
loop_
 _symmetry_equiv_pos_site_id
 _symmetry_equiv_pos_as_xyz
  1  'x, y, z'
loop_
 _atom_site_type_symbol
 _atom_site_label
 _atom_site_symmetry_multiplicity
 _atom_site_fract_x
 _atom_site_fract_y
 _atom_site_fract_z
 _atom_site_occupancy
  Lu  Lu0  1  0.000000  0.000000  0.500000  1
  Lu  Lu1  1  0.000000  0.000000  0.000000  1
  Co  Co2  1  0.501320  0.002641  0.213259  1
  Co  Co3  1  0.501320  0.002641  0.786741  1
  Co  Co4  1  0.997359  0.498680  0.213259  1
  Co  Co5  1  0.997359  0.498680  0.786741  1
  Co  Co6  1  0.501320  0.498680  0.213259  1
  Co  Co7  1  0.501320  0.498680  0.786741  1
  Si  Si8  1  0.666667  0.333333  0.500000  1
  Ge  Ge9  1  0.333333  0.666667  0.500000  1
  B  B10  1  0.333333  0.666667  0.000000  1
  B  B11  1  0.666667  0.333333  0.000000  1
