# generated using pymatgen
data_Th8Zr11Si16Ag
_symmetry_space_group_name_H-M   'P 1'
_cell_length_a   7.40859944
_cell_length_b   7.40859924
_cell_length_c   13.52599900
_cell_angle_alpha   89.65355196
_cell_angle_beta   90.34644803
_cell_angle_gamma   89.80284740
_symmetry_Int_Tables_number   1
_chemical_formula_structural   Th8Zr11Si16Ag
_chemical_formula_sum   'Th8 Zr11 Si16 Ag1'
_cell_volume   742.37452895
_cell_formula_units_Z   1
loop_
 _symmetry_equiv_pos_site_id
 _symmetry_equiv_pos_as_xyz
  1  'x, y, z'
loop_
 _atom_site_type_symbol
 _atom_site_label
 _atom_site_symmetry_multiplicity
 _atom_site_fract_x
 _atom_site_fract_y
 _atom_site_fract_z
 _atom_site_occupancy
  Th  Th0  1  0.998041  0.344873  0.213190  1
  Th  Th1  1  0.005613  0.656279  0.715913  1
  Th  Th2  1  0.155004  0.497291  0.465660  1
  Th  Th3  1  0.496942  0.848269  0.033600  1
  Th  Th4  1  0.848269  0.496942  0.966400  1
  Th  Th5  1  0.497291  0.155004  0.534340  1
  Th  Th6  1  0.344873  0.998041  0.786810  1
  Th  Th7  1  0.656279  0.005613  0.284087  1
  Zr  Zr8  1  0.826573  0.826573  0.500000  1
  Zr  Zr9  1  0.324540  0.675382  0.249592  1
  Zr  Zr10  1  0.675382  0.324540  0.750408  1
  Zr  Zr11  1  0.150507  0.998474  0.375106  1
  Zr  Zr12  1  0.854032  0.999362  0.879093  1
  Zr  Zr13  1  0.503447  0.651973  0.626808  1
  Zr  Zr14  1  0.351009  0.488306  0.878216  1
  Zr  Zr15  1  0.488306  0.351009  0.121784  1
  Zr  Zr16  1  0.651973  0.503447  0.373192  1
  Zr  Zr17  1  0.998474  0.150507  0.624894  1
  Zr  Zr18  1  0.999362  0.854032  0.120907  1
  Si  Si19  1  0.364516  0.297888  0.315448  1
  Si  Si20  1  0.635209  0.703270  0.818143  1
  Si  Si21  1  0.205761  0.864734  0.566775  1
  Si  Si22  1  0.132921  0.777826  0.929575  1
  Si  Si23  1  0.777826  0.132921  0.070425  1
  Si  Si24  1  0.864734  0.205761  0.433225  1
  Si  Si25  1  0.297888  0.364516  0.684552  1
  Si  Si26  1  0.703270  0.635209  0.181857  1
  Si  Si27  1  0.290681  0.048593  0.189183  1
  Si  Si28  1  0.709212  0.951708  0.687664  1
  Si  Si29  1  0.452261  0.791312  0.436065  1
  Si  Si30  1  0.209779  0.564812  0.064914  1
  Si  Si31  1  0.564812  0.209779  0.935086  1
  Si  Si32  1  0.791312  0.452261  0.563935  1
  Si  Si33  1  0.048593  0.290681  0.810817  1
  Si  Si34  1  0.951708  0.709212  0.312336  1
  Ag  Ag35  1  0.173599  0.173599  0.000000  1
