# generated using pymatgen
data_RbSnIrS4
_symmetry_space_group_name_H-M   'P 1'
_cell_length_a   3.71715100
_cell_length_b   7.97924666
_cell_length_c   6.35214200
_cell_angle_alpha   74.11885275
_cell_angle_beta   90.00000000
_cell_angle_gamma   90.00000000
_symmetry_Int_Tables_number   1
_chemical_formula_structural   RbSnIrS4
_chemical_formula_sum   'Rb1 Sn1 Ir1 S4'
_cell_volume   181.21379015
_cell_formula_units_Z   1
loop_
 _symmetry_equiv_pos_site_id
 _symmetry_equiv_pos_as_xyz
  1  'x, y, z'
loop_
 _atom_site_type_symbol
 _atom_site_label
 _atom_site_symmetry_multiplicity
 _atom_site_fract_x
 _atom_site_fract_y
 _atom_site_fract_z
 _atom_site_occupancy
  Rb  Rb0  1  0.500000  0.493293  0.652162  1
  Sn  Sn1  1  0.000000  0.999466  0.002887  1
  Ir  Ir2  1  0.500000  0.001762  0.502921  1
  S  S3  1  0.000000  0.841089  0.413167  1
  S  S4  1  0.500000  0.820797  0.872886  1
  S  S5  1  0.000000  0.161772  0.591501  1
  S  S6  1  0.500000  0.180942  0.131436  1
