# generated using pymatgen
data_Tb3DyReRu7
_symmetry_space_group_name_H-M   'P 1'
_cell_length_a   5.21178434
_cell_length_b   5.46178620
_cell_length_c   9.01460901
_cell_angle_alpha   90.00000280
_cell_angle_beta   89.99655885
_cell_angle_gamma   121.59988669
_symmetry_Int_Tables_number   1
_chemical_formula_structural   Tb3DyReRu7
_chemical_formula_sum   'Tb3 Dy1 Re1 Ru7'
_cell_volume   218.55912105
_cell_formula_units_Z   1
loop_
 _symmetry_equiv_pos_site_id
 _symmetry_equiv_pos_as_xyz
  1  'x, y, z'
loop_
 _atom_site_type_symbol
 _atom_site_label
 _atom_site_symmetry_multiplicity
 _atom_site_fract_x
 _atom_site_fract_y
 _atom_site_fract_z
 _atom_site_occupancy
  Tb  Tb0  1  0.653842  0.326921  0.564740  1
  Tb  Tb1  1  0.653865  0.326932  0.935095  1
  Tb  Tb2  1  0.327042  0.663521  0.066926  1
  Dy  Dy3  1  0.327399  0.663700  0.433040  1
  Re  Re4  1  0.688409  0.844205  0.749769  1
  Ru  Ru5  1  0.973862  0.986930  0.499749  1
  Ru  Ru6  1  0.974122  0.987060  0.000195  1
  Ru  Ru7  1  0.837823  0.166669  0.250385  1
  Ru  Ru8  1  0.837823  0.671154  0.250385  1
  Ru  Ru9  1  0.357649  0.178824  0.250380  1
  Ru  Ru10  1  0.184083  0.828552  0.749668  1
  Ru  Ru11  1  0.184083  0.355532  0.749668  1
