# generated using pymatgen
data_Tb10Y6Cd4Co3Ni
_symmetry_space_group_name_H-M   'P 1'
_cell_length_a   9.54873331
_cell_length_b   9.53778458
_cell_length_c   9.53778400
_cell_angle_alpha   60.00000200
_cell_angle_beta   60.03792452
_cell_angle_gamma   60.03792287
_symmetry_Int_Tables_number   1
_chemical_formula_structural   Tb10Y6Cd4Co3Ni
_chemical_formula_sum   'Tb10 Y6 Cd4 Co3 Ni1'
_cell_volume   614.57440847
_cell_formula_units_Z   1
loop_
 _symmetry_equiv_pos_site_id
 _symmetry_equiv_pos_as_xyz
  1  'x, y, z'
loop_
 _atom_site_type_symbol
 _atom_site_label
 _atom_site_symmetry_multiplicity
 _atom_site_fract_x
 _atom_site_fract_y
 _atom_site_fract_z
 _atom_site_occupancy
  Tb  Tb0  1  0.594222  0.598233  0.598233  1
  Tb  Tb1  1  0.594222  0.598233  0.209311  1
  Tb  Tb2  1  0.594222  0.209311  0.598233  1
  Tb  Tb3  1  0.212992  0.595669  0.595669  1
  Tb  Tb4  1  0.065841  0.438038  0.438038  1
  Tb  Tb5  1  0.437608  0.062238  0.062238  1
  Tb  Tb6  1  0.437608  0.062238  0.437916  1
  Tb  Tb7  1  0.065841  0.438038  0.058083  1
  Tb  Tb8  1  0.437608  0.437916  0.062238  1
  Tb  Tb9  1  0.065841  0.058083  0.438038  1
  Y  Y10  1  0.186050  0.813198  0.813198  1
  Y  Y11  1  0.811489  0.187147  0.187147  1
  Y  Y12  1  0.811489  0.187147  0.814218  1
  Y  Y13  1  0.186050  0.813198  0.187554  1
  Y  Y14  1  0.811489  0.814218  0.187147  1
  Y  Y15  1  0.186050  0.187554  0.813198  1
  Cd  Cd16  1  0.830662  0.830189  0.830189  1
  Cd  Cd17  1  0.830662  0.830189  0.508959  1
  Cd  Cd18  1  0.830662  0.508959  0.830189  1
  Cd  Cd19  1  0.507581  0.830806  0.830806  1
  Co  Co20  1  0.391695  0.390736  0.390736  1
  Co  Co21  1  0.391695  0.390736  0.826833  1
  Co  Co22  1  0.391695  0.826833  0.390736  1
  Ni  Ni23  1  0.826728  0.391091  0.391091  1
