# generated using pymatgen
data_Nb12CrGa8Co3C4
_symmetry_space_group_name_H-M   'P 1'
_cell_length_a   8.25574982
_cell_length_b   8.25575023
_cell_length_c   8.25574910
_cell_angle_alpha   59.90676111
_cell_angle_beta   59.90675530
_cell_angle_gamma   59.90676123
_symmetry_Int_Tables_number   1
_chemical_formula_structural   Nb12CrGa8Co3C4
_chemical_formula_sum   'Nb12 Cr1 Ga8 Co3 C4'
_cell_volume   397.04062710
_cell_formula_units_Z   1
loop_
 _symmetry_equiv_pos_site_id
 _symmetry_equiv_pos_as_xyz
  1  'x, y, z'
loop_
 _atom_site_type_symbol
 _atom_site_label
 _atom_site_symmetry_multiplicity
 _atom_site_fract_x
 _atom_site_fract_y
 _atom_site_fract_z
 _atom_site_occupancy
  Nb  Nb0  1  0.691395  0.307748  0.691395  1
  Nb  Nb1  1  0.942252  0.558605  0.558605  1
  Nb  Nb2  1  0.546543  0.946634  0.946634  1
  Nb  Nb3  1  0.946634  0.546543  0.946634  1
  Nb  Nb4  1  0.558605  0.558605  0.942252  1
  Nb  Nb5  1  0.946634  0.946634  0.546543  1
  Nb  Nb6  1  0.691395  0.691395  0.307748  1
  Nb  Nb7  1  0.307748  0.691395  0.691395  1
  Nb  Nb8  1  0.703457  0.303366  0.303366  1
  Nb  Nb9  1  0.303366  0.303366  0.703457  1
  Nb  Nb10  1  0.558605  0.942252  0.558605  1
  Nb  Nb11  1  0.303366  0.703457  0.303366  1
  Cr  Cr12  1  0.125000  0.125000  0.125000  1
  Ga  Ga13  1  0.335483  0.335483  0.335483  1
  Ga  Ga14  1  0.249992  0.913515  0.913515  1
  Ga  Ga15  1  0.913515  0.249992  0.913515  1
  Ga  Ga16  1  0.913515  0.913515  0.249992  1
  Ga  Ga17  1  0.336485  0.000008  0.336485  1
  Ga  Ga18  1  0.336485  0.336485  0.000008  1
  Ga  Ga19  1  0.000008  0.336485  0.336485  1
  Ga  Ga20  1  0.914517  0.914517  0.914517  1
  Co  Co21  1  0.625000  0.125000  0.125000  1
  Co  Co22  1  0.125000  0.625000  0.125000  1
  Co  Co23  1  0.125000  0.125000  0.625000  1
  C  C24  1  0.625000  0.625000  0.625000  1
  C  C25  1  0.125000  0.625000  0.625000  1
  C  C26  1  0.625000  0.125000  0.625000  1
  C  C27  1  0.625000  0.625000  0.125000  1
