# generated using pymatgen
data_ErSc2Ga5Ni
_symmetry_space_group_name_H-M   'P 1'
_cell_length_a   6.73802873
_cell_length_b   6.73802767
_cell_length_c   4.08964100
_cell_angle_alpha   90.00000000
_cell_angle_beta   90.00000000
_cell_angle_gamma   120.85358119
_symmetry_Int_Tables_number   1
_chemical_formula_structural   ErSc2Ga5Ni
_chemical_formula_sum   'Er1 Sc2 Ga5 Ni1'
_cell_volume   159.39744594
_cell_formula_units_Z   1
loop_
 _symmetry_equiv_pos_site_id
 _symmetry_equiv_pos_as_xyz
  1  'x, y, z'
loop_
 _atom_site_type_symbol
 _atom_site_label
 _atom_site_symmetry_multiplicity
 _atom_site_fract_x
 _atom_site_fract_y
 _atom_site_fract_z
 _atom_site_occupancy
  Er  Er0  1  0.410248  0.410248  0.000000  1
  Sc  Sc1  1  0.596972  0.002149  0.000000  1
  Sc  Sc2  1  0.002149  0.596972  0.000000  1
  Ga  Ga3  1  0.236295  0.997495  0.500000  1
  Ga  Ga4  1  0.997495  0.236295  0.500000  1
  Ga  Ga5  1  0.762728  0.762728  0.500000  1
  Ga  Ga6  1  0.330261  0.672557  0.500000  1
  Ga  Ga7  1  0.672557  0.330261  0.500000  1
  Ni  Ni8  1  0.991294  0.991294  0.000000  1
