# generated using pymatgen
data_Ac2Er2TmSn4
_symmetry_space_group_name_H-M   'P 1'
_cell_length_a   8.21274100
_cell_length_b   8.54200400
_cell_length_c   16.02030700
_cell_angle_alpha   90.00000000
_cell_angle_beta   90.00000000
_cell_angle_gamma   90.00000000
_symmetry_Int_Tables_number   1
_chemical_formula_structural   Ac2Er2TmSn4
_chemical_formula_sum   'Ac8 Er8 Tm4 Sn16'
_cell_volume   1123.87686595
_cell_formula_units_Z   4
loop_
 _symmetry_equiv_pos_site_id
 _symmetry_equiv_pos_as_xyz
  1  'x, y, z'
loop_
 _atom_site_type_symbol
 _atom_site_label
 _atom_site_symmetry_multiplicity
 _atom_site_fract_x
 _atom_site_fract_y
 _atom_site_fract_z
 _atom_site_occupancy
  Ac  Ac0  1  0.497236  0.673638  0.595911  1
  Ac  Ac1  1  0.997236  0.826362  0.904089  1
  Ac  Ac2  1  0.502764  0.326362  0.095911  1
  Ac  Ac3  1  0.002764  0.173638  0.404089  1
  Ac  Ac4  1  0.502764  0.326362  0.404089  1
  Ac  Ac5  1  0.002764  0.173638  0.095911  1
  Ac  Ac6  1  0.497236  0.673638  0.904089  1
  Ac  Ac7  1  0.997236  0.826362  0.595911  1
  Er  Er8  1  0.662583  0.165851  0.625146  1
  Er  Er9  1  0.162583  0.334149  0.874854  1
  Er  Er10  1  0.337417  0.834149  0.125146  1
  Er  Er11  1  0.837417  0.665851  0.374854  1
  Er  Er12  1  0.337417  0.834149  0.374854  1
  Er  Er13  1  0.837417  0.665851  0.125146  1
  Er  Er14  1  0.662583  0.165851  0.874854  1
  Er  Er15  1  0.162583  0.334149  0.625146  1
  Tm  Tm16  1  0.829373  0.495652  0.750000  1
  Tm  Tm17  1  0.329373  0.004348  0.750000  1
  Tm  Tm18  1  0.170627  0.504348  0.250000  1
  Tm  Tm19  1  0.670627  0.995652  0.250000  1
  Sn  Sn20  1  0.674542  0.957094  0.456737  1
  Sn  Sn21  1  0.174542  0.542906  0.043263  1
  Sn  Sn22  1  0.325458  0.042906  0.956737  1
  Sn  Sn23  1  0.825458  0.457094  0.543263  1
  Sn  Sn24  1  0.325458  0.042906  0.543263  1
  Sn  Sn25  1  0.825458  0.457094  0.956737  1
  Sn  Sn26  1  0.674542  0.957094  0.043263  1
  Sn  Sn27  1  0.174542  0.542906  0.456737  1
  Sn  Sn28  1  0.467151  0.364171  0.750000  1
  Sn  Sn29  1  0.967151  0.135829  0.750000  1
  Sn  Sn30  1  0.532849  0.635829  0.250000  1
  Sn  Sn31  1  0.032849  0.864171  0.250000  1
  Sn  Sn32  1  0.692918  0.866480  0.750000  1
  Sn  Sn33  1  0.192918  0.633520  0.750000  1
  Sn  Sn34  1  0.307082  0.133520  0.250000  1
  Sn  Sn35  1  0.807082  0.366480  0.250000  1
