# generated using pymatgen
data_Tb3Nd5(Sc3Sn4)4
_symmetry_space_group_name_H-M   'P 1'
_cell_length_a   7.77172563
_cell_length_b   7.99590769
_cell_length_c   14.95496000
_cell_angle_alpha   90.01843002
_cell_angle_beta   89.71428390
_cell_angle_gamma   90.10450117
_symmetry_Int_Tables_number   1
_chemical_formula_structural   Tb3Nd5(Sc3Sn4)4
_chemical_formula_sum   'Tb3 Nd5 Sc12 Sn16'
_cell_volume   929.31798925
_cell_formula_units_Z   1
loop_
 _symmetry_equiv_pos_site_id
 _symmetry_equiv_pos_as_xyz
  1  'x, y, z'
loop_
 _atom_site_type_symbol
 _atom_site_label
 _atom_site_symmetry_multiplicity
 _atom_site_fract_x
 _atom_site_fract_y
 _atom_site_fract_z
 _atom_site_occupancy
  Tb  Tb0  1  0.992298  0.177792  0.406003  1
  Tb  Tb1  1  0.489786  0.324273  0.405319  1
  Tb  Tb2  1  0.508725  0.675550  0.593205  1
  Nd  Nd3  1  0.994240  0.173427  0.095985  1
  Nd  Nd4  1  0.006485  0.826092  0.903533  1
  Nd  Nd5  1  0.505174  0.672916  0.905656  1
  Nd  Nd6  1  0.005599  0.824943  0.592229  1
  Nd  Nd7  1  0.494705  0.325711  0.096020  1
  Sc  Sc8  1  0.170268  0.495958  0.747971  1
  Sc  Sc9  1  0.830219  0.504213  0.252168  1
  Sc  Sc10  1  0.330972  0.995504  0.251690  1
  Sc  Sc11  1  0.669828  0.005492  0.748358  1
  Sc  Sc12  1  0.340796  0.162750  0.626243  1
  Sc  Sc13  1  0.659210  0.837376  0.373455  1
  Sc  Sc14  1  0.159600  0.659998  0.374531  1
  Sc  Sc15  1  0.662061  0.839070  0.129478  1
  Sc  Sc16  1  0.841684  0.338744  0.624858  1
  Sc  Sc17  1  0.339306  0.161313  0.871470  1
  Sc  Sc18  1  0.837737  0.337954  0.872255  1
  Sc  Sc19  1  0.161518  0.661899  0.129070  1
  Sn  Sn20  1  0.032539  0.130123  0.748494  1
  Sn  Sn21  1  0.968738  0.872226  0.252688  1
  Sn  Sn22  1  0.467198  0.627304  0.251222  1
  Sn  Sn23  1  0.533174  0.372494  0.748584  1
  Sn  Sn24  1  0.313134  0.853184  0.747298  1
  Sn  Sn25  1  0.689510  0.147188  0.253797  1
  Sn  Sn26  1  0.188643  0.352900  0.253346  1
  Sn  Sn27  1  0.808658  0.644561  0.747887  1
  Sn  Sn28  1  0.185919  0.455176  0.541774  1
  Sn  Sn29  1  0.813513  0.540645  0.456520  1
  Sn  Sn30  1  0.320737  0.958886  0.455984  1
  Sn  Sn31  1  0.825099  0.545227  0.043960  1
  Sn  Sn32  1  0.677439  0.045373  0.541369  1
  Sn  Sn33  1  0.174770  0.454727  0.957036  1
  Sn  Sn34  1  0.676155  0.043703  0.957089  1
  Sn  Sn35  1  0.324559  0.955309  0.043458  1
