# generated using pymatgen
data_Y2Al9CoPd2
_symmetry_space_group_name_H-M   'P 1'
_cell_length_a   7.54313078
_cell_length_b   7.54313092
_cell_length_c   9.41439000
_cell_angle_alpha   90.00000000
_cell_angle_beta   90.00000000
_cell_angle_gamma   119.32985709
_symmetry_Int_Tables_number   1
_chemical_formula_structural   Y2Al9CoPd2
_chemical_formula_sum   'Y4 Al18 Co2 Pd4'
_cell_volume   467.00268176
_cell_formula_units_Z   2
loop_
 _symmetry_equiv_pos_site_id
 _symmetry_equiv_pos_as_xyz
  1  'x, y, z'
loop_
 _atom_site_type_symbol
 _atom_site_label
 _atom_site_symmetry_multiplicity
 _atom_site_fract_x
 _atom_site_fract_y
 _atom_site_fract_z
 _atom_site_occupancy
  Y  Y0  1  0.993485  0.672481  0.250187  1
  Y  Y1  1  0.006515  0.327519  0.750187  1
  Y  Y2  1  0.672481  0.993485  0.249813  1
  Y  Y3  1  0.327519  0.006515  0.749813  1
  Al  Al4  1  0.135120  0.135120  0.250000  1
  Al  Al5  1  0.864880  0.864880  0.750000  1
  Al  Al6  1  0.340130  0.333379  0.551088  1
  Al  Al7  1  0.659870  0.666621  0.051088  1
  Al  Al8  1  0.333379  0.340130  0.948912  1
  Al  Al9  1  0.666621  0.659870  0.448912  1
  Al  Al10  1  0.340050  0.552781  0.242454  1
  Al  Al11  1  0.659950  0.447219  0.742454  1
  Al  Al12  1  0.552781  0.340050  0.257546  1
  Al  Al13  1  0.447219  0.659950  0.757546  1
  Al  Al14  1  0.007752  0.344483  0.074048  1
  Al  Al15  1  0.992248  0.655517  0.574048  1
  Al  Al16  1  0.344483  0.007752  0.425952  1
  Al  Al17  1  0.655517  0.992248  0.925952  1
  Al  Al18  1  0.010855  0.664699  0.925382  1
  Al  Al19  1  0.989145  0.335301  0.425382  1
  Al  Al20  1  0.664699  0.010855  0.574618  1
  Al  Al21  1  0.335301  0.989145  0.074618  1
  Co  Co22  1  0.329901  0.670099  0.000000  1
  Co  Co23  1  0.670099  0.329901  0.500000  1
  Pd  Pd24  1  0.000118  0.999882  0.000000  1
  Pd  Pd25  1  0.999882  0.000118  0.500000  1
  Pd  Pd26  1  0.671735  0.328265  0.000000  1
  Pd  Pd27  1  0.328265  0.671735  0.500000  1
