# generated using pymatgen
data_CdAg(BPt3)2
_symmetry_space_group_name_H-M   'P 1'
_cell_length_a   5.58486400
_cell_length_b   5.58486391
_cell_length_c   5.58898700
_cell_angle_alpha   90.00000000
_cell_angle_beta   90.00000000
_cell_angle_gamma   120.00000052
_symmetry_Int_Tables_number   1
_chemical_formula_structural   CdAg(BPt3)2
_chemical_formula_sum   'Cd1 Ag1 B2 Pt6'
_cell_volume   150.96939887
_cell_formula_units_Z   1
loop_
 _symmetry_equiv_pos_site_id
 _symmetry_equiv_pos_as_xyz
  1  'x, y, z'
loop_
 _atom_site_type_symbol
 _atom_site_label
 _atom_site_symmetry_multiplicity
 _atom_site_fract_x
 _atom_site_fract_y
 _atom_site_fract_z
 _atom_site_occupancy
  Cd  Cd0  1  0.000000  0.000000  0.000000  1
  Ag  Ag1  1  0.000000  0.000000  0.500000  1
  B  B2  1  0.666667  0.333333  0.500000  1
  B  B3  1  0.333333  0.666667  0.500000  1
  Pt  Pt4  1  0.500000  0.500000  0.756792  1
  Pt  Pt5  1  0.000000  0.500000  0.756792  1
  Pt  Pt6  1  0.500000  0.000000  0.756792  1
  Pt  Pt7  1  0.000000  0.500000  0.243208  1
  Pt  Pt8  1  0.500000  0.500000  0.243208  1
  Pt  Pt9  1  0.500000  0.000000  0.243208  1
