# generated using pymatgen
data_Ho12Co2Ni2SnRu
_symmetry_space_group_name_H-M   'P 1'
_cell_length_a   8.25748284
_cell_length_b   8.25748373
_cell_length_c   8.25748247
_cell_angle_alpha   111.00993525
_cell_angle_beta   109.72713520
_cell_angle_gamma   107.69374985
_symmetry_Int_Tables_number   1
_chemical_formula_structural   Ho12Co2Ni2SnRu
_chemical_formula_sum   'Ho12 Co2 Ni2 Sn1 Ru1'
_cell_volume   433.06441053
_cell_formula_units_Z   1
loop_
 _symmetry_equiv_pos_site_id
 _symmetry_equiv_pos_as_xyz
  1  'x, y, z'
loop_
 _atom_site_type_symbol
 _atom_site_label
 _atom_site_symmetry_multiplicity
 _atom_site_fract_x
 _atom_site_fract_y
 _atom_site_fract_z
 _atom_site_occupancy
  Ho  Ho0  1  0.409702  0.218338  0.191364  1
  Ho  Ho1  1  0.590298  0.781662  0.808636  1
  Ho  Ho2  1  0.026975  0.218338  0.808636  1
  Ho  Ho3  1  0.973025  0.781662  0.191364  1
  Ho  Ho4  1  0.181689  0.286974  0.468662  1
  Ho  Ho5  1  0.818311  0.713026  0.531338  1
  Ho  Ho6  1  0.181689  0.713026  0.894715  1
  Ho  Ho7  1  0.818311  0.286974  0.105285  1
  Ho  Ho8  1  0.315416  0.622283  0.306868  1
  Ho  Ho9  1  0.684584  0.377717  0.693132  1
  Ho  Ho10  1  0.315416  0.008547  0.693132  1
  Ho  Ho11  1  0.684584  0.991453  0.306868  1
  Co  Co12  1  0.113954  0.613954  0.500000  1
  Co  Co13  1  0.886046  0.386046  0.500000  1
  Ni  Ni14  1  0.363962  0.000000  0.363962  1
  Ni  Ni15  1  0.636038  0.000000  0.636038  1
  Sn  Sn16  1  0.500000  0.500000  0.000000  1
  Ru  Ru17  1  0.000000  0.000000  0.000000  1
