# generated using pymatgen
data_Pr12CoRuI17
_symmetry_space_group_name_H-M   'P 1'
_cell_length_a   10.10888465
_cell_length_b   12.09817738
_cell_length_c   12.13251851
_cell_angle_alpha   93.38782662
_cell_angle_beta   104.82314758
_cell_angle_gamma   114.57804249
_symmetry_Int_Tables_number   1
_chemical_formula_structural   Pr12CoRuI17
_chemical_formula_sum   'Pr12 Co1 Ru1 I17'
_cell_volume   1281.12640936
_cell_formula_units_Z   1
loop_
 _symmetry_equiv_pos_site_id
 _symmetry_equiv_pos_as_xyz
  1  'x, y, z'
loop_
 _atom_site_type_symbol
 _atom_site_label
 _atom_site_symmetry_multiplicity
 _atom_site_fract_x
 _atom_site_fract_y
 _atom_site_fract_z
 _atom_site_occupancy
  Pr  Pr0  1  0.058889  0.512887  0.324007  1
  Pr  Pr1  1  0.990454  0.809570  0.583679  1
  Pr  Pr2  1  0.642258  0.240254  0.285075  1
  Pr  Pr3  1  0.011013  0.188362  0.418876  1
  Pr  Pr4  1  0.222030  0.670913  0.986441  1
  Pr  Pr5  1  0.257706  0.982323  0.891004  1
  Pr  Pr6  1  0.352713  0.758922  0.716571  1
  Pr  Pr7  1  0.944570  0.492247  0.678553  1
  Pr  Pr8  1  0.738525  0.011165  0.107258  1
  Pr  Pr9  1  0.154524  0.287631  0.150860  1
  Pr  Pr10  1  0.776284  0.331622  0.008989  1
  Pr  Pr11  1  0.851298  0.712628  0.848493  1
  Co  Co12  1  0.103945  0.738519  0.785104  1
  Ru  Ru13  1  0.895678  0.261715  0.214139  1
  I  I14  1  0.784407  0.529612  0.419053  1
  I  I15  1  0.640950  0.419256  0.757767  1
  I  I16  1  0.843031  0.893021  0.325867  1
  I  I17  1  0.326514  0.212136  0.370856  1
  I  I18  1  0.157493  0.104740  0.676399  1
  I  I19  1  0.586058  0.052345  0.842052  1
  I  I20  1  0.755826  0.184739  0.539482  1
  I  I21  1  0.548576  0.705862  0.952674  1
  I  I22  1  0.359251  0.582637  0.239906  1
  I  I23  1  0.215577  0.471437  0.583654  1
  I  I24  1  0.055868  0.368064  0.896122  1
  I  I25  1  0.449732  0.291149  0.044935  1
  I  I26  1  0.000253  0.999396  0.999055  1
  I  I27  1  0.245960  0.818183  0.463001  1
  I  I28  1  0.409828  0.946083  0.156186  1
  I  I29  1  0.674302  0.788065  0.630914  1
  I  I30  1  0.946486  0.634517  0.103031  1
