# generated using pymatgen
data_Dy4MnOs4Ru3
_symmetry_space_group_name_H-M   'P 1'
_cell_length_a   5.33778035
_cell_length_b   5.20095880
_cell_length_c   8.94612500
_cell_angle_alpha   90.00000000
_cell_angle_beta   90.00000000
_cell_angle_gamma   119.87900512
_symmetry_Int_Tables_number   1
_chemical_formula_structural   Dy4MnOs4Ru3
_chemical_formula_sum   'Dy4 Mn1 Os4 Ru3'
_cell_volume   215.34655023
_cell_formula_units_Z   1
loop_
 _symmetry_equiv_pos_site_id
 _symmetry_equiv_pos_as_xyz
  1  'x, y, z'
loop_
 _atom_site_type_symbol
 _atom_site_label
 _atom_site_symmetry_multiplicity
 _atom_site_fract_x
 _atom_site_fract_y
 _atom_site_fract_z
 _atom_site_occupancy
  Dy  Dy0  1  0.667286  0.333887  0.565487  1
  Dy  Dy1  1  0.330412  0.663584  0.434357  1
  Dy  Dy2  1  0.330412  0.663584  0.065643  1
  Dy  Dy3  1  0.667286  0.333887  0.934513  1
  Mn  Mn4  1  0.168399  0.335281  0.750000  1
  Os  Os5  1  0.174425  0.827120  0.750000  1
  Os  Os6  1  0.655382  0.828700  0.750000  1
  Os  Os7  1  0.837968  0.671322  0.250000  1
  Os  Os8  1  0.831249  0.175581  0.250000  1
  Ru  Ru9  1  0.993712  0.995790  0.502097  1
  Ru  Ru10  1  0.993712  0.995790  0.997903  1
  Ru  Ru11  1  0.349760  0.175475  0.250000  1
