# generated using pymatgen
data_Dy7Er3(SiPb3)2
_symmetry_space_group_name_H-M   'P 1'
_cell_length_a   9.31586800
_cell_length_b   9.31586770
_cell_length_c   6.50254700
_cell_angle_alpha   90.00000000
_cell_angle_beta   90.00000000
_cell_angle_gamma   120.00000106
_symmetry_Int_Tables_number   1
_chemical_formula_structural   Dy7Er3(SiPb3)2
_chemical_formula_sum   'Dy7 Er3 Si2 Pb6'
_cell_volume   488.72073519
_cell_formula_units_Z   1
loop_
 _symmetry_equiv_pos_site_id
 _symmetry_equiv_pos_as_xyz
  1  'x, y, z'
loop_
 _atom_site_type_symbol
 _atom_site_label
 _atom_site_symmetry_multiplicity
 _atom_site_fract_x
 _atom_site_fract_y
 _atom_site_fract_z
 _atom_site_occupancy
  Dy  Dy0  1  0.248997  0.999903  0.249748  1
  Dy  Dy1  1  0.000097  0.751003  0.750252  1
  Dy  Dy2  1  0.000097  0.249094  0.249748  1
  Dy  Dy3  1  0.750906  0.999903  0.750252  1
  Dy  Dy4  1  0.248997  0.249094  0.750252  1
  Dy  Dy5  1  0.666667  0.333333  0.000000  1
  Dy  Dy6  1  0.750906  0.751003  0.249748  1
  Er  Er7  1  0.333333  0.666667  0.500000  1
  Er  Er8  1  0.666667  0.333333  0.500000  1
  Er  Er9  1  0.333333  0.666667  0.000000  1
  Si  Si10  1  0.000000  0.000000  0.000000  1
  Si  Si11  1  0.000000  0.000000  0.500000  1
  Pb  Pb12  1  0.607094  0.999620  0.250048  1
  Pb  Pb13  1  0.392526  0.999620  0.749952  1
  Pb  Pb14  1  0.000380  0.607474  0.250048  1
  Pb  Pb15  1  0.607094  0.607474  0.749952  1
  Pb  Pb16  1  0.392526  0.392906  0.250048  1
  Pb  Pb17  1  0.000380  0.392906  0.749952  1
