# generated using pymatgen
data_Er3Mn2(Al6Pd)2
_symmetry_space_group_name_H-M   'P 1'
_cell_length_a   8.80150526
_cell_length_b   8.80150526
_cell_length_c   9.39801100
_cell_angle_alpha   90.38747100
_cell_angle_beta   89.61252900
_cell_angle_gamma   120.00402349
_symmetry_Int_Tables_number   1
_chemical_formula_structural   Er3Mn2(Al6Pd)2
_chemical_formula_sum   'Er6 Mn4 Al24 Pd4'
_cell_volume   630.44852968
_cell_formula_units_Z   2
loop_
 _symmetry_equiv_pos_site_id
 _symmetry_equiv_pos_as_xyz
  1  'x, y, z'
loop_
 _atom_site_type_symbol
 _atom_site_label
 _atom_site_symmetry_multiplicity
 _atom_site_fract_x
 _atom_site_fract_y
 _atom_site_fract_z
 _atom_site_occupancy
  Er  Er0  1  0.190042  0.384971  0.253391  1
  Er  Er1  1  0.809958  0.615029  0.746609  1
  Er  Er2  1  0.615029  0.809958  0.253391  1
  Er  Er3  1  0.384971  0.190042  0.746609  1
  Er  Er4  1  0.193661  0.806339  0.253374  1
  Er  Er5  1  0.806339  0.193661  0.746626  1
  Mn  Mn6  1  0.500000  0.000000  0.500000  1
  Mn  Mn7  1  0.000000  0.500000  0.500000  1
  Mn  Mn8  1  0.000000  0.000000  0.000000  1
  Mn  Mn9  1  0.000000  0.000000  0.500000  1
  Al  Al10  1  0.333605  0.666395  0.023295  1
  Al  Al11  1  0.666395  0.333605  0.976705  1
  Al  Al12  1  0.670117  0.329883  0.520224  1
  Al  Al13  1  0.329883  0.670117  0.479776  1
  Al  Al14  1  0.153972  0.319713  0.577878  1
  Al  Al15  1  0.846028  0.680287  0.422122  1
  Al  Al16  1  0.680287  0.846028  0.577878  1
  Al  Al17  1  0.841460  0.684064  0.079866  1
  Al  Al18  1  0.319713  0.153972  0.422122  1
  Al  Al19  1  0.158540  0.315936  0.920134  1
  Al  Al20  1  0.160407  0.839593  0.578154  1
  Al  Al21  1  0.315936  0.158540  0.079866  1
  Al  Al22  1  0.839593  0.160407  0.421846  1
  Al  Al23  1  0.684064  0.841460  0.920134  1
  Al  Al24  1  0.841515  0.158485  0.079244  1
  Al  Al25  1  0.158485  0.841515  0.920756  1
  Al  Al26  1  0.561441  0.123850  0.255235  1
  Al  Al27  1  0.438559  0.876150  0.744765  1
  Al  Al28  1  0.876150  0.438559  0.255235  1
  Al  Al29  1  0.123850  0.561441  0.744765  1
  Al  Al30  1  0.563591  0.436409  0.248208  1
  Al  Al31  1  0.436409  0.563591  0.751792  1
  Al  Al32  1  0.000469  0.999531  0.249932  1
  Al  Al33  1  0.999531  0.000469  0.750068  1
  Pd  Pd34  1  0.500000  0.000000  0.000000  1
  Pd  Pd35  1  0.000000  0.500000  0.000000  1
  Pd  Pd36  1  0.500000  0.500000  0.000000  1
  Pd  Pd37  1  0.500000  0.500000  0.500000  1
