# generated using pymatgen
data_YbAl8Cu3Pd
_symmetry_space_group_name_H-M   'P 1'
_cell_length_a   6.76461444
_cell_length_b   6.76461382
_cell_length_c   6.74917222
_cell_angle_alpha   98.67964693
_cell_angle_beta   98.67965024
_cell_angle_gamma   134.57476311
_symmetry_Int_Tables_number   1
_chemical_formula_structural   YbAl8Cu3Pd
_chemical_formula_sum   'Yb1 Al8 Cu3 Pd1'
_cell_volume   202.49944606
_cell_formula_units_Z   1
loop_
 _symmetry_equiv_pos_site_id
 _symmetry_equiv_pos_as_xyz
  1  'x, y, z'
loop_
 _atom_site_type_symbol
 _atom_site_label
 _atom_site_symmetry_multiplicity
 _atom_site_fract_x
 _atom_site_fract_y
 _atom_site_fract_z
 _atom_site_occupancy
  Yb  Yb0  1  0.000000  0.000000  0.000000  1
  Al  Al1  1  0.998424  0.347063  0.347223  1
  Al  Al2  1  0.001576  0.652937  0.652777  1
  Al  Al3  1  0.652937  0.001576  0.652777  1
  Al  Al4  1  0.347063  0.998424  0.347223  1
  Al  Al5  1  0.499242  0.277568  0.781227  1
  Al  Al6  1  0.500758  0.722432  0.218773  1
  Al  Al7  1  0.722432  0.500758  0.218773  1
  Al  Al8  1  0.277568  0.499242  0.781227  1
  Cu  Cu9  1  0.000000  0.000000  0.500000  1
  Cu  Cu10  1  0.500000  0.000000  0.000000  1
  Cu  Cu11  1  0.000000  0.500000  0.000000  1
  Pd  Pd12  1  0.500000  0.500000  0.500000  1
