# generated using pymatgen
data_Sb12OsRu2Au
_symmetry_space_group_name_H-M   'P 1'
_cell_length_a   8.18739946
_cell_length_b   8.19395555
_cell_length_c   9.46296042
_cell_angle_alpha   54.70349470
_cell_angle_beta   54.75659019
_cell_angle_gamma   70.56545728
_symmetry_Int_Tables_number   1
_chemical_formula_structural   Sb12OsRu2Au
_chemical_formula_sum   'Sb12 Os1 Ru2 Au1'
_cell_volume   423.17039893
_cell_formula_units_Z   1
loop_
 _symmetry_equiv_pos_site_id
 _symmetry_equiv_pos_as_xyz
  1  'x, y, z'
loop_
 _atom_site_type_symbol
 _atom_site_label
 _atom_site_symmetry_multiplicity
 _atom_site_fract_x
 _atom_site_fract_y
 _atom_site_fract_z
 _atom_site_occupancy
  Sb  Sb0  1  0.156280  0.157596  0.176074  1
  Sb  Sb1  1  0.843720  0.842404  0.823926  1
  Sb  Sb2  1  0.839219  0.858279  0.499217  1
  Sb  Sb3  1  0.160781  0.141721  0.500783  1
  Sb  Sb4  1  0.805025  0.501578  0.337037  1
  Sb  Sb5  1  0.194975  0.498422  0.662963  1
  Sb  Sb6  1  0.508356  0.822231  0.333723  1
  Sb  Sb7  1  0.491644  0.177769  0.666277  1
  Sb  Sb8  1  0.643340  0.336815  0.858599  1
  Sb  Sb9  1  0.356660  0.663185  0.141401  1
  Sb  Sb10  1  0.665862  0.333885  0.156944  1
  Sb  Sb11  1  0.334138  0.666115  0.843056  1
  Os  Os12  1  0.500000  0.000000  0.500000  1
  Ru  Ru13  1  0.000000  0.500000  0.000000  1
  Ru  Ru14  1  0.500000  0.000000  0.000000  1
  Au  Au15  1  0.000000  0.500000  0.500000  1
