# generated using pymatgen
data_Cs2Tb2FeCuSe6
_symmetry_space_group_name_H-M   'P 1'
_cell_length_a   8.38145394
_cell_length_b   8.38145428
_cell_length_c   10.87392900
_cell_angle_alpha   90.00000000
_cell_angle_beta   90.00000000
_cell_angle_gamma   151.12861939
_symmetry_Int_Tables_number   1
_chemical_formula_structural   Cs2Tb2FeCuSe6
_chemical_formula_sum   'Cs2 Tb2 Fe1 Cu1 Se6'
_cell_volume   368.83574083
_cell_formula_units_Z   1
loop_
 _symmetry_equiv_pos_site_id
 _symmetry_equiv_pos_as_xyz
  1  'x, y, z'
loop_
 _atom_site_type_symbol
 _atom_site_label
 _atom_site_symmetry_multiplicity
 _atom_site_fract_x
 _atom_site_fract_y
 _atom_site_fract_z
 _atom_site_occupancy
  Cs  Cs0  1  0.261543  0.738457  0.250000  1
  Cs  Cs1  1  0.743374  0.256626  0.750000  1
  Tb  Tb2  1  0.994909  0.005091  0.985647  1
  Tb  Tb3  1  0.994909  0.005091  0.514353  1
  Fe  Fe4  1  0.536263  0.463737  0.250000  1
  Cu  Cu5  1  0.465716  0.534284  0.750000  1
  Se  Se6  1  0.614743  0.385258  0.066753  1
  Se  Se7  1  0.949643  0.050357  0.250000  1
  Se  Se8  1  0.614743  0.385258  0.433247  1
  Se  Se9  1  0.382161  0.617840  0.560096  1
  Se  Se10  1  0.059839  0.940161  0.750000  1
  Se  Se11  1  0.382161  0.617840  0.939905  1
