# generated using pymatgen
data_Ti2Al3Os6W
_symmetry_space_group_name_H-M   'P 1'
_cell_length_a   4.34360901
_cell_length_b   6.14858900
_cell_length_c   13.02177403
_cell_angle_alpha   90.00000000
_cell_angle_beta   89.99285689
_cell_angle_gamma   90.00000000
_symmetry_Int_Tables_number   1
_chemical_formula_structural   Ti2Al3Os6W
_chemical_formula_sum   'Ti4 Al6 Os12 W2'
_cell_volume   347.77338305
_cell_formula_units_Z   2
loop_
 _symmetry_equiv_pos_site_id
 _symmetry_equiv_pos_as_xyz
  1  'x, y, z'
loop_
 _atom_site_type_symbol
 _atom_site_label
 _atom_site_symmetry_multiplicity
 _atom_site_fract_x
 _atom_site_fract_y
 _atom_site_fract_z
 _atom_site_occupancy
  Ti  Ti0  1  0.999883  0.500000  0.336614  1
  Ti  Ti1  1  0.499999  0.000000  0.501481  1
  Ti  Ti2  1  0.000112  0.500000  0.665227  1
  Ti  Ti3  1  0.500119  0.000000  0.830033  1
  Al  Al4  1  0.000007  0.000000  0.997575  1
  Al  Al5  1  0.499852  0.500000  0.169083  1
  Al  Al6  1  0.999875  0.000000  0.337323  1
  Al  Al7  1  0.500016  0.500000  0.501423  1
  Al  Al8  1  0.000114  0.000000  0.665306  1
  Al  Al9  1  0.500115  0.500000  0.829314  1
  Os  Os10  1  0.500012  0.251388  0.001902  1
  Os  Os11  1  0.500012  0.748612  0.001902  1
  Os  Os12  1  0.999883  0.248607  0.164731  1
  Os  Os13  1  0.999883  0.751392  0.164731  1
  Os  Os14  1  0.499871  0.250441  0.331759  1
  Os  Os15  1  0.499871  0.749560  0.331759  1
  Os  Os16  1  0.999997  0.250069  0.499556  1
  Os  Os17  1  0.999997  0.749932  0.499556  1
  Os  Os18  1  0.500121  0.249931  0.667096  1
  Os  Os19  1  0.500121  0.750070  0.667096  1
  Os  Os20  1  0.000132  0.249579  0.834906  1
  Os  Os21  1  0.000132  0.750420  0.834906  1
  W  W22  1  0.999999  0.500000  0.995793  1
  W  W23  1  0.499873  0.000000  0.170928  1
