# generated using pymatgen
data_Ta4Al6ZnCo
_symmetry_space_group_name_H-M   'P 1'
_cell_length_a   5.13179800
_cell_length_b   5.13179762
_cell_length_c   7.99166200
_cell_angle_alpha   90.00000000
_cell_angle_beta   90.00000000
_cell_angle_gamma   120.00000243
_symmetry_Int_Tables_number   1
_chemical_formula_structural   Ta4Al6ZnCo
_chemical_formula_sum   'Ta4 Al6 Zn1 Co1'
_cell_volume   182.26647858
_cell_formula_units_Z   1
loop_
 _symmetry_equiv_pos_site_id
 _symmetry_equiv_pos_as_xyz
  1  'x, y, z'
loop_
 _atom_site_type_symbol
 _atom_site_label
 _atom_site_symmetry_multiplicity
 _atom_site_fract_x
 _atom_site_fract_y
 _atom_site_fract_z
 _atom_site_occupancy
  Ta  Ta0  1  0.666666  0.333333  0.065678  1
  Ta  Ta1  1  0.666666  0.333333  0.429025  1
  Ta  Ta2  1  0.333334  0.666667  0.570973  1
  Ta  Ta3  1  0.333334  0.666667  0.934322  1
  Al  Al4  1  0.169142  0.338286  0.262043  1
  Al  Al5  1  0.169142  0.830857  0.262043  1
  Al  Al6  1  0.661713  0.830857  0.262043  1
  Al  Al7  1  0.338286  0.169141  0.737957  1
  Al  Al8  1  0.830856  0.169141  0.737957  1
  Al  Al9  1  0.830857  0.661714  0.737957  1
  Zn  Zn10  1  0.000000  0.000000  0.000000  1
  Co  Co11  1  0.000000  0.000000  0.499999  1
