# generated using pymatgen
data_DyYAl20RuRh3
_symmetry_space_group_name_H-M   'P 1'
_cell_length_a   6.85752119
_cell_length_b   6.85486712
_cell_length_c   9.15741350
_cell_angle_alpha   90.12784262
_cell_angle_beta   90.07860913
_cell_angle_gamma   97.37407400
_symmetry_Int_Tables_number   1
_chemical_formula_structural   DyYAl20RuRh3
_chemical_formula_sum   'Dy1 Y1 Al20 Ru1 Rh3'
_cell_volume   426.90426881
_cell_formula_units_Z   1
loop_
 _symmetry_equiv_pos_site_id
 _symmetry_equiv_pos_as_xyz
  1  'x, y, z'
loop_
 _atom_site_type_symbol
 _atom_site_label
 _atom_site_symmetry_multiplicity
 _atom_site_fract_x
 _atom_site_fract_y
 _atom_site_fract_z
 _atom_site_occupancy
  Dy  Dy0  1  0.869444  0.127832  0.750027  1
  Y  Y1  1  0.130737  0.872043  0.249972  1
  Al  Al2  1  0.621239  0.375890  0.548145  1
  Al  Al3  1  0.378814  0.624059  0.451984  1
  Al  Al4  1  0.378205  0.622406  0.049430  1
  Al  Al5  1  0.621856  0.377539  0.950431  1
  Al  Al6  1  0.222332  0.220875  0.499391  1
  Al  Al7  1  0.777531  0.779273  0.500756  1
  Al  Al8  1  0.776766  0.777259  0.999872  1
  Al  Al9  1  0.223101  0.222892  0.999971  1
  Al  Al10  1  0.845278  0.155228  0.103390  1
  Al  Al11  1  0.154556  0.844924  0.896481  1
  Al  Al12  1  0.155529  0.846190  0.602285  1
  Al  Al13  1  0.844301  0.153969  0.397839  1
  Al  Al14  1  0.856770  0.589436  0.749559  1
  Al  Al15  1  0.143124  0.410506  0.250441  1
  Al  Al16  1  0.410623  0.142532  0.748975  1
  Al  Al17  1  0.589458  0.857574  0.251031  1
  Al  Al18  1  0.225208  0.480379  0.749929  1
  Al  Al19  1  0.774643  0.519536  0.250067  1
  Al  Al20  1  0.519091  0.776128  0.746972  1
  Al  Al21  1  0.481015  0.224009  0.253038  1
  Ru  Ru22  1  0.500262  0.000136  0.500100  1
  Rh  Rh23  1  0.999880  0.499659  0.500072  1
  Rh  Rh24  1  0.999903  0.499652  0.999918  1
  Rh  Rh25  1  0.500330  0.000076  0.999925  1
