# generated using pymatgen
data_Tb7Y5Al12V8O48
_symmetry_space_group_name_H-M   'P 1'
_cell_length_a   10.68719798
_cell_length_b   10.68803758
_cell_length_c   10.68460390
_cell_angle_alpha   109.40535698
_cell_angle_beta   109.56335741
_cell_angle_gamma   109.43814193
_symmetry_Int_Tables_number   1
_chemical_formula_structural   Tb7Y5Al12V8O48
_chemical_formula_sum   'Tb7 Y5 Al12 V8 O48'
_cell_volume   939.58082181
_cell_formula_units_Z   1
loop_
 _symmetry_equiv_pos_site_id
 _symmetry_equiv_pos_as_xyz
  1  'x, y, z'
loop_
 _atom_site_type_symbol
 _atom_site_label
 _atom_site_symmetry_multiplicity
 _atom_site_fract_x
 _atom_site_fract_y
 _atom_site_fract_z
 _atom_site_occupancy
  Tb  Tb0  1  0.374898  0.750535  0.125795  1
  Tb  Tb1  1  0.248300  0.374232  0.123530  1
  Tb  Tb2  1  0.374958  0.125076  0.249472  1
  Tb  Tb3  1  0.875294  0.625334  0.249840  1
  Tb  Tb4  1  0.750922  0.125181  0.376450  1
  Tb  Tb5  1  0.124921  0.249604  0.374689  1
  Tb  Tb6  1  0.249327  0.875027  0.623719  1
  Y  Y7  1  0.875046  0.750484  0.625518  1
  Y  Y8  1  0.124551  0.374625  0.750032  1
  Y  Y9  1  0.625012  0.874794  0.750426  1
  Y  Y10  1  0.751783  0.625930  0.876459  1
  Y  Y11  1  0.624870  0.249311  0.874104  1
  Al  Al12  1  0.875495  0.250719  0.125089  1
  Al  Al13  1  0.749798  0.875195  0.124163  1
  Al  Al14  1  0.124619  0.874682  0.249771  1
  Al  Al15  1  0.625026  0.375180  0.250271  1
  Al  Al16  1  0.251314  0.625894  0.375403  1
  Al  Al17  1  0.625883  0.750528  0.375016  1
  Al  Al18  1  0.748850  0.374310  0.624832  1
  Al  Al19  1  0.374378  0.249408  0.625295  1
  Al  Al20  1  0.875467  0.125351  0.750207  1
  Al  Al21  1  0.374929  0.624850  0.749833  1
  Al  Al22  1  0.250079  0.124538  0.875583  1
  Al  Al23  1  0.124075  0.749167  0.874440  1
  V  V24  1  0.999823  0.999889  0.999837  1
  V  V25  1  0.500241  0.000142  0.000050  1
  V  V26  1  0.499865  0.499584  0.999723  1
  V  V27  1  0.999840  0.500060  0.999727  1
  V  V28  1  0.500543  0.000176  0.500379  1
  V  V29  1  0.999842  0.500041  0.499965  1
  V  V30  1  0.000119  0.000083  0.500251  1
  V  V31  1  0.500181  0.500083  0.500331  1
  O  O32  1  0.210589  0.123957  0.025088  1
  O  O33  1  0.313255  0.899250  0.023651  1
  O  O34  1  0.710985  0.686576  0.086654  1
  O  O35  1  0.877634  0.400745  0.084352  1
  O  O36  1  0.976385  0.685801  0.099386  1
  O  O37  1  0.623089  0.414216  0.099569  1
  O  O38  1  0.599131  0.914429  0.121913  1
  O  O39  1  0.024310  0.210225  0.124063  1
  O  O40  1  0.210911  0.586673  0.186199  1
  O  O41  1  0.477844  0.599571  0.185115  1
  O  O42  1  0.586030  0.185819  0.209401  1
  O  O43  1  0.121235  0.021735  0.206237  1
  O  O44  1  0.477672  0.378164  0.292834  1
  O  O45  1  0.314958  0.915044  0.292185  1
  O  O46  1  0.914282  0.292481  0.314886  1
  O  O47  1  0.900318  0.024581  0.313287  1
  O  O48  1  0.292150  0.477150  0.378172  1
  O  O49  1  0.586832  0.900643  0.375909  1
  O  O50  1  0.815068  0.523846  0.400664  1
  O  O51  1  0.086270  0.877235  0.400581  1
  O  O52  1  0.816400  0.792825  0.415000  1
  O  O53  1  0.100073  0.623932  0.412849  1
  O  O54  1  0.374683  0.288062  0.475346  1
  O  O55  1  0.598858  0.184787  0.476397  1
  O  O56  1  0.401493  0.815290  0.523870  1
  O  O57  1  0.625951  0.712169  0.525246  1
  O  O58  1  0.899973  0.376121  0.587163  1
  O  O59  1  0.183868  0.207049  0.585501  1
  O  O60  1  0.914101  0.123263  0.599637  1
  O  O61  1  0.184649  0.476008  0.599647  1
  O  O62  1  0.708198  0.523235  0.622531  1
  O  O63  1  0.413926  0.099677  0.624849  1
  O  O64  1  0.099405  0.975155  0.686686  1
  O  O65  1  0.085272  0.707743  0.684732  1
  O  O66  1  0.685316  0.085025  0.708336  1
  O  O67  1  0.522626  0.622348  0.707638  1
  O  O68  1  0.414374  0.814290  0.790548  1
  O  O69  1  0.878219  0.978092  0.793538  1
  O  O70  1  0.788646  0.413544  0.813849  1
  O  O71  1  0.522670  0.400334  0.814948  1
  O  O72  1  0.975153  0.789618  0.875280  1
  O  O73  1  0.400912  0.085570  0.878003  1
  O  O74  1  0.023728  0.314432  0.900165  1
  O  O75  1  0.376382  0.585062  0.900066  1
  O  O76  1  0.288844  0.313021  0.912672  1
  O  O77  1  0.121536  0.598887  0.914920  1
  O  O78  1  0.686469  0.100710  0.975744  1
  O  O79  1  0.789085  0.875596  0.974501  1
