# generated using pymatgen
data_ErTm4Si3O
_symmetry_space_group_name_H-M   'P 1'
_cell_length_a   8.28744700
_cell_length_b   8.28683046
_cell_length_c   6.11128100
_cell_angle_alpha   90.00000000
_cell_angle_beta   90.00000000
_cell_angle_gamma   120.00245715
_symmetry_Int_Tables_number   1
_chemical_formula_structural   ErTm4Si3O
_chemical_formula_sum   'Er2 Tm8 Si6 O2'
_cell_volume   363.46395607
_cell_formula_units_Z   2
loop_
 _symmetry_equiv_pos_site_id
 _symmetry_equiv_pos_as_xyz
  1  'x, y, z'
loop_
 _atom_site_type_symbol
 _atom_site_label
 _atom_site_symmetry_multiplicity
 _atom_site_fract_x
 _atom_site_fract_y
 _atom_site_fract_z
 _atom_site_occupancy
  Er  Er0  1  0.232556  0.000000  0.250000  1
  Er  Er1  1  0.767444  0.000000  0.750000  1
  Tm  Tm2  1  0.000091  0.232093  0.250000  1
  Tm  Tm3  1  0.999909  0.767907  0.750000  1
  Tm  Tm4  1  0.767999  0.767907  0.250000  1
  Tm  Tm5  1  0.232001  0.232093  0.750000  1
  Tm  Tm6  1  0.333249  0.666500  0.000000  1
  Tm  Tm7  1  0.666751  0.333500  0.000000  1
  Tm  Tm8  1  0.666751  0.333500  0.500000  1
  Tm  Tm9  1  0.333249  0.666500  0.500000  1
  Si  Si10  1  0.602469  0.000000  0.250000  1
  Si  Si11  1  0.397531  0.000000  0.750000  1
  Si  Si12  1  0.999746  0.601855  0.250000  1
  Si  Si13  1  0.000254  0.398145  0.750000  1
  Si  Si14  1  0.397891  0.398145  0.250000  1
  Si  Si15  1  0.602109  0.601855  0.750000  1
  O  O16  1  0.000000  0.000000  0.000000  1
  O  O17  1  0.000000  0.000000  0.500000  1
