# generated using pymatgen
data_TmMgNi12P7
_symmetry_space_group_name_H-M   'P 1'
_cell_length_a   9.04435000
_cell_length_b   9.04435012
_cell_length_c   3.60419300
_cell_angle_alpha   90.00000000
_cell_angle_beta   90.00000000
_cell_angle_gamma   119.99999956
_symmetry_Int_Tables_number   1
_chemical_formula_structural   TmMgNi12P7
_chemical_formula_sum   'Tm1 Mg1 Ni12 P7'
_cell_volume   255.32503440
_cell_formula_units_Z   1
loop_
 _symmetry_equiv_pos_site_id
 _symmetry_equiv_pos_as_xyz
  1  'x, y, z'
loop_
 _atom_site_type_symbol
 _atom_site_label
 _atom_site_symmetry_multiplicity
 _atom_site_fract_x
 _atom_site_fract_y
 _atom_site_fract_z
 _atom_site_occupancy
  Tm  Tm0  1  0.333333  0.666667  0.000000  1
  Mg  Mg1  1  0.666667  0.333333  0.500000  1
  Ni  Ni2  1  0.437864  0.064976  0.000000  1
  Ni  Ni3  1  0.627113  0.562136  0.000000  1
  Ni  Ni4  1  0.935024  0.372887  0.000000  1
  Ni  Ni5  1  0.153410  0.275957  0.000000  1
  Ni  Ni6  1  0.122547  0.846590  0.000000  1
  Ni  Ni7  1  0.724043  0.877453  0.000000  1
  Ni  Ni8  1  0.382944  0.431203  0.500000  1
  Ni  Ni9  1  0.048260  0.617056  0.500000  1
  Ni  Ni10  1  0.568797  0.951740  0.500000  1
  Ni  Ni11  1  0.215712  0.093721  0.500000  1
  Ni  Ni12  1  0.878009  0.784288  0.500000  1
  Ni  Ni13  1  0.906279  0.121991  0.500000  1
  P  P14  1  0.000000  0.000000  0.000000  1
  P  P15  1  0.411691  0.293560  0.000000  1
  P  P16  1  0.881870  0.588309  0.000000  1
  P  P17  1  0.706440  0.118130  0.000000  1
  P  P18  1  0.113503  0.407268  0.500000  1
  P  P19  1  0.293765  0.886497  0.500000  1
  P  P20  1  0.592732  0.706235  0.500000  1
