# generated using pymatgen
data_Ba2CrSbO6
_symmetry_space_group_name_H-M   'P 1'
_cell_length_a   5.89376200
_cell_length_b   5.89376197
_cell_length_c   9.82481500
_cell_angle_alpha   90.00000000
_cell_angle_beta   90.00000000
_cell_angle_gamma   120.00001141
_symmetry_Int_Tables_number   1
_chemical_formula_structural   Ba2CrSbO6
_chemical_formula_sum   'Ba4 Cr2 Sb2 O12'
_cell_volume   295.55625119
_cell_formula_units_Z   2
loop_
 _symmetry_equiv_pos_site_id
 _symmetry_equiv_pos_as_xyz
  1  'x, y, z'
loop_
 _atom_site_type_symbol
 _atom_site_label
 _atom_site_symmetry_multiplicity
 _atom_site_fract_x
 _atom_site_fract_y
 _atom_site_fract_z
 _atom_site_occupancy
  Ba  Ba0  1  0.666667  0.333333  0.752867  1
  Ba  Ba1  1  0.333333  0.666667  0.252867  1
  Ba  Ba2  1  0.000000  0.000000  0.532272  1
  Ba  Ba3  1  0.000000  0.000000  0.032272  1
  Cr  Cr4  1  0.666667  0.333333  0.108147  1
  Cr  Cr5  1  0.333333  0.666667  0.608147  1
  Sb  Sb6  1  0.333333  0.666667  0.884355  1
  Sb  Sb7  1  0.666667  0.333333  0.384355  1
  O  O8  1  0.631620  0.815810  0.745310  1
  O  O9  1  0.815810  0.631620  0.245310  1
  O  O10  1  0.815810  0.184190  0.245310  1
  O  O11  1  0.184190  0.815810  0.745310  1
  O  O12  1  0.184190  0.368380  0.745310  1
  O  O13  1  0.368380  0.184190  0.245310  1
  O  O14  1  0.503098  0.006195  0.495476  1
  O  O15  1  0.496902  0.503098  0.995476  1
  O  O16  1  0.496902  0.993805  0.995476  1
  O  O17  1  0.503098  0.496902  0.495476  1
  O  O18  1  0.993805  0.496902  0.495476  1
  O  O19  1  0.006195  0.503098  0.995476  1
