# generated using pymatgen
data_Dy2Ti(ZnPt2)2
_symmetry_space_group_name_H-M   'P 1'
_cell_length_a   8.17867600
_cell_length_b   8.17867752
_cell_length_c   7.68956800
_cell_angle_alpha   90.00000000
_cell_angle_beta   90.00000000
_cell_angle_gamma   140.12457519
_symmetry_Int_Tables_number   1
_chemical_formula_structural   Dy2Ti(ZnPt2)2
_chemical_formula_sum   'Dy4 Ti2 Zn4 Pt8'
_cell_volume   329.76739145
_cell_formula_units_Z   2
loop_
 _symmetry_equiv_pos_site_id
 _symmetry_equiv_pos_as_xyz
  1  'x, y, z'
loop_
 _atom_site_type_symbol
 _atom_site_label
 _atom_site_symmetry_multiplicity
 _atom_site_fract_x
 _atom_site_fract_y
 _atom_site_fract_z
 _atom_site_occupancy
  Dy  Dy0  1  0.610652  0.389348  0.905472  1
  Dy  Dy1  1  0.389348  0.610652  0.094528  1
  Dy  Dy2  1  0.889348  0.110652  0.405472  1
  Dy  Dy3  1  0.110652  0.889348  0.594528  1
  Ti  Ti4  1  0.500000  0.500000  0.500000  1
  Ti  Ti5  1  0.000000  0.000000  0.000000  1
  Zn  Zn6  1  0.520905  0.979095  0.750000  1
  Zn  Zn7  1  0.979095  0.520905  0.250000  1
  Zn  Zn8  1  0.479095  0.020905  0.250000  1
  Zn  Zn9  1  0.020905  0.479095  0.750000  1
  Pt  Pt10  1  0.691638  0.808362  0.750000  1
  Pt  Pt11  1  0.808362  0.691638  0.250000  1
  Pt  Pt12  1  0.308362  0.191638  0.250000  1
  Pt  Pt13  1  0.191638  0.308362  0.750000  1
  Pt  Pt14  1  0.672516  0.327484  0.526260  1
  Pt  Pt15  1  0.327484  0.672516  0.473740  1
  Pt  Pt16  1  0.827484  0.172516  0.026260  1
  Pt  Pt17  1  0.172516  0.827484  0.973740  1
