# generated using pymatgen
data_HoLu3MnOs7
_symmetry_space_group_name_H-M   'P 1'
_cell_length_a   5.31047400
_cell_length_b   5.31047453
_cell_length_c   8.65228700
_cell_angle_alpha   90.00000000
_cell_angle_beta   90.00000000
_cell_angle_gamma   119.99999671
_symmetry_Int_Tables_number   1
_chemical_formula_structural   HoLu3MnOs7
_chemical_formula_sum   'Ho1 Lu3 Mn1 Os7'
_cell_volume   211.31395565
_cell_formula_units_Z   1
loop_
 _symmetry_equiv_pos_site_id
 _symmetry_equiv_pos_as_xyz
  1  'x, y, z'
loop_
 _atom_site_type_symbol
 _atom_site_label
 _atom_site_symmetry_multiplicity
 _atom_site_fract_x
 _atom_site_fract_y
 _atom_site_fract_z
 _atom_site_occupancy
  Ho  Ho0  1  0.333333  0.666667  0.435695  1
  Lu  Lu1  1  0.666667  0.333333  0.564415  1
  Lu  Lu2  1  0.666667  0.333333  0.931591  1
  Lu  Lu3  1  0.333333  0.666667  0.068313  1
  Mn  Mn4  1  0.000000  0.000000  0.000037  1
  Os  Os5  1  0.171435  0.342871  0.753418  1
  Os  Os6  1  0.171435  0.828565  0.753418  1
  Os  Os7  1  0.342954  0.171476  0.246535  1
  Os  Os8  1  0.828524  0.657046  0.246535  1
  Os  Os9  1  0.657129  0.828565  0.753418  1
  Os  Os10  1  0.828524  0.171476  0.246535  1
  Os  Os11  1  0.000000  0.000000  0.500093  1
