# generated using pymatgen
data_Ce6Al24NiRu7
_symmetry_space_group_name_H-M   'P 1'
_cell_length_a   8.87678170
_cell_length_b   8.91081548
_cell_length_c   9.52981421
_cell_angle_alpha   90.00000127
_cell_angle_beta   89.79046458
_cell_angle_gamma   120.12690679
_symmetry_Int_Tables_number   1
_chemical_formula_structural   Ce6Al24NiRu7
_chemical_formula_sum   'Ce6 Al24 Ni1 Ru7'
_cell_volume   651.96964719
_cell_formula_units_Z   1
loop_
 _symmetry_equiv_pos_site_id
 _symmetry_equiv_pos_as_xyz
  1  'x, y, z'
loop_
 _atom_site_type_symbol
 _atom_site_label
 _atom_site_symmetry_multiplicity
 _atom_site_fract_x
 _atom_site_fract_y
 _atom_site_fract_z
 _atom_site_occupancy
  Ce  Ce0  1  0.804045  0.613718  0.749360  1
  Ce  Ce1  1  0.195955  0.809674  0.250640  1
  Ce  Ce2  1  0.611761  0.805881  0.250029  1
  Ce  Ce3  1  0.388239  0.194119  0.749971  1
  Ce  Ce4  1  0.804045  0.190326  0.749360  1
  Ce  Ce5  1  0.195955  0.386282  0.250640  1
  Al  Al6  1  0.333234  0.666617  0.483833  1
  Al  Al7  1  0.669022  0.334511  0.981957  1
  Al  Al8  1  0.666766  0.333383  0.516167  1
  Al  Al9  1  0.330978  0.665489  0.018043  1
  Al  Al10  1  0.161958  0.324980  0.577760  1
  Al  Al11  1  0.674285  0.837143  0.577142  1
  Al  Al12  1  0.161958  0.836978  0.577760  1
  Al  Al13  1  0.836727  0.161780  0.077274  1
  Al  Al14  1  0.838042  0.163022  0.422240  1
  Al  Al15  1  0.836727  0.674947  0.077274  1
  Al  Al16  1  0.326354  0.163177  0.077537  1
  Al  Al17  1  0.673646  0.836823  0.922463  1
  Al  Al18  1  0.163273  0.325053  0.922726  1
  Al  Al19  1  0.838042  0.675020  0.422240  1
  Al  Al20  1  0.001435  0.000718  0.250104  1
  Al  Al21  1  0.998565  0.999282  0.749896  1
  Al  Al22  1  0.563365  0.125264  0.249183  1
  Al  Al23  1  0.436635  0.561899  0.750817  1
  Al  Al24  1  0.121282  0.560641  0.752444  1
  Al  Al25  1  0.878718  0.439359  0.247556  1
  Al  Al26  1  0.563365  0.438101  0.249183  1
  Al  Al27  1  0.436635  0.874736  0.750817  1
  Al  Al28  1  0.163273  0.838220  0.922726  1
  Al  Al29  1  0.325715  0.162857  0.422858  1
  Ni  Ni30  1  0.000000  0.500000  0.000000  1
  Ru  Ru31  1  0.000000  0.000000  0.500000  1
  Ru  Ru32  1  0.000000  0.000000  0.000000  1
  Ru  Ru33  1  0.500000  0.000000  0.500000  1
  Ru  Ru34  1  0.500000  0.500000  0.000000  1
  Ru  Ru35  1  0.000000  0.500000  0.500000  1
  Ru  Ru36  1  0.500000  0.500000  0.500000  1
  Ru  Ru37  1  0.500000  0.000000  0.000000  1
