# generated using pymatgen
data_Ti8V11Si16Os
_symmetry_space_group_name_H-M   'P 1'
_cell_length_a   6.47775621
_cell_length_b   6.47775618
_cell_length_c   11.93916057
_cell_angle_alpha   90.10353289
_cell_angle_beta   89.89646600
_cell_angle_gamma   89.64687911
_symmetry_Int_Tables_number   1
_chemical_formula_structural   Ti8V11Si16Os
_chemical_formula_sum   'Ti8 V11 Si16 Os1'
_cell_volume   500.97183980
_cell_formula_units_Z   1
loop_
 _symmetry_equiv_pos_site_id
 _symmetry_equiv_pos_as_xyz
  1  'x, y, z'
loop_
 _atom_site_type_symbol
 _atom_site_label
 _atom_site_symmetry_multiplicity
 _atom_site_fract_x
 _atom_site_fract_y
 _atom_site_fract_z
 _atom_site_occupancy
  Ti  Ti0  1  0.000934  0.666951  0.029324  1
  Ti  Ti1  1  0.835917  0.501350  0.278831  1
  Ti  Ti2  1  0.162893  0.498930  0.778482  1
  Ti  Ti3  1  0.501350  0.835917  0.721169  1
  Ti  Ti4  1  0.498930  0.162893  0.221518  1
  Ti  Ti5  1  0.997384  0.337174  0.529317  1
  Ti  Ti6  1  0.666951  0.000934  0.970676  1
  Ti  Ti7  1  0.337174  0.997384  0.470683  1
  V  V8  1  0.166460  0.833284  0.248700  1
  V  V9  1  0.833284  0.166460  0.751300  1
  V  V10  1  0.665426  0.665426  0.500000  1
  V  V11  1  0.997721  0.153594  0.130803  1
  V  V12  1  0.345642  0.505306  0.376463  1
  V  V13  1  0.665502  0.494652  0.875423  1
  V  V14  1  0.505306  0.345642  0.623537  1
  V  V15  1  0.494652  0.665502  0.124577  1
  V  V16  1  0.995055  0.845470  0.626996  1
  V  V17  1  0.153594  0.997721  0.869197  1
  V  V18  1  0.845470  0.995055  0.373004  1
  Si  Si19  1  0.293696  0.963223  0.062597  1
  Si  Si20  1  0.538865  0.799603  0.316024  1
  Si  Si21  1  0.459920  0.201465  0.816320  1
  Si  Si22  1  0.799603  0.538865  0.683976  1
  Si  Si23  1  0.201465  0.459920  0.183680  1
  Si  Si24  1  0.700901  0.039181  0.565325  1
  Si  Si25  1  0.963223  0.293696  0.937403  1
  Si  Si26  1  0.039181  0.700901  0.434675  1
  Si  Si27  1  0.704673  0.371930  0.074972  1
  Si  Si28  1  0.133283  0.207940  0.325633  1
  Si  Si29  1  0.866639  0.791917  0.824535  1
  Si  Si30  1  0.207940  0.133283  0.674367  1
  Si  Si31  1  0.791917  0.866639  0.175465  1
  Si  Si32  1  0.292760  0.633162  0.574942  1
  Si  Si33  1  0.371930  0.704673  0.925028  1
  Si  Si34  1  0.633162  0.292760  0.425058  1
  Os  Os35  1  0.331197  0.331197  0.000000  1
