# generated using pymatgen
data_KPrP2S7
_symmetry_space_group_name_H-M   'P 1'
_cell_length_a   9.08592500
_cell_length_b   9.84675689
_cell_length_c   12.53161500
_cell_angle_alpha   90.00000000
_cell_angle_beta   90.00000000
_cell_angle_gamma   90.28509065
_symmetry_Int_Tables_number   1
_chemical_formula_structural   KPrP2S7
_chemical_formula_sum   'K4 Pr4 P8 S28'
_cell_volume   1121.15079976
_cell_formula_units_Z   4
loop_
 _symmetry_equiv_pos_site_id
 _symmetry_equiv_pos_as_xyz
  1  'x, y, z'
loop_
 _atom_site_type_symbol
 _atom_site_label
 _atom_site_symmetry_multiplicity
 _atom_site_fract_x
 _atom_site_fract_y
 _atom_site_fract_z
 _atom_site_occupancy
  K  K0  1  0.868759  0.394503  0.192310  1
  K  K1  1  0.368759  0.394503  0.307690  1
  K  K2  1  0.631241  0.605497  0.692310  1
  K  K3  1  0.131241  0.605497  0.807690  1
  Pr  Pr4  1  0.392525  0.142004  0.642465  1
  Pr  Pr5  1  0.107475  0.857996  0.142465  1
  Pr  Pr6  1  0.607475  0.857996  0.357535  1
  Pr  Pr7  1  0.892525  0.142004  0.857535  1
  P  P8  1  0.021962  0.274665  0.603211  1
  P  P9  1  0.802135  0.814656  0.964570  1
  P  P10  1  0.978038  0.725335  0.396789  1
  P  P11  1  0.697865  0.185344  0.464570  1
  P  P12  1  0.521962  0.274665  0.896789  1
  P  P13  1  0.302135  0.814656  0.535430  1
  P  P14  1  0.478038  0.725335  0.103211  1
  P  P15  1  0.197865  0.185344  0.035430  1
  S  S16  1  0.790951  0.632090  0.443561  1
  S  S17  1  0.320465  0.983143  0.441612  1
  S  S18  1  0.430471  0.665304  0.476102  1
  S  S19  1  0.428265  0.909969  0.168238  1
  S  S20  1  0.649146  0.150718  0.308302  1
  S  S21  1  0.578084  0.752591  0.949615  1
  S  S22  1  0.571735  0.090031  0.831762  1
  S  S23  1  0.071735  0.090031  0.668238  1
  S  S24  1  0.610258  0.628222  0.208019  1
  S  S25  1  0.209049  0.367910  0.556439  1
  S  S26  1  0.889742  0.371778  0.708019  1
  S  S27  1  0.389742  0.371778  0.791981  1
  S  S28  1  0.709049  0.367910  0.943561  1
  S  S29  1  0.569529  0.334696  0.523898  1
  S  S30  1  0.290951  0.632090  0.056439  1
  S  S31  1  0.921916  0.247409  0.449615  1
  S  S32  1  0.679535  0.016857  0.558388  1
  S  S33  1  0.110258  0.628222  0.291981  1
  S  S34  1  0.069529  0.334696  0.976102  1
  S  S35  1  0.078084  0.752591  0.550385  1
  S  S36  1  0.850854  0.849282  0.808302  1
  S  S37  1  0.820465  0.983143  0.058388  1
  S  S38  1  0.149146  0.150718  0.191698  1
  S  S39  1  0.179535  0.016857  0.941612  1
  S  S40  1  0.421916  0.247409  0.050385  1
  S  S41  1  0.928265  0.909969  0.331762  1
  S  S42  1  0.350854  0.849282  0.691698  1
  S  S43  1  0.930471  0.665304  0.023898  1
