# generated using pymatgen
data_Pr3Zr4UF28
_symmetry_space_group_name_H-M   'P 1'
_cell_length_a   5.93390124
_cell_length_b   9.47640382
_cell_length_c   12.68163835
_cell_angle_alpha   61.72317515
_cell_angle_beta   90.01238992
_cell_angle_gamma   89.93483328
_symmetry_Int_Tables_number   1
_chemical_formula_structural   Pr3Zr4UF28
_chemical_formula_sum   'Pr3 Zr4 U1 F28'
_cell_volume   628.01718278
_cell_formula_units_Z   1
loop_
 _symmetry_equiv_pos_site_id
 _symmetry_equiv_pos_as_xyz
  1  'x, y, z'
loop_
 _atom_site_type_symbol
 _atom_site_label
 _atom_site_symmetry_multiplicity
 _atom_site_fract_x
 _atom_site_fract_y
 _atom_site_fract_z
 _atom_site_occupancy
  Pr  Pr0  1  0.743450  0.813108  0.266271  1
  Pr  Pr1  1  0.243026  0.187380  0.233166  1
  Pr  Pr2  1  0.256459  0.189607  0.733708  1
  Zr  Zr3  1  0.745050  0.274880  0.454708  1
  Zr  Zr4  1  0.245680  0.725745  0.044842  1
  Zr  Zr5  1  0.255161  0.726294  0.544329  1
  Zr  Zr6  1  0.754829  0.274831  0.955307  1
  U  U7  1  0.757862  0.813424  0.766115  1
  F  F8  1  0.462419  0.713888  0.923589  1
  F  F9  1  0.960501  0.286302  0.576173  1
  F  F10  1  0.538531  0.287908  0.075839  1
  F  F11  1  0.037968  0.712373  0.424316  1
  F  F12  1  0.464259  0.281812  0.547471  1
  F  F13  1  0.963632  0.717233  0.952451  1
  F  F14  1  0.536503  0.717077  0.453077  1
  F  F15  1  0.036929  0.283780  0.046233  1
  F  F16  1  0.762218  0.518933  0.859662  1
  F  F17  1  0.264246  0.481352  0.639869  1
  F  F18  1  0.234104  0.481297  0.138887  1
  F  F19  1  0.734295  0.518368  0.360950  1
  F  F20  1  0.760437  0.030827  0.056473  1
  F  F21  1  0.261052  0.970155  0.444143  1
  F  F22  1  0.239089  0.969573  0.942803  1
  F  F23  1  0.739285  0.030187  0.557729  1
  F  F24  1  0.990071  0.733683  0.645631  1
  F  F25  1  0.491123  0.265864  0.854331  1
  F  F26  1  0.010360  0.266146  0.355332  1
  F  F27  1  0.510670  0.733028  0.145127  1
  F  F28  1  0.038095  0.744630  0.167722  1
  F  F29  1  0.539592  0.254568  0.332097  1
  F  F30  1  0.960364  0.255864  0.831395  1
  F  F31  1  0.463435  0.740949  0.669303  1
  F  F32  1  0.422462  0.970764  0.233823  1
  F  F33  1  0.923157  0.029503  0.266031  1
  F  F34  1  0.577770  0.027520  0.766724  1
  F  F35  1  0.075910  0.971151  0.734368  1
