# generated using pymatgen
data_Hf8Fe5Co2Si14Ni
_symmetry_space_group_name_H-M   'P 1'
_cell_length_a   9.44228671
_cell_length_b   9.42160490
_cell_length_c   9.41382788
_cell_angle_alpha   94.06360216
_cell_angle_beta   94.18075681
_cell_angle_gamma   148.92817445
_symmetry_Int_Tables_number   1
_chemical_formula_structural   Hf8Fe5Co2Si14Ni
_chemical_formula_sum   'Hf8 Fe5 Co2 Si14 Ni1'
_cell_volume   416.37023478
_cell_formula_units_Z   1
loop_
 _symmetry_equiv_pos_site_id
 _symmetry_equiv_pos_as_xyz
  1  'x, y, z'
loop_
 _atom_site_type_symbol
 _atom_site_label
 _atom_site_symmetry_multiplicity
 _atom_site_fract_x
 _atom_site_fract_y
 _atom_site_fract_z
 _atom_site_occupancy
  Hf  Hf0  1  0.138310  0.138302  0.276505  1
  Hf  Hf1  1  0.861726  0.861719  0.723546  1
  Hf  Hf2  1  0.136730  0.860800  0.999735  1
  Hf  Hf3  1  0.863022  0.138943  0.999757  1
  Hf  Hf4  1  0.307265  0.503744  0.803312  1
  Hf  Hf5  1  0.699322  0.503517  0.196306  1
  Hf  Hf6  1  0.496985  0.692791  0.196335  1
  Hf  Hf7  1  0.496083  0.299599  0.803344  1
  Fe  Fe8  1  0.395032  0.895041  0.790031  1
  Fe  Fe9  1  0.905056  0.102696  0.502340  1
  Fe  Fe10  1  0.597248  0.399626  0.502300  1
  Fe  Fe11  1  0.600803  0.100805  0.201642  1
  Fe  Fe12  1  0.901144  0.401161  0.802255  1
  Co  Co13  1  0.101179  0.891448  0.496891  1
  Co  Co14  1  0.395723  0.605429  0.496874  1
  Si  Si15  1  0.290174  0.290145  0.580466  1
  Si  Si16  1  0.710023  0.710005  0.419868  1
  Si  Si17  1  0.296755  0.716138  0.999283  1
  Si  Si18  1  0.702513  0.283114  0.999283  1
  Si  Si19  1  0.081684  0.490197  0.590624  1
  Si  Si20  1  0.878928  0.473704  0.410817  1
  Si  Si21  1  0.531954  0.937211  0.410851  1
  Si  Si22  1  0.508918  0.100443  0.590644  1
  Si  Si23  1  0.250084  0.249965  0.999916  1
  Si  Si24  1  0.749829  0.749941  0.999911  1
  Si  Si25  1  0.309474  0.010209  0.301443  1
  Si  Si26  1  0.705178  0.004579  0.698650  1
  Si  Si27  1  0.993452  0.694064  0.698612  1
  Si  Si28  1  0.991942  0.291179  0.301446  1
  Ni  Ni29  1  0.103460  0.603485  0.207014  1
