# generated using pymatgen
data_Lu3Hg5Ir
_symmetry_space_group_name_H-M   'P 1'
_cell_length_a   8.09316700
_cell_length_b   8.09316879
_cell_length_c   3.65181500
_cell_angle_alpha   90.00000000
_cell_angle_beta   90.00000000
_cell_angle_gamma   119.99999676
_symmetry_Int_Tables_number   1
_chemical_formula_structural   Lu3Hg5Ir
_chemical_formula_sum   'Lu3 Hg5 Ir1'
_cell_volume   207.14598225
_cell_formula_units_Z   1
loop_
 _symmetry_equiv_pos_site_id
 _symmetry_equiv_pos_as_xyz
  1  'x, y, z'
loop_
 _atom_site_type_symbol
 _atom_site_label
 _atom_site_symmetry_multiplicity
 _atom_site_fract_x
 _atom_site_fract_y
 _atom_site_fract_z
 _atom_site_occupancy
  Lu  Lu0  1  0.625561  0.046820  0.000000  1
  Lu  Lu1  1  0.953180  0.578742  0.000000  1
  Lu  Lu2  1  0.421258  0.374439  0.000000  1
  Hg  Hg3  1  0.284268  0.995956  0.500000  1
  Hg  Hg4  1  0.004044  0.288311  0.500000  1
  Hg  Hg5  1  0.711689  0.715732  0.500000  1
  Hg  Hg6  1  0.333333  0.666667  0.500000  1
  Hg  Hg7  1  0.000000  0.000000  0.000000  1
  Ir  Ir8  1  0.666667  0.333333  0.500000  1
