# generated using pymatgen
data_Ba3(InAs2)2
_symmetry_space_group_name_H-M   'P 1'
_cell_length_a   9.18080681
_cell_length_b   9.18080610
_cell_length_c   7.35699003
_cell_angle_alpha   90.21645379
_cell_angle_beta   90.21645583
_cell_angle_gamma   76.06290805
_symmetry_Int_Tables_number   1
_chemical_formula_structural   Ba3(InAs2)2
_chemical_formula_sum   'Ba6 In4 As8'
_cell_volume   601.83794410
_cell_formula_units_Z   2
loop_
 _symmetry_equiv_pos_site_id
 _symmetry_equiv_pos_as_xyz
  1  'x, y, z'
loop_
 _atom_site_type_symbol
 _atom_site_label
 _atom_site_symmetry_multiplicity
 _atom_site_fract_x
 _atom_site_fract_y
 _atom_site_fract_z
 _atom_site_occupancy
  Ba  Ba0  1  0.005081  0.747251  0.539844  1
  Ba  Ba1  1  0.252749  0.994919  0.960156  1
  Ba  Ba2  1  0.994919  0.252749  0.460156  1
  Ba  Ba3  1  0.747251  0.005081  0.039844  1
  Ba  Ba4  1  0.402559  0.597441  0.250000  1
  Ba  Ba5  1  0.597441  0.402559  0.750000  1
  In  In6  1  0.827458  0.581549  0.081796  1
  In  In7  1  0.418451  0.172542  0.418204  1
  In  In8  1  0.172542  0.418451  0.918204  1
  In  In9  1  0.581549  0.827458  0.581796  1
  As  As10  1  0.060604  0.713570  0.026045  1
  As  As11  1  0.286430  0.939396  0.473955  1
  As  As12  1  0.939396  0.286430  0.973955  1
  As  As13  1  0.713570  0.060604  0.526045  1
  As  As14  1  0.744033  0.569186  0.431873  1
  As  As15  1  0.430814  0.255967  0.068127  1
  As  As16  1  0.255967  0.430814  0.568127  1
  As  As17  1  0.569186  0.744033  0.931873  1
