# generated using pymatgen
data_Tc3Ru3Rh8
_symmetry_space_group_name_H-M   'P 1'
_cell_length_a   7.28405000
_cell_length_b   7.28406687
_cell_length_c   4.33059400
_cell_angle_alpha   90.00000000
_cell_angle_beta   90.00000000
_cell_angle_gamma   59.99893100
_symmetry_Int_Tables_number   1
_chemical_formula_structural   Tc3Ru3Rh8
_chemical_formula_sum   'Tc3 Ru3 Rh8'
_cell_volume   198.98496628
_cell_formula_units_Z   1
loop_
 _symmetry_equiv_pos_site_id
 _symmetry_equiv_pos_as_xyz
  1  'x, y, z'
loop_
 _atom_site_type_symbol
 _atom_site_label
 _atom_site_symmetry_multiplicity
 _atom_site_fract_x
 _atom_site_fract_y
 _atom_site_fract_z
 _atom_site_occupancy
  Tc  Tc0  1  0.526844  0.384992  0.500000  1
  Tc  Tc1  1  0.659584  0.669661  0.500000  1
  Tc  Tc2  1  0.242127  0.802498  0.500000  1
  Ru  Ru3  1  0.710773  0.435075  0.000000  1
  Ru  Ru4  1  0.292171  0.568490  0.000000  1
  Ru  Ru5  1  0.425610  0.853492  0.000000  1
  Rh  Rh6  1  0.572066  0.144284  0.000000  1
  Rh  Rh7  1  0.142858  0.285721  0.000000  1
  Rh  Rh8  1  0.855026  0.714942  0.000000  1
  Rh  Rh9  1  0.001397  0.997922  0.000000  1
  Rh  Rh10  1  0.381111  0.094012  0.500000  1
  Rh  Rh11  1  0.951183  0.239122  0.500000  1
  Rh  Rh12  1  0.096303  0.523979  0.500000  1
  Rh  Rh13  1  0.809506  0.952378  0.500000  1
