# generated using pymatgen
data_ZnCu5Au2
_symmetry_space_group_name_H-M   'P 1'
_cell_length_a   5.42495298
_cell_length_b   5.42495316
_cell_length_c   4.31173300
_cell_angle_alpha   90.00000000
_cell_angle_beta   90.00000000
_cell_angle_gamma   119.86113290
_symmetry_Int_Tables_number   1
_chemical_formula_structural   ZnCu5Au2
_chemical_formula_sum   'Zn1 Cu5 Au2'
_cell_volume   110.04757568
_cell_formula_units_Z   1
loop_
 _symmetry_equiv_pos_site_id
 _symmetry_equiv_pos_as_xyz
  1  'x, y, z'
loop_
 _atom_site_type_symbol
 _atom_site_label
 _atom_site_symmetry_multiplicity
 _atom_site_fract_x
 _atom_site_fract_y
 _atom_site_fract_z
 _atom_site_occupancy
  Zn  Zn0  1  0.838885  0.161115  0.750000  1
  Cu  Cu1  1  0.163466  0.322997  0.250000  1
  Cu  Cu2  1  0.677003  0.836534  0.250000  1
  Cu  Cu3  1  0.160860  0.839140  0.250000  1
  Cu  Cu4  1  0.839258  0.678478  0.750000  1
  Cu  Cu5  1  0.321522  0.160742  0.750000  1
  Au  Au6  1  0.333429  0.666571  0.750000  1
  Au  Au7  1  0.665576  0.334424  0.250000  1
