# generated using pymatgen
data_Y16Tl5InCoRh
_symmetry_space_group_name_H-M   'P 1'
_cell_length_a   10.41380200
_cell_length_b   10.40583566
_cell_length_c   7.16405601
_cell_angle_alpha   90.00549196
_cell_angle_beta   90.00000000
_cell_angle_gamma   120.02534063
_symmetry_Int_Tables_number   1
_chemical_formula_structural   Y16Tl5InCoRh
_chemical_formula_sum   'Y16 Tl5 In1 Co1 Rh1'
_cell_volume   672.14802550
_cell_formula_units_Z   1
loop_
 _symmetry_equiv_pos_site_id
 _symmetry_equiv_pos_as_xyz
  1  'x, y, z'
loop_
 _atom_site_type_symbol
 _atom_site_label
 _atom_site_symmetry_multiplicity
 _atom_site_fract_x
 _atom_site_fract_y
 _atom_site_fract_z
 _atom_site_occupancy
  Y  Y0  1  0.466541  0.535822  0.481117  1
  Y  Y1  1  0.069281  0.535822  0.481117  1
  Y  Y2  1  0.464730  0.929460  0.479569  1
  Y  Y3  1  0.538034  0.461782  0.979777  1
  Y  Y4  1  0.923748  0.461782  0.979777  1
  Y  Y5  1  0.538352  0.076704  0.980378  1
  Y  Y6  1  0.822660  0.178153  0.277666  1
  Y  Y7  1  0.355493  0.178153  0.277666  1
  Y  Y8  1  0.822229  0.644458  0.274999  1
  Y  Y9  1  0.176480  0.824769  0.780292  1
  Y  Y10  1  0.648289  0.824769  0.780292  1
  Y  Y11  1  0.175567  0.351134  0.779904  1
  Y  Y12  1  0.333175  0.666351  0.099031  1
  Y  Y13  1  0.666928  0.333855  0.587937  1
  Y  Y14  1  0.999020  0.998040  0.497602  1
  Y  Y15  1  0.999047  0.998094  0.998974  1
  Tl  Tl16  1  0.163006  0.837041  0.232596  1
  Tl  Tl17  1  0.674035  0.837041  0.232596  1
  Tl  Tl18  1  0.162974  0.325947  0.232584  1
  Tl  Tl19  1  0.836099  0.164108  0.729167  1
  Tl  Tl20  1  0.328010  0.164108  0.729167  1
  In  In21  1  0.836505  0.673009  0.731283  1
  Co  Co22  1  0.666485  0.332969  0.209547  1
  Rh  Rh23  1  0.333313  0.666628  0.711510  1
