# generated using pymatgen
data_HfTiBe9Tc
_symmetry_space_group_name_H-M   'P 1'
_cell_length_a   7.50511138
_cell_length_b   7.50511097
_cell_length_c   7.50511047
_cell_angle_alpha   34.66799219
_cell_angle_beta   34.66798436
_cell_angle_gamma   34.66798342
_symmetry_Int_Tables_number   1
_chemical_formula_structural   HfTiBe9Tc
_chemical_formula_sum   'Hf1 Ti1 Be9 Tc1'
_cell_volume   122.05885510
_cell_formula_units_Z   1
loop_
 _symmetry_equiv_pos_site_id
 _symmetry_equiv_pos_as_xyz
  1  'x, y, z'
loop_
 _atom_site_type_symbol
 _atom_site_label
 _atom_site_symmetry_multiplicity
 _atom_site_fract_x
 _atom_site_fract_y
 _atom_site_fract_z
 _atom_site_occupancy
  Hf  Hf0  1  0.996225  0.996225  0.996225  1
  Ti  Ti1  1  0.144477  0.144477  0.144477  1
  Be  Be2  1  0.414874  0.917832  0.414874  1
  Be  Be3  1  0.414874  0.414874  0.917832  1
  Be  Be4  1  0.917832  0.414874  0.414874  1
  Be  Be5  1  0.587635  0.077131  0.587635  1
  Be  Be6  1  0.587635  0.587635  0.077131  1
  Be  Be7  1  0.077131  0.587635  0.587635  1
  Be  Be8  1  0.667209  0.667209  0.667209  1
  Be  Be9  1  0.336025  0.336025  0.336025  1
  Be  Be10  1  0.500073  0.500073  0.500073  1
  Tc  Tc11  1  0.856011  0.856011  0.856011  1
