# generated using pymatgen
data_Na2LiPdAu2
_symmetry_space_group_name_H-M   'P 1'
_cell_length_a   5.56554454
_cell_length_b   5.59583985
_cell_length_c   8.59594000
_cell_angle_alpha   90.00000000
_cell_angle_beta   90.00000000
_cell_angle_gamma   120.18021920
_symmetry_Int_Tables_number   1
_chemical_formula_structural   Na2LiPdAu2
_chemical_formula_sum   'Na4 Li2 Pd2 Au4'
_cell_volume   231.42240142
_cell_formula_units_Z   2
loop_
 _symmetry_equiv_pos_site_id
 _symmetry_equiv_pos_as_xyz
  1  'x, y, z'
loop_
 _atom_site_type_symbol
 _atom_site_label
 _atom_site_symmetry_multiplicity
 _atom_site_fract_x
 _atom_site_fract_y
 _atom_site_fract_z
 _atom_site_occupancy
  Na  Na0  1  0.668665  0.337668  0.069214  1
  Na  Na1  1  0.331335  0.669005  0.930786  1
  Na  Na2  1  0.331335  0.669005  0.569214  1
  Na  Na3  1  0.668665  0.337668  0.430786  1
  Li  Li4  1  0.000000  0.987798  0.000000  1
  Li  Li5  1  0.000000  0.987798  0.500000  1
  Pd  Pd6  1  0.833443  0.667639  0.750000  1
  Pd  Pd7  1  0.166557  0.834197  0.250000  1
  Au  Au8  1  0.662725  0.832963  0.250000  1
  Au  Au9  1  0.337275  0.170237  0.750000  1
  Au  Au10  1  0.832374  0.169197  0.750000  1
  Au  Au11  1  0.167626  0.336824  0.250000  1
