# generated using pymatgen
data_CaAsPbI
_symmetry_space_group_name_H-M   'P 1'
_cell_length_a   8.47801288
_cell_length_b   8.47801239
_cell_length_c   8.47801294
_cell_angle_alpha   29.83936015
_cell_angle_beta   29.83936220
_cell_angle_gamma   29.83935931
_symmetry_Int_Tables_number   1
_chemical_formula_structural   CaAsPbI
_chemical_formula_sum   'Ca1 As1 Pb1 I1'
_cell_volume   133.60238024
_cell_formula_units_Z   1
loop_
 _symmetry_equiv_pos_site_id
 _symmetry_equiv_pos_as_xyz
  1  'x, y, z'
loop_
 _atom_site_type_symbol
 _atom_site_label
 _atom_site_symmetry_multiplicity
 _atom_site_fract_x
 _atom_site_fract_y
 _atom_site_fract_z
 _atom_site_occupancy
  Ca  Ca0  1  0.763238  0.763238  0.763238  1
  As  As1  1  0.496879  0.496879  0.496879  1
  Pb  Pb2  1  0.225504  0.225504  0.225504  1
  I  I3  1  0.014380  0.014380  0.014380  1
