# generated using pymatgen
data_Gd5Th(CoSi2)2
_symmetry_space_group_name_H-M   'P 1'
_cell_length_a   4.16712600
_cell_length_b   11.37427600
_cell_length_c   11.28813900
_cell_angle_alpha   90.00000000
_cell_angle_beta   90.00000000
_cell_angle_gamma   90.00000000
_symmetry_Int_Tables_number   1
_chemical_formula_structural   Gd5Th(CoSi2)2
_chemical_formula_sum   'Gd10 Th2 Co4 Si8'
_cell_volume   535.03567797
_cell_formula_units_Z   2
loop_
 _symmetry_equiv_pos_site_id
 _symmetry_equiv_pos_as_xyz
  1  'x, y, z'
loop_
 _atom_site_type_symbol
 _atom_site_label
 _atom_site_symmetry_multiplicity
 _atom_site_fract_x
 _atom_site_fract_y
 _atom_site_fract_z
 _atom_site_occupancy
  Gd  Gd0  1  0.750000  0.940654  0.117580  1
  Gd  Gd1  1  0.750000  0.559346  0.617580  1
  Gd  Gd2  1  0.250000  0.122153  0.558314  1
  Gd  Gd3  1  0.250000  0.377847  0.058314  1
  Gd  Gd4  1  0.750000  0.873977  0.440343  1
  Gd  Gd5  1  0.750000  0.626023  0.940343  1
  Gd  Gd6  1  0.250000  0.802966  0.713947  1
  Gd  Gd7  1  0.250000  0.697034  0.213947  1
  Gd  Gd8  1  0.750000  0.196304  0.286944  1
  Gd  Gd9  1  0.750000  0.303696  0.786944  1
  Th  Th10  1  0.250000  0.058689  0.885755  1
  Th  Th11  1  0.250000  0.441311  0.385755  1
  Co  Co12  1  0.250000  0.363336  0.626894  1
  Co  Co13  1  0.250000  0.136664  0.126894  1
  Co  Co14  1  0.750000  0.632986  0.370611  1
  Co  Co15  1  0.750000  0.867014  0.870611  1
  Si  Si16  1  0.250000  0.812063  0.972894  1
  Si  Si17  1  0.250000  0.687937  0.472894  1
  Si  Si18  1  0.750000  0.188814  0.031524  1
  Si  Si19  1  0.750000  0.311186  0.531524  1
  Si  Si20  1  0.250000  0.492471  0.799533  1
  Si  Si21  1  0.250000  0.007529  0.299533  1
  Si  Si22  1  0.750000  0.508686  0.195661  1
  Si  Si23  1  0.750000  0.991314  0.695661  1
