# generated using pymatgen
data_TbThSiPd14
_symmetry_space_group_name_H-M   'P 1'
_cell_length_a   8.99099700
_cell_length_b   8.99099700
_cell_length_c   7.08382100
_cell_angle_alpha   90.00000000
_cell_angle_beta   90.00000000
_cell_angle_gamma   90.00000000
_symmetry_Int_Tables_number   1
_chemical_formula_structural   TbThSiPd14
_chemical_formula_sum   'Tb2 Th2 Si2 Pd28'
_cell_volume   572.64211364
_cell_formula_units_Z   2
loop_
 _symmetry_equiv_pos_site_id
 _symmetry_equiv_pos_as_xyz
  1  'x, y, z'
loop_
 _atom_site_type_symbol
 _atom_site_label
 _atom_site_symmetry_multiplicity
 _atom_site_fract_x
 _atom_site_fract_y
 _atom_site_fract_z
 _atom_site_occupancy
  Tb  Tb0  1  0.500000  0.000000  0.932508  1
  Tb  Tb1  1  0.000000  0.500000  0.067492  1
  Th  Th2  1  0.000000  0.000000  0.500000  1
  Th  Th3  1  0.500000  0.500000  0.500000  1
  Si  Si4  1  0.500000  0.000000  0.448554  1
  Si  Si5  1  0.000000  0.500000  0.551446  1
  Pd  Pd6  1  0.335329  0.835329  0.614804  1
  Pd  Pd7  1  0.335329  0.164671  0.614804  1
  Pd  Pd8  1  0.664671  0.835329  0.614804  1
  Pd  Pd9  1  0.664671  0.164671  0.614804  1
  Pd  Pd10  1  0.164671  0.664671  0.385196  1
  Pd  Pd11  1  0.164671  0.335329  0.385196  1
  Pd  Pd12  1  0.835329  0.664671  0.385196  1
  Pd  Pd13  1  0.835329  0.335329  0.385196  1
  Pd  Pd14  1  0.500000  0.770868  0.256337  1
  Pd  Pd15  1  0.500000  0.229132  0.256337  1
  Pd  Pd16  1  0.270868  0.000000  0.256337  1
  Pd  Pd17  1  0.729132  0.000000  0.256337  1
  Pd  Pd18  1  0.000000  0.729132  0.743663  1
  Pd  Pd19  1  0.000000  0.270868  0.743663  1
  Pd  Pd20  1  0.229132  0.500000  0.743663  1
  Pd  Pd21  1  0.770868  0.500000  0.743663  1
  Pd  Pd22  1  0.500000  0.348951  0.852301  1
  Pd  Pd23  1  0.500000  0.651049  0.852301  1
  Pd  Pd24  1  0.848951  0.000000  0.852301  1
  Pd  Pd25  1  0.151049  0.000000  0.852301  1
  Pd  Pd26  1  0.000000  0.151049  0.147699  1
  Pd  Pd27  1  0.000000  0.848951  0.147699  1
  Pd  Pd28  1  0.651049  0.500000  0.147699  1
  Pd  Pd29  1  0.348951  0.500000  0.147699  1
  Pd  Pd30  1  0.250000  0.750000  0.000000  1
  Pd  Pd31  1  0.250000  0.250000  0.000000  1
  Pd  Pd32  1  0.750000  0.750000  0.000000  1
  Pd  Pd33  1  0.750000  0.250000  0.000000  1
