# generated using pymatgen
data_Yb6SmEr(Cu2Sn5)2
_symmetry_space_group_name_H-M   'P 1'
_cell_length_a   4.45702400
_cell_length_b   8.82743700
_cell_length_c   14.11520300
_cell_angle_alpha   90.00000000
_cell_angle_beta   90.00000000
_cell_angle_gamma   90.00000000
_symmetry_Int_Tables_number   1
_chemical_formula_structural   Yb6SmEr(Cu2Sn5)2
_chemical_formula_sum   'Yb6 Sm1 Er1 Cu4 Sn10'
_cell_volume   555.34993813
_cell_formula_units_Z   1
loop_
 _symmetry_equiv_pos_site_id
 _symmetry_equiv_pos_as_xyz
  1  'x, y, z'
loop_
 _atom_site_type_symbol
 _atom_site_label
 _atom_site_symmetry_multiplicity
 _atom_site_fract_x
 _atom_site_fract_y
 _atom_site_fract_z
 _atom_site_occupancy
  Yb  Yb0  1  0.500000  0.792634  0.742296  1
  Yb  Yb1  1  0.000000  0.207606  0.756099  1
  Yb  Yb2  1  0.000000  0.207606  0.243901  1
  Yb  Yb3  1  0.500000  0.141131  0.000000  1
  Yb  Yb4  1  0.000000  0.861945  0.500000  1
  Yb  Yb5  1  0.500000  0.792634  0.257704  1
  Sm  Sm6  1  0.500000  0.700286  0.000000  1
  Er  Er7  1  0.000000  0.299260  0.500000  1
  Cu  Cu8  1  0.500000  0.376897  0.643797  1
  Cu  Cu9  1  0.000000  0.622064  0.852386  1
  Cu  Cu10  1  0.000000  0.622064  0.147614  1
  Cu  Cu11  1  0.500000  0.376897  0.356203  1
  Sn  Sn12  1  0.500000  0.084707  0.396436  1
  Sn  Sn13  1  0.000000  0.553644  0.662028  1
  Sn  Sn14  1  0.000000  0.408967  0.000000  1
  Sn  Sn15  1  0.500000  0.444186  0.165144  1
  Sn  Sn16  1  0.500000  0.591408  0.500000  1
  Sn  Sn17  1  0.500000  0.444186  0.834856  1
  Sn  Sn18  1  0.000000  0.916764  0.895394  1
  Sn  Sn19  1  0.000000  0.553644  0.337972  1
  Sn  Sn20  1  0.500000  0.084707  0.603564  1
  Sn  Sn21  1  0.000000  0.916764  0.104606  1
