# generated using pymatgen
data_Ta12Al8V3CuN4
_symmetry_space_group_name_H-M   'P 1'
_cell_length_a   8.24157436
_cell_length_b   8.27949652
_cell_length_c   8.27986204
_cell_angle_alpha   60.00182923
_cell_angle_beta   59.84841969
_cell_angle_gamma   59.85464597
_symmetry_Int_Tables_number   1
_chemical_formula_structural   Ta12Al8V3CuN4
_chemical_formula_sum   'Ta12 Al8 V3 Cu1 N4'
_cell_volume   398.61160695
_cell_formula_units_Z   1
loop_
 _symmetry_equiv_pos_site_id
 _symmetry_equiv_pos_as_xyz
  1  'x, y, z'
loop_
 _atom_site_type_symbol
 _atom_site_label
 _atom_site_symmetry_multiplicity
 _atom_site_fract_x
 _atom_site_fract_y
 _atom_site_fract_z
 _atom_site_occupancy
  Ta  Ta0  1  0.553232  0.940766  0.565230  1
  Ta  Ta1  1  0.302661  0.696748  0.696970  1
  Ta  Ta2  1  0.696846  0.309205  0.309230  1
  Ta  Ta3  1  0.302617  0.696838  0.303599  1
  Ta  Ta4  1  0.696961  0.684723  0.309174  1
  Ta  Ta5  1  0.302738  0.303706  0.696834  1
  Ta  Ta6  1  0.553039  0.565277  0.940826  1
  Ta  Ta7  1  0.947339  0.553252  0.553030  1
  Ta  Ta8  1  0.553154  0.940795  0.940770  1
  Ta  Ta9  1  0.947262  0.946294  0.553166  1
  Ta  Ta10  1  0.696768  0.309234  0.684770  1
  Ta  Ta11  1  0.947383  0.553162  0.946401  1
  Al  Al12  1  0.907950  0.917944  0.918246  1
  Al  Al13  1  0.000224  0.333477  0.333114  1
  Al  Al14  1  0.342167  0.994006  0.331899  1
  Al  Al15  1  0.342039  0.332048  0.994142  1
  Al  Al16  1  0.907833  0.255994  0.918101  1
  Al  Al17  1  0.907961  0.917952  0.255858  1
  Al  Al18  1  0.249776  0.916523  0.916886  1
  Al  Al19  1  0.342050  0.332056  0.331754  1
  V  V20  1  0.125000  0.125000  0.125000  1
  V  V21  1  0.125000  0.625000  0.125000  1
  V  V22  1  0.125000  0.125000  0.625000  1
  Cu  Cu23  1  0.625000  0.125000  0.125000  1
  N  N24  1  0.625000  0.625000  0.625000  1
  N  N25  1  0.125000  0.625000  0.625000  1
  N  N26  1  0.625000  0.125000  0.625000  1
  N  N27  1  0.625000  0.625000  0.125000  1
