# generated using pymatgen
data_Ho5Er3B24Ir3Ru
_symmetry_space_group_name_H-M   'P 1'
_cell_length_a   3.63422500
_cell_length_b   9.16450415
_cell_length_c   11.48443602
_cell_angle_alpha   90.03207527
_cell_angle_beta   90.00000000
_cell_angle_gamma   90.00000000
_symmetry_Int_Tables_number   1
_chemical_formula_structural   Ho5Er3B24Ir3Ru
_chemical_formula_sum   'Ho5 Er3 B24 Ir3 Ru1'
_cell_volume   382.49907440
_cell_formula_units_Z   1
loop_
 _symmetry_equiv_pos_site_id
 _symmetry_equiv_pos_as_xyz
  1  'x, y, z'
loop_
 _atom_site_type_symbol
 _atom_site_label
 _atom_site_symmetry_multiplicity
 _atom_site_fract_x
 _atom_site_fract_y
 _atom_site_fract_z
 _atom_site_occupancy
  Ho  Ho0  1  0.000000  0.320942  0.413323  1
  Ho  Ho1  1  0.000000  0.680289  0.588180  1
  Ho  Ho2  1  0.000000  0.820999  0.084969  1
  Ho  Ho3  1  0.000000  0.177253  0.912927  1
  Ho  Ho4  1  0.000000  0.944283  0.373977  1
  Er  Er5  1  0.000000  0.054195  0.627175  1
  Er  Er6  1  0.000000  0.444359  0.125757  1
  Er  Er7  1  0.000000  0.557431  0.874112  1
  B  B8  1  0.500000  0.553749  0.434580  1
  B  B9  1  0.500000  0.446283  0.565749  1
  B  B10  1  0.500000  0.053518  0.065637  1
  B  B11  1  0.500000  0.945771  0.933464  1
  B  B12  1  0.500000  0.749628  0.421064  1
  B  B13  1  0.500000  0.250210  0.579212  1
  B  B14  1  0.500000  0.249672  0.079043  1
  B  B15  1  0.500000  0.751583  0.919966  1
  B  B16  1  0.500000  0.793046  0.264933  1
  B  B17  1  0.500000  0.206789  0.734354  1
  B  B18  1  0.500000  0.293886  0.234845  1
  B  B19  1  0.500000  0.707653  0.765971  1
  B  B20  1  0.500000  0.632033  0.183892  1
  B  B21  1  0.500000  0.367977  0.815991  1
  B  B22  1  0.500000  0.132821  0.315809  1
  B  B23  1  0.500000  0.868010  0.685264  1
  B  B24  1  0.500000  0.982072  0.213121  1
  B  B25  1  0.500000  0.016489  0.786406  1
  B  B26  1  0.500000  0.482042  0.286277  1
  B  B27  1  0.500000  0.517920  0.714080  1
  B  B28  1  0.500000  0.609821  0.030389  1
  B  B29  1  0.500000  0.389715  0.969882  1
  B  B30  1  0.500000  0.110521  0.469892  1
  B  B31  1  0.500000  0.889762  0.530189  1
  Ir  Ir32  1  0.000000  0.637643  0.321595  1
  Ir  Ir33  1  0.000000  0.361980  0.678783  1
  Ir  Ir34  1  0.000000  0.138137  0.178013  1
  Ru  Ru35  1  0.000000  0.861516  0.821179  1
