# generated using pymatgen
data_Tb2ErGaSn6
_symmetry_space_group_name_H-M   'P 1'
_cell_length_a   13.12689753
_cell_length_b   13.12689885
_cell_length_c   4.34172700
_cell_angle_alpha   90.00000000
_cell_angle_beta   90.00000000
_cell_angle_gamma   160.11878043
_symmetry_Int_Tables_number   1
_chemical_formula_structural   Tb2ErGaSn6
_chemical_formula_sum   'Tb2 Er1 Ga1 Sn6'
_cell_volume   254.42322797
_cell_formula_units_Z   1
loop_
 _symmetry_equiv_pos_site_id
 _symmetry_equiv_pos_as_xyz
  1  'x, y, z'
loop_
 _atom_site_type_symbol
 _atom_site_label
 _atom_site_symmetry_multiplicity
 _atom_site_fract_x
 _atom_site_fract_y
 _atom_site_fract_z
 _atom_site_occupancy
  Tb  Tb0  1  0.999817  0.000183  0.500000  1
  Tb  Tb1  1  0.689096  0.310904  0.000000  1
  Er  Er2  1  0.311147  0.688853  0.000000  1
  Ga  Ga3  1  0.499992  0.500008  0.000000  1
  Sn  Sn4  1  0.404717  0.595283  0.500000  1
  Sn  Sn5  1  0.594763  0.405237  0.500000  1
  Sn  Sn6  1  0.092797  0.907203  0.000000  1
  Sn  Sn7  1  0.906921  0.093079  0.000000  1
  Sn  Sn8  1  0.211311  0.788689  0.500000  1
  Sn  Sn9  1  0.789441  0.210559  0.500000  1
