# generated using pymatgen
data_Dy3Ho4ErPt4
_symmetry_space_group_name_H-M   'P 1'
_cell_length_a   4.76219400
_cell_length_b   7.13071007
_cell_length_c   8.76575700
_cell_angle_alpha   89.99170780
_cell_angle_beta   90.00000000
_cell_angle_gamma   90.00000000
_symmetry_Int_Tables_number   1
_chemical_formula_structural   Dy3Ho4ErPt4
_chemical_formula_sum   'Dy3 Ho4 Er1 Pt4'
_cell_volume   297.66603674
_cell_formula_units_Z   1
loop_
 _symmetry_equiv_pos_site_id
 _symmetry_equiv_pos_as_xyz
  1  'x, y, z'
loop_
 _atom_site_type_symbol
 _atom_site_label
 _atom_site_symmetry_multiplicity
 _atom_site_fract_x
 _atom_site_fract_y
 _atom_site_fract_z
 _atom_site_occupancy
  Dy  Dy0  1  0.250000  0.509685  0.170020  1
  Dy  Dy1  1  0.750000  0.990153  0.668833  1
  Dy  Dy2  1  0.750000  0.490045  0.830575  1
  Ho  Ho3  1  0.250000  0.144549  0.920551  1
  Ho  Ho4  1  0.250000  0.644493  0.579072  1
  Ho  Ho5  1  0.750000  0.855483  0.080203  1
  Ho  Ho6  1  0.250000  0.010594  0.331094  1
  Er  Er7  1  0.750000  0.355053  0.420476  1
  Pt  Pt8  1  0.250000  0.242143  0.591321  1
  Pt  Pt9  1  0.250000  0.741557  0.907570  1
  Pt  Pt10  1  0.750000  0.757993  0.407044  1
  Pt  Pt11  1  0.750000  0.258254  0.093240  1
