# generated using pymatgen
data_Dy16Ag3Ir4Pb
_symmetry_space_group_name_H-M   'P 1'
_cell_length_a   9.57081469
_cell_length_b   9.62362288
_cell_length_c   9.62362300
_cell_angle_alpha   59.99999614
_cell_angle_beta   59.81730601
_cell_angle_gamma   59.81730763
_symmetry_Int_Tables_number   1
_chemical_formula_structural   Dy16Ag3Ir4Pb
_chemical_formula_sum   'Dy16 Ag3 Ir4 Pb1'
_cell_volume   625.03781782
_cell_formula_units_Z   1
loop_
 _symmetry_equiv_pos_site_id
 _symmetry_equiv_pos_as_xyz
  1  'x, y, z'
loop_
 _atom_site_type_symbol
 _atom_site_label
 _atom_site_symmetry_multiplicity
 _atom_site_fract_x
 _atom_site_fract_y
 _atom_site_fract_z
 _atom_site_occupancy
  Dy  Dy0  1  0.600840  0.600105  0.600105  1
  Dy  Dy1  1  0.600840  0.600105  0.198951  1
  Dy  Dy2  1  0.600840  0.198951  0.600105  1
  Dy  Dy3  1  0.197140  0.600953  0.600953  1
  Dy  Dy4  1  0.062590  0.437508  0.437508  1
  Dy  Dy5  1  0.440332  0.060247  0.060247  1
  Dy  Dy6  1  0.440332  0.060247  0.439174  1
  Dy  Dy7  1  0.062590  0.437508  0.062394  1
  Dy  Dy8  1  0.440332  0.439174  0.060247  1
  Dy  Dy9  1  0.062590  0.062394  0.437508  1
  Dy  Dy10  1  0.179219  0.813176  0.813176  1
  Dy  Dy11  1  0.810893  0.188012  0.188012  1
  Dy  Dy12  1  0.810893  0.188012  0.813082  1
  Dy  Dy13  1  0.179219  0.813176  0.194429  1
  Dy  Dy14  1  0.810893  0.813082  0.188012  1
  Dy  Dy15  1  0.179219  0.194429  0.813176  1
  Ag  Ag16  1  0.837710  0.832054  0.832054  1
  Ag  Ag17  1  0.837710  0.832054  0.498183  1
  Ag  Ag18  1  0.837710  0.498183  0.832054  1
  Ir  Ir19  1  0.392243  0.392191  0.392191  1
  Ir  Ir20  1  0.392243  0.392191  0.823377  1
  Ir  Ir21  1  0.392243  0.823377  0.392191  1
  Ir  Ir22  1  0.822458  0.392515  0.392515  1
  Pb  Pb23  1  0.508922  0.830359  0.830359  1
