# generated using pymatgen
data_Li(PrP)2
_symmetry_space_group_name_H-M   'P 1'
_cell_length_a   4.19991600
_cell_length_b   4.19991691
_cell_length_c   14.72685700
_cell_angle_alpha   90.00000000
_cell_angle_beta   90.00000000
_cell_angle_gamma   119.99999284
_symmetry_Int_Tables_number   1
_chemical_formula_structural   Li(PrP)2
_chemical_formula_sum   'Li2 Pr4 P4'
_cell_volume   224.96866736
_cell_formula_units_Z   2
loop_
 _symmetry_equiv_pos_site_id
 _symmetry_equiv_pos_as_xyz
  1  'x, y, z'
loop_
 _atom_site_type_symbol
 _atom_site_label
 _atom_site_symmetry_multiplicity
 _atom_site_fract_x
 _atom_site_fract_y
 _atom_site_fract_z
 _atom_site_occupancy
  Li  Li0  1  0.000000  0.000000  0.250000  1
  Li  Li1  1  0.000000  0.000000  0.750000  1
  Pr  Pr2  1  0.333333  0.666667  0.110840  1
  Pr  Pr3  1  0.333333  0.666667  0.389160  1
  Pr  Pr4  1  0.666667  0.333332  0.610840  1
  Pr  Pr5  1  0.666667  0.333332  0.889160  1
  P  P6  1  0.000000  0.000000  0.000000  1
  P  P7  1  0.666667  0.333332  0.250000  1
  P  P8  1  0.000000  0.000000  0.500000  1
  P  P9  1  0.333333  0.666667  0.750000  1
