# generated using pymatgen
data_CeTmB6Mo
_symmetry_space_group_name_H-M   'P 1'
_cell_length_a   3.72386800
_cell_length_b   9.21657900
_cell_length_c   11.62329900
_cell_angle_alpha   90.00000000
_cell_angle_beta   90.00000000
_cell_angle_gamma   90.00000000
_symmetry_Int_Tables_number   1
_chemical_formula_structural   CeTmB6Mo
_chemical_formula_sum   'Ce4 Tm4 B24 Mo4'
_cell_volume   398.92700637
_cell_formula_units_Z   4
loop_
 _symmetry_equiv_pos_site_id
 _symmetry_equiv_pos_as_xyz
  1  'x, y, z'
loop_
 _atom_site_type_symbol
 _atom_site_label
 _atom_site_symmetry_multiplicity
 _atom_site_fract_x
 _atom_site_fract_y
 _atom_site_fract_z
 _atom_site_occupancy
  Ce  Ce0  1  0.000000  0.321690  0.414353  1
  Ce  Ce1  1  0.000000  0.678310  0.585647  1
  Ce  Ce2  1  0.000000  0.821690  0.085647  1
  Ce  Ce3  1  0.000000  0.178310  0.914353  1
  Tm  Tm4  1  0.000000  0.943772  0.370988  1
  Tm  Tm5  1  0.000000  0.056228  0.629012  1
  Tm  Tm6  1  0.000000  0.443772  0.129012  1
  Tm  Tm7  1  0.000000  0.556228  0.870988  1
  B  B8  1  0.500000  0.553657  0.432671  1
  B  B9  1  0.500000  0.446343  0.567329  1
  B  B10  1  0.500000  0.053657  0.067329  1
  B  B11  1  0.500000  0.946343  0.932671  1
  B  B12  1  0.500000  0.751448  0.418534  1
  B  B13  1  0.500000  0.248552  0.581466  1
  B  B14  1  0.500000  0.251448  0.081466  1
  B  B15  1  0.500000  0.748552  0.918534  1
  B  B16  1  0.500000  0.793836  0.264692  1
  B  B17  1  0.500000  0.206164  0.735308  1
  B  B18  1  0.500000  0.293836  0.235308  1
  B  B19  1  0.500000  0.706164  0.764692  1
  B  B20  1  0.500000  0.630587  0.184174  1
  B  B21  1  0.500000  0.369413  0.815826  1
  B  B22  1  0.500000  0.130587  0.315826  1
  B  B23  1  0.500000  0.869413  0.684174  1
  B  B24  1  0.500000  0.981622  0.213135  1
  B  B25  1  0.500000  0.018378  0.786865  1
  B  B26  1  0.500000  0.481622  0.286865  1
  B  B27  1  0.500000  0.518378  0.713135  1
  B  B28  1  0.500000  0.599505  0.027633  1
  B  B29  1  0.500000  0.400495  0.972367  1
  B  B30  1  0.500000  0.099505  0.472367  1
  B  B31  1  0.500000  0.900495  0.527633  1
  Mo  Mo32  1  0.000000  0.639788  0.320019  1
  Mo  Mo33  1  0.000000  0.360212  0.679981  1
  Mo  Mo34  1  0.000000  0.139788  0.179981  1
  Mo  Mo35  1  0.000000  0.860212  0.820019  1
