# generated using pymatgen
data_Ce5Tm(SnIr)6
_symmetry_space_group_name_H-M   'P 1'
_cell_length_a   7.48871614
_cell_length_b   7.49317467
_cell_length_c   8.09339100
_cell_angle_alpha   90.00000000
_cell_angle_beta   90.00000000
_cell_angle_gamma   120.04221671
_symmetry_Int_Tables_number   1
_chemical_formula_structural   Ce5Tm(SnIr)6
_chemical_formula_sum   'Ce5 Tm1 Sn6 Ir6'
_cell_volume   393.14202646
_cell_formula_units_Z   1
loop_
 _symmetry_equiv_pos_site_id
 _symmetry_equiv_pos_as_xyz
  1  'x, y, z'
loop_
 _atom_site_type_symbol
 _atom_site_label
 _atom_site_symmetry_multiplicity
 _atom_site_fract_x
 _atom_site_fract_y
 _atom_site_fract_z
 _atom_site_occupancy
  Ce  Ce0  1  0.411249  0.000418  0.250000  1
  Ce  Ce1  1  0.586120  0.585325  0.250000  1
  Ce  Ce2  1  0.997261  0.409900  0.250000  1
  Ce  Ce3  1  0.002052  0.414537  0.750000  1
  Ce  Ce4  1  0.413494  0.000057  0.750000  1
  Tm  Tm5  1  0.595842  0.596866  0.750000  1
  Sn  Sn6  1  0.257052  0.257144  0.503968  1
  Sn  Sn7  1  0.257052  0.257144  0.996032  1
  Sn  Sn8  1  0.745022  0.996770  0.999370  1
  Sn  Sn9  1  0.996971  0.745180  0.500717  1
  Sn  Sn10  1  0.745022  0.996770  0.500630  1
  Sn  Sn11  1  0.996971  0.745180  0.999283  1
  Ir  Ir12  1  0.667086  0.330203  0.503049  1
  Ir  Ir13  1  0.667086  0.330203  0.996951  1
  Ir  Ir14  1  0.330411  0.666680  0.000990  1
  Ir  Ir15  1  0.330411  0.666680  0.499010  1
  Ir  Ir16  1  0.000461  0.000511  0.750000  1
  Ir  Ir17  1  0.000433  0.000430  0.250000  1
