# generated using pymatgen
data_DySi3AsRh6
_symmetry_space_group_name_H-M   'P 1'
_cell_length_a   7.10546433
_cell_length_b   7.10546389
_cell_length_c   3.78466500
_cell_angle_alpha   90.00000000
_cell_angle_beta   90.00000000
_cell_angle_gamma   119.98039324
_symmetry_Int_Tables_number   1
_chemical_formula_structural   DySi3AsRh6
_chemical_formula_sum   'Dy1 Si3 As1 Rh6'
_cell_volume   165.51171772
_cell_formula_units_Z   1
loop_
 _symmetry_equiv_pos_site_id
 _symmetry_equiv_pos_as_xyz
  1  'x, y, z'
loop_
 _atom_site_type_symbol
 _atom_site_label
 _atom_site_symmetry_multiplicity
 _atom_site_fract_x
 _atom_site_fract_y
 _atom_site_fract_z
 _atom_site_occupancy
  Dy  Dy0  1  0.004806  0.995194  0.000000  1
  Si  Si1  1  0.799487  0.604543  0.500000  1
  Si  Si2  1  0.333302  0.666698  0.000000  1
  Si  Si3  1  0.395457  0.200513  0.500000  1
  As  As4  1  0.806996  0.193004  0.500000  1
  Rh  Rh5  1  0.523821  0.063785  0.000000  1
  Rh  Rh6  1  0.598772  0.795550  0.500000  1
  Rh  Rh7  1  0.204450  0.401228  0.500000  1
  Rh  Rh8  1  0.533665  0.466335  0.000000  1
  Rh  Rh9  1  0.196363  0.803637  0.500000  1
  Rh  Rh10  1  0.936215  0.476179  0.000000  1
