# generated using pymatgen
data_Tb7DySe12
_symmetry_space_group_name_H-M   'P 1'
_cell_length_a   7.14342820
_cell_length_b   7.13891112
_cell_length_c   13.02428865
_cell_angle_alpha   100.64916454
_cell_angle_beta   100.66311377
_cell_angle_gamma   108.97244297
_symmetry_Int_Tables_number   1
_chemical_formula_structural   Tb7DySe12
_chemical_formula_sum   'Tb7 Dy1 Se12'
_cell_volume   595.43531198
_cell_formula_units_Z   1
loop_
 _symmetry_equiv_pos_site_id
 _symmetry_equiv_pos_as_xyz
  1  'x, y, z'
loop_
 _atom_site_type_symbol
 _atom_site_label
 _atom_site_symmetry_multiplicity
 _atom_site_fract_x
 _atom_site_fract_y
 _atom_site_fract_z
 _atom_site_occupancy
  Tb  Tb0  1  0.041017  0.791006  0.081995  1
  Tb  Tb1  1  0.622294  0.872288  0.244558  1
  Tb  Tb2  1  0.127459  0.377454  0.254911  1
  Tb  Tb3  1  0.208915  0.958903  0.417840  1
  Tb  Tb4  1  0.791117  0.041135  0.582211  1
  Tb  Tb5  1  0.872505  0.622517  0.744997  1
  Tb  Tb6  1  0.377644  0.127653  0.755305  1
  Dy  Dy7  1  0.958822  0.208824  0.917658  1
  Se  Se8  1  0.805441  0.049194  0.087637  1
  Se  Se9  1  0.282135  0.538374  0.087654  1
  Se  Se10  1  0.366644  0.116550  0.250006  1
  Se  Se11  1  0.883361  0.633473  0.249996  1
  Se  Se12  1  0.951088  0.194701  0.411819  1
  Se  Se13  1  0.460790  0.717163  0.411793  1
  Se  Se14  1  0.539285  0.282930  0.588205  1
  Se  Se15  1  0.048852  0.805227  0.588186  1
  Se  Se16  1  0.116212  0.366211  0.750652  1
  Se  Se17  1  0.634471  0.884375  0.750666  1
  Se  Se18  1  0.717992  0.459649  0.911927  1
  Se  Se19  1  0.193953  0.952375  0.911982  1
