# generated using pymatgen
data_Pa2NiBRh5
_symmetry_space_group_name_H-M   'P 1'
_cell_length_a   5.79366651
_cell_length_b   5.79366620
_cell_length_c   5.84063200
_cell_angle_alpha   59.73147804
_cell_angle_beta   59.73147985
_cell_angle_gamma   60.53704515
_symmetry_Int_Tables_number   1
_chemical_formula_structural   Pa2NiBRh5
_chemical_formula_sum   'Pa2 Ni1 B1 Rh5'
_cell_volume   138.60990610
_cell_formula_units_Z   1
loop_
 _symmetry_equiv_pos_site_id
 _symmetry_equiv_pos_as_xyz
  1  'x, y, z'
loop_
 _atom_site_type_symbol
 _atom_site_label
 _atom_site_symmetry_multiplicity
 _atom_site_fract_x
 _atom_site_fract_y
 _atom_site_fract_z
 _atom_site_occupancy
  Pa  Pa0  1  0.748734  0.748734  0.751266  1
  Pa  Pa1  1  0.248734  0.248734  0.251266  1
  Ni  Ni2  1  0.757615  0.757615  0.242385  1
  B  B3  1  0.508653  0.508653  0.491347  1
  Rh  Rh4  1  0.753414  0.241754  0.246586  1
  Rh  Rh5  1  0.241754  0.753414  0.246586  1
  Rh  Rh6  1  0.245927  0.245927  0.754073  1
  Rh  Rh7  1  0.753414  0.241754  0.758246  1
  Rh  Rh8  1  0.241754  0.753414  0.758246  1
