# generated using pymatgen
data_Nd9ThSb9Te
_symmetry_space_group_name_H-M   'P 1'
_cell_length_a   7.82249230
_cell_length_b   9.08337576
_cell_length_c   10.07742094
_cell_angle_alpha   102.78609214
_cell_angle_beta   97.55962530
_cell_angle_gamma   106.90033262
_symmetry_Int_Tables_number   1
_chemical_formula_structural   Nd9ThSb9Te
_chemical_formula_sum   'Nd9 Th1 Sb9 Te1'
_cell_volume   653.24354535
_cell_formula_units_Z   1
loop_
 _symmetry_equiv_pos_site_id
 _symmetry_equiv_pos_as_xyz
  1  'x, y, z'
loop_
 _atom_site_type_symbol
 _atom_site_label
 _atom_site_symmetry_multiplicity
 _atom_site_fract_x
 _atom_site_fract_y
 _atom_site_fract_z
 _atom_site_occupancy
  Nd  Nd0  1  0.694762  0.151038  0.397849  1
  Nd  Nd1  1  0.500966  0.750892  0.001384  1
  Nd  Nd2  1  0.694716  0.644941  0.397799  1
  Nd  Nd3  1  0.303670  0.354155  0.600894  1
  Nd  Nd4  1  0.101321  0.949275  0.196371  1
  Nd  Nd5  1  0.500127  0.249796  0.000298  1
  Nd  Nd6  1  0.304533  0.848314  0.600094  1
  Nd  Nd7  1  0.099575  0.449847  0.200194  1
  Nd  Nd8  1  0.898891  0.051758  0.804878  1
  Th  Th9  1  0.901182  0.549800  0.800173  1
  Sb  Sb10  1  0.800007  0.600349  0.099790  1
  Sb  Sb11  1  0.600368  0.200638  0.700450  1
  Sb  Sb12  1  0.400988  0.800580  0.300522  1
  Sb  Sb13  1  0.800068  0.099938  0.101679  1
  Sb  Sb14  1  0.198676  0.399687  0.898539  1
  Sb  Sb15  1  0.603315  0.700857  0.700502  1
  Sb  Sb16  1  0.397902  0.298990  0.299700  1
  Sb  Sb17  1  0.198567  0.898810  0.897818  1
  Sb  Sb18  1  0.999973  0.500320  0.501171  1
  Te  Te19  1  0.000393  0.000016  0.499895  1
