# generated using pymatgen
data_Rb3Gd(IO3)6
_symmetry_space_group_name_H-M   'P 1'
_cell_length_a   7.27824509
_cell_length_b   7.28031740
_cell_length_c   11.10348669
_cell_angle_alpha   87.51407392
_cell_angle_beta   107.36909855
_cell_angle_gamma   107.85592422
_symmetry_Int_Tables_number   1
_chemical_formula_structural   Rb3Gd(IO3)6
_chemical_formula_sum   'Rb3 Gd1 I6 O18'
_cell_volume   533.72299300
_cell_formula_units_Z   1
loop_
 _symmetry_equiv_pos_site_id
 _symmetry_equiv_pos_as_xyz
  1  'x, y, z'
loop_
 _atom_site_type_symbol
 _atom_site_label
 _atom_site_symmetry_multiplicity
 _atom_site_fract_x
 _atom_site_fract_y
 _atom_site_fract_z
 _atom_site_occupancy
  Rb  Rb0  1  0.000000  0.000000  0.000000  1
  Rb  Rb1  1  0.831666  0.029725  0.601496  1
  Rb  Rb2  1  0.168334  0.970275  0.398504  1
  Gd  Gd3  1  0.500000  0.500000  0.000000  1
  I  I4  1  0.034318  0.475500  0.192779  1
  I  I5  1  0.965682  0.524500  0.807221  1
  I  I6  1  0.561825  0.963690  0.194784  1
  I  I7  1  0.438175  0.036310  0.805216  1
  I  I8  1  0.415029  0.554315  0.633027  1
  I  I9  1  0.584971  0.445685  0.366973  1
  O  O10  1  0.844524  0.541712  0.056614  1
  O  O11  1  0.155476  0.458288  0.943386  1
  O  O12  1  0.957604  0.549030  0.320155  1
  O  O13  1  0.042396  0.450970  0.679845  1
  O  O14  1  0.925238  0.211854  0.184339  1
  O  O15  1  0.074762  0.788146  0.815661  1
  O  O16  1  0.575124  0.824079  0.061884  1
  O  O17  1  0.424876  0.175921  0.938116  1
  O  O18  1  0.296329  0.853196  0.188293  1
  O  O19  1  0.703671  0.146804  0.811707  1
  O  O20  1  0.691605  0.846117  0.326888  1
  O  O21  1  0.308395  0.153883  0.673112  1
  O  O22  1  0.521034  0.598376  0.807153  1
  O  O23  1  0.478966  0.401624  0.192847  1
  O  O24  1  0.662086  0.572445  0.610656  1
  O  O25  1  0.337914  0.427555  0.389344  1
  O  O26  1  0.408253  0.799637  0.598503  1
  O  O27  1  0.591747  0.200363  0.401497  1
