# generated using pymatgen
data_Tb5EuHoPtI12
_symmetry_space_group_name_H-M   'P 1'
_cell_length_a   9.84226830
_cell_length_b   9.83487513
_cell_length_c   9.83833215
_cell_angle_alpha   106.58294839
_cell_angle_beta   106.62789428
_cell_angle_gamma   106.61306766
_symmetry_Int_Tables_number   1
_chemical_formula_structural   Tb5EuHoPtI12
_chemical_formula_sum   'Tb5 Eu1 Ho1 Pt1 I12'
_cell_volume   801.43624155
_cell_formula_units_Z   1
loop_
 _symmetry_equiv_pos_site_id
 _symmetry_equiv_pos_as_xyz
  1  'x, y, z'
loop_
 _atom_site_type_symbol
 _atom_site_label
 _atom_site_symmetry_multiplicity
 _atom_site_fract_x
 _atom_site_fract_y
 _atom_site_fract_z
 _atom_site_occupancy
  Tb  Tb0  1  0.402757  0.475797  0.199307  1
  Tb  Tb1  1  0.199425  0.403274  0.475592  1
  Tb  Tb2  1  0.475404  0.199092  0.402765  1
  Tb  Tb3  1  0.597251  0.524833  0.800874  1
  Tb  Tb4  1  0.800699  0.597567  0.524659  1
  Eu  Eu5  1  0.999959  0.999979  0.999996  1
  Ho  Ho6  1  0.524700  0.798613  0.596485  1
  Pt  Pt7  1  0.500093  0.500571  0.500190  1
  I  I8  1  0.045463  0.358849  0.124686  1
  I  I9  1  0.124780  0.045536  0.358835  1
  I  I10  1  0.358765  0.124717  0.045476  1
  I  I11  1  0.954539  0.641176  0.875294  1
  I  I12  1  0.874010  0.954548  0.641164  1
  I  I13  1  0.640672  0.875423  0.953035  1
  I  I14  1  0.723165  0.574005  0.177243  1
  I  I15  1  0.178506  0.723967  0.574233  1
  I  I16  1  0.573770  0.176097  0.722768  1
  I  I17  1  0.276850  0.426026  0.822745  1
  I  I18  1  0.822618  0.276854  0.426017  1
  I  I19  1  0.426578  0.823076  0.278635  1
