# generated using pymatgen
data_La9Pr7Cd4(IrPd)2
_symmetry_space_group_name_H-M   'P 1'
_cell_length_a   10.12331920
_cell_length_b   10.12331941
_cell_length_c   10.11005100
_cell_angle_alpha   60.04335067
_cell_angle_beta   60.04335000
_cell_angle_gamma   60.54391043
_symmetry_Int_Tables_number   1
_chemical_formula_structural   La9Pr7Cd4(IrPd)2
_chemical_formula_sum   'La9 Pr7 Cd4 Ir2 Pd2'
_cell_volume   736.07878718
_cell_formula_units_Z   1
loop_
 _symmetry_equiv_pos_site_id
 _symmetry_equiv_pos_as_xyz
  1  'x, y, z'
loop_
 _atom_site_type_symbol
 _atom_site_label
 _atom_site_symmetry_multiplicity
 _atom_site_fract_x
 _atom_site_fract_y
 _atom_site_fract_z
 _atom_site_occupancy
  La  La0  1  0.348733  0.348733  0.344719  1
  La  La1  1  0.348733  0.348733  0.957814  1
  La  La2  1  0.356778  0.949354  0.346933  1
  La  La3  1  0.949354  0.356778  0.346933  1
  La  La4  1  0.802494  0.191542  0.191405  1
  La  La5  1  0.191542  0.802494  0.814557  1
  La  La6  1  0.191542  0.802494  0.191405  1
  La  La7  1  0.802494  0.191542  0.814557  1
  La  La8  1  0.194338  0.194338  0.805662  1
  Pr  Pr9  1  0.807845  0.807845  0.192155  1
  Pr  Pr10  1  0.936760  0.567385  0.562419  1
  Pr  Pr11  1  0.567385  0.936760  0.933436  1
  Pr  Pr12  1  0.567385  0.936760  0.562419  1
  Pr  Pr13  1  0.936760  0.567385  0.933436  1
  Pr  Pr14  1  0.564476  0.564476  0.935524  1
  Pr  Pr15  1  0.936787  0.936787  0.563213  1
  Cd  Cd16  1  0.580970  0.580970  0.579583  1
  Cd  Cd17  1  0.580970  0.580970  0.258476  1
  Cd  Cd18  1  0.579443  0.259935  0.580311  1
  Cd  Cd19  1  0.259935  0.579443  0.580311  1
  Ir  Ir20  1  0.143549  0.572784  0.141834  1
  Ir  Ir21  1  0.572784  0.143549  0.141834  1
  Pd  Pd22  1  0.139469  0.139469  0.146906  1
  Pd  Pd23  1  0.139469  0.139469  0.574155  1
