# generated using pymatgen
data_YTm2Pa(Al3Rh)6
_symmetry_space_group_name_H-M   'P 1'
_cell_length_a   7.57527280
_cell_length_b   7.56814730
_cell_length_c   9.41944400
_cell_angle_alpha   90.00000000
_cell_angle_beta   90.00000000
_cell_angle_gamma   119.46745268
_symmetry_Int_Tables_number   1
_chemical_formula_structural   YTm2Pa(Al3Rh)6
_chemical_formula_sum   'Y1 Tm2 Pa1 Al18 Rh6'
_cell_volume   470.16401207
_cell_formula_units_Z   1
loop_
 _symmetry_equiv_pos_site_id
 _symmetry_equiv_pos_as_xyz
  1  'x, y, z'
loop_
 _atom_site_type_symbol
 _atom_site_label
 _atom_site_symmetry_multiplicity
 _atom_site_fract_x
 _atom_site_fract_y
 _atom_site_fract_z
 _atom_site_occupancy
  Y  Y0  1  0.673249  0.994362  0.250000  1
  Tm  Tm1  1  0.005348  0.328104  0.750000  1
  Tm  Tm2  1  0.327999  0.004599  0.750000  1
  Pa  Pa3  1  0.995429  0.672221  0.250000  1
  Al  Al4  1  0.132633  0.130619  0.250000  1
  Al  Al5  1  0.873703  0.874965  0.750000  1
  Al  Al6  1  0.001098  0.333671  0.074438  1
  Al  Al7  1  0.999697  0.664160  0.919820  1
  Al  Al8  1  0.999697  0.664160  0.580180  1
  Al  Al9  1  0.338351  0.003278  0.425283  1
  Al  Al10  1  0.001098  0.333671  0.425562  1
  Al  Al11  1  0.664518  0.000848  0.578080  1
  Al  Al12  1  0.664518  0.000848  0.921920  1
  Al  Al13  1  0.338351  0.003278  0.074717  1
  Al  Al14  1  0.331741  0.331876  0.555903  1
  Al  Al15  1  0.663696  0.665570  0.451647  1
  Al  Al16  1  0.663696  0.665570  0.048353  1
  Al  Al17  1  0.331741  0.331876  0.944097  1
  Al  Al18  1  0.338796  0.548088  0.250000  1
  Al  Al19  1  0.658778  0.447268  0.750000  1
  Al  Al20  1  0.548869  0.342949  0.250000  1
  Al  Al21  1  0.448619  0.660244  0.750000  1
  Rh  Rh22  1  0.673295  0.329110  0.001008  1
  Rh  Rh23  1  0.325853  0.671939  0.001082  1
  Rh  Rh24  1  0.325853  0.671939  0.498918  1
  Rh  Rh25  1  0.673295  0.329110  0.498992  1
  Rh  Rh26  1  0.000041  0.997839  0.001924  1
  Rh  Rh27  1  0.000041  0.997839  0.498076  1
