# generated using pymatgen
data_DyHo2In4CuIr
_symmetry_space_group_name_H-M   'P 1'
_cell_length_a   7.84198500
_cell_length_b   7.83716952
_cell_length_c   3.82719000
_cell_angle_alpha   90.00000000
_cell_angle_beta   90.00000000
_cell_angle_gamma   120.03044076
_symmetry_Int_Tables_number   1
_chemical_formula_structural   DyHo2In4CuIr
_chemical_formula_sum   'Dy1 Ho2 In4 Cu1 Ir1'
_cell_volume   203.63977342
_cell_formula_units_Z   1
loop_
 _symmetry_equiv_pos_site_id
 _symmetry_equiv_pos_as_xyz
  1  'x, y, z'
loop_
 _atom_site_type_symbol
 _atom_site_label
 _atom_site_symmetry_multiplicity
 _atom_site_fract_x
 _atom_site_fract_y
 _atom_site_fract_z
 _atom_site_occupancy
  Dy  Dy0  1  0.245358  0.947723  0.500000  1
  Ho  Ho1  1  0.051612  0.296907  0.500000  1
  Ho  Ho2  1  0.703379  0.755038  0.500000  1
  In  In3  1  0.666530  0.081456  0.000000  1
  In  In4  1  0.918677  0.585729  0.000000  1
  In  In5  1  0.414434  0.333820  0.000000  1
  In  In6  1  0.334595  0.667495  0.000000  1
  Cu  Cu7  1  0.666184  0.331571  0.500000  1
  Ir  Ir8  1  0.999230  0.000262  0.000000  1
