# generated using pymatgen
data_Pu2Al3Zn
_symmetry_space_group_name_H-M   'P 1'
_cell_length_a   5.44311067
_cell_length_b   5.44311057
_cell_length_c   5.44311084
_cell_angle_alpha   61.57415060
_cell_angle_beta   61.57415476
_cell_angle_gamma   61.57415739
_symmetry_Int_Tables_number   1
_chemical_formula_structural   Pu2Al3Zn
_chemical_formula_sum   'Pu2 Al3 Zn1'
_cell_volume   118.05923953
_cell_formula_units_Z   1
loop_
 _symmetry_equiv_pos_site_id
 _symmetry_equiv_pos_as_xyz
  1  'x, y, z'
loop_
 _atom_site_type_symbol
 _atom_site_label
 _atom_site_symmetry_multiplicity
 _atom_site_fract_x
 _atom_site_fract_y
 _atom_site_fract_z
 _atom_site_occupancy
  Pu  Pu0  1  0.618910  0.618910  0.618910  1
  Pu  Pu1  1  0.381090  0.381090  0.381090  1
  Al  Al2  1  0.000000  0.500000  0.000000  1
  Al  Al3  1  0.500000  0.000000  0.000000  1
  Al  Al4  1  0.000000  0.000000  0.500000  1
  Zn  Zn5  1  0.000000  0.000000  0.000000  1
