# generated using pymatgen
data_BN2Cl11
_symmetry_space_group_name_H-M   'P 1'
_cell_length_a   5.29628434
_cell_length_b   10.84182084
_cell_length_c   10.89905599
_cell_angle_alpha   79.91916435
_cell_angle_beta   85.20404025
_cell_angle_gamma   89.48880827
_symmetry_Int_Tables_number   1
_chemical_formula_structural   BN2Cl11
_chemical_formula_sum   'B1 N2 Cl11'
_cell_volume   614.00905561
_cell_formula_units_Z   1
loop_
 _symmetry_equiv_pos_site_id
 _symmetry_equiv_pos_as_xyz
  1  'x, y, z'
loop_
 _atom_site_type_symbol
 _atom_site_label
 _atom_site_symmetry_multiplicity
 _atom_site_fract_x
 _atom_site_fract_y
 _atom_site_fract_z
 _atom_site_occupancy
  B  B0  1  0.266947  0.402615  0.294846  1
  N  N1  1  0.025650  0.747555  0.466399  1
  N  N2  1  0.161477  0.827386  0.439693  1
  Cl  Cl3  1  0.106891  0.502485  0.183884  1
  Cl  Cl4  1  0.439121  0.464791  0.399747  1
  Cl  Cl5  1  0.479655  0.159477  0.963007  1
  Cl  Cl6  1  0.057319  0.615831  0.785098  1
  Cl  Cl7  1  0.403454  0.769223  0.902183  1
  Cl  Cl8  1  0.321214  0.239676  0.809338  1
  Cl  Cl9  1  0.796723  0.506757  0.731793  1
  Cl  Cl10  1  0.926360  0.875012  0.105226  1
  Cl  Cl11  1  0.558200  0.898733  0.764860  1
  Cl  Cl12  1  0.605187  0.862427  0.216960  1
  Cl  Cl13  1  0.253727  0.241149  0.300742  1
