# generated using pymatgen
data_La4TbPr5(Al2Ru3)2
_symmetry_space_group_name_H-M   'P 1'
_cell_length_a   8.53912726
_cell_length_b   8.61925297
_cell_length_c   8.68391683
_cell_angle_alpha   109.58403994
_cell_angle_beta   109.65182739
_cell_angle_gamma   109.13774142
_symmetry_Int_Tables_number   1
_chemical_formula_structural   La4TbPr5(Al2Ru3)2
_chemical_formula_sum   'La4 Tb1 Pr5 Al4 Ru6'
_cell_volume   492.24763272
_cell_formula_units_Z   1
loop_
 _symmetry_equiv_pos_site_id
 _symmetry_equiv_pos_as_xyz
  1  'x, y, z'
loop_
 _atom_site_type_symbol
 _atom_site_label
 _atom_site_symmetry_multiplicity
 _atom_site_fract_x
 _atom_site_fract_y
 _atom_site_fract_z
 _atom_site_occupancy
  La  La0  1  0.751289  0.811614  0.058331  1
  La  La1  1  0.440310  0.245166  0.686645  1
  La  La2  1  0.692245  0.439629  0.251538  1
  La  La3  1  0.062288  0.750761  0.807641  1
  Tb  Tb4  1  0.252469  0.684260  0.433614  1
  Pr  Pr5  1  0.811333  0.062227  0.747432  1
  Pr  Pr6  1  0.214164  0.219233  0.214594  1
  Pr  Pr7  1  0.496296  0.995455  0.281078  1
  Pr  Pr8  1  0.284658  0.497581  0.999305  1
  Pr  Pr9  1  0.006149  0.288861  0.505715  1
  Al  Al10  1  0.583897  0.587380  0.586935  1
  Al  Al11  1  0.501479  0.000730  0.908949  1
  Al  Al12  1  0.919667  0.503868  0.006105  1
  Al  Al13  1  0.997570  0.908623  0.496145  1
  Ru  Ru14  1  0.243466  0.112347  0.861203  1
  Ru  Ru15  1  0.749833  0.384068  0.640264  1
  Ru  Ru16  1  0.867345  0.262623  0.127847  1
  Ru  Ru17  1  0.108613  0.867316  0.248740  1
  Ru  Ru18  1  0.624254  0.736009  0.377959  1
  Ru  Ru19  1  0.392678  0.642248  0.759962  1
