# generated using pymatgen
data_Ho5TmAl24(Os3Rh)2
_symmetry_space_group_name_H-M   'P 1'
_cell_length_a   8.78081490
_cell_length_b   8.78081583
_cell_length_c   9.54379500
_cell_angle_alpha   90.00000000
_cell_angle_beta   90.00000000
_cell_angle_gamma   119.22240191
_symmetry_Int_Tables_number   1
_chemical_formula_structural   Ho5TmAl24(Os3Rh)2
_chemical_formula_sum   'Ho5 Tm1 Al24 Os6 Rh2'
_cell_volume   642.20151659
_cell_formula_units_Z   1
loop_
 _symmetry_equiv_pos_site_id
 _symmetry_equiv_pos_as_xyz
  1  'x, y, z'
loop_
 _atom_site_type_symbol
 _atom_site_label
 _atom_site_symmetry_multiplicity
 _atom_site_fract_x
 _atom_site_fract_y
 _atom_site_fract_z
 _atom_site_occupancy
  Ho  Ho0  1  0.185014  0.385814  0.250000  1
  Ho  Ho1  1  0.815006  0.614080  0.750000  1
  Ho  Ho2  1  0.614186  0.814986  0.250000  1
  Ho  Ho3  1  0.385920  0.184994  0.750000  1
  Ho  Ho4  1  0.194224  0.805776  0.250000  1
  Tm  Tm5  1  0.805043  0.194957  0.750000  1
  Al  Al6  1  0.332723  0.667277  0.022205  1
  Al  Al7  1  0.667470  0.332530  0.977338  1
  Al  Al8  1  0.667470  0.332530  0.522662  1
  Al  Al9  1  0.332723  0.667277  0.477795  1
  Al  Al10  1  0.162224  0.324315  0.577335  1
  Al  Al11  1  0.837453  0.675357  0.423036  1
  Al  Al12  1  0.675685  0.837776  0.577335  1
  Al  Al13  1  0.837453  0.675357  0.076964  1
  Al  Al14  1  0.324643  0.162547  0.423036  1
  Al  Al15  1  0.162224  0.324315  0.922665  1
  Al  Al16  1  0.164523  0.835477  0.575415  1
  Al  Al17  1  0.324643  0.162547  0.076964  1
  Al  Al18  1  0.835571  0.164429  0.425176  1
  Al  Al19  1  0.675685  0.837776  0.922665  1
  Al  Al20  1  0.835571  0.164429  0.074824  1
  Al  Al21  1  0.164523  0.835477  0.924585  1
  Al  Al22  1  0.560060  0.124653  0.250000  1
  Al  Al23  1  0.440524  0.875624  0.750000  1
  Al  Al24  1  0.875347  0.439940  0.250000  1
  Al  Al25  1  0.124376  0.559476  0.750000  1
  Al  Al26  1  0.558842  0.441158  0.250000  1
  Al  Al27  1  0.441145  0.558855  0.750000  1
  Al  Al28  1  0.998488  0.001512  0.250000  1
  Al  Al29  1  0.001003  0.998997  0.750000  1
  Os  Os30  1  0.500325  0.000133  0.999823  1
  Os  Os31  1  0.999867  0.499675  0.999823  1
  Os  Os32  1  0.500325  0.000133  0.500177  1
  Os  Os33  1  0.999867  0.499675  0.500177  1
  Os  Os34  1  0.999969  0.000031  0.999938  1
  Os  Os35  1  0.999969  0.000031  0.500062  1
  Rh  Rh36  1  0.499957  0.500043  0.000004  1
  Rh  Rh37  1  0.499957  0.500043  0.499996  1
