# generated using pymatgen
data_Tb16In2Hg2Pt3Rh
_symmetry_space_group_name_H-M   'P 1'
_cell_length_a   9.71926307
_cell_length_b   9.71297807
_cell_length_c   9.69631400
_cell_angle_alpha   60.05673704
_cell_angle_beta   60.07807699
_cell_angle_gamma   60.06593121
_symmetry_Int_Tables_number   1
_chemical_formula_structural   Tb16In2Hg2Pt3Rh
_chemical_formula_sum   'Tb16 In2 Hg2 Pt3 Rh1'
_cell_volume   648.23950336
_cell_formula_units_Z   1
loop_
 _symmetry_equiv_pos_site_id
 _symmetry_equiv_pos_as_xyz
  1  'x, y, z'
loop_
 _atom_site_type_symbol
 _atom_site_label
 _atom_site_symmetry_multiplicity
 _atom_site_fract_x
 _atom_site_fract_y
 _atom_site_fract_z
 _atom_site_occupancy
  Tb  Tb0  1  0.808525  0.808356  0.191559  1
  Tb  Tb1  1  0.810610  0.190806  0.807636  1
  Tb  Tb2  1  0.192605  0.186191  0.810602  1
  Tb  Tb3  1  0.643625  0.057507  0.649434  1
  Tb  Tb4  1  0.063151  0.063823  0.436513  1
  Tb  Tb5  1  0.435924  0.437040  0.063518  1
  Tb  Tb6  1  0.645640  0.650110  0.651754  1
  Tb  Tb7  1  0.810610  0.190806  0.190948  1
  Tb  Tb8  1  0.193029  0.811137  0.808551  1
  Tb  Tb9  1  0.061450  0.645377  0.646586  1
  Tb  Tb10  1  0.437169  0.065272  0.061595  1
  Tb  Tb11  1  0.437169  0.065272  0.435963  1
  Tb  Tb12  1  0.064939  0.438152  0.061164  1
  Tb  Tb13  1  0.645640  0.650110  0.052496  1
  Tb  Tb14  1  0.193029  0.811137  0.187283  1
  Tb  Tb15  1  0.064939  0.438152  0.435745  1
  In  In16  1  0.418356  0.744302  0.418671  1
  In  In17  1  0.744096  0.417706  0.419099  1
  Hg  Hg18  1  0.414286  0.414032  0.412637  1
  Hg  Hg19  1  0.414286  0.414032  0.759043  1
  Pt  Pt20  1  0.857887  0.429586  0.856264  1
  Pt  Pt21  1  0.857510  0.856400  0.855248  1
  Pt  Pt22  1  0.857510  0.856400  0.430843  1
  Rh  Rh23  1  0.428015  0.858290  0.856848  1
