# generated using pymatgen
data_KRb3(ThTe3)2
_symmetry_space_group_name_H-M   'P 1'
_cell_length_a   8.27284523
_cell_length_b   8.27284522
_cell_length_c   8.99165598
_cell_angle_alpha   81.08398350
_cell_angle_beta   81.08398768
_cell_angle_gamma   120.00004852
_symmetry_Int_Tables_number   1
_chemical_formula_structural   KRb3(ThTe3)2
_chemical_formula_sum   'K1 Rb3 Th2 Te6'
_cell_volume   506.69203286
_cell_formula_units_Z   1
loop_
 _symmetry_equiv_pos_site_id
 _symmetry_equiv_pos_as_xyz
  1  'x, y, z'
loop_
 _atom_site_type_symbol
 _atom_site_label
 _atom_site_symmetry_multiplicity
 _atom_site_fract_x
 _atom_site_fract_y
 _atom_site_fract_z
 _atom_site_occupancy
  K  K0  1  0.500000  0.500000  0.000000  1
  Rb  Rb1  1  0.657259  0.342741  0.500000  1
  Rb  Rb2  1  0.342741  0.657259  0.500000  1
  Rb  Rb3  1  0.000000  0.000000  0.500000  1
  Th  Th4  1  0.832413  0.167587  0.000000  1
  Th  Th5  1  0.167587  0.832413  0.000000  1
  Te  Te6  1  0.797336  0.797336  0.204154  1
  Te  Te7  1  0.202664  0.202664  0.795846  1
  Te  Te8  1  0.429991  0.063192  0.207328  1
  Te  Te9  1  0.570009  0.936808  0.792672  1
  Te  Te10  1  0.936808  0.570009  0.792672  1
  Te  Te11  1  0.063192  0.429991  0.207328  1
