# generated using pymatgen
data_Yb7Lu(Si3Pd)4
_symmetry_space_group_name_H-M   'P 1'
_cell_length_a   8.25125200
_cell_length_b   8.25125077
_cell_length_c   8.16210500
_cell_angle_alpha   90.00000000
_cell_angle_beta   90.00000000
_cell_angle_gamma   119.99999692
_symmetry_Int_Tables_number   1
_chemical_formula_structural   Yb7Lu(Si3Pd)4
_chemical_formula_sum   'Yb7 Lu1 Si12 Pd4'
_cell_volume   481.25190293
_cell_formula_units_Z   1
loop_
 _symmetry_equiv_pos_site_id
 _symmetry_equiv_pos_as_xyz
  1  'x, y, z'
loop_
 _atom_site_type_symbol
 _atom_site_label
 _atom_site_symmetry_multiplicity
 _atom_site_fract_x
 _atom_site_fract_y
 _atom_site_fract_z
 _atom_site_occupancy
  Yb  Yb0  1  0.501903  0.003806  0.250000  1
  Yb  Yb1  1  0.498025  0.996050  0.750000  1
  Yb  Yb2  1  0.996194  0.498097  0.250000  1
  Yb  Yb3  1  0.003950  0.501975  0.750000  1
  Yb  Yb4  1  0.501903  0.498097  0.250000  1
  Yb  Yb5  1  0.498025  0.501975  0.750000  1
  Yb  Yb6  1  0.000000  0.000000  0.250000  1
  Lu  Lu7  1  0.000000  0.000000  0.750000  1
  Si  Si8  1  0.163902  0.327805  0.997929  1
  Si  Si9  1  0.836155  0.672312  0.995037  1
  Si  Si10  1  0.672195  0.836098  0.997929  1
  Si  Si11  1  0.836155  0.672312  0.504963  1
  Si  Si12  1  0.327688  0.163845  0.995037  1
  Si  Si13  1  0.163902  0.327805  0.502071  1
  Si  Si14  1  0.163902  0.836098  0.997929  1
  Si  Si15  1  0.327688  0.163845  0.504963  1
  Si  Si16  1  0.836155  0.163845  0.995037  1
  Si  Si17  1  0.672195  0.836098  0.502071  1
  Si  Si18  1  0.836155  0.163845  0.504963  1
  Si  Si19  1  0.163902  0.836098  0.502071  1
  Pd  Pd20  1  0.333333  0.666667  0.004513  1
  Pd  Pd21  1  0.666667  0.333333  0.996017  1
  Pd  Pd22  1  0.666667  0.333333  0.503983  1
  Pd  Pd23  1  0.333333  0.666667  0.495487  1
