# generated using pymatgen
data_Y2Er(ThSn2)2
_symmetry_space_group_name_H-M   'P 1'
_cell_length_a   8.12325200
_cell_length_b   8.22579600
_cell_length_c   15.55971300
_cell_angle_alpha   90.00000000
_cell_angle_beta   90.00000000
_cell_angle_gamma   90.00000000
_symmetry_Int_Tables_number   1
_chemical_formula_structural   Y2Er(ThSn2)2
_chemical_formula_sum   'Y8 Er4 Th8 Sn16'
_cell_volume   1039.70334946
_cell_formula_units_Z   4
loop_
 _symmetry_equiv_pos_site_id
 _symmetry_equiv_pos_as_xyz
  1  'x, y, z'
loop_
 _atom_site_type_symbol
 _atom_site_label
 _atom_site_symmetry_multiplicity
 _atom_site_fract_x
 _atom_site_fract_y
 _atom_site_fract_z
 _atom_site_occupancy
  Y  Y0  1  0.363175  0.836841  0.876219  1
  Y  Y1  1  0.863175  0.663159  0.623781  1
  Y  Y2  1  0.636825  0.163159  0.376219  1
  Y  Y3  1  0.136825  0.336841  0.123781  1
  Y  Y4  1  0.636825  0.163159  0.123781  1
  Y  Y5  1  0.136825  0.336841  0.376219  1
  Y  Y6  1  0.363175  0.836841  0.623781  1
  Y  Y7  1  0.863175  0.663159  0.876219  1
  Er  Er8  1  0.192205  0.497829  0.750000  1
  Er  Er9  1  0.692205  0.002171  0.750000  1
  Er  Er10  1  0.807795  0.502171  0.250000  1
  Er  Er11  1  0.307795  0.997829  0.250000  1
  Th  Th12  1  0.519600  0.320392  0.903343  1
  Th  Th13  1  0.019600  0.179608  0.596657  1
  Th  Th14  1  0.480400  0.679608  0.403343  1
  Th  Th15  1  0.980400  0.820392  0.096657  1
  Th  Th16  1  0.480400  0.679608  0.096657  1
  Th  Th17  1  0.980400  0.820392  0.403343  1
  Th  Th18  1  0.519600  0.320392  0.596657  1
  Th  Th19  1  0.019600  0.179608  0.903343  1
  Sn  Sn20  1  0.296807  0.038742  0.042437  1
  Sn  Sn21  1  0.796807  0.461258  0.457563  1
  Sn  Sn22  1  0.703193  0.961258  0.542437  1
  Sn  Sn23  1  0.203193  0.538742  0.957563  1
  Sn  Sn24  1  0.703193  0.961258  0.957563  1
  Sn  Sn25  1  0.203193  0.538742  0.542437  1
  Sn  Sn26  1  0.296807  0.038742  0.457563  1
  Sn  Sn27  1  0.796807  0.461258  0.042437  1
  Sn  Sn28  1  0.558705  0.621968  0.750000  1
  Sn  Sn29  1  0.058705  0.878032  0.750000  1
  Sn  Sn30  1  0.441295  0.378032  0.250000  1
  Sn  Sn31  1  0.941295  0.121968  0.250000  1
  Sn  Sn32  1  0.325979  0.142773  0.750000  1
  Sn  Sn33  1  0.825979  0.357227  0.750000  1
  Sn  Sn34  1  0.674021  0.857227  0.250000  1
  Sn  Sn35  1  0.174021  0.642773  0.250000  1
