# generated using pymatgen
data_CaEr5Fe2(Si4Ru)6
_symmetry_space_group_name_H-M   'P 1'
_cell_length_a   10.05605132
_cell_length_b   10.05605093
_cell_length_c   8.06926040
_cell_angle_alpha   89.90222902
_cell_angle_beta   90.09778338
_cell_angle_gamma   132.64885954
_symmetry_Int_Tables_number   1
_chemical_formula_structural   CaEr5Fe2(Si4Ru)6
_chemical_formula_sum   'Ca1 Er5 Fe2 Si24 Ru6'
_cell_volume   600.18090820
_cell_formula_units_Z   1
loop_
 _symmetry_equiv_pos_site_id
 _symmetry_equiv_pos_as_xyz
  1  'x, y, z'
loop_
 _atom_site_type_symbol
 _atom_site_label
 _atom_site_symmetry_multiplicity
 _atom_site_fract_x
 _atom_site_fract_y
 _atom_site_fract_z
 _atom_site_occupancy
  Ca  Ca0  1  0.497093  0.997093  0.250000  1
  Er  Er1  1  0.001722  0.501722  0.750000  1
  Er  Er2  1  0.503539  0.003539  0.750000  1
  Er  Er3  1  0.996475  0.496475  0.250000  1
  Er  Er4  1  0.502084  0.501968  0.499108  1
  Er  Er5  1  0.001968  0.002084  0.000892  1
  Fe  Fe6  1  0.624334  0.624831  0.871581  1
  Fe  Fe7  1  0.124831  0.124334  0.628419  1
  Si  Si8  1  0.387695  0.154316  0.001888  1
  Si  Si9  1  0.654316  0.887695  0.498112  1
  Si  Si10  1  0.114241  0.341274  0.510656  1
  Si  Si11  1  0.841274  0.614241  0.989344  1
  Si  Si12  1  0.614982  0.842531  0.987466  1
  Si  Si13  1  0.342531  0.114982  0.512534  1
  Si  Si14  1  0.887300  0.655079  0.493981  1
  Si  Si15  1  0.155079  0.387300  0.006019  1
  Si  Si16  1  0.612595  0.378414  0.228285  1
  Si  Si17  1  0.878414  0.112595  0.271715  1
  Si  Si18  1  0.895865  0.123075  0.727723  1
  Si  Si19  1  0.623075  0.395865  0.772277  1
  Si  Si20  1  0.396962  0.623206  0.771576  1
  Si  Si21  1  0.123206  0.896962  0.728424  1
  Si  Si22  1  0.704224  0.294662  0.000323  1
  Si  Si23  1  0.794662  0.204224  0.499677  1
  Si  Si24  1  0.296095  0.704693  0.999069  1
  Si  Si25  1  0.204693  0.796095  0.500931  1
  Si  Si26  1  0.166014  0.167626  0.340710  1
  Si  Si27  1  0.667626  0.666014  0.159290  1
  Si  Si28  1  0.333703  0.331414  0.825977  1
  Si  Si29  1  0.831414  0.833703  0.674023  1
  Si  Si30  1  0.373476  0.607200  0.229304  1
  Si  Si31  1  0.107200  0.873476  0.270696  1
  Ru  Ru32  1  0.871488  0.872091  0.374875  1
  Ru  Ru33  1  0.372091  0.371488  0.125125  1
  Ru  Ru34  1  0.327806  0.667114  0.503169  1
  Ru  Ru35  1  0.167114  0.827806  0.996831  1
  Ru  Ru36  1  0.670562  0.332251  0.503792  1
  Ru  Ru37  1  0.832251  0.170562  0.996208  1
