# generated using pymatgen
data_Tb15Th(InIr)4
_symmetry_space_group_name_H-M   'P 1'
_cell_length_a   9.73937064
_cell_length_b   9.75666642
_cell_length_c   9.73937000
_cell_angle_alpha   60.05861900
_cell_angle_beta   59.99999539
_cell_angle_gamma   60.05862054
_symmetry_Int_Tables_number   1
_chemical_formula_structural   Tb15Th(InIr)4
_chemical_formula_sum   'Tb15 Th1 In4 Ir4'
_cell_volume   654.98663160
_cell_formula_units_Z   1
loop_
 _symmetry_equiv_pos_site_id
 _symmetry_equiv_pos_as_xyz
  1  'x, y, z'
loop_
 _atom_site_type_symbol
 _atom_site_label
 _atom_site_symmetry_multiplicity
 _atom_site_fract_x
 _atom_site_fract_y
 _atom_site_fract_z
 _atom_site_occupancy
  Tb  Tb0  1  0.941207  0.939754  0.559520  1
  Tb  Tb1  1  0.939484  0.558973  0.939484  1
  Tb  Tb2  1  0.310985  0.689752  0.310985  1
  Tb  Tb3  1  0.939484  0.558973  0.562059  1
  Tb  Tb4  1  0.310599  0.309456  0.689973  1
  Tb  Tb5  1  0.099391  0.099846  0.099391  1
  Tb  Tb6  1  0.562059  0.558973  0.939484  1
  Tb  Tb7  1  0.099391  0.099846  0.701373  1
  Tb  Tb8  1  0.689973  0.309456  0.689973  1
  Tb  Tb9  1  0.688278  0.689752  0.310985  1
  Tb  Tb10  1  0.689973  0.309456  0.310599  1
  Tb  Tb11  1  0.310985  0.689752  0.688278  1
  Tb  Tb12  1  0.559520  0.939754  0.559520  1
  Tb  Tb13  1  0.701373  0.099846  0.099391  1
  Tb  Tb14  1  0.559520  0.939754  0.941207  1
  Th  Th15  1  0.096300  0.711101  0.096300  1
  In  In16  1  0.333142  0.332978  0.333142  1
  In  In17  1  0.000738  0.332978  0.333142  1
  In  In18  1  0.333596  0.999210  0.333596  1
  In  In19  1  0.333142  0.332978  0.000738  1
  Ir  Ir20  1  0.892549  0.891014  0.892549  1
  Ir  Ir21  1  0.892549  0.891014  0.323887  1
  Ir  Ir22  1  0.323887  0.891014  0.892549  1
  Ir  Ir23  1  0.891877  0.324370  0.891877  1
