# generated using pymatgen
data_LaNdBe(Co3P2)3
_symmetry_space_group_name_H-M   'P 1'
_cell_length_a   6.01108559
_cell_length_b   6.01108424
_cell_length_c   11.30010506
_cell_angle_alpha   91.05481682
_cell_angle_beta   88.94518290
_cell_angle_gamma   145.02687663
_symmetry_Int_Tables_number   1
_chemical_formula_structural   LaNdBe(Co3P2)3
_chemical_formula_sum   'La1 Nd1 Be1 Co9 P6'
_cell_volume   233.99550305
_cell_formula_units_Z   1
loop_
 _symmetry_equiv_pos_site_id
 _symmetry_equiv_pos_as_xyz
  1  'x, y, z'
loop_
 _atom_site_type_symbol
 _atom_site_label
 _atom_site_symmetry_multiplicity
 _atom_site_fract_x
 _atom_site_fract_y
 _atom_site_fract_z
 _atom_site_occupancy
  La  La0  1  0.666102  0.333898  0.753688  1
  Nd  Nd1  1  0.334716  0.665284  0.246443  1
  Be  Be2  1  0.500343  0.499657  0.499927  1
  Co  Co3  1  0.050859  0.949141  0.146735  1
  Co  Co4  1  0.046406  0.953594  0.365845  1
  Co  Co5  1  0.688981  0.311019  0.436941  1
  Co  Co6  1  0.311213  0.688787  0.560399  1
  Co  Co7  1  0.303059  0.696941  0.931966  1
  Co  Co8  1  0.697278  0.302722  0.070265  1
  Co  Co9  1  0.499954  0.500046  0.000750  1
  Co  Co10  1  0.952654  0.047346  0.632997  1
  Co  Co11  1  0.948323  0.051677  0.854359  1
  P  P12  1  0.606918  0.393082  0.252014  1
  P  P13  1  0.393481  0.606519  0.747870  1
  P  P14  1  0.124056  0.875944  0.540790  1
  P  P15  1  0.875731  0.124269  0.457115  1
  P  P16  1  0.882405  0.117595  0.038181  1
  P  P17  1  0.117521  0.882479  0.963717  1
