# generated using pymatgen
data_Er2MoOs3
_symmetry_space_group_name_H-M   'P 1'
_cell_length_a   5.45104100
_cell_length_b   5.45104126
_cell_length_c   8.55059400
_cell_angle_alpha   90.00000000
_cell_angle_beta   90.00000000
_cell_angle_gamma   120.00000446
_symmetry_Int_Tables_number   1
_chemical_formula_structural   Er2MoOs3
_chemical_formula_sum   'Er4 Mo2 Os6'
_cell_volume   220.03198470
_cell_formula_units_Z   2
loop_
 _symmetry_equiv_pos_site_id
 _symmetry_equiv_pos_as_xyz
  1  'x, y, z'
loop_
 _atom_site_type_symbol
 _atom_site_label
 _atom_site_symmetry_multiplicity
 _atom_site_fract_x
 _atom_site_fract_y
 _atom_site_fract_z
 _atom_site_occupancy
  Er  Er0  1  0.333333  0.666667  0.434800  1
  Er  Er1  1  0.666667  0.333333  0.565200  1
  Er  Er2  1  0.666667  0.333333  0.934800  1
  Er  Er3  1  0.333333  0.666667  0.065200  1
  Mo  Mo4  1  0.000000  0.000000  0.500000  1
  Mo  Mo5  1  0.000000  0.000000  0.000000  1
  Os  Os6  1  0.827273  0.172727  0.250000  1
  Os  Os7  1  0.827273  0.654545  0.250000  1
  Os  Os8  1  0.345455  0.172727  0.250000  1
  Os  Os9  1  0.172727  0.827273  0.750000  1
  Os  Os10  1  0.172727  0.345455  0.750000  1
  Os  Os11  1  0.654545  0.827273  0.750000  1
