# generated using pymatgen
data_Dy8Er3Tm9Pb16
_symmetry_space_group_name_H-M   'P 1'
_cell_length_a   8.15978004
_cell_length_b   8.23305504
_cell_length_c   15.53490400
_cell_angle_alpha   90.00278600
_cell_angle_beta   89.99966537
_cell_angle_gamma   90.01127544
_symmetry_Int_Tables_number   1
_chemical_formula_structural   Dy8Er3Tm9Pb16
_chemical_formula_sum   'Dy8 Er3 Tm9 Pb16'
_cell_volume   1043.63355879
_cell_formula_units_Z   1
loop_
 _symmetry_equiv_pos_site_id
 _symmetry_equiv_pos_as_xyz
  1  'x, y, z'
loop_
 _atom_site_type_symbol
 _atom_site_label
 _atom_site_symmetry_multiplicity
 _atom_site_fract_x
 _atom_site_fract_y
 _atom_site_fract_z
 _atom_site_occupancy
  Dy  Dy0  1  0.536572  0.323183  0.900022  1
  Dy  Dy1  1  0.036541  0.176782  0.600042  1
  Dy  Dy2  1  0.463456  0.676792  0.399959  1
  Dy  Dy3  1  0.963404  0.823255  0.100043  1
  Dy  Dy4  1  0.463412  0.676755  0.099977  1
  Dy  Dy5  1  0.963418  0.823297  0.400013  1
  Dy  Dy6  1  0.536566  0.323285  0.599993  1
  Dy  Dy7  1  0.036598  0.176753  0.900002  1
  Er  Er8  1  0.123498  0.341221  0.378995  1
  Er  Er9  1  0.376534  0.841245  0.621035  1
  Er  Er10  1  0.876559  0.658751  0.878950  1
  Tm  Tm11  1  0.376431  0.841273  0.878954  1
  Tm  Tm12  1  0.876453  0.658710  0.621028  1
  Tm  Tm13  1  0.623559  0.158712  0.378960  1
  Tm  Tm14  1  0.123546  0.341317  0.121007  1
  Tm  Tm15  1  0.623524  0.158757  0.121063  1
  Tm  Tm16  1  0.208163  0.504677  0.750008  1
  Tm  Tm17  1  0.708166  0.995361  0.749994  1
  Tm  Tm18  1  0.791779  0.495248  0.249972  1
  Tm  Tm19  1  0.291900  0.004692  0.249950  1
  Pb  Pb20  1  0.281765  0.033421  0.042879  1
  Pb  Pb21  1  0.781555  0.466635  0.457158  1
  Pb  Pb22  1  0.718434  0.966633  0.542835  1
  Pb  Pb23  1  0.218448  0.533363  0.957171  1
  Pb  Pb24  1  0.718112  0.966803  0.957165  1
  Pb  Pb25  1  0.218165  0.533330  0.542964  1
  Pb  Pb26  1  0.281813  0.033331  0.457028  1
  Pb  Pb27  1  0.781692  0.466426  0.043009  1
  Pb  Pb28  1  0.571074  0.627287  0.750025  1
  Pb  Pb29  1  0.071049  0.872706  0.749973  1
  Pb  Pb30  1  0.429044  0.372592  0.249953  1
  Pb  Pb31  1  0.928834  0.127295  0.249922  1
  Pb  Pb32  1  0.347537  0.153547  0.750041  1
  Pb  Pb33  1  0.847535  0.346426  0.749958  1
  Pb  Pb34  1  0.652429  0.846549  0.249996  1
  Pb  Pb35  1  0.152436  0.653590  0.249955  1
