# generated using pymatgen
data_Dy6Sc2PtAu9
_symmetry_space_group_name_H-M   'P 1'
_cell_length_a   7.83856481
_cell_length_b   7.83856487
_cell_length_c   7.83856400
_cell_angle_alpha   66.44747511
_cell_angle_beta   66.44746693
_cell_angle_gamma   66.44745808
_symmetry_Int_Tables_number   1
_chemical_formula_structural   Dy6Sc2PtAu9
_chemical_formula_sum   'Dy6 Sc2 Pt1 Au9'
_cell_volume   387.87784235
_cell_formula_units_Z   1
loop_
 _symmetry_equiv_pos_site_id
 _symmetry_equiv_pos_as_xyz
  1  'x, y, z'
loop_
 _atom_site_type_symbol
 _atom_site_label
 _atom_site_symmetry_multiplicity
 _atom_site_fract_x
 _atom_site_fract_y
 _atom_site_fract_z
 _atom_site_occupancy
  Dy  Dy0  1  0.894716  0.171750  0.636700  1
  Dy  Dy1  1  0.636700  0.894716  0.171750  1
  Dy  Dy2  1  0.171750  0.636700  0.894716  1
  Dy  Dy3  1  0.106092  0.799071  0.399320  1
  Dy  Dy4  1  0.399320  0.106092  0.799071  1
  Dy  Dy5  1  0.799071  0.399320  0.106092  1
  Sc  Sc6  1  0.659640  0.659640  0.659640  1
  Sc  Sc7  1  0.337108  0.337108  0.337108  1
  Pt  Pt8  1  0.803420  0.803420  0.803420  1
  Au  Au9  1  0.012017  0.012017  0.012017  1
  Au  Au10  1  0.498577  0.498577  0.498577  1
  Au  Au11  1  0.186747  0.186747  0.186747  1
  Au  Au12  1  0.936378  0.538576  0.328396  1
  Au  Au13  1  0.328396  0.936378  0.538576  1
  Au  Au14  1  0.538576  0.328396  0.936378  1
  Au  Au15  1  0.063405  0.437292  0.690795  1
  Au  Au16  1  0.690795  0.063405  0.437292  1
  Au  Au17  1  0.437292  0.690795  0.063405  1
