# generated using pymatgen
data_Ho10Ir5Pt
_symmetry_space_group_name_H-M   'P 1'
_cell_length_a   10.90247584
_cell_length_b   10.90786000
_cell_length_c   6.32770151
_cell_angle_alpha   90.00000000
_cell_angle_beta   89.95463032
_cell_angle_gamma   90.00000000
_symmetry_Int_Tables_number   1
_chemical_formula_structural   Ho10Ir5Pt
_chemical_formula_sum   'Ho20 Ir10 Pt2'
_cell_volume   752.50698597
_cell_formula_units_Z   2
loop_
 _symmetry_equiv_pos_site_id
 _symmetry_equiv_pos_as_xyz
  1  'x, y, z'
loop_
 _atom_site_type_symbol
 _atom_site_label
 _atom_site_symmetry_multiplicity
 _atom_site_fract_x
 _atom_site_fract_y
 _atom_site_fract_z
 _atom_site_occupancy
  Ho  Ho0  1  0.291435  0.088304  0.376294  1
  Ho  Ho1  1  0.291435  0.911696  0.876294  1
  Ho  Ho2  1  0.705199  0.090038  0.874285  1
  Ho  Ho3  1  0.705199  0.909962  0.374285  1
  Ho  Ho4  1  0.584623  0.791047  0.878742  1
  Ho  Ho5  1  0.584623  0.208953  0.378742  1
  Ho  Ho6  1  0.411006  0.791455  0.377758  1
  Ho  Ho7  1  0.411006  0.208545  0.877758  1
  Ho  Ho8  1  0.208718  0.411562  0.622069  1
  Ho  Ho9  1  0.208718  0.588438  0.122069  1
  Ho  Ho10  1  0.790930  0.414665  0.122176  1
  Ho  Ho11  1  0.790930  0.585335  0.622176  1
  Ho  Ho12  1  0.913334  0.706826  0.126475  1
  Ho  Ho13  1  0.913334  0.293174  0.626475  1
  Ho  Ho14  1  0.091492  0.706747  0.622259  1
  Ho  Ho15  1  0.091492  0.293253  0.122259  1
  Ho  Ho16  1  0.003142  0.999725  0.499947  1
  Ho  Ho17  1  0.003142  0.000275  0.999947  1
  Ho  Ho18  1  0.499760  0.499663  0.999849  1
  Ho  Ho19  1  0.499760  0.500337  0.499849  1
  Ir  Ir20  1  0.152986  0.153792  0.750124  1
  Ir  Ir21  1  0.152986  0.846208  0.250124  1
  Ir  Ir22  1  0.654843  0.345796  0.749669  1
  Ir  Ir23  1  0.654843  0.654204  0.249669  1
  Ir  Ir24  1  0.346525  0.346205  0.250313  1
  Ir  Ir25  1  0.346525  0.653795  0.750313  1
  Ir  Ir26  1  0.500770  0.999796  0.123260  1
  Ir  Ir27  1  0.500770  0.000204  0.623260  1
  Ir  Ir28  1  0.999511  0.500136  0.877045  1
  Ir  Ir29  1  0.999511  0.499864  0.377045  1
  Pt  Pt30  1  0.845727  0.153391  0.249735  1
  Pt  Pt31  1  0.845727  0.846609  0.749735  1
