# generated using pymatgen
data_Dy20Bi8Os3Ru
_symmetry_space_group_name_H-M   'P 1'
_cell_length_a   7.97897229
_cell_length_b   9.03935100
_cell_length_c   12.48916982
_cell_angle_alpha   90.00000000
_cell_angle_beta   90.09769915
_cell_angle_gamma   90.00000000
_symmetry_Int_Tables_number   1
_chemical_formula_structural   Dy20Bi8Os3Ru
_chemical_formula_sum   'Dy20 Bi8 Os3 Ru1'
_cell_volume   900.77670643
_cell_formula_units_Z   1
loop_
 _symmetry_equiv_pos_site_id
 _symmetry_equiv_pos_as_xyz
  1  'x, y, z'
loop_
 _atom_site_type_symbol
 _atom_site_label
 _atom_site_symmetry_multiplicity
 _atom_site_fract_x
 _atom_site_fract_y
 _atom_site_fract_z
 _atom_site_occupancy
  Dy  Dy0  1  0.841702  0.750000  0.793404  1
  Dy  Dy1  1  0.159179  0.250000  0.207723  1
  Dy  Dy2  1  0.341170  0.250000  0.708221  1
  Dy  Dy3  1  0.658134  0.750000  0.292799  1
  Dy  Dy4  1  0.376359  0.750000  0.693605  1
  Dy  Dy5  1  0.622930  0.250000  0.306856  1
  Dy  Dy6  1  0.876011  0.250000  0.807130  1
  Dy  Dy7  1  0.123187  0.750000  0.191201  1
  Dy  Dy8  1  0.941866  0.750000  0.504583  1
  Dy  Dy9  1  0.057993  0.250000  0.495873  1
  Dy  Dy10  1  0.443499  0.250000  0.996437  1
  Dy  Dy11  1  0.554358  0.750000  0.004178  1
  Dy  Dy12  1  0.673870  0.042350  0.563766  1
  Dy  Dy13  1  0.324777  0.957367  0.436109  1
  Dy  Dy14  1  0.176061  0.958933  0.935734  1
  Dy  Dy15  1  0.324777  0.542633  0.436109  1
  Dy  Dy16  1  0.825891  0.042331  0.063609  1
  Dy  Dy17  1  0.673870  0.457650  0.563766  1
  Dy  Dy18  1  0.825891  0.457669  0.063609  1
  Dy  Dy19  1  0.176061  0.541067  0.935734  1
  Bi  Bi20  1  0.569835  0.492452  0.828175  1
  Bi  Bi21  1  0.430726  0.507818  0.171976  1
  Bi  Bi22  1  0.068771  0.507514  0.672522  1
  Bi  Bi23  1  0.430726  0.992182  0.171976  1
  Bi  Bi24  1  0.931243  0.493012  0.327192  1
  Bi  Bi25  1  0.569835  0.007548  0.828175  1
  Bi  Bi26  1  0.931243  0.006988  0.327192  1
  Bi  Bi27  1  0.068771  0.992486  0.672522  1
  Os  Os28  1  0.575178  0.750000  0.511243  1
  Os  Os29  1  0.423726  0.250000  0.489248  1
  Os  Os30  1  0.075435  0.250000  0.989035  1
  Ru  Ru31  1  0.926923  0.750000  0.010296  1
