# generated using pymatgen
data_Yb2Ga7Si2Ir3
_symmetry_space_group_name_H-M   'P 1'
_cell_length_a   7.51229367
_cell_length_b   7.47302444
_cell_length_c   9.56905131
_cell_angle_alpha   89.97167283
_cell_angle_beta   90.00973698
_cell_angle_gamma   120.13153408
_symmetry_Int_Tables_number   1
_chemical_formula_structural   Yb2Ga7Si2Ir3
_chemical_formula_sum   'Yb4 Ga14 Si4 Ir6'
_cell_volume   464.61290401
_cell_formula_units_Z   2
loop_
 _symmetry_equiv_pos_site_id
 _symmetry_equiv_pos_as_xyz
  1  'x, y, z'
loop_
 _atom_site_type_symbol
 _atom_site_label
 _atom_site_symmetry_multiplicity
 _atom_site_fract_x
 _atom_site_fract_y
 _atom_site_fract_z
 _atom_site_occupancy
  Yb  Yb0  1  0.999145  0.667012  0.249974  1
  Yb  Yb1  1  0.003196  0.337724  0.749467  1
  Yb  Yb2  1  0.667461  0.000848  0.250076  1
  Yb  Yb3  1  0.327793  0.996349  0.750271  1
  Ga  Ga4  1  0.129190  0.127281  0.250068  1
  Ga  Ga5  1  0.873445  0.870635  0.749838  1
  Ga  Ga6  1  0.997790  0.327276  0.420815  1
  Ga  Ga7  1  0.671131  0.001734  0.581431  1
  Ga  Ga8  1  0.663565  0.999162  0.918635  1
  Ga  Ga9  1  0.338617  0.002141  0.079347  1
  Ga  Ga10  1  0.331823  0.335222  0.569498  1
  Ga  Ga11  1  0.663914  0.669555  0.430860  1
  Ga  Ga12  1  0.662287  0.669680  0.069272  1
  Ga  Ga13  1  0.336841  0.330891  0.930382  1
  Ga  Ga14  1  0.334956  0.546941  0.250247  1
  Ga  Ga15  1  0.664371  0.455449  0.751028  1
  Ga  Ga16  1  0.547552  0.338961  0.249989  1
  Ga  Ga17  1  0.450456  0.662397  0.749040  1
  Si  Si18  1  0.000765  0.327923  0.070249  1
  Si  Si19  1  0.998241  0.670587  0.932078  1
  Si  Si20  1  0.995452  0.661192  0.567589  1
  Si  Si21  1  0.339048  0.004832  0.429707  1
  Ir  Ir22  1  0.695374  0.343070  0.002951  1
  Ir  Ir23  1  0.304175  0.656576  0.997225  1
  Ir  Ir24  1  0.317888  0.680721  0.499410  1
  Ir  Ir25  1  0.670787  0.329932  0.500589  1
  Ir  Ir26  1  0.000913  0.999399  0.000024  1
  Ir  Ir27  1  0.013822  0.986512  0.499943  1
