# generated using pymatgen
data_CeSm5Al16(SiOs)8
_symmetry_space_group_name_H-M   'P 1'
_cell_length_a   8.73667718
_cell_length_b   8.75188553
_cell_length_c   9.51966603
_cell_angle_alpha   90.01545423
_cell_angle_beta   89.99312271
_cell_angle_gamma   120.03080054
_symmetry_Int_Tables_number   1
_chemical_formula_structural   CeSm5Al16(SiOs)8
_chemical_formula_sum   'Ce1 Sm5 Al16 Si8 Os8'
_cell_volume   630.18109714
_cell_formula_units_Z   1
loop_
 _symmetry_equiv_pos_site_id
 _symmetry_equiv_pos_as_xyz
  1  'x, y, z'
loop_
 _atom_site_type_symbol
 _atom_site_label
 _atom_site_symmetry_multiplicity
 _atom_site_fract_x
 _atom_site_fract_y
 _atom_site_fract_z
 _atom_site_occupancy
  Ce  Ce0  1  0.190613  0.382922  0.252593  1
  Sm  Sm1  1  0.807396  0.614387  0.749806  1
  Sm  Sm2  1  0.614192  0.808412  0.249621  1
  Sm  Sm3  1  0.382489  0.190262  0.748605  1
  Sm  Sm4  1  0.193637  0.807132  0.249535  1
  Sm  Sm5  1  0.807676  0.191046  0.748321  1
  Al  Al6  1  0.834644  0.671399  0.423593  1
  Al  Al7  1  0.671854  0.835332  0.576360  1
  Al  Al8  1  0.834144  0.670691  0.076924  1
  Al  Al9  1  0.331648  0.164688  0.420989  1
  Al  Al10  1  0.164310  0.329399  0.927074  1
  Al  Al11  1  0.163289  0.835110  0.575462  1
  Al  Al12  1  0.329929  0.165576  0.077095  1
  Al  Al13  1  0.832276  0.163334  0.420845  1
  Al  Al14  1  0.670946  0.834634  0.923713  1
  Al  Al15  1  0.834989  0.163955  0.077131  1
  Al  Al16  1  0.163499  0.834072  0.924670  1
  Al  Al17  1  0.128754  0.567368  0.750129  1
  Al  Al18  1  0.566168  0.434573  0.250353  1
  Al  Al19  1  0.437971  0.567996  0.750273  1
  Al  Al20  1  0.999540  0.998823  0.250893  1
  Al  Al21  1  0.997202  0.995605  0.751323  1
  Si  Si22  1  0.333587  0.665270  0.037032  1
  Si  Si23  1  0.665820  0.334449  0.962329  1
  Si  Si24  1  0.665892  0.335000  0.538512  1
  Si  Si25  1  0.335339  0.669230  0.463070  1
  Si  Si26  1  0.165430  0.331500  0.572834  1
  Si  Si27  1  0.565131  0.125051  0.249191  1
  Si  Si28  1  0.436810  0.873492  0.749621  1
  Si  Si29  1  0.873287  0.433851  0.250326  1
  Os  Os30  1  0.500864  0.001030  0.000758  1
  Os  Os31  1  0.998899  0.498463  0.006727  1
  Os  Os32  1  0.500708  0.000986  0.498162  1
  Os  Os33  1  0.499235  0.499261  0.000889  1
  Os  Os34  1  0.002467  0.496767  0.493763  1
  Os  Os35  1  0.493497  0.497324  0.499337  1
  Os  Os36  1  0.000488  0.000718  0.000343  1
  Os  Os37  1  0.005383  0.010888  0.501799  1
