# generated using pymatgen
data_YErLu6(Si3Rh)4
_symmetry_space_group_name_H-M   'P 1'
_cell_length_a   8.11474600
_cell_length_b   8.11474584
_cell_length_c   7.73306700
_cell_angle_alpha   90.00000000
_cell_angle_beta   90.00000000
_cell_angle_gamma   120.00000064
_symmetry_Int_Tables_number   1
_chemical_formula_structural   YErLu6(Si3Rh)4
_chemical_formula_sum   'Y1 Er1 Lu6 Si12 Rh4'
_cell_volume   440.99356723
_cell_formula_units_Z   1
loop_
 _symmetry_equiv_pos_site_id
 _symmetry_equiv_pos_as_xyz
  1  'x, y, z'
loop_
 _atom_site_type_symbol
 _atom_site_label
 _atom_site_symmetry_multiplicity
 _atom_site_fract_x
 _atom_site_fract_y
 _atom_site_fract_z
 _atom_site_occupancy
  Y  Y0  1  0.000000  0.000000  0.750000  1
  Er  Er1  1  0.000000  0.000000  0.250000  1
  Lu  Lu2  1  0.981335  0.490667  0.250000  1
  Lu  Lu3  1  0.509333  0.490667  0.250000  1
  Lu  Lu4  1  0.490652  0.981305  0.750000  1
  Lu  Lu5  1  0.018695  0.509348  0.750000  1
  Lu  Lu6  1  0.490652  0.509348  0.750000  1
  Lu  Lu7  1  0.509333  0.018665  0.250000  1
  Si  Si8  1  0.167314  0.832686  0.499627  1
  Si  Si9  1  0.167314  0.334629  0.499627  1
  Si  Si10  1  0.665371  0.832686  0.499627  1
  Si  Si11  1  0.334606  0.167303  0.000305  1
  Si  Si12  1  0.832697  0.665394  0.499695  1
  Si  Si13  1  0.832697  0.167303  0.000305  1
  Si  Si14  1  0.832697  0.665394  0.000305  1
  Si  Si15  1  0.167314  0.334629  0.000373  1
  Si  Si16  1  0.665371  0.832686  0.000373  1
  Si  Si17  1  0.334606  0.167303  0.499695  1
  Si  Si18  1  0.832697  0.167303  0.499695  1
  Si  Si19  1  0.167314  0.832686  0.000373  1
  Rh  Rh20  1  0.333333  0.666667  0.035074  1
  Rh  Rh21  1  0.666667  0.333333  0.965025  1
  Rh  Rh22  1  0.666667  0.333333  0.534975  1
  Rh  Rh23  1  0.333333  0.666667  0.464926  1
