# generated using pymatgen
data_Lu4Ge6Ir4RuPt2
_symmetry_space_group_name_H-M   'P 1'
_cell_length_a   7.22536097
_cell_length_b   7.22708020
_cell_length_c   7.22708219
_cell_angle_alpha   109.69012635
_cell_angle_beta   109.36666840
_cell_angle_gamma   109.36667496
_symmetry_Int_Tables_number   1
_chemical_formula_structural   Lu4Ge6Ir4RuPt2
_chemical_formula_sum   'Lu4 Ge6 Ir4 Ru1 Pt2'
_cell_volume   290.47414632
_cell_formula_units_Z   1
loop_
 _symmetry_equiv_pos_site_id
 _symmetry_equiv_pos_as_xyz
  1  'x, y, z'
loop_
 _atom_site_type_symbol
 _atom_site_label
 _atom_site_symmetry_multiplicity
 _atom_site_fract_x
 _atom_site_fract_y
 _atom_site_fract_z
 _atom_site_occupancy
  Lu  Lu0  1  0.002595  0.001297  0.501297  1
  Lu  Lu1  1  0.002595  0.501297  0.001297  1
  Lu  Lu2  1  0.497408  0.996140  0.996140  1
  Lu  Lu3  1  0.497408  0.501267  0.501267  1
  Ge  Ge4  1  0.683186  0.686666  0.996520  1
  Ge  Ge5  1  0.310664  0.997151  0.313513  1
  Ge  Ge6  1  0.005768  0.314926  0.314926  1
  Ge  Ge7  1  0.310664  0.313513  0.997151  1
  Ge  Ge8  1  0.683186  0.996520  0.686666  1
  Ge  Ge9  1  0.005768  0.690842  0.690842  1
  Ir  Ir10  1  0.500416  0.250208  0.750208  1
  Ir  Ir11  1  0.249652  0.500377  0.749275  1
  Ir  Ir12  1  0.249652  0.749275  0.500377  1
  Ir  Ir13  1  0.500416  0.750208  0.250208  1
  Ru  Ru14  1  0.999251  0.999625  0.999625  1
  Pt  Pt15  1  0.750685  0.250376  0.500309  1
  Pt  Pt16  1  0.750685  0.500309  0.250376  1
