# generated using pymatgen
data_Sr2Li3ErPt3
_symmetry_space_group_name_H-M   'P 1'
_cell_length_a   7.42587776
_cell_length_b   7.44536504
_cell_length_c   4.16903800
_cell_angle_alpha   90.00000000
_cell_angle_beta   90.00000000
_cell_angle_gamma   120.08682672
_symmetry_Int_Tables_number   1
_chemical_formula_structural   Sr2Li3ErPt3
_chemical_formula_sum   'Sr2 Li3 Er1 Pt3'
_cell_volume   199.44338540
_cell_formula_units_Z   1
loop_
 _symmetry_equiv_pos_site_id
 _symmetry_equiv_pos_as_xyz
  1  'x, y, z'
loop_
 _atom_site_type_symbol
 _atom_site_label
 _atom_site_symmetry_multiplicity
 _atom_site_fract_x
 _atom_site_fract_y
 _atom_site_fract_z
 _atom_site_occupancy
  Sr  Sr0  1  0.414528  0.416951  0.000000  1
  Sr  Sr1  1  0.585472  0.002424  0.000000  1
  Li  Li2  1  0.775607  0.764749  0.500000  1
  Li  Li3  1  0.224393  0.989143  0.500000  1
  Li  Li4  1  0.000000  0.233564  0.500000  1
  Er  Er5  1  0.000000  0.596404  0.000000  1
  Pt  Pt6  1  0.000000  0.975533  0.000000  1
  Pt  Pt7  1  0.708634  0.364931  0.500000  1
  Pt  Pt8  1  0.291366  0.656298  0.500000  1
