# generated using pymatgen
data_Tb3Dy2Ho3(ReB6)4
_symmetry_space_group_name_H-M   'P 1'
_cell_length_a   3.68582800
_cell_length_b   9.17913101
_cell_length_c   11.57217200
_cell_angle_alpha   90.00215758
_cell_angle_beta   90.00000000
_cell_angle_gamma   90.00000000
_symmetry_Int_Tables_number   1
_chemical_formula_structural   Tb3Dy2Ho3(ReB6)4
_chemical_formula_sum   'Tb3 Dy2 Ho3 Re4 B24'
_cell_volume   391.51780110
_cell_formula_units_Z   1
loop_
 _symmetry_equiv_pos_site_id
 _symmetry_equiv_pos_as_xyz
  1  'x, y, z'
loop_
 _atom_site_type_symbol
 _atom_site_label
 _atom_site_symmetry_multiplicity
 _atom_site_fract_x
 _atom_site_fract_y
 _atom_site_fract_z
 _atom_site_occupancy
  Tb  Tb0  1  0.000000  0.323160  0.413972  1
  Tb  Tb1  1  0.000000  0.676676  0.586122  1
  Tb  Tb2  1  0.000000  0.823252  0.085947  1
  Dy  Dy3  1  0.000000  0.176789  0.913948  1
  Dy  Dy4  1  0.000000  0.942685  0.370039  1
  Ho  Ho5  1  0.000000  0.057458  0.630318  1
  Ho  Ho6  1  0.000000  0.442569  0.129881  1
  Ho  Ho7  1  0.000000  0.557385  0.869944  1
  Re  Re8  1  0.000000  0.637888  0.320544  1
  Re  Re9  1  0.000000  0.361666  0.679658  1
  Re  Re10  1  0.000000  0.138489  0.179029  1
  Re  Re11  1  0.000000  0.861914  0.820725  1
  B  B12  1  0.500000  0.552966  0.432591  1
  B  B13  1  0.500000  0.446619  0.567516  1
  B  B14  1  0.500000  0.053443  0.067118  1
  B  B15  1  0.500000  0.946918  0.932606  1
  B  B16  1  0.500000  0.748472  0.418111  1
  B  B17  1  0.500000  0.251053  0.582017  1
  B  B18  1  0.500000  0.249081  0.081579  1
  B  B19  1  0.500000  0.751063  0.918107  1
  B  B20  1  0.500000  0.791104  0.265441  1
  B  B21  1  0.500000  0.208503  0.734644  1
  B  B22  1  0.500000  0.291587  0.234246  1
  B  B23  1  0.500000  0.708568  0.765646  1
  B  B24  1  0.500000  0.629990  0.185602  1
  B  B25  1  0.500000  0.369784  0.814404  1
  B  B26  1  0.500000  0.130495  0.314022  1
  B  B27  1  0.500000  0.869872  0.685875  1
  B  B28  1  0.500000  0.982334  0.211822  1
  B  B29  1  0.500000  0.018137  0.788047  1
  B  B30  1  0.500000  0.481875  0.287772  1
  B  B31  1  0.500000  0.517946  0.712153  1
  B  B32  1  0.500000  0.599137  0.027732  1
  B  B33  1  0.500000  0.400764  0.972109  1
  B  B34  1  0.500000  0.099740  0.472467  1
  B  B35  1  0.500000  0.900618  0.528245  1
