# generated using pymatgen
data_Yb3Ga24Cu2Pd7
_symmetry_space_group_name_H-M   'P 1'
_cell_length_a   8.48487556
_cell_length_b   8.48487598
_cell_length_c   8.48487563
_cell_angle_alpha   90.52413465
_cell_angle_beta   90.52413814
_cell_angle_gamma   90.52413529
_symmetry_Int_Tables_number   1
_chemical_formula_structural   Yb3Ga24Cu2Pd7
_chemical_formula_sum   'Yb3 Ga24 Cu2 Pd7'
_cell_volume   610.77549424
_cell_formula_units_Z   1
loop_
 _symmetry_equiv_pos_site_id
 _symmetry_equiv_pos_as_xyz
  1  'x, y, z'
loop_
 _atom_site_type_symbol
 _atom_site_label
 _atom_site_symmetry_multiplicity
 _atom_site_fract_x
 _atom_site_fract_y
 _atom_site_fract_z
 _atom_site_occupancy
  Yb  Yb0  1  0.000000  0.500000  0.000000  1
  Yb  Yb1  1  0.500000  0.000000  0.000000  1
  Yb  Yb2  1  0.000000  0.000000  0.500000  1
  Ga  Ga3  1  0.987181  0.645726  0.645726  1
  Ga  Ga4  1  0.645726  0.645726  0.987181  1
  Ga  Ga5  1  0.645726  0.987181  0.645726  1
  Ga  Ga6  1  0.012819  0.354274  0.354274  1
  Ga  Ga7  1  0.354274  0.354274  0.012819  1
  Ga  Ga8  1  0.354274  0.012819  0.354274  1
  Ga  Ga9  1  0.742901  0.500000  0.257099  1
  Ga  Ga10  1  0.257099  0.500000  0.742901  1
  Ga  Ga11  1  0.500000  0.257099  0.742901  1
  Ga  Ga12  1  0.500000  0.742901  0.257099  1
  Ga  Ga13  1  0.257099  0.742901  0.500000  1
  Ga  Ga14  1  0.742901  0.257099  0.500000  1
  Ga  Ga15  1  0.838919  0.142426  0.838919  1
  Ga  Ga16  1  0.142426  0.838919  0.838919  1
  Ga  Ga17  1  0.838919  0.838919  0.142426  1
  Ga  Ga18  1  0.161081  0.857574  0.161081  1
  Ga  Ga19  1  0.857574  0.161081  0.161081  1
  Ga  Ga20  1  0.161081  0.161081  0.857574  1
  Ga  Ga21  1  0.733730  0.482655  0.733730  1
  Ga  Ga22  1  0.482655  0.733730  0.733730  1
  Ga  Ga23  1  0.733730  0.733730  0.482655  1
  Ga  Ga24  1  0.266270  0.517345  0.266270  1
  Ga  Ga25  1  0.517345  0.266270  0.266270  1
  Ga  Ga26  1  0.266270  0.266270  0.517345  1
  Cu  Cu27  1  0.834454  0.834454  0.834454  1
  Cu  Cu28  1  0.165546  0.165546  0.165546  1
  Pd  Pd29  1  0.664632  0.335368  0.000000  1
  Pd  Pd30  1  0.000000  0.335368  0.664632  1
  Pd  Pd31  1  0.335368  0.000000  0.664632  1
  Pd  Pd32  1  0.335368  0.664632  0.000000  1
  Pd  Pd33  1  0.000000  0.664632  0.335368  1
  Pd  Pd34  1  0.664632  0.000000  0.335368  1
  Pd  Pd35  1  0.500000  0.500000  0.500000  1
