# generated using pymatgen
data_Li4TaMn2(NiP)7
_symmetry_space_group_name_H-M   'P 1'
_cell_length_a   9.23747059
_cell_length_b   9.15681107
_cell_length_c   3.60244300
_cell_angle_alpha   90.00000000
_cell_angle_beta   90.00000000
_cell_angle_gamma   120.03912673
_symmetry_Int_Tables_number   1
_chemical_formula_structural   Li4TaMn2(NiP)7
_chemical_formula_sum   'Li4 Ta1 Mn2 Ni7 P7'
_cell_volume   263.78719458
_cell_formula_units_Z   1
loop_
 _symmetry_equiv_pos_site_id
 _symmetry_equiv_pos_as_xyz
  1  'x, y, z'
loop_
 _atom_site_type_symbol
 _atom_site_label
 _atom_site_symmetry_multiplicity
 _atom_site_fract_x
 _atom_site_fract_y
 _atom_site_fract_z
 _atom_site_occupancy
  Li  Li0  1  0.902335  0.127848  0.500000  1
  Li  Li1  1  0.221757  0.098704  0.500000  1
  Li  Li2  1  0.328313  0.665583  0.000000  1
  Li  Li3  1  0.663506  0.331107  0.500000  1
  Ta  Ta4  1  0.874166  0.776524  0.500000  1
  Mn  Mn5  1  0.563701  0.954238  0.500000  1
  Mn  Mn6  1  0.390778  0.437091  0.500000  1
  Ni  Ni7  1  0.715127  0.882967  0.000000  1
  Ni  Ni8  1  0.161106  0.282720  0.000000  1
  Ni  Ni9  1  0.124844  0.835144  0.000000  1
  Ni  Ni10  1  0.629324  0.566412  0.000000  1
  Ni  Ni11  1  0.940760  0.371052  0.000000  1
  Ni  Ni12  1  0.429246  0.059120  0.000000  1
  Ni  Ni13  1  0.054314  0.609764  0.500000  1
  P  P14  1  0.575148  0.711808  0.500000  1
  P  P15  1  0.136352  0.418247  0.500000  1
  P  P16  1  0.294822  0.875847  0.500000  1
  P  P17  1  0.000008  0.998262  0.000000  1
  P  P18  1  0.880815  0.574129  0.000000  1
  P  P19  1  0.696683  0.123114  0.000000  1
  P  P20  1  0.416893  0.300317  0.000000  1
