# generated using pymatgen
data_Ho19Lu(RuPt5)2
_symmetry_space_group_name_H-M   'P 1'
_cell_length_a   11.01970500
_cell_length_b   11.02407003
_cell_length_c   6.40589700
_cell_angle_alpha   90.00000000
_cell_angle_beta   90.00000000
_cell_angle_gamma   89.99556148
_symmetry_Int_Tables_number   1
_chemical_formula_structural   Ho19Lu(RuPt5)2
_chemical_formula_sum   'Ho19 Lu1 Ru2 Pt10'
_cell_volume   778.20117487
_cell_formula_units_Z   1
loop_
 _symmetry_equiv_pos_site_id
 _symmetry_equiv_pos_as_xyz
  1  'x, y, z'
loop_
 _atom_site_type_symbol
 _atom_site_label
 _atom_site_symmetry_multiplicity
 _atom_site_fract_x
 _atom_site_fract_y
 _atom_site_fract_z
 _atom_site_occupancy
  Ho  Ho0  1  0.291754  0.088445  0.376680  1
  Ho  Ho1  1  0.292155  0.911242  0.876530  1
  Ho  Ho2  1  0.707845  0.088758  0.876530  1
  Ho  Ho3  1  0.708246  0.911555  0.376680  1
  Ho  Ho4  1  0.588903  0.792736  0.876323  1
  Ho  Ho5  1  0.588789  0.207230  0.376229  1
  Ho  Ho6  1  0.411211  0.792770  0.376229  1
  Ho  Ho7  1  0.411097  0.207264  0.876323  1
  Ho  Ho8  1  0.202331  0.413304  0.624630  1
  Ho  Ho9  1  0.202273  0.586895  0.124415  1
  Ho  Ho10  1  0.797727  0.413105  0.124415  1
  Ho  Ho11  1  0.797669  0.586696  0.624630  1
  Ho  Ho12  1  0.913129  0.702858  0.124268  1
  Ho  Ho13  1  0.913529  0.296640  0.624005  1
  Ho  Ho14  1  0.086471  0.703360  0.624005  1
  Ho  Ho15  1  0.086871  0.297142  0.124268  1
  Ho  Ho16  1  0.000000  0.000000  0.001343  1
  Ho  Ho17  1  0.500000  0.500000  0.001194  1
  Ho  Ho18  1  0.500000  0.500000  0.501194  1
  Lu  Lu19  1  0.000000  0.000000  0.501313  1
  Ru  Ru20  1  0.000000  0.500000  0.875746  1
  Ru  Ru21  1  0.000000  0.500000  0.375949  1
  Pt  Pt22  1  0.846748  0.150929  0.252661  1
  Pt  Pt23  1  0.846826  0.849054  0.747922  1
  Pt  Pt24  1  0.153174  0.150946  0.747922  1
  Pt  Pt25  1  0.153252  0.849071  0.252661  1
  Pt  Pt26  1  0.652332  0.345244  0.750112  1
  Pt  Pt27  1  0.652449  0.654697  0.250494  1
  Pt  Pt28  1  0.347551  0.345303  0.250494  1
  Pt  Pt29  1  0.347668  0.654756  0.750112  1
  Pt  Pt30  1  0.500000  0.000000  0.117544  1
  Pt  Pt31  1  0.500000  0.000000  0.617177  1
