# generated using pymatgen
data_YbSm3(Pt2O7)2
_symmetry_space_group_name_H-M   'P 1'
_cell_length_a   7.32602848
_cell_length_b   7.35210479
_cell_length_c   7.35210500
_cell_angle_alpha   59.99999457
_cell_angle_beta   59.88218032
_cell_angle_gamma   59.88218073
_symmetry_Int_Tables_number   1
_chemical_formula_structural   YbSm3(Pt2O7)2
_chemical_formula_sum   'Yb1 Sm3 Pt4 O14'
_cell_volume   279.51252111
_cell_formula_units_Z   1
loop_
 _symmetry_equiv_pos_site_id
 _symmetry_equiv_pos_as_xyz
  1  'x, y, z'
loop_
 _atom_site_type_symbol
 _atom_site_label
 _atom_site_symmetry_multiplicity
 _atom_site_fract_x
 _atom_site_fract_y
 _atom_site_fract_z
 _atom_site_occupancy
  Yb  Yb0  1  0.625000  0.125000  0.125000  1
  Sm  Sm1  1  0.125000  0.125000  0.125000  1
  Sm  Sm2  1  0.125000  0.625000  0.125000  1
  Sm  Sm3  1  0.125000  0.125000  0.625000  1
  Pt  Pt4  1  0.625000  0.625000  0.125000  1
  Pt  Pt5  1  0.625000  0.625000  0.625000  1
  Pt  Pt6  1  0.625000  0.125000  0.625000  1
  Pt  Pt7  1  0.125000  0.625000  0.625000  1
  O  O8  1  0.709895  0.290703  0.290703  1
  O  O9  1  0.709895  0.290703  0.708698  1
  O  O10  1  0.999619  0.000127  0.000127  1
  O  O11  1  0.288265  0.711317  0.289101  1
  O  O12  1  0.709895  0.708698  0.290703  1
  O  O13  1  0.961735  0.538683  0.538683  1
  O  O14  1  0.288265  0.711317  0.711317  1
  O  O15  1  0.250381  0.249873  0.249873  1
  O  O16  1  0.961735  0.538683  0.960899  1
  O  O17  1  0.540105  0.959297  0.541302  1
  O  O18  1  0.540105  0.541302  0.959297  1
  O  O19  1  0.961735  0.960899  0.538683  1
  O  O20  1  0.540105  0.959297  0.959297  1
  O  O21  1  0.288265  0.289101  0.711317  1
