# generated using pymatgen
data_YbCoSi3
_symmetry_space_group_name_H-M   'P 1'
_cell_length_a   4.04247268
_cell_length_b   4.04247222
_cell_length_c   5.63234663
_cell_angle_alpha   111.03032438
_cell_angle_beta   111.03032284
_cell_angle_gamma   89.99999962
_symmetry_Int_Tables_number   1
_chemical_formula_structural   YbCoSi3
_chemical_formula_sum   'Yb1 Co1 Si3'
_cell_volume   79.30728183
_cell_formula_units_Z   1
loop_
 _symmetry_equiv_pos_site_id
 _symmetry_equiv_pos_as_xyz
  1  'x, y, z'
loop_
 _atom_site_type_symbol
 _atom_site_label
 _atom_site_symmetry_multiplicity
 _atom_site_fract_x
 _atom_site_fract_y
 _atom_site_fract_z
 _atom_site_occupancy
  Yb  Yb0  1  0.576457  0.576457  0.152914  1
  Co  Co1  1  0.225916  0.225916  0.451833  1
  Si  Si2  1  0.329642  0.829642  0.659284  1
  Si  Si3  1  0.829642  0.329642  0.659284  1
  Si  Si4  1  0.996142  0.996142  0.992285  1
