# generated using pymatgen
data_SmYRe7Si4W
_symmetry_space_group_name_H-M   'P 1'
_cell_length_a   7.18161933
_cell_length_b   7.72253475
_cell_length_c   4.17085600
_cell_angle_alpha   90.00000000
_cell_angle_beta   90.00000000
_cell_angle_gamma   90.11286121
_symmetry_Int_Tables_number   1
_chemical_formula_structural   SmYRe7Si4W
_chemical_formula_sum   'Sm1 Y1 Re7 Si4 W1'
_cell_volume   231.31649636
_cell_formula_units_Z   1
loop_
 _symmetry_equiv_pos_site_id
 _symmetry_equiv_pos_as_xyz
  1  'x, y, z'
loop_
 _atom_site_type_symbol
 _atom_site_label
 _atom_site_symmetry_multiplicity
 _atom_site_fract_x
 _atom_site_fract_y
 _atom_site_fract_z
 _atom_site_occupancy
  Sm  Sm0  1  0.999348  0.999868  0.500000  1
  Y  Y1  1  0.500826  0.498090  0.000000  1
  Re  Re2  1  0.155760  0.604403  0.500000  1
  Re  Re3  1  0.082735  0.341220  0.000000  1
  Re  Re4  1  0.918635  0.658358  0.000000  1
  Re  Re5  1  0.420016  0.838386  0.500000  1
  Re  Re6  1  0.579952  0.164734  0.500000  1
  Re  Re7  1  0.342691  0.107645  0.000000  1
  Re  Re8  1  0.846123  0.394158  0.500000  1
  Si  Si9  1  0.225286  0.804450  0.000000  1
  Si  Si10  1  0.777246  0.197750  0.000000  1
  Si  Si11  1  0.722883  0.690714  0.500000  1
  Si  Si12  1  0.277771  0.306996  0.500000  1
  W  W13  1  0.650732  0.893225  0.000000  1
