# generated using pymatgen
data_NaPrNd5FeBr12
_symmetry_space_group_name_H-M   'P 1'
_cell_length_a   9.52497272
_cell_length_b   9.52643706
_cell_length_c   9.52311865
_cell_angle_alpha   107.05443445
_cell_angle_beta   107.08562766
_cell_angle_gamma   107.14326817
_symmetry_Int_Tables_number   1
_chemical_formula_structural   NaPrNd5FeBr12
_chemical_formula_sum   'Na1 Pr1 Nd5 Fe1 Br12'
_cell_volume   717.78393585
_cell_formula_units_Z   1
loop_
 _symmetry_equiv_pos_site_id
 _symmetry_equiv_pos_as_xyz
  1  'x, y, z'
loop_
 _atom_site_type_symbol
 _atom_site_label
 _atom_site_symmetry_multiplicity
 _atom_site_fract_x
 _atom_site_fract_y
 _atom_site_fract_z
 _atom_site_occupancy
  Na  Na0  1  0.499980  0.500024  0.500041  1
  Pr  Pr1  1  0.314286  0.108484  0.029835  1
  Nd  Nd2  1  0.029784  0.312808  0.107723  1
  Nd  Nd3  1  0.107636  0.030015  0.313018  1
  Nd  Nd4  1  0.891706  0.969760  0.686910  1
  Nd  Nd5  1  0.969760  0.687038  0.892273  1
  Nd  Nd6  1  0.687022  0.891834  0.969878  1
  Fe  Fe7  1  0.999395  0.999778  0.999857  1
  Br  Br8  1  0.686922  0.219005  0.073440  1
  Br  Br9  1  0.371035  0.453685  0.153766  1
  Br  Br10  1  0.073373  0.686250  0.219116  1
  Br  Br11  1  0.780911  0.926946  0.314062  1
  Br  Br12  1  0.452183  0.153293  0.372835  1
  Br  Br13  1  0.152772  0.370696  0.451377  1
  Br  Br14  1  0.847203  0.629294  0.548603  1
  Br  Br15  1  0.548306  0.846917  0.629132  1
  Br  Br16  1  0.218331  0.072777  0.684122  1
  Br  Br17  1  0.926593  0.313736  0.780871  1
  Br  Br18  1  0.629056  0.548376  0.847053  1
  Br  Br19  1  0.313747  0.779287  0.926085  1
