# generated using pymatgen
data_La19Tb(Bi2Ru)4
_symmetry_space_group_name_H-M   'P 1'
_cell_length_a   8.52472804
_cell_length_b   9.28690800
_cell_length_c   13.00228723
_cell_angle_alpha   90.00000000
_cell_angle_beta   89.79625963
_cell_angle_gamma   90.00000000
_symmetry_Int_Tables_number   1
_chemical_formula_structural   La19Tb(Bi2Ru)4
_chemical_formula_sum   'La19 Tb1 Bi8 Ru4'
_cell_volume   1029.36331321
_cell_formula_units_Z   1
loop_
 _symmetry_equiv_pos_site_id
 _symmetry_equiv_pos_as_xyz
  1  'x, y, z'
loop_
 _atom_site_type_symbol
 _atom_site_label
 _atom_site_symmetry_multiplicity
 _atom_site_fract_x
 _atom_site_fract_y
 _atom_site_fract_z
 _atom_site_occupancy
  La  La0  1  0.847366  0.750000  0.798929  1
  La  La1  1  0.153617  0.250000  0.201545  1
  La  La2  1  0.349854  0.250000  0.704847  1
  La  La3  1  0.653127  0.750000  0.294688  1
  La  La4  1  0.376439  0.750000  0.695755  1
  La  La5  1  0.623478  0.250000  0.303920  1
  La  La6  1  0.874583  0.250000  0.805805  1
  La  La7  1  0.124372  0.750000  0.194188  1
  La  La8  1  0.941782  0.750000  0.503888  1
  La  La9  1  0.057670  0.250000  0.497057  1
  La  La10  1  0.444379  0.250000  0.996871  1
  La  La11  1  0.678979  0.036634  0.565291  1
  La  La12  1  0.321128  0.962996  0.434878  1
  La  La13  1  0.179485  0.963450  0.934859  1
  La  La14  1  0.321128  0.537004  0.434878  1
  La  La15  1  0.819386  0.034264  0.064926  1
  La  La16  1  0.678979  0.463366  0.565291  1
  La  La17  1  0.819386  0.465736  0.064926  1
  La  La18  1  0.179485  0.536550  0.934859  1
  Tb  Tb19  1  0.552123  0.750000  0.001017  1
  Bi  Bi20  1  0.572205  0.496357  0.831400  1
  Bi  Bi21  1  0.429988  0.511480  0.169173  1
  Bi  Bi22  1  0.073242  0.506774  0.672860  1
  Bi  Bi23  1  0.429988  0.988520  0.169173  1
  Bi  Bi24  1  0.928100  0.492604  0.327192  1
  Bi  Bi25  1  0.572205  0.003643  0.831400  1
  Bi  Bi26  1  0.928100  0.007396  0.327192  1
  Bi  Bi27  1  0.073242  0.993226  0.672860  1
  Ru  Ru28  1  0.579804  0.750000  0.513654  1
  Ru  Ru29  1  0.419674  0.250000  0.486663  1
  Ru  Ru30  1  0.083195  0.250000  0.985845  1
  Ru  Ru31  1  0.913512  0.750000  0.014168  1
