# generated using pymatgen
data_Tm4Sc8ZnNi4Sn
_symmetry_space_group_name_H-M   'P 1'
_cell_length_a   7.93111809
_cell_length_b   7.93104855
_cell_length_c   7.92998674
_cell_angle_alpha   106.66206005
_cell_angle_beta   110.03950417
_cell_angle_gamma   111.75065006
_symmetry_Int_Tables_number   1
_chemical_formula_structural   Tm4Sc8ZnNi4Sn
_chemical_formula_sum   'Tm4 Sc8 Zn1 Ni4 Sn1'
_cell_volume   383.21935462
_cell_formula_units_Z   1
loop_
 _symmetry_equiv_pos_site_id
 _symmetry_equiv_pos_as_xyz
  1  'x, y, z'
loop_
 _atom_site_type_symbol
 _atom_site_label
 _atom_site_symmetry_multiplicity
 _atom_site_fract_x
 _atom_site_fract_y
 _atom_site_fract_z
 _atom_site_occupancy
  Tm  Tm0  1  0.603077  0.789258  0.813929  1
  Tm  Tm1  1  0.975360  0.789148  0.186155  1
  Tm  Tm2  1  0.024638  0.210854  0.813845  1
  Tm  Tm3  1  0.396921  0.210750  0.186066  1
  Sc  Sc4  1  0.699995  0.275324  0.975274  1
  Sc  Sc5  1  0.299992  0.724700  0.024734  1
  Sc  Sc6  1  0.700003  0.724777  0.424727  1
  Sc  Sc7  1  0.299996  0.275194  0.575245  1
  Sc  Sc8  1  0.804093  0.127740  0.323554  1
  Sc  Sc9  1  0.804143  0.480577  0.676354  1
  Sc  Sc10  1  0.195896  0.872247  0.676458  1
  Sc  Sc11  1  0.195883  0.519448  0.323660  1
  Zn  Zn12  1  0.499966  0.500002  0.999964  1
  Ni  Ni13  1  0.856159  0.500048  0.356160  1
  Ni  Ni14  1  0.143870  0.499929  0.643855  1
  Ni  Ni15  1  0.999957  0.133829  0.133775  1
  Ni  Ni16  1  0.000050  0.866172  0.866230  1
  Sn  Sn17  1  0.500004  0.000003  0.500017  1
