# generated using pymatgen
data_Li3Eu4MgPd4
_symmetry_space_group_name_H-M   'P 1'
_cell_length_a   4.29206000
_cell_length_b   7.34007861
_cell_length_c   8.73304957
_cell_angle_alpha   90.62882299
_cell_angle_beta   90.00000000
_cell_angle_gamma   90.00000000
_symmetry_Int_Tables_number   1
_chemical_formula_structural   Li3Eu4MgPd4
_chemical_formula_sum   'Li3 Eu4 Mg1 Pd4'
_cell_volume   275.10992867
_cell_formula_units_Z   1
loop_
 _symmetry_equiv_pos_site_id
 _symmetry_equiv_pos_as_xyz
  1  'x, y, z'
loop_
 _atom_site_type_symbol
 _atom_site_label
 _atom_site_symmetry_multiplicity
 _atom_site_fract_x
 _atom_site_fract_y
 _atom_site_fract_z
 _atom_site_occupancy
  Li  Li0  1  0.250000  0.132447  0.944080  1
  Li  Li1  1  0.250000  0.634541  0.558459  1
  Li  Li2  1  0.750000  0.869416  0.054091  1
  Eu  Eu3  1  0.250000  0.029480  0.315112  1
  Eu  Eu4  1  0.250000  0.536411  0.176209  1
  Eu  Eu5  1  0.750000  0.963859  0.681950  1
  Eu  Eu6  1  0.750000  0.466837  0.822287  1
  Mg  Mg7  1  0.750000  0.366686  0.441323  1
  Pd  Pd8  1  0.250000  0.262792  0.619894  1
  Pd  Pd9  1  0.250000  0.763700  0.879577  1
  Pd  Pd10  1  0.750000  0.733960  0.377767  1
  Pd  Pd11  1  0.750000  0.239871  0.129251  1
