# generated using pymatgen
data_La2Si6BiPd20
_symmetry_space_group_name_H-M   'P 1'
_cell_length_a   8.77937991
_cell_length_b   8.77938029
_cell_length_c   8.77938000
_cell_angle_alpha   60.00000108
_cell_angle_beta   59.99999964
_cell_angle_gamma   59.99999903
_symmetry_Int_Tables_number   1
_chemical_formula_structural   La2Si6BiPd20
_chemical_formula_sum   'La2 Si6 Bi1 Pd20'
_cell_volume   478.49406151
_cell_formula_units_Z   1
loop_
 _symmetry_equiv_pos_site_id
 _symmetry_equiv_pos_as_xyz
  1  'x, y, z'
loop_
 _atom_site_type_symbol
 _atom_site_label
 _atom_site_symmetry_multiplicity
 _atom_site_fract_x
 _atom_site_fract_y
 _atom_site_fract_z
 _atom_site_occupancy
  La  La0  1  0.250000  0.250000  0.250000  1
  La  La1  1  0.750000  0.750000  0.750000  1
  Si  Si2  1  0.731891  0.268109  0.268109  1
  Si  Si3  1  0.268109  0.731891  0.731891  1
  Si  Si4  1  0.268109  0.731891  0.268109  1
  Si  Si5  1  0.731891  0.268109  0.731891  1
  Si  Si6  1  0.268109  0.268109  0.731891  1
  Si  Si7  1  0.731891  0.731891  0.268109  1
  Bi  Bi8  1  0.000000  0.000000  0.000000  1
  Pd  Pd9  1  0.385468  0.385468  0.385468  1
  Pd  Pd10  1  0.614532  0.614532  0.614532  1
  Pd  Pd11  1  0.385468  0.385468  0.843598  1
  Pd  Pd12  1  0.385468  0.843598  0.385468  1
  Pd  Pd13  1  0.614532  0.614532  0.156402  1
  Pd  Pd14  1  0.614532  0.156402  0.614532  1
  Pd  Pd15  1  0.843598  0.385468  0.385468  1
  Pd  Pd16  1  0.156402  0.614532  0.614532  1
  Pd  Pd17  1  0.346703  0.000000  0.000000  1
  Pd  Pd18  1  0.653297  0.000000  0.000000  1
  Pd  Pd19  1  0.000000  0.346703  0.653297  1
  Pd  Pd20  1  0.000000  0.653297  0.346703  1
  Pd  Pd21  1  0.000000  0.346703  0.000000  1
  Pd  Pd22  1  0.653297  0.000000  0.346703  1
  Pd  Pd23  1  0.000000  0.653297  0.000000  1
  Pd  Pd24  1  0.346703  0.000000  0.653297  1
  Pd  Pd25  1  0.000000  0.000000  0.346703  1
  Pd  Pd26  1  0.000000  0.000000  0.653297  1
  Pd  Pd27  1  0.653297  0.346703  0.000000  1
  Pd  Pd28  1  0.346703  0.653297  0.000000  1
