# generated using pymatgen
data_TmMgTcB6
_symmetry_space_group_name_H-M   'P 1'
_cell_length_a   3.55352300
_cell_length_b   8.87791600
_cell_length_c   11.21957400
_cell_angle_alpha   90.00000000
_cell_angle_beta   90.00000000
_cell_angle_gamma   90.00000000
_symmetry_Int_Tables_number   1
_chemical_formula_structural   TmMgTcB6
_chemical_formula_sum   'Tm4 Mg4 Tc4 B24'
_cell_volume   353.95375960
_cell_formula_units_Z   4
loop_
 _symmetry_equiv_pos_site_id
 _symmetry_equiv_pos_as_xyz
  1  'x, y, z'
loop_
 _atom_site_type_symbol
 _atom_site_label
 _atom_site_symmetry_multiplicity
 _atom_site_fract_x
 _atom_site_fract_y
 _atom_site_fract_z
 _atom_site_occupancy
  Tm  Tm0  1  0.000000  0.324128  0.413815  1
  Tm  Tm1  1  0.000000  0.675872  0.586185  1
  Tm  Tm2  1  0.000000  0.824128  0.086185  1
  Tm  Tm3  1  0.000000  0.175872  0.913815  1
  Mg  Mg4  1  0.000000  0.944054  0.371994  1
  Mg  Mg5  1  0.000000  0.055946  0.628006  1
  Mg  Mg6  1  0.000000  0.444054  0.128006  1
  Mg  Mg7  1  0.000000  0.555946  0.871994  1
  Tc  Tc8  1  0.000000  0.642220  0.317903  1
  Tc  Tc9  1  0.000000  0.357780  0.682097  1
  Tc  Tc10  1  0.000000  0.142220  0.182097  1
  Tc  Tc11  1  0.000000  0.857780  0.817903  1
  B  B12  1  0.500000  0.554270  0.433482  1
  B  B13  1  0.500000  0.445730  0.566518  1
  B  B14  1  0.500000  0.054270  0.066518  1
  B  B15  1  0.500000  0.945730  0.933482  1
  B  B16  1  0.500000  0.755595  0.419206  1
  B  B17  1  0.500000  0.244405  0.580794  1
  B  B18  1  0.500000  0.255595  0.080794  1
  B  B19  1  0.500000  0.744405  0.919206  1
  B  B20  1  0.500000  0.795169  0.262345  1
  B  B21  1  0.500000  0.204831  0.737654  1
  B  B22  1  0.500000  0.295169  0.237655  1
  B  B23  1  0.500000  0.704831  0.762346  1
  B  B24  1  0.500000  0.628255  0.181010  1
  B  B25  1  0.500000  0.371745  0.818990  1
  B  B26  1  0.500000  0.128255  0.318990  1
  B  B27  1  0.500000  0.871745  0.681010  1
  B  B28  1  0.500000  0.979569  0.212199  1
  B  B29  1  0.500000  0.020431  0.787801  1
  B  B30  1  0.500000  0.479569  0.287801  1
  B  B31  1  0.500000  0.520431  0.712199  1
  B  B32  1  0.500000  0.592936  0.025378  1
  B  B33  1  0.500000  0.407064  0.974622  1
  B  B34  1  0.500000  0.092936  0.474622  1
  B  B35  1  0.500000  0.907064  0.525378  1
