# generated using pymatgen
data_Ho5FeRhO12
_symmetry_space_group_name_H-M   'P 1'
_cell_length_a   6.77497395
_cell_length_b   6.77497352
_cell_length_c   7.27064749
_cell_angle_alpha   74.30437094
_cell_angle_beta   74.30438199
_cell_angle_gamma   51.39512149
_symmetry_Int_Tables_number   1
_chemical_formula_structural   Ho5FeRhO12
_chemical_formula_sum   'Ho5 Fe1 Rh1 O12'
_cell_volume   248.76446161
_cell_formula_units_Z   1
loop_
 _symmetry_equiv_pos_site_id
 _symmetry_equiv_pos_as_xyz
  1  'x, y, z'
loop_
 _atom_site_type_symbol
 _atom_site_label
 _atom_site_symmetry_multiplicity
 _atom_site_fract_x
 _atom_site_fract_y
 _atom_site_fract_z
 _atom_site_occupancy
  Ho  Ho0  1  0.302387  0.305697  0.359706  1
  Ho  Ho1  1  0.694303  0.697613  0.640294  1
  Ho  Ho2  1  0.310777  0.309159  0.828536  1
  Ho  Ho3  1  0.690841  0.689223  0.171464  1
  Ho  Ho4  1  0.998259  0.001741  0.500000  1
  Fe  Fe5  1  0.246191  0.753809  0.000000  1
  Rh  Rh6  1  0.758025  0.241975  0.000000  1
  O  O7  1  0.902823  0.430563  0.917428  1
  O  O8  1  0.421096  0.900199  0.919096  1
  O  O9  1  0.099801  0.578904  0.080904  1
  O  O10  1  0.569437  0.097177  0.082572  1
  O  O11  1  0.097190  0.597032  0.574961  1
  O  O12  1  0.596042  0.095657  0.576265  1
  O  O13  1  0.904343  0.403958  0.423735  1
  O  O14  1  0.402968  0.902810  0.425039  1
  O  O15  1  0.999148  0.002236  0.813515  1
  O  O16  1  0.997764  0.000852  0.186485  1
  O  O17  1  0.504629  0.496025  0.810511  1
  O  O18  1  0.503975  0.495371  0.189489  1
