# generated using pymatgen
data_HoEr(MoO4)3
_symmetry_space_group_name_H-M   'P 1'
_cell_length_a   10.42496658
_cell_length_b   10.42496615
_cell_length_c   10.42496600
_cell_angle_alpha   57.94987293
_cell_angle_beta   57.94986792
_cell_angle_gamma   57.94986615
_symmetry_Int_Tables_number   1
_chemical_formula_structural   HoEr(MoO4)3
_chemical_formula_sum   'Ho2 Er2 Mo6 O24'
_cell_volume   763.45508254
_cell_formula_units_Z   2
loop_
 _symmetry_equiv_pos_site_id
 _symmetry_equiv_pos_as_xyz
  1  'x, y, z'
loop_
 _atom_site_type_symbol
 _atom_site_label
 _atom_site_symmetry_multiplicity
 _atom_site_fract_x
 _atom_site_fract_y
 _atom_site_fract_z
 _atom_site_occupancy
  Ho  Ho0  1  0.141931  0.141902  0.141916  1
  Ho  Ho1  1  0.858091  0.858038  0.858135  1
  Er  Er2  1  0.642163  0.642229  0.642072  1
  Er  Er3  1  0.357887  0.357876  0.357781  1
  Mo  Mo4  1  0.749011  0.031057  0.469501  1
  Mo  Mo5  1  0.969029  0.530470  0.250954  1
  Mo  Mo6  1  0.530539  0.250921  0.968989  1
  Mo  Mo7  1  0.469501  0.749013  0.031012  1
  Mo  Mo8  1  0.031038  0.469489  0.748998  1
  Mo  Mo9  1  0.250892  0.969040  0.530511  1
  O  O10  1  0.925800  0.063200  0.297402  1
  O  O11  1  0.769868  0.999263  0.645280  1
  O  O12  1  0.000760  0.354718  0.230163  1
  O  O13  1  0.702633  0.074115  0.936840  1
  O  O14  1  0.572504  0.203203  0.436660  1
  O  O15  1  0.854861  0.502127  0.728222  1
  O  O16  1  0.498006  0.271676  0.145148  1
  O  O17  1  0.796869  0.563329  0.427529  1
  O  O18  1  0.936845  0.702550  0.074181  1
  O  O19  1  0.563367  0.427468  0.796882  1
  O  O20  1  0.354780  0.230088  0.000788  1
  O  O21  1  0.271722  0.145139  0.497861  1
  O  O22  1  0.728227  0.854935  0.502052  1
  O  O23  1  0.645235  0.769888  0.999265  1
  O  O24  1  0.436694  0.572477  0.203141  1
  O  O25  1  0.063173  0.297418  0.925794  1
  O  O26  1  0.203156  0.436653  0.572462  1
  O  O27  1  0.502067  0.728266  0.854872  1
  O  O28  1  0.145163  0.497927  0.271680  1
  O  O29  1  0.427430  0.796856  0.563382  1
  O  O30  1  0.297372  0.925811  0.063184  1
  O  O31  1  0.999291  0.645243  0.769850  1
  O  O32  1  0.229999  0.000722  0.354823  1
  O  O33  1  0.074099  0.936889  0.702671  1
