# generated using pymatgen
data_Ca3Pr7(SnBi)4
_symmetry_space_group_name_H-M   'P 1'
_cell_length_a   8.43203900
_cell_length_b   8.45138380
_cell_length_c   16.33900206
_cell_angle_alpha   89.89241944
_cell_angle_beta   90.00000000
_cell_angle_gamma   90.00000000
_symmetry_Int_Tables_number   1
_chemical_formula_structural   Ca3Pr7(SnBi)4
_chemical_formula_sum   'Ca6 Pr14 Sn8 Bi8'
_cell_volume   1164.35441176
_cell_formula_units_Z   2
loop_
 _symmetry_equiv_pos_site_id
 _symmetry_equiv_pos_as_xyz
  1  'x, y, z'
loop_
 _atom_site_type_symbol
 _atom_site_label
 _atom_site_symmetry_multiplicity
 _atom_site_fract_x
 _atom_site_fract_y
 _atom_site_fract_z
 _atom_site_occupancy
  Ca  Ca0  1  0.391052  0.836562  0.879723  1
  Ca  Ca1  1  0.891052  0.663438  0.620277  1
  Ca  Ca2  1  0.221963  0.502037  0.749922  1
  Ca  Ca3  1  0.721963  0.997963  0.750078  1
  Ca  Ca4  1  0.777697  0.500521  0.250467  1
  Ca  Ca5  1  0.277697  0.999479  0.249533  1
  Pr  Pr6  1  0.608242  0.164613  0.380210  1
  Pr  Pr7  1  0.108242  0.335387  0.119790  1
  Pr  Pr8  1  0.607416  0.164690  0.120413  1
  Pr  Pr9  1  0.107416  0.335310  0.379587  1
  Pr  Pr10  1  0.393289  0.833842  0.619487  1
  Pr  Pr11  1  0.893289  0.666158  0.880513  1
  Pr  Pr12  1  0.548165  0.324913  0.889724  1
  Pr  Pr13  1  0.048165  0.175087  0.610276  1
  Pr  Pr14  1  0.451575  0.674429  0.390280  1
  Pr  Pr15  1  0.951575  0.825571  0.109720  1
  Pr  Pr16  1  0.449989  0.675292  0.108626  1
  Pr  Pr17  1  0.949989  0.824708  0.391374  1
  Pr  Pr18  1  0.548572  0.324831  0.610792  1
  Pr  Pr19  1  0.048572  0.175169  0.889208  1
  Sn  Sn20  1  0.594045  0.618242  0.751105  1
  Sn  Sn21  1  0.094045  0.881758  0.748895  1
  Sn  Sn22  1  0.407755  0.380087  0.249894  1
  Sn  Sn23  1  0.907755  0.119913  0.250106  1
  Sn  Sn24  1  0.346899  0.135970  0.749994  1
  Sn  Sn25  1  0.846899  0.364030  0.750006  1
  Sn  Sn26  1  0.652737  0.863617  0.249833  1
  Sn  Sn27  1  0.152737  0.636383  0.250167  1
  Bi  Bi28  1  0.270726  0.018512  0.043818  1
  Bi  Bi29  1  0.770726  0.481488  0.456182  1
  Bi  Bi30  1  0.731061  0.979911  0.544539  1
  Bi  Bi31  1  0.231061  0.520089  0.955461  1
  Bi  Bi32  1  0.729234  0.980037  0.956457  1
  Bi  Bi33  1  0.229234  0.519963  0.543543  1
  Bi  Bi34  1  0.269583  0.019693  0.455961  1
  Bi  Bi35  1  0.769583  0.480307  0.044039  1
