# generated using pymatgen
data_Er4Zr3PdF28
_symmetry_space_group_name_H-M   'P 1'
_cell_length_a   5.63324518
_cell_length_b   8.96852728
_cell_length_c   12.13599544
_cell_angle_alpha   62.68061421
_cell_angle_beta   89.94813215
_cell_angle_gamma   89.95116473
_symmetry_Int_Tables_number   1
_chemical_formula_structural   Er4Zr3PdF28
_chemical_formula_sum   'Er4 Zr3 Pd1 F28'
_cell_volume   544.74570955
_cell_formula_units_Z   1
loop_
 _symmetry_equiv_pos_site_id
 _symmetry_equiv_pos_as_xyz
  1  'x, y, z'
loop_
 _atom_site_type_symbol
 _atom_site_label
 _atom_site_symmetry_multiplicity
 _atom_site_fract_x
 _atom_site_fract_y
 _atom_site_fract_z
 _atom_site_occupancy
  Er  Er0  1  0.756732  0.818288  0.764515  1
  Er  Er1  1  0.258046  0.183123  0.733222  1
  Er  Er2  1  0.242561  0.182430  0.239967  1
  Er  Er3  1  0.744695  0.813623  0.266350  1
  Zr  Zr4  1  0.757020  0.273008  0.957832  1
  Zr  Zr5  1  0.255777  0.725642  0.542701  1
  Zr  Zr6  1  0.244322  0.724439  0.044406  1
  Pd  Pd7  1  0.739594  0.271747  0.456962  1
  F  F8  1  0.457126  0.708666  0.914737  1
  F  F9  1  0.934955  0.295243  0.580375  1
  F  F10  1  0.543036  0.289293  0.087025  1
  F  F11  1  0.042733  0.710299  0.413988  1
  F  F12  1  0.447760  0.274503  0.543954  1
  F  F13  1  0.938379  0.728797  0.950389  1
  F  F14  1  0.562135  0.726433  0.451027  1
  F  F15  1  0.062168  0.270024  0.051551  1
  F  F16  1  0.782194  0.527656  0.859588  1
  F  F17  1  0.274496  0.470444  0.638873  1
  F  F18  1  0.217701  0.470102  0.143232  1
  F  F19  1  0.721657  0.515615  0.360530  1
  F  F20  1  0.758475  0.019014  0.060209  1
  F  F21  1  0.257986  0.979625  0.440863  1
  F  F22  1  0.242159  0.978463  0.939389  1
  F  F23  1  0.746177  0.028327  0.549602  1
  F  F24  1  0.971078  0.734588  0.643744  1
  F  F25  1  0.473773  0.268647  0.854197  1
  F  F26  1  0.022124  0.274824  0.363246  1
  F  F27  1  0.527962  0.729659  0.146666  1
  F  F28  1  0.041968  0.749448  0.175293  1
  F  F29  1  0.550022  0.255152  0.327687  1
  F  F30  1  0.960678  0.250631  0.824697  1
  F  F31  1  0.461183  0.751003  0.673301  1
  F  F32  1  0.425105  0.971843  0.235074  1
  F  F33  1  0.924810  0.028080  0.266542  1
  F  F34  1  0.576647  0.029463  0.766105  1
  F  F35  1  0.076764  0.971859  0.732161  1
