# generated using pymatgen
data_DyTmZn2(Co3B)2
_symmetry_space_group_name_H-M   'P 1'
_cell_length_a   5.08215600
_cell_length_b   5.08299243
_cell_length_c   6.78637300
_cell_angle_alpha   90.00000000
_cell_angle_beta   90.00000000
_cell_angle_gamma   119.99455673
_symmetry_Int_Tables_number   1
_chemical_formula_structural   DyTmZn2(Co3B)2
_chemical_formula_sum   'Dy1 Tm1 Zn2 Co6 B2'
_cell_volume   151.83071279
_cell_formula_units_Z   1
loop_
 _symmetry_equiv_pos_site_id
 _symmetry_equiv_pos_as_xyz
  1  'x, y, z'
loop_
 _atom_site_type_symbol
 _atom_site_label
 _atom_site_symmetry_multiplicity
 _atom_site_fract_x
 _atom_site_fract_y
 _atom_site_fract_z
 _atom_site_occupancy
  Dy  Dy0  1  0.999975  0.000000  0.000000  1
  Tm  Tm1  1  0.999996  0.000000  0.500000  1
  Zn  Zn2  1  0.333293  0.666630  0.000000  1
  Zn  Zn3  1  0.666662  0.333370  0.000000  1
  Co  Co4  1  0.499992  0.000000  0.297478  1
  Co  Co5  1  0.499986  0.500005  0.297479  1
  Co  Co6  1  0.999980  0.499995  0.297479  1
  Co  Co7  1  0.499992  0.000000  0.702522  1
  Co  Co8  1  0.499986  0.500005  0.702521  1
  Co  Co9  1  0.999980  0.499995  0.702521  1
  B  B10  1  0.333324  0.666688  0.500000  1
  B  B11  1  0.666635  0.333312  0.500000  1
