# generated using pymatgen
data_Sc2P4Se13
_symmetry_space_group_name_H-M   'P 1'
_cell_length_a   10.34016685
_cell_length_b   10.67376445
_cell_length_c   13.05592733
_cell_angle_alpha   72.11017578
_cell_angle_beta   72.94222861
_cell_angle_gamma   69.99934598
_symmetry_Int_Tables_number   1
_chemical_formula_structural   Sc2P4Se13
_chemical_formula_sum   'Sc4 P8 Se26'
_cell_volume   1259.70594760
_cell_formula_units_Z   2
loop_
 _symmetry_equiv_pos_site_id
 _symmetry_equiv_pos_as_xyz
  1  'x, y, z'
loop_
 _atom_site_type_symbol
 _atom_site_label
 _atom_site_symmetry_multiplicity
 _atom_site_fract_x
 _atom_site_fract_y
 _atom_site_fract_z
 _atom_site_occupancy
  Sc  Sc0  1  0.599947  0.012859  0.608347  1
  Sc  Sc1  1  0.101688  0.510765  0.107600  1
  Sc  Sc2  1  0.400053  0.987141  0.391653  1
  Sc  Sc3  1  0.898312  0.489235  0.892400  1
  P  P4  1  0.243581  0.568495  0.272473  1
  P  P5  1  0.496890  0.255326  0.391147  1
  P  P6  1  0.756419  0.431505  0.727527  1
  P  P7  1  0.228238  0.935894  0.247015  1
  P  P8  1  0.130498  0.234609  0.024557  1
  P  P9  1  0.869502  0.765391  0.975443  1
  P  P10  1  0.503110  0.744674  0.608853  1
  P  P11  1  0.771762  0.064106  0.752985  1
  Se  Se12  1  0.144960  0.004761  0.086935  1
  Se  Se13  1  0.855040  0.995239  0.913065  1
  Se  Se14  1  0.880532  0.236760  0.660767  1
  Se  Se15  1  0.926970  0.358693  0.110169  1
  Se  Se16  1  0.515524  0.181743  0.247169  1
  Se  Se17  1  0.306371  0.790327  0.555672  1
  Se  Se18  1  0.457318  0.869769  0.219527  1
  Se  Se19  1  0.868094  0.921546  0.644761  1
  Se  Se20  1  0.484476  0.818257  0.752831  1
  Se  Se21  1  0.349957  0.157874  0.532845  1
  Se  Se22  1  0.090383  0.449906  0.329666  1
  Se  Se23  1  0.421212  0.489608  0.369150  1
  Se  Se24  1  0.119468  0.763240  0.339233  1
  Se  Se25  1  0.073030  0.641307  0.889831  1
  Se  Se26  1  0.542682  0.130231  0.780473  1
  Se  Se27  1  0.650043  0.842126  0.467155  1
  Se  Se28  1  0.679739  0.392810  0.905505  1
  Se  Se29  1  0.693629  0.209673  0.444328  1
  Se  Se30  1  0.698046  0.706915  0.953917  1
  Se  Se31  1  0.114822  0.266816  0.853776  1
  Se  Se32  1  0.909617  0.550094  0.670334  1
  Se  Se33  1  0.320261  0.607190  0.094495  1
  Se  Se34  1  0.885178  0.733184  0.146224  1
  Se  Se35  1  0.301954  0.293085  0.046083  1
  Se  Se36  1  0.578788  0.510392  0.630850  1
  Se  Se37  1  0.131906  0.078454  0.355239  1
