# generated using pymatgen
data_Hf2CdAgF11
_symmetry_space_group_name_H-M   'P 1'
_cell_length_a   5.95520626
_cell_length_b   5.95520674
_cell_length_c   7.86451400
_cell_angle_alpha   69.80915614
_cell_angle_beta   69.80915443
_cell_angle_gamma   73.75529206
_symmetry_Int_Tables_number   1
_chemical_formula_structural   Hf2CdAgF11
_chemical_formula_sum   'Hf2 Cd1 Ag1 F11'
_cell_volume   241.56652373
_cell_formula_units_Z   1
loop_
 _symmetry_equiv_pos_site_id
 _symmetry_equiv_pos_as_xyz
  1  'x, y, z'
loop_
 _atom_site_type_symbol
 _atom_site_label
 _atom_site_symmetry_multiplicity
 _atom_site_fract_x
 _atom_site_fract_y
 _atom_site_fract_z
 _atom_site_occupancy
  Hf  Hf0  1  0.504684  0.504684  0.765334  1
  Hf  Hf1  1  0.495316  0.495316  0.234666  1
  Cd  Cd2  1  0.000000  0.000000  0.500000  1
  Ag  Ag3  1  0.000000  0.000000  0.000000  1
  F  F4  1  0.207304  0.760800  0.306077  1
  F  F5  1  0.239200  0.792696  0.693923  1
  F  F6  1  0.792696  0.239200  0.693923  1
  F  F7  1  0.760800  0.207304  0.306077  1
  F  F8  1  0.500000  0.500000  0.500000  1
  F  F9  1  0.659744  0.340256  0.000000  1
  F  F10  1  0.340256  0.659744  0.000000  1
  F  F11  1  0.738308  0.738308  0.656030  1
  F  F12  1  0.261692  0.261692  0.343970  1
  F  F13  1  0.723069  0.723069  0.112718  1
  F  F14  1  0.276931  0.276931  0.887282  1
