# generated using pymatgen
data_Dy5Ho11Cd4Ir3Os
_symmetry_space_group_name_H-M   'P 1'
_cell_length_a   9.64089824
_cell_length_b   9.63948806
_cell_length_c   9.63948774
_cell_angle_alpha   59.52037028
_cell_angle_beta   59.52169014
_cell_angle_gamma   59.52168647
_symmetry_Int_Tables_number   1
_chemical_formula_structural   Dy5Ho11Cd4Ir3Os
_chemical_formula_sum   'Dy5 Ho11 Cd4 Ir3 Os1'
_cell_volume   626.55107179
_cell_formula_units_Z   1
loop_
 _symmetry_equiv_pos_site_id
 _symmetry_equiv_pos_as_xyz
  1  'x, y, z'
loop_
 _atom_site_type_symbol
 _atom_site_label
 _atom_site_symmetry_multiplicity
 _atom_site_fract_x
 _atom_site_fract_y
 _atom_site_fract_z
 _atom_site_occupancy
  Dy  Dy0  1  0.806723  0.189310  0.189310  1
  Dy  Dy1  1  0.811533  0.188306  0.811418  1
  Dy  Dy2  1  0.189305  0.806738  0.189169  1
  Dy  Dy3  1  0.811533  0.811418  0.188306  1
  Dy  Dy4  1  0.189305  0.189169  0.806738  1
  Ho  Ho5  1  0.599496  0.599565  0.599565  1
  Ho  Ho6  1  0.598556  0.598631  0.206992  1
  Ho  Ho7  1  0.598556  0.206992  0.598631  1
  Ho  Ho8  1  0.206930  0.598644  0.598644  1
  Ho  Ho9  1  0.061982  0.438742  0.438742  1
  Ho  Ho10  1  0.437468  0.059769  0.059769  1
  Ho  Ho11  1  0.438716  0.061928  0.438825  1
  Ho  Ho12  1  0.059771  0.437569  0.059702  1
  Ho  Ho13  1  0.438716  0.438825  0.061928  1
  Ho  Ho14  1  0.059771  0.059702  0.437569  1
  Ho  Ho15  1  0.188501  0.811380  0.811380  1
  Cd  Cd16  1  0.829941  0.829812  0.829812  1
  Cd  Cd17  1  0.830419  0.830434  0.507045  1
  Cd  Cd18  1  0.830419  0.507045  0.830434  1
  Cd  Cd19  1  0.506956  0.830419  0.830419  1
  Ir  Ir20  1  0.393314  0.393520  0.826993  1
  Ir  Ir21  1  0.393314  0.826993  0.393520  1
  Ir  Ir22  1  0.827038  0.393373  0.393373  1
  Os  Os23  1  0.391739  0.391720  0.391720  1
