# generated using pymatgen
data_Tb4ErP12Ru16Pt3
_symmetry_space_group_name_H-M   'P 1'
_cell_length_a   12.60285700
_cell_length_b   12.60285920
_cell_length_c   3.99078700
_cell_angle_alpha   90.00000000
_cell_angle_beta   90.00000000
_cell_angle_gamma   120.00000209
_symmetry_Int_Tables_number   1
_chemical_formula_structural   Tb4ErP12Ru16Pt3
_chemical_formula_sum   'Tb4 Er1 P12 Ru16 Pt3'
_cell_volume   548.94301627
_cell_formula_units_Z   1
loop_
 _symmetry_equiv_pos_site_id
 _symmetry_equiv_pos_as_xyz
  1  'x, y, z'
loop_
 _atom_site_type_symbol
 _atom_site_label
 _atom_site_symmetry_multiplicity
 _atom_site_fract_x
 _atom_site_fract_y
 _atom_site_fract_z
 _atom_site_occupancy
  Tb  Tb0  1  0.182019  0.182006  0.500000  1
  Tb  Tb1  1  0.817994  0.000013  0.500000  1
  Tb  Tb2  1  0.999987  0.817981  0.500000  1
  Tb  Tb3  1  0.333333  0.666667  0.000000  1
  Er  Er4  1  0.666667  0.333333  0.000000  1
  P  P5  1  0.814876  0.814703  0.000000  1
  P  P6  1  0.185297  0.000173  0.000000  1
  P  P7  1  0.999827  0.185124  0.000000  1
  P  P8  1  0.180012  0.480006  0.500000  1
  P  P9  1  0.519994  0.700007  0.500000  1
  P  P10  1  0.299993  0.819988  0.500000  1
  P  P11  1  0.699785  0.519110  0.500000  1
  P  P12  1  0.819326  0.300215  0.500000  1
  P  P13  1  0.480890  0.180674  0.500000  1
  P  P14  1  0.365457  0.365544  0.000000  1
  P  P15  1  0.634456  0.999913  0.000000  1
  P  P16  1  0.000087  0.634543  0.000000  1
  Ru  Ru17  1  0.711076  0.710861  0.500000  1
  Ru  Ru18  1  0.289139  0.000216  0.500000  1
  Ru  Ru19  1  0.999784  0.288924  0.500000  1
  Ru  Ru20  1  0.184788  0.378459  0.000000  1
  Ru  Ru21  1  0.621541  0.806329  0.000000  1
  Ru  Ru22  1  0.193671  0.815212  0.000000  1
  Ru  Ru23  1  0.806028  0.620800  0.000000  1
  Ru  Ru24  1  0.814772  0.193972  0.000000  1
  Ru  Ru25  1  0.379200  0.185228  0.000000  1
  Ru  Ru26  1  0.369313  0.493721  0.500000  1
  Ru  Ru27  1  0.506279  0.875590  0.500000  1
  Ru  Ru28  1  0.124410  0.630687  0.500000  1
  Ru  Ru29  1  0.874677  0.505231  0.500000  1
  Ru  Ru30  1  0.630553  0.125323  0.500000  1
  Ru  Ru31  1  0.494769  0.369447  0.500000  1
  Ru  Ru32  1  0.000000  0.000000  0.000000  1
  Pt  Pt33  1  0.551605  0.551652  0.000000  1
  Pt  Pt34  1  0.448348  0.999953  0.000000  1
  Pt  Pt35  1  0.000047  0.448395  0.000000  1
