# generated using pymatgen
data_Zr9CuNiP4
_symmetry_space_group_name_H-M   'P 1'
_cell_length_a   12.12872400
_cell_length_b   12.13023100
_cell_length_c   3.70626500
_cell_angle_alpha   90.00000000
_cell_angle_beta   90.00000000
_cell_angle_gamma   90.00000000
_symmetry_Int_Tables_number   1
_chemical_formula_structural   Zr9CuNiP4
_chemical_formula_sum   'Zr18 Cu2 Ni2 P8'
_cell_volume   545.28136153
_cell_formula_units_Z   2
loop_
 _symmetry_equiv_pos_site_id
 _symmetry_equiv_pos_as_xyz
  1  'x, y, z'
loop_
 _atom_site_type_symbol
 _atom_site_label
 _atom_site_symmetry_multiplicity
 _atom_site_fract_x
 _atom_site_fract_y
 _atom_site_fract_z
 _atom_site_occupancy
  Zr  Zr0  1  0.000297  0.999656  0.000000  1
  Zr  Zr1  1  0.499703  0.499656  0.000000  1
  Zr  Zr2  1  0.099170  0.181172  0.500000  1
  Zr  Zr3  1  0.180256  0.899497  0.500000  1
  Zr  Zr4  1  0.818740  0.103029  0.500000  1
  Zr  Zr5  1  0.895521  0.818871  0.500000  1
  Zr  Zr6  1  0.400830  0.681172  0.500000  1
  Zr  Zr7  1  0.604479  0.318871  0.500000  1
  Zr  Zr8  1  0.681260  0.603029  0.500000  1
  Zr  Zr9  1  0.319744  0.399497  0.500000  1
  Zr  Zr10  1  0.093582  0.405172  0.000000  1
  Zr  Zr11  1  0.406418  0.905172  0.000000  1
  Zr  Zr12  1  0.596948  0.095987  0.000000  1
  Zr  Zr13  1  0.903052  0.595987  0.000000  1
  Zr  Zr14  1  0.382267  0.118172  0.500000  1
  Zr  Zr15  1  0.117733  0.618172  0.500000  1
  Zr  Zr16  1  0.880456  0.380525  0.500000  1
  Zr  Zr17  1  0.619544  0.880525  0.500000  1
  Cu  Cu18  1  0.255074  0.244756  0.000000  1
  Cu  Cu19  1  0.244926  0.744756  0.000000  1
  Ni  Ni20  1  0.754262  0.254569  0.000000  1
  Ni  Ni21  1  0.745738  0.754569  0.000000  1
  P  P22  1  0.224503  0.054402  0.000000  1
  P  P23  1  0.054061  0.775368  0.000000  1
  P  P24  1  0.943549  0.224614  0.000000  1
  P  P25  1  0.775311  0.944209  0.000000  1
  P  P26  1  0.275497  0.554402  0.000000  1
  P  P27  1  0.724689  0.444209  0.000000  1
  P  P28  1  0.556451  0.724614  0.000000  1
  P  P29  1  0.445939  0.275368  0.000000  1
