# generated using pymatgen
data_Y3AlIn2Ga2Pd
_symmetry_space_group_name_H-M   'P 1'
_cell_length_a   7.10103800
_cell_length_b   7.20613920
_cell_length_c   4.41312600
_cell_angle_alpha   90.00000000
_cell_angle_beta   90.00000000
_cell_angle_gamma   119.51871339
_symmetry_Int_Tables_number   1
_chemical_formula_structural   Y3AlIn2Ga2Pd
_chemical_formula_sum   'Y3 Al1 In2 Ga2 Pd1'
_cell_volume   196.51119856
_cell_formula_units_Z   1
loop_
 _symmetry_equiv_pos_site_id
 _symmetry_equiv_pos_as_xyz
  1  'x, y, z'
loop_
 _atom_site_type_symbol
 _atom_site_label
 _atom_site_symmetry_multiplicity
 _atom_site_fract_x
 _atom_site_fract_y
 _atom_site_fract_z
 _atom_site_occupancy
  Y  Y0  1  0.413963  0.413727  0.500000  1
  Y  Y1  1  0.578436  0.000000  0.500000  1
  Y  Y2  1  0.000236  0.586273  0.500000  1
  Al  Al3  1  0.240533  0.000000  0.000000  1
  In  In4  1  0.004213  0.247767  0.000000  1
  In  In5  1  0.756446  0.752233  0.000000  1
  Ga  Ga6  1  0.653027  0.321239  0.000000  1
  Ga  Ga7  1  0.331788  0.678761  0.000000  1
  Pd  Pd8  1  0.021358  0.000000  0.500000  1
