# generated using pymatgen
data_Er2Ga2CuRu
_symmetry_space_group_name_H-M   'P 1'
_cell_length_a   4.32289700
_cell_length_b   6.83395700
_cell_length_c   7.58540400
_cell_angle_alpha   90.00000000
_cell_angle_beta   90.00000000
_cell_angle_gamma   90.00000000
_symmetry_Int_Tables_number   1
_chemical_formula_structural   Er2Ga2CuRu
_chemical_formula_sum   'Er4 Ga4 Cu2 Ru2'
_cell_volume   224.09173861
_cell_formula_units_Z   2
loop_
 _symmetry_equiv_pos_site_id
 _symmetry_equiv_pos_as_xyz
  1  'x, y, z'
loop_
 _atom_site_type_symbol
 _atom_site_label
 _atom_site_symmetry_multiplicity
 _atom_site_fract_x
 _atom_site_fract_y
 _atom_site_fract_z
 _atom_site_occupancy
  Er  Er0  1  0.250000  0.977196  0.313070  1
  Er  Er1  1  0.250000  0.477196  0.186930  1
  Er  Er2  1  0.750000  0.009048  0.702068  1
  Er  Er3  1  0.750000  0.509048  0.797932  1
  Ga  Ga4  1  0.250000  0.327635  0.567543  1
  Ga  Ga5  1  0.250000  0.827635  0.932457  1
  Ga  Ga6  1  0.750000  0.676652  0.422443  1
  Ga  Ga7  1  0.750000  0.176652  0.077557  1
  Cu  Cu8  1  0.750000  0.786693  0.100372  1
  Cu  Cu9  1  0.750000  0.286693  0.399628  1
  Ru  Ru10  1  0.250000  0.222775  0.897304  1
  Ru  Ru11  1  0.250000  0.722775  0.602696  1
