# generated using pymatgen
data_AcSbRuO
_symmetry_space_group_name_H-M   'P 1'
_cell_length_a   4.37677200
_cell_length_b   4.37677200
_cell_length_c   9.07949500
_cell_angle_alpha   90.00000000
_cell_angle_beta   90.00000000
_cell_angle_gamma   90.00000000
_symmetry_Int_Tables_number   1
_chemical_formula_structural   AcSbRuO
_chemical_formula_sum   'Ac2 Sb2 Ru2 O2'
_cell_volume   173.92801506
_cell_formula_units_Z   2
loop_
 _symmetry_equiv_pos_site_id
 _symmetry_equiv_pos_as_xyz
  1  'x, y, z'
loop_
 _atom_site_type_symbol
 _atom_site_label
 _atom_site_symmetry_multiplicity
 _atom_site_fract_x
 _atom_site_fract_y
 _atom_site_fract_z
 _atom_site_occupancy
  Ac  Ac0  1  0.250001  0.250001  0.133446  1
  Ac  Ac1  1  0.750003  0.750003  0.866556  1
  Sb  Sb2  1  0.750003  0.750003  0.344845  1
  Sb  Sb3  1  0.250001  0.250001  0.655154  1
  Ru  Ru4  1  0.750003  0.250001  0.500000  1
  Ru  Ru5  1  0.250001  0.750003  0.500000  1
  O  O6  1  0.750003  0.250001  0.000000  1
  O  O7  1  0.250001  0.750003  0.000000  1
