# generated using pymatgen
data_YbDy(CoO2)6
_symmetry_space_group_name_H-M   'P 1'
_cell_length_a   4.92259846
_cell_length_b   5.52720345
_cell_length_c   8.50210300
_cell_angle_alpha   89.99969309
_cell_angle_beta   90.00001796
_cell_angle_gamma   73.01227788
_symmetry_Int_Tables_number   1
_chemical_formula_structural   YbDy(CoO2)6
_chemical_formula_sum   'Yb1 Dy1 Co6 O12'
_cell_volume   221.23354664
_cell_formula_units_Z   1
loop_
 _symmetry_equiv_pos_site_id
 _symmetry_equiv_pos_as_xyz
  1  'x, y, z'
loop_
 _atom_site_type_symbol
 _atom_site_label
 _atom_site_symmetry_multiplicity
 _atom_site_fract_x
 _atom_site_fract_y
 _atom_site_fract_z
 _atom_site_occupancy
  Yb  Yb0  1  0.500000  0.500000  0.667115  1
  Dy  Dy1  1  0.000000  0.500000  0.166745  1
  Co  Co2  1  0.500000  0.000000  0.166607  1
  Co  Co3  1  0.499999  0.000000  0.833781  1
  Co  Co4  1  0.500001  0.999999  0.499475  1
  Co  Co5  1  0.000000  0.000000  0.666578  1
  Co  Co6  1  0.000000  0.000000  0.335482  1
  Co  Co7  1  0.000000  0.000000  0.997866  1
  O  O8  1  0.773641  0.191970  0.166600  1
  O  O9  1  0.271048  0.186599  0.666627  1
  O  O10  1  0.226359  0.808031  0.166601  1
  O  O11  1  0.728952  0.813401  0.666630  1
  O  O12  1  0.267560  0.194032  0.001367  1
  O  O13  1  0.772234  0.187739  0.503637  1
  O  O14  1  0.267752  0.193934  0.331869  1
  O  O15  1  0.772407  0.187229  0.829739  1
  O  O16  1  0.732250  0.806065  0.331870  1
  O  O17  1  0.227592  0.812771  0.829740  1
  O  O18  1  0.732438  0.805970  0.001368  1
  O  O19  1  0.227767  0.812261  0.503638  1
