# generated using pymatgen
data_DyLu19Pt12
_symmetry_space_group_name_H-M   'P 1'
_cell_length_a   10.77869501
_cell_length_b   10.77976120
_cell_length_c   6.38357500
_cell_angle_alpha   89.96539322
_cell_angle_beta   90.00259404
_cell_angle_gamma   89.98809037
_symmetry_Int_Tables_number   1
_chemical_formula_structural   DyLu19Pt12
_chemical_formula_sum   'Dy1 Lu19 Pt12'
_cell_volume   741.71865114
_cell_formula_units_Z   1
loop_
 _symmetry_equiv_pos_site_id
 _symmetry_equiv_pos_as_xyz
  1  'x, y, z'
loop_
 _atom_site_type_symbol
 _atom_site_label
 _atom_site_symmetry_multiplicity
 _atom_site_fract_x
 _atom_site_fract_y
 _atom_site_fract_z
 _atom_site_occupancy
  Dy  Dy0  1  0.087461  0.290736  0.123633  1
  Lu  Lu1  1  0.292893  0.086330  0.377549  1
  Lu  Lu2  1  0.292383  0.912886  0.877940  1
  Lu  Lu3  1  0.707700  0.087235  0.876928  1
  Lu  Lu4  1  0.707628  0.912690  0.377594  1
  Lu  Lu5  1  0.587198  0.792061  0.877950  1
  Lu  Lu6  1  0.587161  0.207963  0.377379  1
  Lu  Lu7  1  0.412975  0.792082  0.377543  1
  Lu  Lu8  1  0.412807  0.207869  0.877165  1
  Lu  Lu9  1  0.208122  0.413184  0.622452  1
  Lu  Lu10  1  0.207931  0.588133  0.122786  1
  Lu  Lu11  1  0.791493  0.413111  0.122665  1
  Lu  Lu12  1  0.791824  0.587415  0.622914  1
  Lu  Lu13  1  0.912530  0.707908  0.123105  1
  Lu  Lu14  1  0.911941  0.292243  0.622631  1
  Lu  Lu15  1  0.087613  0.708222  0.622791  1
  Lu  Lu16  1  0.999673  0.999787  0.499816  1
  Lu  Lu17  1  0.999577  0.999066  0.999313  1
  Lu  Lu18  1  0.499753  0.500051  0.999597  1
  Lu  Lu19  1  0.500337  0.500209  0.500255  1
  Pt  Pt20  1  0.843827  0.152418  0.250599  1
  Pt  Pt21  1  0.845839  0.846018  0.749939  1
  Pt  Pt22  1  0.155068  0.151741  0.745730  1
  Pt  Pt23  1  0.153780  0.846598  0.250193  1
  Pt  Pt24  1  0.653744  0.346204  0.750026  1
  Pt  Pt25  1  0.653779  0.653442  0.249817  1
  Pt  Pt26  1  0.349292  0.346309  0.251546  1
  Pt  Pt27  1  0.346192  0.654567  0.750303  1
  Pt  Pt28  1  0.500702  0.000149  0.117522  1
  Pt  Pt29  1  0.500189  0.999690  0.617609  1
  Pt  Pt30  1  0.999244  0.502209  0.881222  1
  Pt  Pt31  1  0.999345  0.501474  0.383489  1
