# generated using pymatgen
data_Tb2Ho10InCo5
_symmetry_space_group_name_H-M   'P 1'
_cell_length_a   8.24517292
_cell_length_b   8.24519329
_cell_length_c   8.23997241
_cell_angle_alpha   110.70748885
_cell_angle_beta   110.83334959
_cell_angle_gamma   106.93012490
_symmetry_Int_Tables_number   1
_chemical_formula_structural   Tb2Ho10InCo5
_chemical_formula_sum   'Tb2 Ho10 In1 Co5'
_cell_volume   430.44112559
_cell_formula_units_Z   1
loop_
 _symmetry_equiv_pos_site_id
 _symmetry_equiv_pos_as_xyz
  1  'x, y, z'
loop_
 _atom_site_type_symbol
 _atom_site_label
 _atom_site_symmetry_multiplicity
 _atom_site_fract_x
 _atom_site_fract_y
 _atom_site_fract_z
 _atom_site_occupancy
  Tb  Tb0  1  0.814206  0.708904  0.523110  1
  Tb  Tb1  1  0.185794  0.291096  0.476890  1
  Ho  Ho2  1  0.186318  0.709211  0.895532  1
  Ho  Ho3  1  0.813682  0.290789  0.104468  1
  Ho  Ho4  1  0.685953  0.380076  0.695090  1
  Ho  Ho5  1  0.314047  0.619924  0.304910  1
  Ho  Ho6  1  0.684984  0.990863  0.304907  1
  Ho  Ho7  1  0.315016  0.009137  0.695093  1
  Ho  Ho8  1  0.598250  0.790645  0.808944  1
  Ho  Ho9  1  0.401750  0.209355  0.191056  1
  Ho  Ho10  1  0.981698  0.789302  0.191058  1
  Ho  Ho11  1  0.018302  0.210698  0.808942  1
  In  In12  1  0.500000  0.500000  0.000000  1
  Co  Co13  1  0.621847  0.000709  0.622555  1
  Co  Co14  1  0.378153  0.999291  0.377445  1
  Co  Co15  1  0.112742  0.612742  0.499999  1
  Co  Co16  1  0.887258  0.387258  0.500001  1
  Co  Co17  1  0.000000  0.000000  0.000000  1
