# generated using pymatgen
data_Nd2Al20IrOs2Rh
_symmetry_space_group_name_H-M   'P 1'
_cell_length_a   6.88338041
_cell_length_b   6.89460281
_cell_length_c   9.22244695
_cell_angle_alpha   90.06388689
_cell_angle_beta   90.03037552
_cell_angle_gamma   97.00874512
_symmetry_Int_Tables_number   1
_chemical_formula_structural   Nd2Al20IrOs2Rh
_chemical_formula_sum   'Nd2 Al20 Ir1 Os2 Rh1'
_cell_volume   434.40957303
_cell_formula_units_Z   1
loop_
 _symmetry_equiv_pos_site_id
 _symmetry_equiv_pos_as_xyz
  1  'x, y, z'
loop_
 _atom_site_type_symbol
 _atom_site_label
 _atom_site_symmetry_multiplicity
 _atom_site_fract_x
 _atom_site_fract_y
 _atom_site_fract_z
 _atom_site_occupancy
  Nd  Nd0  1  0.871053  0.124849  0.749980  1
  Nd  Nd1  1  0.128947  0.875151  0.250020  1
  Al  Al2  1  0.620380  0.376136  0.550146  1
  Al  Al3  1  0.379620  0.623864  0.449854  1
  Al  Al4  1  0.379716  0.624022  0.049889  1
  Al  Al5  1  0.620284  0.375978  0.950111  1
  Al  Al6  1  0.224547  0.223298  0.499145  1
  Al  Al7  1  0.775453  0.776702  0.500855  1
  Al  Al8  1  0.775558  0.777461  0.998824  1
  Al  Al9  1  0.224442  0.222539  0.001176  1
  Al  Al10  1  0.841034  0.157595  0.103177  1
  Al  Al11  1  0.158966  0.842405  0.896823  1
  Al  Al12  1  0.158667  0.841888  0.603365  1
  Al  Al13  1  0.841333  0.158112  0.396635  1
  Al  Al14  1  0.854731  0.589286  0.749630  1
  Al  Al15  1  0.145269  0.410714  0.250370  1
  Al  Al16  1  0.410983  0.143667  0.750040  1
  Al  Al17  1  0.589017  0.856333  0.249960  1
  Al  Al18  1  0.223830  0.483086  0.750065  1
  Al  Al19  1  0.776170  0.516914  0.249935  1
  Al  Al20  1  0.516380  0.779663  0.750130  1
  Al  Al21  1  0.483620  0.220337  0.249870  1
  Ir  Ir22  1  0.000000  0.500000  0.000000  1
  Os  Os23  1  0.500000  0.000000  0.000000  1
  Os  Os24  1  0.500000  0.000000  0.500000  1
  Rh  Rh25  1  0.000000  0.500000  0.500000  1
