# generated using pymatgen
data_Ti4MnSe8
_symmetry_space_group_name_H-M   'P 1'
_cell_length_a   7.16773893
_cell_length_b   7.16773910
_cell_length_c   8.72535585
_cell_angle_alpha   52.45710945
_cell_angle_beta   52.45710831
_cell_angle_gamma   60.19210436
_symmetry_Int_Tables_number   1
_chemical_formula_structural   Ti4MnSe8
_chemical_formula_sum   'Ti4 Mn1 Se8'
_cell_volume   276.12834942
_cell_formula_units_Z   1
loop_
 _symmetry_equiv_pos_site_id
 _symmetry_equiv_pos_as_xyz
  1  'x, y, z'
loop_
 _atom_site_type_symbol
 _atom_site_label
 _atom_site_symmetry_multiplicity
 _atom_site_fract_x
 _atom_site_fract_y
 _atom_site_fract_z
 _atom_site_occupancy
  Ti  Ti0  1  0.263394  0.736606  0.500000  1
  Ti  Ti1  1  0.736606  0.263394  0.500000  1
  Ti  Ti2  1  0.253676  0.253676  0.990722  1
  Ti  Ti3  1  0.746324  0.746324  0.009278  1
  Mn  Mn4  1  0.000000  0.000000  0.000000  1
  Se  Se5  1  0.962119  0.962119  0.334287  1
  Se  Se6  1  0.037881  0.037881  0.665713  1
  Se  Se7  1  0.457887  0.457887  0.331629  1
  Se  Se8  1  0.542113  0.542113  0.668371  1
  Se  Se9  1  0.043338  0.538255  0.170092  1
  Se  Se10  1  0.538255  0.043338  0.170092  1
  Se  Se11  1  0.956662  0.461745  0.829908  1
  Se  Se12  1  0.461745  0.956662  0.829908  1
