# generated using pymatgen
data_Sm4Ga9GeAu6
_symmetry_space_group_name_H-M   'P 1'
_cell_length_a   8.70834839
_cell_length_b   8.70970539
_cell_length_c   8.70970488
_cell_angle_alpha   138.38391508
_cell_angle_beta   103.25499563
_cell_angle_gamma   91.32608361
_symmetry_Int_Tables_number   1
_chemical_formula_structural   Sm4Ga9GeAu6
_chemical_formula_sum   'Sm4 Ga9 Ge1 Au6'
_cell_volume   407.24407835
_cell_formula_units_Z   1
loop_
 _symmetry_equiv_pos_site_id
 _symmetry_equiv_pos_as_xyz
  1  'x, y, z'
loop_
 _atom_site_type_symbol
 _atom_site_label
 _atom_site_symmetry_multiplicity
 _atom_site_fract_x
 _atom_site_fract_y
 _atom_site_fract_z
 _atom_site_occupancy
  Sm  Sm0  1  0.868204  0.625301  0.242903  1
  Sm  Sm1  1  0.134642  0.373813  0.760828  1
  Sm  Sm2  1  0.612534  0.873716  0.738817  1
  Sm  Sm3  1  0.386388  0.126793  0.259595  1
  Ga  Ga4  1  0.499829  0.749565  0.246791  1
  Ga  Ga5  1  0.499829  0.253038  0.750264  1
  Ga  Ga6  1  0.233932  0.983545  0.747125  1
  Ga  Ga7  1  0.765971  0.513096  0.751944  1
  Ga  Ga8  1  0.765971  0.014027  0.252875  1
  Ga  Ga9  1  0.233932  0.486807  0.250387  1
  Ga  Ga10  1  0.027806  0.882187  0.145619  1
  Ga  Ga11  1  0.973167  0.117687  0.855479  1
  Ga  Ga12  1  0.262256  0.617648  0.644608  1
  Ge  Ge13  1  0.734823  0.381268  0.353555  1
  Au  Au14  1  0.509615  0.635594  0.874020  1
  Au  Au15  1  0.488344  0.366292  0.122053  1
  Au  Au16  1  0.000701  0.750623  0.752033  1
  Au  Au17  1  0.000701  0.248668  0.250078  1
  Au  Au18  1  0.244177  0.868743  0.375434  1
  Au  Au19  1  0.757178  0.131588  0.625590  1
