# generated using pymatgen
data_LuNiB2Ir
_symmetry_space_group_name_H-M   'P 1'
_cell_length_a   4.98589190
_cell_length_b   5.03562133
_cell_length_c   7.26619691
_cell_angle_alpha   60.39754560
_cell_angle_beta   57.56675132
_cell_angle_gamma   61.81590440
_symmetry_Int_Tables_number   1
_chemical_formula_structural   LuNiB2Ir
_chemical_formula_sum   'Lu2 Ni2 B4 Ir2'
_cell_volume   128.42177647
_cell_formula_units_Z   2
loop_
 _symmetry_equiv_pos_site_id
 _symmetry_equiv_pos_as_xyz
  1  'x, y, z'
loop_
 _atom_site_type_symbol
 _atom_site_label
 _atom_site_symmetry_multiplicity
 _atom_site_fract_x
 _atom_site_fract_y
 _atom_site_fract_z
 _atom_site_occupancy
  Lu  Lu0  1  0.877564  0.117880  0.749600  1
  Lu  Lu1  1  0.122436  0.882120  0.250400  1
  Ni  Ni2  1  0.733247  0.521226  0.302801  1
  Ni  Ni3  1  0.266753  0.478774  0.697199  1
  B  B4  1  0.499769  0.830749  0.477896  1
  B  B5  1  0.500231  0.169251  0.522104  1
  B  B6  1  0.161353  0.502788  0.013485  1
  B  B7  1  0.838647  0.497212  0.986515  1
  Ir  Ir8  1  0.454008  0.265626  0.213571  1
  Ir  Ir9  1  0.545992  0.734374  0.786429  1
