# generated using pymatgen
data_La7Nd(Tm3Sn4)4
_symmetry_space_group_name_H-M   'P 1'
_cell_length_a   8.20902503
_cell_length_b   8.27259096
_cell_length_c   15.73055900
_cell_angle_alpha   90.03946422
_cell_angle_beta   89.88676974
_cell_angle_gamma   90.08917363
_symmetry_Int_Tables_number   1
_chemical_formula_structural   La7Nd(Tm3Sn4)4
_chemical_formula_sum   'La7 Nd1 Tm12 Sn16'
_cell_volume   1068.25715656
_cell_formula_units_Z   1
loop_
 _symmetry_equiv_pos_site_id
 _symmetry_equiv_pos_as_xyz
  1  'x, y, z'
loop_
 _atom_site_type_symbol
 _atom_site_label
 _atom_site_symmetry_multiplicity
 _atom_site_fract_x
 _atom_site_fract_y
 _atom_site_fract_z
 _atom_site_occupancy
  La  La0  1  0.496790  0.675695  0.595647  1
  La  La1  1  0.996654  0.825229  0.903726  1
  La  La2  1  0.503842  0.325316  0.096182  1
  La  La3  1  0.003644  0.173675  0.405198  1
  La  La4  1  0.502116  0.324882  0.404751  1
  La  La5  1  0.003428  0.174966  0.095793  1
  La  La6  1  0.496118  0.674936  0.902829  1
  Nd  Nd7  1  0.994896  0.824427  0.597672  1
  Tm  Tm8  1  0.656714  0.165053  0.624196  1
  Tm  Tm9  1  0.155758  0.334596  0.873799  1
  Tm  Tm10  1  0.344833  0.834130  0.124924  1
  Tm  Tm11  1  0.844965  0.666498  0.375512  1
  Tm  Tm12  1  0.343409  0.835292  0.375622  1
  Tm  Tm13  1  0.843647  0.664718  0.125093  1
  Tm  Tm14  1  0.655828  0.165303  0.874149  1
  Tm  Tm15  1  0.156299  0.334095  0.625356  1
  Tm  Tm16  1  0.823610  0.498228  0.749590  1
  Tm  Tm17  1  0.323308  0.001473  0.749067  1
  Tm  Tm18  1  0.176648  0.502184  0.250343  1
  Tm  Tm19  1  0.677334  0.998321  0.250432  1
  Sn  Sn20  1  0.681165  0.958721  0.457847  1
  Sn  Sn21  1  0.179823  0.540209  0.042780  1
  Sn  Sn22  1  0.320870  0.040937  0.956362  1
  Sn  Sn23  1  0.822929  0.462086  0.543768  1
  Sn  Sn24  1  0.316595  0.038270  0.543779  1
  Sn  Sn25  1  0.820228  0.459316  0.956406  1
  Sn  Sn26  1  0.679727  0.959283  0.042860  1
  Sn  Sn27  1  0.177881  0.542144  0.458436  1
  Sn  Sn28  1  0.459278  0.372437  0.749096  1
  Sn  Sn29  1  0.958688  0.126193  0.749280  1
  Sn  Sn30  1  0.541260  0.628183  0.250896  1
  Sn  Sn31  1  0.041470  0.872177  0.249874  1
  Sn  Sn32  1  0.688959  0.858678  0.748861  1
  Sn  Sn33  1  0.186769  0.642526  0.748665  1
  Sn  Sn34  1  0.311974  0.141285  0.250267  1
  Sn  Sn35  1  0.812541  0.358538  0.250941  1
