# generated using pymatgen
data_Tb6Sc8Al8Ir7
_symmetry_space_group_name_H-M   'P 1'
_cell_length_a   9.27727180
_cell_length_b   9.27727189
_cell_length_c   9.27727200
_cell_angle_alpha   59.99999962
_cell_angle_beta   59.99999929
_cell_angle_gamma   60.00000397
_symmetry_Int_Tables_number   1
_chemical_formula_structural   Tb6Sc8Al8Ir7
_chemical_formula_sum   'Tb6 Sc8 Al8 Ir7'
_cell_volume   564.60649117
_cell_formula_units_Z   1
loop_
 _symmetry_equiv_pos_site_id
 _symmetry_equiv_pos_as_xyz
  1  'x, y, z'
loop_
 _atom_site_type_symbol
 _atom_site_label
 _atom_site_symmetry_multiplicity
 _atom_site_fract_x
 _atom_site_fract_y
 _atom_site_fract_z
 _atom_site_occupancy
  Tb  Tb0  1  0.690722  0.690722  0.309278  1
  Tb  Tb1  1  0.309278  0.690722  0.309278  1
  Tb  Tb2  1  0.690722  0.309278  0.309278  1
  Tb  Tb3  1  0.309278  0.309278  0.690722  1
  Tb  Tb4  1  0.690722  0.309278  0.690722  1
  Tb  Tb5  1  0.309278  0.690722  0.690722  1
  Sc  Sc6  1  0.878545  0.878545  0.364366  1
  Sc  Sc7  1  0.878545  0.364366  0.878545  1
  Sc  Sc8  1  0.364366  0.878545  0.878545  1
  Sc  Sc9  1  0.878545  0.878545  0.878545  1
  Sc  Sc10  1  0.121455  0.121455  0.635634  1
  Sc  Sc11  1  0.121455  0.635634  0.121455  1
  Sc  Sc12  1  0.635634  0.121455  0.121455  1
  Sc  Sc13  1  0.121455  0.121455  0.121455  1
  Al  Al14  1  0.668067  0.668067  0.995797  1
  Al  Al15  1  0.668067  0.995797  0.668067  1
  Al  Al16  1  0.995797  0.668067  0.668067  1
  Al  Al17  1  0.668067  0.668067  0.668067  1
  Al  Al18  1  0.331933  0.331933  0.004203  1
  Al  Al19  1  0.331933  0.004203  0.331933  1
  Al  Al20  1  0.004203  0.331933  0.331933  1
  Al  Al21  1  0.331933  0.331933  0.331933  1
  Ir  Ir22  1  0.000000  0.000000  0.000000  1
  Ir  Ir23  1  0.000000  0.000000  0.500000  1
  Ir  Ir24  1  0.500000  0.000000  0.500000  1
  Ir  Ir25  1  0.000000  0.500000  0.500000  1
  Ir  Ir26  1  0.500000  0.500000  0.000000  1
  Ir  Ir27  1  0.000000  0.500000  0.000000  1
  Ir  Ir28  1  0.500000  0.000000  0.000000  1
