# generated using pymatgen
data_La4Al13GaPt2
_symmetry_space_group_name_H-M   'P 1'
_cell_length_a   6.10052518
_cell_length_b   6.10621532
_cell_length_c   11.80973300
_cell_angle_alpha   75.01745393
_cell_angle_beta   75.03175477
_cell_angle_gamma   89.99999857
_symmetry_Int_Tables_number   1
_chemical_formula_structural   La4Al13GaPt2
_chemical_formula_sum   'La4 Al13 Ga1 Pt2'
_cell_volume   409.49848096
_cell_formula_units_Z   1
loop_
 _symmetry_equiv_pos_site_id
 _symmetry_equiv_pos_as_xyz
  1  'x, y, z'
loop_
 _atom_site_type_symbol
 _atom_site_label
 _atom_site_symmetry_multiplicity
 _atom_site_fract_x
 _atom_site_fract_y
 _atom_site_fract_z
 _atom_site_occupancy
  La  La0  1  0.997840  0.997840  0.004321  1
  La  La1  1  0.499168  0.499168  0.001663  1
  La  La2  1  0.749056  0.249056  0.501889  1
  La  La3  1  0.247709  0.747709  0.504584  1
  Al  Al4  1  0.200702  0.200702  0.598598  1
  Al  Al5  1  0.809236  0.809236  0.381530  1
  Al  Al6  1  0.616675  0.128120  0.251358  1
  Al  Al7  1  0.131964  0.620521  0.251358  1
  Al  Al8  1  0.616675  0.620521  0.251358  1
  Al  Al9  1  0.131964  0.128120  0.251358  1
  Al  Al10  1  0.872567  0.363934  0.752691  1
  Al  Al11  1  0.374743  0.883373  0.752691  1
  Al  Al12  1  0.872567  0.883373  0.752691  1
  Al  Al13  1  0.374743  0.363934  0.752691  1
  Al  Al14  1  0.692727  0.692727  0.614546  1
  Al  Al15  1  0.058518  0.558518  0.882964  1
  Al  Al16  1  0.450107  0.950107  0.099784  1
  Ga  Ga17  1  0.943411  0.443411  0.113178  1
  Pt  Pt18  1  0.312622  0.312622  0.374758  1
  Pt  Pt19  1  0.561837  0.061837  0.876327  1
