# generated using pymatgen
data_Tb2Y10Rh7
_symmetry_space_group_name_H-M   'P 1'
_cell_length_a   11.38816100
_cell_length_b   8.42358203
_cell_length_c   11.30793000
_cell_angle_alpha   56.38335651
_cell_angle_beta   90.00000000
_cell_angle_gamma   90.00000000
_symmetry_Int_Tables_number   1
_chemical_formula_structural   Tb2Y10Rh7
_chemical_formula_sum   'Tb4 Y20 Rh14'
_cell_volume   903.34493271
_cell_formula_units_Z   2
loop_
 _symmetry_equiv_pos_site_id
 _symmetry_equiv_pos_as_xyz
  1  'x, y, z'
loop_
 _atom_site_type_symbol
 _atom_site_label
 _atom_site_symmetry_multiplicity
 _atom_site_fract_x
 _atom_site_fract_y
 _atom_site_fract_z
 _atom_site_occupancy
  Tb  Tb0  1  0.920271  0.275817  0.291752  1
  Tb  Tb1  1  0.420271  0.724183  0.208248  1
  Tb  Tb2  1  0.079729  0.724183  0.708248  1
  Tb  Tb3  1  0.579729  0.275817  0.791752  1
  Y  Y4  1  0.702743  0.236557  0.531224  1
  Y  Y5  1  0.202743  0.763443  0.968776  1
  Y  Y6  1  0.845684  0.506864  0.659118  1
  Y  Y7  1  0.345684  0.493136  0.840882  1
  Y  Y8  1  0.154316  0.493136  0.340882  1
  Y  Y9  1  0.654316  0.506864  0.159118  1
  Y  Y10  1  0.003883  0.849676  0.360939  1
  Y  Y11  1  0.503883  0.150324  0.139061  1
  Y  Y12  1  0.996117  0.150324  0.639061  1
  Y  Y13  1  0.496117  0.849676  0.860939  1
  Y  Y14  1  0.797257  0.236557  0.031224  1
  Y  Y15  1  0.297257  0.763443  0.468776  1
  Y  Y16  1  0.925455  0.777655  0.091556  1
  Y  Y17  1  0.425455  0.222345  0.408444  1
  Y  Y18  1  0.074545  0.222345  0.908444  1
  Y  Y19  1  0.574545  0.777655  0.591556  1
  Y  Y20  1  0.303780  0.245375  0.670611  1
  Y  Y21  1  0.803780  0.754625  0.829389  1
  Y  Y22  1  0.696220  0.754625  0.329389  1
  Y  Y23  1  0.196220  0.245375  0.170611  1
  Rh  Rh24  1  0.500000  0.500000  0.500000  1
  Rh  Rh25  1  0.000000  0.500000  0.000000  1
  Rh  Rh26  1  0.641515  0.915709  0.049120  1
  Rh  Rh27  1  0.141515  0.084291  0.450880  1
  Rh  Rh28  1  0.358485  0.084291  0.950880  1
  Rh  Rh29  1  0.858485  0.915709  0.549120  1
  Rh  Rh30  1  0.395862  0.488710  0.102815  1
  Rh  Rh31  1  0.895862  0.511290  0.397185  1
  Rh  Rh32  1  0.604138  0.511290  0.897185  1
  Rh  Rh33  1  0.104138  0.488710  0.602815  1
  Rh  Rh34  1  0.822564  0.108714  0.840832  1
  Rh  Rh35  1  0.322564  0.891286  0.659168  1
  Rh  Rh36  1  0.177436  0.891286  0.159168  1
  Rh  Rh37  1  0.677436  0.108714  0.340832  1
