# generated using pymatgen
data_PuCo2B2Ru
_symmetry_space_group_name_H-M   'P 1'
_cell_length_a   5.27128869
_cell_length_b   5.27128927
_cell_length_c   2.97708800
_cell_angle_alpha   90.00000000
_cell_angle_beta   90.00000000
_cell_angle_gamma   122.34845657
_symmetry_Int_Tables_number   1
_chemical_formula_structural   PuCo2B2Ru
_chemical_formula_sum   'Pu1 Co2 B2 Ru1'
_cell_volume   69.88503253
_cell_formula_units_Z   1
loop_
 _symmetry_equiv_pos_site_id
 _symmetry_equiv_pos_as_xyz
  1  'x, y, z'
loop_
 _atom_site_type_symbol
 _atom_site_label
 _atom_site_symmetry_multiplicity
 _atom_site_fract_x
 _atom_site_fract_y
 _atom_site_fract_z
 _atom_site_occupancy
  Pu  Pu0  1  0.000000  0.000000  0.500000  1
  Co  Co1  1  0.000000  0.500000  0.000000  1
  Co  Co2  1  0.500000  0.000000  0.000000  1
  B  B3  1  0.677697  0.322303  0.500000  1
  B  B4  1  0.322303  0.677697  0.500000  1
  Ru  Ru5  1  0.500000  0.500000  0.000000  1
