# generated using pymatgen
data_Ca12V8Ga3(Ge3O16)3
_symmetry_space_group_name_H-M   'P 1'
_cell_length_a   10.80054785
_cell_length_b   10.81431848
_cell_length_c   10.82242413
_cell_angle_alpha   109.62116989
_cell_angle_beta   109.24505169
_cell_angle_gamma   109.51789621
_symmetry_Int_Tables_number   1
_chemical_formula_structural   Ca12V8Ga3(Ge3O16)3
_chemical_formula_sum   'Ca12 V8 Ga3 Ge9 O48'
_cell_volume   973.42412206
_cell_formula_units_Z   1
loop_
 _symmetry_equiv_pos_site_id
 _symmetry_equiv_pos_as_xyz
  1  'x, y, z'
loop_
 _atom_site_type_symbol
 _atom_site_label
 _atom_site_symmetry_multiplicity
 _atom_site_fract_x
 _atom_site_fract_y
 _atom_site_fract_z
 _atom_site_occupancy
  Ca  Ca0  1  0.249322  0.874884  0.625006  1
  Ca  Ca1  1  0.749032  0.624854  0.874435  1
  Ca  Ca2  1  0.622523  0.875040  0.750274  1
  Ca  Ca3  1  0.872578  0.620396  0.244773  1
  Ca  Ca4  1  0.626711  0.254133  0.878944  1
  Ca  Ca5  1  0.875527  0.748016  0.622696  1
  Ca  Ca6  1  0.750392  0.126251  0.374268  1
  Ca  Ca7  1  0.254669  0.375589  0.128435  1
  Ca  Ca8  1  0.379089  0.127360  0.250473  1
  Ca  Ca9  1  0.125804  0.377820  0.754469  1
  Ca  Ca10  1  0.373139  0.747923  0.124099  1
  Ca  Ca11  1  0.124496  0.250511  0.375792  1
  V  V12  1  0.498536  0.498111  0.497425  1
  V  V13  1  0.500179  0.000403  0.500414  1
  V  V14  1  0.997186  0.502141  0.498687  1
  V  V15  1  0.502192  0.499447  0.000411  1
  V  V16  1  0.999693  0.999903  0.499705  1
  V  V17  1  0.000329  0.499517  0.000317  1
  V  V18  1  0.501347  0.002399  0.004710  1
  V  V19  1  0.000020  0.000017  0.999674  1
  Ga  Ga20  1  0.125068  0.747230  0.874725  1
  Ga  Ga21  1  0.873868  0.251490  0.126035  1
  Ga  Ga22  1  0.622243  0.373242  0.245609  1
  Ge  Ge23  1  0.752783  0.877385  0.125044  1
  Ge  Ge24  1  0.875226  0.125300  0.750851  1
  Ge  Ge25  1  0.250651  0.623885  0.375988  1
  Ge  Ge26  1  0.749282  0.376951  0.624402  1
  Ge  Ge27  1  0.247770  0.122891  0.874742  1
  Ge  Ge28  1  0.124797  0.874684  0.249012  1
  Ge  Ge29  1  0.374931  0.626745  0.752524  1
  Ge  Ge30  1  0.624867  0.749800  0.373680  1
  Ge  Ge31  1  0.374260  0.249636  0.625873  1
  O  O32  1  0.413404  0.816129  0.799543  1
  O  O33  1  0.879676  0.401380  0.079497  1
  O  O34  1  0.100976  0.979210  0.686957  1
  O  O35  1  0.517039  0.621554  0.705375  1
  O  O36  1  0.685051  0.082407  0.703062  1
  O  O37  1  0.618813  0.703534  0.516427  1
  O  O38  1  0.620917  0.419722  0.095105  1
  O  O39  1  0.704849  0.520518  0.618612  1
  O  O40  1  0.824181  0.518036  0.399767  1
  O  O41  1  0.983599  0.810995  0.885856  1
  O  O42  1  0.799668  0.885806  0.982178  1
  O  O43  1  0.707360  0.690405  0.084626  1
  O  O44  1  0.413874  0.101280  0.621538  1
  O  O45  1  0.397867  0.814225  0.518477  1
  O  O46  1  0.078689  0.692849  0.674478  1
  O  O47  1  0.101026  0.617584  0.416786  1
  O  O48  1  0.517450  0.400509  0.812399  1
  O  O49  1  0.084308  0.882048  0.398045  1
  O  O50  1  0.982556  0.688494  0.099400  1
  O  O51  1  0.184378  0.486807  0.604552  1
  O  O52  1  0.672305  0.094103  0.981872  1
  O  O53  1  0.794705  0.415424  0.811200  1
  O  O54  1  0.397308  0.081676  0.885031  1
  O  O55  1  0.881029  0.983566  0.800202  1
  O  O56  1  0.585384  0.175636  0.198604  1
  O  O57  1  0.121326  0.597294  0.920711  1
  O  O58  1  0.899338  0.021286  0.312615  1
  O  O59  1  0.474308  0.376080  0.295148  1
  O  O60  1  0.315178  0.917828  0.297422  1
  O  O61  1  0.379226  0.294802  0.482650  1
  O  O62  1  0.380908  0.583728  0.898992  1
  O  O63  1  0.292861  0.479487  0.382008  1
  O  O64  1  0.118573  0.015702  0.198736  1
  O  O65  1  0.602145  0.915986  0.115918  1
  O  O66  1  0.206530  0.585195  0.189462  1
  O  O67  1  0.184349  0.203496  0.584413  1
  O  O68  1  0.326536  0.903107  0.017126  1
  O  O69  1  0.018167  0.311090  0.900426  1
  O  O70  1  0.915528  0.118566  0.601770  1
  O  O71  1  0.482803  0.601007  0.185193  1
  O  O72  1  0.899776  0.385701  0.583869  1
  O  O73  1  0.925383  0.309276  0.328367  1
  O  O74  1  0.602882  0.186545  0.482595  1
  O  O75  1  0.585820  0.898782  0.379462  1
  O  O76  1  0.294118  0.310429  0.915093  1
  O  O77  1  0.199285  0.112922  0.016099  1
  O  O78  1  0.015177  0.187279  0.113042  1
  O  O79  1  0.814864  0.796560  0.415804  1
