# generated using pymatgen
data_Lu4Al22Si2Pt9
_symmetry_space_group_name_H-M   'P 1'
_cell_length_a   7.52401664
_cell_length_b   7.52277196
_cell_length_c   13.02765800
_cell_angle_alpha   84.42732689
_cell_angle_beta   101.06253231
_cell_angle_gamma   119.96408221
_symmetry_Int_Tables_number   1
_chemical_formula_structural   Lu4Al22Si2Pt9
_chemical_formula_sum   'Lu4 Al22 Si2 Pt9'
_cell_volume   626.95357660
_cell_formula_units_Z   1
loop_
 _symmetry_equiv_pos_site_id
 _symmetry_equiv_pos_as_xyz
  1  'x, y, z'
loop_
 _atom_site_type_symbol
 _atom_site_label
 _atom_site_symmetry_multiplicity
 _atom_site_fract_x
 _atom_site_fract_y
 _atom_site_fract_z
 _atom_site_occupancy
  Lu  Lu0  1  0.737566  0.998513  0.192389  1
  Lu  Lu1  1  0.262434  0.001487  0.807611  1
  Lu  Lu2  1  0.062015  0.673315  0.192380  1
  Lu  Lu3  1  0.937985  0.326685  0.807620  1
  Al  Al4  1  0.981917  0.665306  0.942702  1
  Al  Al5  1  0.018083  0.334694  0.057298  1
  Al  Al6  1  0.399045  0.669462  0.816134  1
  Al  Al7  1  0.600955  0.330538  0.183866  1
  Al  Al8  1  0.884119  0.662974  0.671573  1
  Al  Al9  1  0.115881  0.337026  0.328427  1
  Al  Al10  1  0.608152  0.459173  0.815780  1
  Al  Al11  1  0.391848  0.540827  0.184220  1
  Al  Al12  1  0.230384  0.340279  0.670792  1
  Al  Al13  1  0.769616  0.659721  0.329208  1
  Al  Al14  1  0.853214  0.332982  0.560098  1
  Al  Al15  1  0.185924  0.999949  0.558343  1
  Al  Al16  1  0.814076  0.000051  0.441657  1
  Al  Al17  1  0.353568  0.998720  0.057457  1
  Al  Al18  1  0.646432  0.001280  0.942543  1
  Al  Al19  1  0.554360  0.994669  0.671723  1
  Al  Al20  1  0.445640  0.005331  0.328277  1
  Al  Al21  1  0.520654  0.666936  0.562570  1
  Al  Al22  1  0.479346  0.333064  0.437430  1
  Al  Al23  1  0.682887  0.666041  0.050870  1
  Al  Al24  1  0.317113  0.333959  0.949130  1
  Al  Al25  1  0.146786  0.667018  0.439902  1
  Si  Si26  1  0.806305  0.866963  0.816880  1
  Si  Si27  1  0.193695  0.133037  0.183120  1
  Pt  Pt28  1  0.328680  0.671602  0.000021  1
  Pt  Pt29  1  0.545548  0.324699  0.637892  1
  Pt  Pt30  1  0.454452  0.675301  0.362108  1
  Pt  Pt31  1  0.888018  0.006097  0.643308  1
  Pt  Pt32  1  0.111982  0.993903  0.356692  1
  Pt  Pt33  1  0.671320  0.328398  0.999979  1
  Pt  Pt34  1  0.204500  0.667863  0.639162  1
  Pt  Pt35  1  0.795500  0.332137  0.360838  1
  Pt  Pt36  1  0.000000  0.000000  0.000000  1
