# generated using pymatgen
data_Zr2As2IrRu
_symmetry_space_group_name_H-M   'P 1'
_cell_length_a   4.01659500
_cell_length_b   6.66642900
_cell_length_c   7.57131900
_cell_angle_alpha   90.00000000
_cell_angle_beta   90.00000000
_cell_angle_gamma   90.00000000
_symmetry_Int_Tables_number   1
_chemical_formula_structural   Zr2As2IrRu
_chemical_formula_sum   'Zr4 As4 Ir2 Ru2'
_cell_volume   202.73225260
_cell_formula_units_Z   2
loop_
 _symmetry_equiv_pos_site_id
 _symmetry_equiv_pos_as_xyz
  1  'x, y, z'
loop_
 _atom_site_type_symbol
 _atom_site_label
 _atom_site_symmetry_multiplicity
 _atom_site_fract_x
 _atom_site_fract_y
 _atom_site_fract_z
 _atom_site_occupancy
  Zr  Zr0  1  0.750000  0.524585  0.318530  1
  Zr  Zr1  1  0.250000  0.979058  0.817646  1
  Zr  Zr2  1  0.750000  0.024585  0.181470  1
  Zr  Zr3  1  0.250000  0.479058  0.682354  1
  As  As4  1  0.250000  0.736299  0.116193  1
  As  As5  1  0.250000  0.236299  0.383807  1
  As  As6  1  0.750000  0.267275  0.873300  1
  As  As7  1  0.750000  0.767275  0.626700  1
  Ir  Ir8  1  0.250000  0.349716  0.062166  1
  Ir  Ir9  1  0.250000  0.849716  0.437834  1
  Ru  Ru10  1  0.750000  0.143066  0.556574  1
  Ru  Ru11  1  0.750000  0.643066  0.943426  1
