# generated using pymatgen
data_K4Pm4Te7Se
_symmetry_space_group_name_H-M   'P 1'
_cell_length_a   9.57643250
_cell_length_b   9.05974434
_cell_length_c   8.04127700
_cell_angle_alpha   89.97935776
_cell_angle_beta   106.00897828
_cell_angle_gamma   81.68174010
_symmetry_Int_Tables_number   1
_chemical_formula_structural   K4Pm4Te7Se
_chemical_formula_sum   'K4 Pm4 Te7 Se1'
_cell_volume   662.95541794
_cell_formula_units_Z   1
loop_
 _symmetry_equiv_pos_site_id
 _symmetry_equiv_pos_as_xyz
  1  'x, y, z'
loop_
 _atom_site_type_symbol
 _atom_site_label
 _atom_site_symmetry_multiplicity
 _atom_site_fract_x
 _atom_site_fract_y
 _atom_site_fract_z
 _atom_site_occupancy
  K  K0  1  0.990156  0.715634  0.004232  1
  K  K1  1  0.029593  0.212976  0.502073  1
  K  K2  1  0.995347  0.720433  0.493570  1
  K  K3  1  0.017586  0.219965  0.001740  1
  Pm  Pm4  1  0.491812  0.637553  0.253816  1
  Pm  Pm5  1  0.495062  0.140155  0.240764  1
  Pm  Pm6  1  0.491683  0.891431  0.749209  1
  Pm  Pm7  1  0.501026  0.376097  0.753972  1
  Te  Te8  1  0.696970  0.361482  0.150616  1
  Te  Te9  1  0.283057  0.924585  0.347106  1
  Te  Te10  1  0.703379  0.099224  0.641763  1
  Te  Te11  1  0.303754  0.660469  0.854118  1
  Te  Te12  1  0.686263  0.856998  0.144973  1
  Te  Te13  1  0.286478  0.417178  0.351633  1
  Te  Te14  1  0.695494  0.604259  0.647804  1
  Se  Se15  1  0.332340  0.161555  0.862607  1
