# generated using pymatgen
data_Pr8Y12Si15Au
_symmetry_space_group_name_H-M   'P 1'
_cell_length_a   7.51386431
_cell_length_b   7.86174714
_cell_length_c   14.97500900
_cell_angle_alpha   90.00000000
_cell_angle_beta   90.00000000
_cell_angle_gamma   90.59733244
_symmetry_Int_Tables_number   1
_chemical_formula_structural   Pr8Y12Si15Au
_chemical_formula_sum   'Pr8 Y12 Si15 Au1'
_cell_volume   884.55717525
_cell_formula_units_Z   1
loop_
 _symmetry_equiv_pos_site_id
 _symmetry_equiv_pos_as_xyz
  1  'x, y, z'
loop_
 _atom_site_type_symbol
 _atom_site_label
 _atom_site_symmetry_multiplicity
 _atom_site_fract_x
 _atom_site_fract_y
 _atom_site_fract_z
 _atom_site_occupancy
  Pr  Pr0  1  0.022346  0.181384  0.401531  1
  Pr  Pr1  1  0.522043  0.321552  0.401117  1
  Pr  Pr2  1  0.483690  0.669305  0.908381  1
  Pr  Pr3  1  0.483690  0.669305  0.591619  1
  Pr  Pr4  1  0.977981  0.822900  0.594325  1
  Pr  Pr5  1  0.977981  0.822900  0.905675  1
  Pr  Pr6  1  0.522043  0.321552  0.098883  1
  Pr  Pr7  1  0.022346  0.181384  0.098469  1
  Y  Y8  1  0.320062  0.183974  0.620578  1
  Y  Y9  1  0.679373  0.822985  0.376189  1
  Y  Y10  1  0.648899  0.978164  0.750000  1
  Y  Y11  1  0.179770  0.678381  0.376873  1
  Y  Y12  1  0.821100  0.319437  0.878437  1
  Y  Y13  1  0.821100  0.319437  0.621563  1
  Y  Y14  1  0.845847  0.489771  0.250000  1
  Y  Y15  1  0.345815  0.013599  0.250000  1
  Y  Y16  1  0.320062  0.183974  0.879422  1
  Y  Y17  1  0.179770  0.678381  0.123127  1
  Y  Y18  1  0.679373  0.822985  0.123811  1
  Y  Y19  1  0.158131  0.512229  0.750000  1
  Si  Si20  1  0.471831  0.612385  0.250000  1
  Si  Si21  1  0.023699  0.118411  0.750000  1
  Si  Si22  1  0.531690  0.386900  0.750000  1
  Si  Si23  1  0.144168  0.471312  0.539206  1
  Si  Si24  1  0.973766  0.887496  0.250000  1
  Si  Si25  1  0.729335  0.121672  0.250000  1
  Si  Si26  1  0.852012  0.532005  0.040103  1
  Si  Si27  1  0.354031  0.968873  0.039078  1
  Si  Si28  1  0.144168  0.471312  0.960794  1
  Si  Si29  1  0.644065  0.030528  0.538582  1
  Si  Si30  1  0.354031  0.968873  0.460922  1
  Si  Si31  1  0.852012  0.532005  0.459897  1
  Si  Si32  1  0.770478  0.615599  0.750000  1
  Si  Si33  1  0.229935  0.381464  0.250000  1
  Si  Si34  1  0.644065  0.030528  0.961418  1
  Au  Au35  1  0.269290  0.877040  0.750000  1
