# generated using pymatgen
data_Dy10Hg5Pt4Pb3
_symmetry_space_group_name_H-M   'P 1'
_cell_length_a   3.65775600
_cell_length_b   8.11100575
_cell_length_c   18.34517018
_cell_angle_alpha   90.33254859
_cell_angle_beta   90.00000000
_cell_angle_gamma   90.00000000
_symmetry_Int_Tables_number   1
_chemical_formula_structural   Dy10Hg5Pt4Pb3
_chemical_formula_sum   'Dy10 Hg5 Pt4 Pb3'
_cell_volume   544.25680790
_cell_formula_units_Z   1
loop_
 _symmetry_equiv_pos_site_id
 _symmetry_equiv_pos_as_xyz
  1  'x, y, z'
loop_
 _atom_site_type_symbol
 _atom_site_label
 _atom_site_symmetry_multiplicity
 _atom_site_fract_x
 _atom_site_fract_y
 _atom_site_fract_z
 _atom_site_occupancy
  Dy  Dy0  1  0.000000  0.108076  0.413817  1
  Dy  Dy1  1  0.000000  0.891540  0.584898  1
  Dy  Dy2  1  0.000000  0.394152  0.915431  1
  Dy  Dy3  1  0.000000  0.612943  0.086786  1
  Dy  Dy4  1  0.000000  0.237125  0.215661  1
  Dy  Dy5  1  0.000000  0.754715  0.782541  1
  Dy  Dy6  1  0.000000  0.255983  0.716889  1
  Dy  Dy7  1  0.000000  0.746977  0.280196  1
  Dy  Dy8  1  0.000000  0.001231  0.003779  1
  Dy  Dy9  1  0.000000  0.499045  0.499931  1
  Hg  Hg10  1  0.500000  0.923197  0.144881  1
  Hg  Hg11  1  0.500000  0.290695  0.063387  1
  Hg  Hg12  1  0.500000  0.708719  0.937368  1
  Hg  Hg13  1  0.500000  0.206667  0.562968  1
  Hg  Hg14  1  0.500000  0.792575  0.437263  1
  Pt  Pt15  1  0.500000  0.025488  0.302349  1
  Pt  Pt16  1  0.500000  0.973126  0.696658  1
  Pt  Pt17  1  0.500000  0.473558  0.803530  1
  Pt  Pt18  1  0.500000  0.524538  0.196901  1
  Pb  Pb19  1  0.500000  0.423853  0.354020  1
  Pb  Pb20  1  0.500000  0.577883  0.646182  1
  Pb  Pb21  1  0.500000  0.077913  0.854565  1
