# generated using pymatgen
data_Ho8Si12Rh3Au
_symmetry_space_group_name_H-M   'P 1'
_cell_length_a   8.17978800
_cell_length_b   8.17978782
_cell_length_c   7.87417400
_cell_angle_alpha   90.00000000
_cell_angle_beta   90.00000000
_cell_angle_gamma   120.00000072
_symmetry_Int_Tables_number   1
_chemical_formula_structural   Ho8Si12Rh3Au
_chemical_formula_sum   'Ho8 Si12 Rh3 Au1'
_cell_volume   456.26769691
_cell_formula_units_Z   1
loop_
 _symmetry_equiv_pos_site_id
 _symmetry_equiv_pos_as_xyz
  1  'x, y, z'
loop_
 _atom_site_type_symbol
 _atom_site_label
 _atom_site_symmetry_multiplicity
 _atom_site_fract_x
 _atom_site_fract_y
 _atom_site_fract_z
 _atom_site_occupancy
  Ho  Ho0  1  0.000000  0.000000  0.249129  1
  Ho  Ho1  1  0.000000  0.000000  0.752907  1
  Ho  Ho2  1  0.511386  0.488614  0.245539  1
  Ho  Ho3  1  0.511386  0.022771  0.245539  1
  Ho  Ho4  1  0.977229  0.488614  0.245539  1
  Ho  Ho5  1  0.492865  0.507135  0.753964  1
  Ho  Ho6  1  0.492865  0.985731  0.753964  1
  Ho  Ho7  1  0.014269  0.507135  0.753964  1
  Si  Si8  1  0.160577  0.839423  0.501401  1
  Si  Si9  1  0.160577  0.321153  0.501401  1
  Si  Si10  1  0.678847  0.839423  0.501401  1
  Si  Si11  1  0.831352  0.168648  0.500088  1
  Si  Si12  1  0.831352  0.662706  0.500088  1
  Si  Si13  1  0.337294  0.168648  0.500088  1
  Si  Si14  1  0.833654  0.166346  0.998860  1
  Si  Si15  1  0.833654  0.667310  0.998860  1
  Si  Si16  1  0.332690  0.166346  0.998860  1
  Si  Si17  1  0.166982  0.833018  0.001349  1
  Si  Si18  1  0.166982  0.333962  0.001349  1
  Si  Si19  1  0.666038  0.833018  0.001349  1
  Rh  Rh20  1  0.666667  0.333333  0.535877  1
  Rh  Rh21  1  0.666667  0.333333  0.965377  1
  Rh  Rh22  1  0.333333  0.666667  0.030722  1
  Au  Au23  1  0.333333  0.666667  0.462389  1
