# generated using pymatgen
data_Ba10Si5Pb
_symmetry_space_group_name_H-M   'P 1'
_cell_length_a   10.47165796
_cell_length_b   10.47165757
_cell_length_c   10.47165759
_cell_angle_alpha   131.94776352
_cell_angle_beta   131.94776042
_cell_angle_gamma   70.31154279
_symmetry_Int_Tables_number   1
_chemical_formula_structural   Ba10Si5Pb
_chemical_formula_sum   'Ba10 Si5 Pb1'
_cell_volume   622.52538409
_cell_formula_units_Z   1
loop_
 _symmetry_equiv_pos_site_id
 _symmetry_equiv_pos_as_xyz
  1  'x, y, z'
loop_
 _atom_site_type_symbol
 _atom_site_label
 _atom_site_symmetry_multiplicity
 _atom_site_fract_x
 _atom_site_fract_y
 _atom_site_fract_z
 _atom_site_occupancy
  Ba  Ba0  1  0.549645  0.028502  0.860343  1
  Ba  Ba1  1  0.168159  0.689302  0.139657  1
  Ba  Ba2  1  0.028502  0.168159  0.478858  1
  Ba  Ba3  1  0.689302  0.549645  0.521142  1
  Ba  Ba4  1  0.471890  0.949933  0.139589  1
  Ba  Ba5  1  0.810344  0.332300  0.860411  1
  Ba  Ba6  1  0.949933  0.810344  0.478043  1
  Ba  Ba7  1  0.332300  0.471890  0.521957  1
  Ba  Ba8  1  0.014024  0.014024  0.000000  1
  Ba  Ba9  1  0.485581  0.485581  0.000000  1
  Si  Si10  1  0.750770  0.750770  0.000000  1
  Si  Si11  1  0.899422  0.399683  0.299194  1
  Si  Si12  1  0.100489  0.600228  0.700806  1
  Si  Si13  1  0.399683  0.100489  0.500261  1
  Si  Si14  1  0.600228  0.899422  0.499739  1
  Pb  Pb15  1  0.249729  0.249729  0.000000  1
