# generated using pymatgen
data_Y4Ni11(P4Ru3)3
_symmetry_space_group_name_H-M   'P 1'
_cell_length_a   3.79201100
_cell_length_b   10.71001801
_cell_length_c   11.95072436
_cell_angle_alpha   89.98925374
_cell_angle_beta   90.00000000
_cell_angle_gamma   90.00000000
_symmetry_Int_Tables_number   1
_chemical_formula_structural   Y4Ni11(P4Ru3)3
_chemical_formula_sum   'Y4 Ni11 P12 Ru9'
_cell_volume   485.34885753
_cell_formula_units_Z   1
loop_
 _symmetry_equiv_pos_site_id
 _symmetry_equiv_pos_as_xyz
  1  'x, y, z'
loop_
 _atom_site_type_symbol
 _atom_site_label
 _atom_site_symmetry_multiplicity
 _atom_site_fract_x
 _atom_site_fract_y
 _atom_site_fract_z
 _atom_site_occupancy
  Y  Y0  1  0.250000  0.590403  0.709153  1
  Y  Y1  1  0.250000  0.910930  0.208402  1
  Y  Y2  1  0.750000  0.413720  0.292989  1
  Y  Y3  1  0.750000  0.089018  0.791710  1
  Ni  Ni4  1  0.250000  0.274124  0.683035  1
  Ni  Ni5  1  0.750000  0.774701  0.817934  1
  Ni  Ni6  1  0.750000  0.725123  0.317376  1
  Ni  Ni7  1  0.250000  0.884782  0.702027  1
  Ni  Ni8  1  0.250000  0.614700  0.202014  1
  Ni  Ni9  1  0.750000  0.107686  0.301316  1
  Ni  Ni10  1  0.750000  0.386980  0.795643  1
  Ni  Ni11  1  0.250000  0.463747  0.930380  1
  Ni  Ni12  1  0.250000  0.038506  0.431353  1
  Ni  Ni13  1  0.750000  0.535801  0.068934  1
  Ni  Ni14  1  0.750000  0.964073  0.569497  1
  P  P15  1  0.250000  0.421302  0.111756  1
  P  P16  1  0.250000  0.079133  0.613091  1
  P  P17  1  0.750000  0.580354  0.887945  1
  P  P18  1  0.750000  0.917146  0.389304  1
  P  P19  1  0.250000  0.271539  0.871571  1
  P  P20  1  0.250000  0.231048  0.376439  1
  P  P21  1  0.750000  0.728486  0.127175  1
  P  P22  1  0.750000  0.771484  0.627669  1
  P  P23  1  0.250000  0.598754  0.390471  1
  P  P24  1  0.250000  0.899934  0.889154  1
  P  P25  1  0.750000  0.402621  0.609986  1
  P  P26  1  0.750000  0.100215  0.108908  1
  Ru  Ru27  1  0.250000  0.708147  0.983246  1
  Ru  Ru28  1  0.250000  0.793074  0.483974  1
  Ru  Ru29  1  0.750000  0.290789  0.009100  1
  Ru  Ru30  1  0.750000  0.208910  0.516502  1
  Ru  Ru31  1  0.250000  0.405385  0.492258  1
  Ru  Ru32  1  0.250000  0.094451  0.984735  1
  Ru  Ru33  1  0.750000  0.596745  0.511297  1
  Ru  Ru34  1  0.750000  0.903868  0.011327  1
  Ru  Ru35  1  0.250000  0.222322  0.182327  1
