# generated using pymatgen
data_Er8Zr5Sc7Ga16
_symmetry_space_group_name_H-M   'P 1'
_cell_length_a   7.19239394
_cell_length_b   7.54619948
_cell_length_c   14.39818047
_cell_angle_alpha   90.00266556
_cell_angle_beta   89.94973214
_cell_angle_gamma   89.99582866
_symmetry_Int_Tables_number   1
_chemical_formula_structural   Er8Zr5Sc7Ga16
_chemical_formula_sum   'Er8 Zr5 Sc7 Ga16'
_cell_volume   781.46438825
_cell_formula_units_Z   1
loop_
 _symmetry_equiv_pos_site_id
 _symmetry_equiv_pos_as_xyz
  1  'x, y, z'
loop_
 _atom_site_type_symbol
 _atom_site_label
 _atom_site_symmetry_multiplicity
 _atom_site_fract_x
 _atom_site_fract_y
 _atom_site_fract_z
 _atom_site_occupancy
  Er  Er0  1  0.010335  0.178876  0.092654  1
  Er  Er1  1  0.989404  0.820523  0.907213  1
  Er  Er2  1  0.488852  0.679292  0.907019  1
  Er  Er3  1  0.989975  0.824517  0.592729  1
  Er  Er4  1  0.509170  0.321983  0.093556  1
  Er  Er5  1  0.010371  0.175581  0.407564  1
  Er  Er6  1  0.509755  0.324518  0.406996  1
  Er  Er7  1  0.490267  0.675958  0.592942  1
  Zr  Zr8  1  0.328759  0.176257  0.623625  1
  Zr  Zr9  1  0.671794  0.823944  0.376855  1
  Zr  Zr10  1  0.171591  0.675347  0.377229  1
  Zr  Zr11  1  0.671671  0.827736  0.123199  1
  Zr  Zr12  1  0.828799  0.323597  0.623971  1
  Sc  Sc13  1  0.161160  0.506795  0.751196  1
  Sc  Sc14  1  0.839690  0.493168  0.249252  1
  Sc  Sc15  1  0.338495  0.005474  0.249412  1
  Sc  Sc16  1  0.661302  0.993874  0.751406  1
  Sc  Sc17  1  0.327158  0.171446  0.876708  1
  Sc  Sc18  1  0.827567  0.329227  0.876295  1
  Sc  Sc19  1  0.173359  0.671815  0.121840  1
  Ga  Ga20  1  0.029869  0.116165  0.748384  1
  Ga  Ga21  1  0.969658  0.881348  0.250479  1
  Ga  Ga22  1  0.469655  0.617865  0.251093  1
  Ga  Ga23  1  0.529730  0.383648  0.748356  1
  Ga  Ga24  1  0.284273  0.873247  0.747636  1
  Ga  Ga25  1  0.716249  0.126115  0.251421  1
  Ga  Ga26  1  0.216060  0.372102  0.252151  1
  Ga  Ga27  1  0.783784  0.627831  0.747851  1
  Ga  Ga28  1  0.161016  0.463518  0.540112  1
  Ga  Ga29  1  0.838532  0.536873  0.460349  1
  Ga  Ga30  1  0.339353  0.963331  0.460074  1
  Ga  Ga31  1  0.837190  0.536027  0.041535  1
  Ga  Ga32  1  0.661351  0.037340  0.539574  1
  Ga  Ga33  1  0.161497  0.464686  0.958086  1
  Ga  Ga34  1  0.662461  0.034954  0.959445  1
  Ga  Ga35  1  0.339850  0.965024  0.041793  1
