# generated using pymatgen
data_Ce10Sn5Ge2Bi
_symmetry_space_group_name_H-M   'P 1'
_cell_length_a   6.47404800
_cell_length_b   9.56322695
_cell_length_c   9.56245612
_cell_angle_alpha   120.00266597
_cell_angle_beta   90.00122198
_cell_angle_gamma   89.99754674
_symmetry_Int_Tables_number   1
_chemical_formula_structural   Ce10Sn5Ge2Bi
_chemical_formula_sum   'Ce10 Sn5 Ge2 Bi1'
_cell_volume   512.70646825
_cell_formula_units_Z   1
loop_
 _symmetry_equiv_pos_site_id
 _symmetry_equiv_pos_as_xyz
  1  'x, y, z'
loop_
 _atom_site_type_symbol
 _atom_site_label
 _atom_site_symmetry_multiplicity
 _atom_site_fract_x
 _atom_site_fract_y
 _atom_site_fract_z
 _atom_site_occupancy
  Ce  Ce0  1  0.749972  0.258529  0.000000  1
  Ce  Ce1  1  0.749978  0.740973  0.737342  1
  Ce  Ce2  1  0.749978  0.003630  0.262658  1
  Ce  Ce3  1  0.249976  0.741002  0.000000  1
  Ce  Ce4  1  0.249999  0.260889  0.260669  1
  Ce  Ce5  1  0.249999  0.000221  0.739331  1
  Ce  Ce6  1  0.498016  0.330929  0.663836  1
  Ce  Ce7  1  0.498016  0.667093  0.336164  1
  Ce  Ce8  1  0.002019  0.667072  0.336154  1
  Ce  Ce9  1  0.002019  0.330919  0.663846  1
  Sn  Sn10  1  0.749970  0.384196  0.384285  1
  Sn  Sn11  1  0.749970  0.999912  0.615715  1
  Sn  Sn12  1  0.250064  0.383015  0.000000  1
  Sn  Sn13  1  0.250041  0.616028  0.616395  1
  Sn  Sn14  1  0.250041  0.999632  0.383605  1
  Ge  Ge15  1  0.499994  0.000009  0.000000  1
  Ge  Ge16  1  0.999973  0.000023  0.000000  1
  Bi  Bi17  1  0.749975  0.615928  0.000000  1
