# generated using pymatgen
data_ErTm2Sc(Co4P3)2
_symmetry_space_group_name_H-M   'P 1'
_cell_length_a   3.70563800
_cell_length_b   10.61777200
_cell_length_c   12.30032900
_cell_angle_alpha   90.00000000
_cell_angle_beta   90.00000000
_cell_angle_gamma   90.00000000
_symmetry_Int_Tables_number   1
_chemical_formula_structural   ErTm2Sc(Co4P3)2
_chemical_formula_sum   'Er2 Tm4 Sc2 Co16 P12'
_cell_volume   483.96406331
_cell_formula_units_Z   2
loop_
 _symmetry_equiv_pos_site_id
 _symmetry_equiv_pos_as_xyz
  1  'x, y, z'
loop_
 _atom_site_type_symbol
 _atom_site_label
 _atom_site_symmetry_multiplicity
 _atom_site_fract_x
 _atom_site_fract_y
 _atom_site_fract_z
 _atom_site_occupancy
  Er  Er0  1  0.000000  0.500000  0.528441  1
  Er  Er1  1  0.500000  0.000000  0.471559  1
  Tm  Tm2  1  0.500000  0.822909  0.205434  1
  Tm  Tm3  1  0.500000  0.177091  0.205434  1
  Tm  Tm4  1  0.000000  0.677091  0.794566  1
  Tm  Tm5  1  0.000000  0.322909  0.794566  1
  Sc  Sc6  1  0.500000  0.500000  0.157569  1
  Sc  Sc7  1  0.000000  0.000000  0.842431  1
  Co  Co8  1  0.500000  0.500000  0.705483  1
  Co  Co9  1  0.000000  0.000000  0.294517  1
  Co  Co10  1  0.000000  0.500000  0.987444  1
  Co  Co11  1  0.500000  0.000000  0.012556  1
  Co  Co12  1  0.500000  0.331166  0.994702  1
  Co  Co13  1  0.500000  0.668834  0.994702  1
  Co  Co14  1  0.000000  0.168834  0.005298  1
  Co  Co15  1  0.000000  0.831166  0.005298  1
  Co  Co16  1  0.500000  0.295232  0.432981  1
  Co  Co17  1  0.500000  0.704768  0.432981  1
  Co  Co18  1  0.000000  0.204768  0.567019  1
  Co  Co19  1  0.000000  0.795232  0.567019  1
  Co  Co20  1  0.500000  0.876954  0.702560  1
  Co  Co21  1  0.500000  0.123046  0.702560  1
  Co  Co22  1  0.000000  0.623046  0.297440  1
  Co  Co23  1  0.000000  0.376954  0.297440  1
  P  P24  1  0.500000  0.500000  0.884970  1
  P  P25  1  0.000000  0.000000  0.115030  1
  P  P26  1  0.500000  0.500000  0.361365  1
  P  P27  1  0.000000  0.000000  0.638635  1
  P  P28  1  0.500000  0.310803  0.616126  1
  P  P29  1  0.500000  0.689197  0.616126  1
  P  P30  1  0.000000  0.189197  0.383874  1
  P  P31  1  0.000000  0.810803  0.383874  1
  P  P32  1  0.500000  0.838661  0.891606  1
  P  P33  1  0.500000  0.161339  0.891606  1
  P  P34  1  0.000000  0.661339  0.108394  1
  P  P35  1  0.000000  0.338661  0.108394  1
