# generated using pymatgen
data_Nd3Cu6Ni7B2
_symmetry_space_group_name_H-M   'P 1'
_cell_length_a   5.12040547
_cell_length_b   5.12040577
_cell_length_c   10.94977000
_cell_angle_alpha   90.00000000
_cell_angle_beta   90.00000000
_cell_angle_gamma   119.97247273
_symmetry_Int_Tables_number   1
_chemical_formula_structural   Nd3Cu6Ni7B2
_chemical_formula_sum   'Nd3 Cu6 Ni7 B2'
_cell_volume   248.69368620
_cell_formula_units_Z   1
loop_
 _symmetry_equiv_pos_site_id
 _symmetry_equiv_pos_as_xyz
  1  'x, y, z'
loop_
 _atom_site_type_symbol
 _atom_site_label
 _atom_site_symmetry_multiplicity
 _atom_site_fract_x
 _atom_site_fract_y
 _atom_site_fract_z
 _atom_site_occupancy
  Nd  Nd0  1  0.000000  0.000000  0.000000  1
  Nd  Nd1  1  0.000000  0.000000  0.677315  1
  Nd  Nd2  1  0.000000  0.000000  0.322685  1
  Cu  Cu3  1  0.500000  0.000000  0.500000  1
  Cu  Cu4  1  0.000000  0.500000  0.500000  1
  Cu  Cu5  1  0.665134  0.334866  0.685051  1
  Cu  Cu6  1  0.334866  0.665134  0.685051  1
  Cu  Cu7  1  0.334866  0.665134  0.314949  1
  Cu  Cu8  1  0.665134  0.334866  0.314949  1
  Ni  Ni9  1  0.500000  0.500000  0.500000  1
  Ni  Ni10  1  0.500000  0.500000  0.871447  1
  Ni  Ni11  1  0.500000  0.000000  0.871122  1
  Ni  Ni12  1  0.000000  0.500000  0.871122  1
  Ni  Ni13  1  0.500000  0.500000  0.128553  1
  Ni  Ni14  1  0.500000  0.000000  0.128878  1
  Ni  Ni15  1  0.000000  0.500000  0.128878  1
  B  B16  1  0.667194  0.332806  0.000000  1
  B  B17  1  0.332806  0.667194  0.000000  1
