# generated using pymatgen
data_Dy3Tm13(InRh)4
_symmetry_space_group_name_H-M   'P 1'
_cell_length_a   9.54958846
_cell_length_b   9.54615800
_cell_length_c   9.55477361
_cell_angle_alpha   59.99389492
_cell_angle_beta   59.95828507
_cell_angle_gamma   60.00434456
_symmetry_Int_Tables_number   1
_chemical_formula_structural   Dy3Tm13(InRh)4
_chemical_formula_sum   'Dy3 Tm13 In4 Rh4'
_cell_volume   615.70941264
_cell_formula_units_Z   1
loop_
 _symmetry_equiv_pos_site_id
 _symmetry_equiv_pos_as_xyz
  1  'x, y, z'
loop_
 _atom_site_type_symbol
 _atom_site_label
 _atom_site_symmetry_multiplicity
 _atom_site_fract_x
 _atom_site_fract_y
 _atom_site_fract_z
 _atom_site_occupancy
  Dy  Dy0  1  0.061344  0.061344  0.438656  1
  Dy  Dy1  1  0.437837  0.062535  0.437991  1
  Dy  Dy2  1  0.062535  0.437837  0.061636  1
  Tm  Tm3  1  0.049369  0.648507  0.650923  1
  Tm  Tm4  1  0.438735  0.438735  0.061265  1
  Tm  Tm5  1  0.648507  0.049369  0.651202  1
  Tm  Tm6  1  0.189993  0.810819  0.187898  1
  Tm  Tm7  1  0.188638  0.188638  0.811362  1
  Tm  Tm8  1  0.811085  0.811085  0.188915  1
  Tm  Tm9  1  0.439069  0.061157  0.060271  1
  Tm  Tm10  1  0.811098  0.189804  0.187578  1
  Tm  Tm11  1  0.061157  0.439069  0.439503  1
  Tm  Tm12  1  0.810819  0.189993  0.811290  1
  Tm  Tm13  1  0.189804  0.811098  0.811521  1
  Tm  Tm14  1  0.649930  0.650072  0.047556  1
  Tm  Tm15  1  0.650072  0.649930  0.652443  1
  In  In16  1  0.416559  0.417442  0.416589  1
  In  In17  1  0.747359  0.418058  0.417735  1
  In  In18  1  0.418058  0.747359  0.416848  1
  In  In19  1  0.417442  0.416559  0.749409  1
  Rh  Rh20  1  0.858307  0.857235  0.426737  1
  Rh  Rh21  1  0.857235  0.858307  0.857721  1
  Rh  Rh22  1  0.427578  0.857471  0.857992  1
  Rh  Rh23  1  0.857471  0.427578  0.856959  1
