# generated using pymatgen
data_Ho5Bi2PbS
_symmetry_space_group_name_H-M   'P 1'
_cell_length_a   9.14295878
_cell_length_b   9.14295924
_cell_length_c   6.58166800
_cell_angle_alpha   90.00000000
_cell_angle_beta   90.00000000
_cell_angle_gamma   120.13951585
_symmetry_Int_Tables_number   1
_chemical_formula_structural   Ho5Bi2PbS
_chemical_formula_sum   'Ho10 Bi4 Pb2 S2'
_cell_volume   475.80376616
_cell_formula_units_Z   2
loop_
 _symmetry_equiv_pos_site_id
 _symmetry_equiv_pos_as_xyz
  1  'x, y, z'
loop_
 _atom_site_type_symbol
 _atom_site_label
 _atom_site_symmetry_multiplicity
 _atom_site_fract_x
 _atom_site_fract_y
 _atom_site_fract_z
 _atom_site_occupancy
  Ho  Ho0  1  0.756030  0.756030  0.750000  1
  Ho  Ho1  1  0.244132  0.999894  0.750000  1
  Ho  Ho2  1  0.999894  0.244132  0.750000  1
  Ho  Ho3  1  0.243428  0.243428  0.250000  1
  Ho  Ho4  1  0.756211  0.002322  0.250000  1
  Ho  Ho5  1  0.002322  0.756211  0.250000  1
  Ho  Ho6  1  0.667285  0.332504  0.001768  1
  Ho  Ho7  1  0.332504  0.667285  0.001768  1
  Ho  Ho8  1  0.332504  0.667285  0.498232  1
  Ho  Ho9  1  0.667285  0.332504  0.498232  1
  Bi  Bi10  1  0.396706  0.396706  0.750000  1
  Bi  Bi11  1  0.602515  0.000041  0.750000  1
  Bi  Bi12  1  0.000041  0.602515  0.750000  1
  Bi  Bi13  1  0.603633  0.603633  0.250000  1
  Pb  Pb14  1  0.397094  0.999895  0.250000  1
  Pb  Pb15  1  0.999895  0.397094  0.250000  1
  S  S16  1  0.999261  0.999261  0.999553  1
  S  S17  1  0.999261  0.999261  0.500447  1
