# generated using pymatgen
data_RbHgAsS3
_symmetry_space_group_name_H-M   'P 1'
_cell_length_a   6.53559123
_cell_length_b   6.53559218
_cell_length_c   17.81262781
_cell_angle_alpha   79.89238391
_cell_angle_beta   79.89238159
_cell_angle_gamma   90.25605873
_symmetry_Int_Tables_number   1
_chemical_formula_structural   RbHgAsS3
_chemical_formula_sum   'Rb4 Hg4 As4 S12'
_cell_volume   736.92579235
_cell_formula_units_Z   4
loop_
 _symmetry_equiv_pos_site_id
 _symmetry_equiv_pos_as_xyz
  1  'x, y, z'
loop_
 _atom_site_type_symbol
 _atom_site_label
 _atom_site_symmetry_multiplicity
 _atom_site_fract_x
 _atom_site_fract_y
 _atom_site_fract_z
 _atom_site_occupancy
  Rb  Rb0  1  0.772397  0.591726  0.916653  1
  Rb  Rb1  1  0.227603  0.408274  0.083347  1
  Rb  Rb2  1  0.408274  0.227603  0.583347  1
  Rb  Rb3  1  0.591726  0.772397  0.416653  1
  Hg  Hg4  1  0.637339  0.362661  0.250000  1
  Hg  Hg5  1  0.362661  0.637339  0.750000  1
  Hg  Hg6  1  0.167646  0.832354  0.250000  1
  Hg  Hg7  1  0.832354  0.167646  0.750000  1
  As  As8  1  0.944322  0.689554  0.608132  1
  As  As9  1  0.310446  0.055678  0.891868  1
  As  As10  1  0.055678  0.310446  0.391868  1
  As  As11  1  0.689554  0.944322  0.108132  1
  S  S12  1  0.892786  0.339743  0.613253  1
  S  S13  1  0.720730  0.291742  0.113435  1
  S  S14  1  0.291742  0.720730  0.613435  1
  S  S15  1  0.279270  0.708258  0.886565  1
  S  S16  1  0.339743  0.892786  0.113253  1
  S  S17  1  0.107214  0.660257  0.386747  1
  S  S18  1  0.660257  0.107214  0.886747  1
  S  S19  1  0.262672  0.212021  0.774240  1
  S  S20  1  0.787979  0.737328  0.725760  1
  S  S21  1  0.737328  0.787979  0.225760  1
  S  S22  1  0.212021  0.262672  0.274240  1
  S  S23  1  0.708258  0.279270  0.386565  1
