# generated using pymatgen
data_TbPr3Nd2Ta2O14
_symmetry_space_group_name_H-M   'P 1'
_cell_length_a   6.69738983
_cell_length_b   6.67118380
_cell_length_c   7.72391200
_cell_angle_alpha   90.00000000
_cell_angle_beta   90.00000000
_cell_angle_gamma   108.85780424
_symmetry_Int_Tables_number   1
_chemical_formula_structural   TbPr3Nd2Ta2O14
_chemical_formula_sum   'Tb1 Pr3 Nd2 Ta2 O14'
_cell_volume   326.57692601
_cell_formula_units_Z   1
loop_
 _symmetry_equiv_pos_site_id
 _symmetry_equiv_pos_as_xyz
  1  'x, y, z'
loop_
 _atom_site_type_symbol
 _atom_site_label
 _atom_site_symmetry_multiplicity
 _atom_site_fract_x
 _atom_site_fract_y
 _atom_site_fract_z
 _atom_site_occupancy
  Tb  Tb0  1  0.003517  0.531751  0.250000  1
  Pr  Pr1  1  0.531231  0.525985  0.499407  1
  Pr  Pr2  1  0.531231  0.525985  0.000593  1
  Pr  Pr3  1  0.463153  0.004297  0.250000  1
  Nd  Nd4  1  0.005779  0.462667  0.750000  1
  Nd  Nd5  1  0.533045  0.002964  0.750000  1
  Ta  Ta6  1  0.001072  0.001134  0.498520  1
  Ta  Ta7  1  0.001072  0.001134  0.001480  1
  O  O8  1  0.944999  0.056608  0.750000  1
  O  O9  1  0.056885  0.936692  0.250000  1
  O  O10  1  0.354736  0.633686  0.250000  1
  O  O11  1  0.642641  0.366946  0.750000  1
  O  O12  1  0.370613  0.632195  0.750000  1
  O  O13  1  0.644468  0.377780  0.250000  1
  O  O14  1  0.307670  0.068158  0.968294  1
  O  O15  1  0.680112  0.919805  0.474022  1
  O  O16  1  0.307670  0.068158  0.531706  1
  O  O17  1  0.680112  0.919805  0.025978  1
  O  O18  1  0.038907  0.300826  0.460011  1
  O  O19  1  0.931088  0.681300  0.975312  1
  O  O20  1  0.931088  0.681300  0.524688  1
  O  O21  1  0.038907  0.300826  0.039989  1
