# generated using pymatgen
data_Mn6Al5GeRh12
_symmetry_space_group_name_H-M   'P 1'
_cell_length_a   4.29122500
_cell_length_b   6.04526400
_cell_length_c   12.86194300
_cell_angle_alpha   90.00000000
_cell_angle_beta   90.00053432
_cell_angle_gamma   90.00000000
_symmetry_Int_Tables_number   1
_chemical_formula_structural   Mn6Al5GeRh12
_chemical_formula_sum   'Mn6 Al5 Ge1 Rh12'
_cell_volume   333.65922629
_cell_formula_units_Z   1
loop_
 _symmetry_equiv_pos_site_id
 _symmetry_equiv_pos_as_xyz
  1  'x, y, z'
loop_
 _atom_site_type_symbol
 _atom_site_label
 _atom_site_symmetry_multiplicity
 _atom_site_fract_x
 _atom_site_fract_y
 _atom_site_fract_z
 _atom_site_occupancy
  Mn  Mn0  1  0.000000  0.500000  0.000000  1
  Mn  Mn1  1  0.499795  0.000000  0.168974  1
  Mn  Mn2  1  0.999800  0.500000  0.333319  1
  Mn  Mn3  1  0.500000  0.000000  0.500000  1
  Mn  Mn4  1  0.000201  0.500000  0.666681  1
  Mn  Mn5  1  0.500203  0.000000  0.831026  1
  Al  Al6  1  0.499796  0.500000  0.167239  1
  Al  Al7  1  0.999784  0.000000  0.333772  1
  Al  Al8  1  0.500000  0.500000  0.500000  1
  Al  Al9  1  0.000217  0.000000  0.666228  1
  Al  Al10  1  0.500205  0.500000  0.832762  1
  Ge  Ge11  1  0.000000  0.000000  0.000000  1
  Rh  Rh12  1  0.500000  0.247906  0.000000  1
  Rh  Rh13  1  0.500000  0.752094  0.000000  1
  Rh  Rh14  1  0.999804  0.250387  0.165844  1
  Rh  Rh15  1  0.999804  0.749613  0.165844  1
  Rh  Rh16  1  0.499801  0.249306  0.333171  1
  Rh  Rh17  1  0.499801  0.750695  0.333171  1
  Rh  Rh18  1  0.000000  0.251027  0.500000  1
  Rh  Rh19  1  0.000000  0.748973  0.500000  1
  Rh  Rh20  1  0.500200  0.249306  0.666829  1
  Rh  Rh21  1  0.500200  0.750695  0.666829  1
  Rh  Rh22  1  0.000195  0.250387  0.834156  1
  Rh  Rh23  1  0.000195  0.749613  0.834156  1
