# generated using pymatgen
data_Tb2V3P7(IrRh2)3
_symmetry_space_group_name_H-M   'P 1'
_cell_length_a   3.87460000
_cell_length_b   9.55730589
_cell_length_c   9.55862649
_cell_angle_alpha   119.99811234
_cell_angle_beta   90.00036145
_cell_angle_gamma   89.99996591
_symmetry_Int_Tables_number   1
_chemical_formula_structural   Tb2V3P7(IrRh2)3
_chemical_formula_sum   'Tb2 V3 P7 Ir3 Rh6'
_cell_volume   306.54676982
_cell_formula_units_Z   1
loop_
 _symmetry_equiv_pos_site_id
 _symmetry_equiv_pos_as_xyz
  1  'x, y, z'
loop_
 _atom_site_type_symbol
 _atom_site_label
 _atom_site_symmetry_multiplicity
 _atom_site_fract_x
 _atom_site_fract_y
 _atom_site_fract_z
 _atom_site_occupancy
  Tb  Tb0  1  0.261827  0.666595  0.333329  1
  Tb  Tb1  1  0.761703  0.333326  0.666562  1
  V  V2  1  0.761996  0.093103  0.874772  1
  V  V3  1  0.761994  0.125394  0.218529  1
  V  V4  1  0.761998  0.781493  0.906856  1
  P  P5  1  0.262313  0.000080  0.000044  1
  P  P6  1  0.761917  0.884625  0.596804  1
  P  P7  1  0.761916  0.403152  0.287823  1
  P  P8  1  0.761913  0.712165  0.115429  1
  P  P9  1  0.261779  0.117616  0.413337  1
  P  P10  1  0.261770  0.586634  0.704294  1
  P  P11  1  0.261788  0.295792  0.882351  1
  Ir  Ir12  1  0.261928  0.886971  0.158800  1
  Ir  Ir13  1  0.261922  0.841176  0.728226  1
  Ir  Ir14  1  0.261930  0.271947  0.113130  1
  Rh  Rh15  1  0.761868  0.611374  0.559205  1
  Rh  Rh16  1  0.761893  0.440661  0.051956  1
  Rh  Rh17  1  0.761888  0.947847  0.388579  1
  Rh  Rh18  1  0.261875  0.367469  0.437437  1
  Rh  Rh19  1  0.261886  0.562629  0.929949  1
  Rh  Rh20  1  0.261896  0.069952  0.632587  1
