# generated using pymatgen
data_SrFeSb12OsRu2
_symmetry_space_group_name_H-M   'P 1'
_cell_length_a   8.10568123
_cell_length_b   8.15786767
_cell_length_c   8.12246431
_cell_angle_alpha   109.62377498
_cell_angle_beta   109.32884306
_cell_angle_gamma   109.51353449
_symmetry_Int_Tables_number   1
_chemical_formula_structural   SrFeSb12OsRu2
_chemical_formula_sum   'Sr1 Fe1 Sb12 Os1 Ru2'
_cell_volume   413.18851166
_cell_formula_units_Z   1
loop_
 _symmetry_equiv_pos_site_id
 _symmetry_equiv_pos_as_xyz
  1  'x, y, z'
loop_
 _atom_site_type_symbol
 _atom_site_label
 _atom_site_symmetry_multiplicity
 _atom_site_fract_x
 _atom_site_fract_y
 _atom_site_fract_z
 _atom_site_occupancy
  Sr  Sr0  1  0.000000  0.000000  0.000000  1
  Fe  Fe1  1  0.000000  0.500000  0.000000  1
  Sb  Sb2  1  0.339582  0.181580  0.841538  1
  Sb  Sb3  1  0.660418  0.818420  0.158462  1
  Sb  Sb4  1  0.662615  0.500967  0.843514  1
  Sb  Sb5  1  0.337385  0.499033  0.156486  1
  Sb  Sb6  1  0.181379  0.838417  0.337242  1
  Sb  Sb7  1  0.818621  0.161583  0.662758  1
  Sb  Sb8  1  0.502133  0.840556  0.659125  1
  Sb  Sb9  1  0.497867  0.159444  0.340875  1
  Sb  Sb10  1  0.844710  0.343272  0.181267  1
  Sb  Sb11  1  0.155290  0.656728  0.818733  1
  Sb  Sb12  1  0.842174  0.661128  0.502031  1
  Sb  Sb13  1  0.157826  0.338872  0.497969  1
  Os  Os14  1  0.500000  0.000000  0.000000  1
  Ru  Ru15  1  0.000000  0.000000  0.500000  1
  Ru  Ru16  1  0.500000  0.500000  0.500000  1
