# generated using pymatgen
data_TlHCl2
_symmetry_space_group_name_H-M   'P 1'
_cell_length_a   6.64612725
_cell_length_b   6.64612755
_cell_length_c   6.64612700
_cell_angle_alpha   98.42419684
_cell_angle_beta   115.26145635
_cell_angle_gamma   115.26145469
_symmetry_Int_Tables_number   1
_chemical_formula_structural   TlHCl2
_chemical_formula_sum   'Tl2 H2 Cl4'
_cell_volume   219.87047265
_cell_formula_units_Z   2
loop_
 _symmetry_equiv_pos_site_id
 _symmetry_equiv_pos_as_xyz
  1  'x, y, z'
loop_
 _atom_site_type_symbol
 _atom_site_label
 _atom_site_symmetry_multiplicity
 _atom_site_fract_x
 _atom_site_fract_y
 _atom_site_fract_z
 _atom_site_occupancy
  Tl  Tl0  1  0.000003  0.250006  0.250004  1
  Tl  Tl1  1  0.999997  0.749996  0.750000  1
  H  H2  1  0.500000  0.500000  0.000000  1
  H  H3  1  0.500000  0.000000  0.500001  1
  Cl  Cl4  1  0.500001  0.344543  0.155454  1
  Cl  Cl5  1  0.189011  0.844498  0.344497  1
  Cl  Cl6  1  0.810990  0.155502  0.655503  1
  Cl  Cl7  1  0.499998  0.655454  0.844546  1
