# generated using pymatgen
data_CuHgP2O7
_symmetry_space_group_name_H-M   'P 1'
_cell_length_a   4.88765800
_cell_length_b   7.59052208
_cell_length_c   8.86101540
_cell_angle_alpha   100.30916014
_cell_angle_beta   90.00000000
_cell_angle_gamma   108.78137538
_symmetry_Int_Tables_number   1
_chemical_formula_structural   CuHgP2O7
_chemical_formula_sum   'Cu2 Hg2 P4 O14'
_cell_volume   305.62745661
_cell_formula_units_Z   2
loop_
 _symmetry_equiv_pos_site_id
 _symmetry_equiv_pos_as_xyz
  1  'x, y, z'
loop_
 _atom_site_type_symbol
 _atom_site_label
 _atom_site_symmetry_multiplicity
 _atom_site_fract_x
 _atom_site_fract_y
 _atom_site_fract_z
 _atom_site_occupancy
  Cu  Cu0  1  0.000000  0.000000  0.000000  1
  Cu  Cu1  1  0.000000  0.000000  0.500000  1
  Hg  Hg2  1  0.500000  0.500001  0.000000  1
  Hg  Hg3  1  0.000000  0.500000  0.500000  1
  P  P4  1  0.265112  0.801436  0.226305  1
  P  P5  1  0.463679  0.198565  0.273695  1
  P  P6  1  0.536322  0.801436  0.726306  1
  P  P7  1  0.734887  0.198565  0.773695  1
  O  O8  1  0.073661  0.796791  0.088171  1
  O  O9  1  0.317076  0.198615  0.119990  1
  O  O10  1  0.397838  0.641534  0.206268  1
  O  O11  1  0.538325  0.000000  0.250000  1
  O  O12  1  0.756303  0.358466  0.293732  1
  O  O13  1  0.118462  0.801386  0.380010  1
  O  O14  1  0.276867  0.203208  0.411829  1
  O  O15  1  0.723131  0.796791  0.588172  1
  O  O16  1  0.881540  0.198615  0.619990  1
  O  O17  1  0.243698  0.641535  0.706268  1
  O  O18  1  0.461675  0.000000  0.750000  1
  O  O19  1  0.602163  0.358465  0.793733  1
  O  O20  1  0.682923  0.801385  0.880010  1
  O  O21  1  0.926340  0.203209  0.911829  1
