# generated using pymatgen
data_Dy5Al2GaC4
_symmetry_space_group_name_H-M   'P 1'
_cell_length_a   10.86303100
_cell_length_b   10.86303100
_cell_length_c   3.51307700
_cell_angle_alpha   90.00000000
_cell_angle_beta   90.00000000
_cell_angle_gamma   90.00000000
_symmetry_Int_Tables_number   1
_chemical_formula_structural   Dy5Al2GaC4
_chemical_formula_sum   'Dy10 Al4 Ga2 C8'
_cell_volume   414.56220595
_cell_formula_units_Z   2
loop_
 _symmetry_equiv_pos_site_id
 _symmetry_equiv_pos_as_xyz
  1  'x, y, z'
loop_
 _atom_site_type_symbol
 _atom_site_label
 _atom_site_symmetry_multiplicity
 _atom_site_fract_x
 _atom_site_fract_y
 _atom_site_fract_z
 _atom_site_occupancy
  Dy  Dy0  1  0.550370  0.728028  0.500000  1
  Dy  Dy1  1  0.449630  0.271972  0.500000  1
  Dy  Dy2  1  0.050370  0.771972  0.500000  1
  Dy  Dy3  1  0.949630  0.228028  0.500000  1
  Dy  Dy4  1  0.271972  0.550370  0.500000  1
  Dy  Dy5  1  0.728028  0.449630  0.500000  1
  Dy  Dy6  1  0.228028  0.050370  0.500000  1
  Dy  Dy7  1  0.771972  0.949630  0.500000  1
  Dy  Dy8  1  0.500000  0.000000  0.000000  1
  Dy  Dy9  1  0.000000  0.500000  0.000000  1
  Al  Al10  1  0.703854  0.203854  0.000000  1
  Al  Al11  1  0.296146  0.796146  0.000000  1
  Al  Al12  1  0.203854  0.296146  0.000000  1
  Al  Al13  1  0.796146  0.703854  0.000000  1
  Ga  Ga14  1  0.500000  0.500000  0.000000  1
  Ga  Ga15  1  0.000000  0.000000  0.000000  1
  C  C16  1  0.633055  0.133055  0.500000  1
  C  C17  1  0.366945  0.866945  0.500000  1
  C  C18  1  0.133055  0.366945  0.500000  1
  C  C19  1  0.866945  0.633055  0.500000  1
  C  C20  1  0.162475  0.662475  0.000000  1
  C  C21  1  0.837525  0.337525  0.000000  1
  C  C22  1  0.662475  0.837525  0.000000  1
  C  C23  1  0.337525  0.162475  0.000000  1
