# generated using pymatgen
data_Pr5FeMoO12
_symmetry_space_group_name_H-M   'P 1'
_cell_length_a   7.12192135
_cell_length_b   7.12192137
_cell_length_c   7.68821230
_cell_angle_alpha   74.41836886
_cell_angle_beta   74.41836856
_cell_angle_gamma   50.94238502
_symmetry_Int_Tables_number   1
_chemical_formula_structural   Pr5FeMoO12
_chemical_formula_sum   'Pr5 Fe1 Mo1 O12'
_cell_volume   289.09516307
_cell_formula_units_Z   1
loop_
 _symmetry_equiv_pos_site_id
 _symmetry_equiv_pos_as_xyz
  1  'x, y, z'
loop_
 _atom_site_type_symbol
 _atom_site_label
 _atom_site_symmetry_multiplicity
 _atom_site_fract_x
 _atom_site_fract_y
 _atom_site_fract_z
 _atom_site_occupancy
  Pr  Pr0  1  0.313499  0.297232  0.357891  1
  Pr  Pr1  1  0.702768  0.686501  0.642109  1
  Pr  Pr2  1  0.693559  0.694456  0.165271  1
  Pr  Pr3  1  0.305544  0.306441  0.834729  1
  Pr  Pr4  1  0.005453  0.994547  0.500000  1
  Fe  Fe5  1  0.743116  0.256884  0.000000  1
  Mo  Mo6  1  0.230689  0.769311  0.000000  1
  O  O7  1  0.098724  0.594566  0.575864  1
  O  O8  1  0.015159  0.983121  0.177209  1
  O  O9  1  0.405434  0.901276  0.424136  1
  O  O10  1  0.483316  0.518563  0.174411  1
  O  O11  1  0.103259  0.582821  0.078631  1
  O  O12  1  0.908658  0.400928  0.421153  1
  O  O13  1  0.016879  0.984841  0.822791  1
  O  O14  1  0.599072  0.091341  0.578847  1
  O  O15  1  0.481437  0.516684  0.825589  1
  O  O16  1  0.578787  0.102532  0.078317  1
  O  O17  1  0.417179  0.896741  0.921369  1
  O  O18  1  0.897468  0.421213  0.921683  1
