# generated using pymatgen
data_Ba4In5Rh9
_symmetry_space_group_name_H-M   'P 1'
_cell_length_a   13.28231295
_cell_length_b   13.28231303
_cell_length_c   13.28231288
_cell_angle_alpha   25.91475221
_cell_angle_beta   25.91475199
_cell_angle_gamma   25.91475608
_symmetry_Int_Tables_number   1
_chemical_formula_structural   Ba4In5Rh9
_chemical_formula_sum   'Ba4 In5 Rh9'
_cell_volume   394.19995347
_cell_formula_units_Z   1
loop_
 _symmetry_equiv_pos_site_id
 _symmetry_equiv_pos_as_xyz
  1  'x, y, z'
loop_
 _atom_site_type_symbol
 _atom_site_label
 _atom_site_symmetry_multiplicity
 _atom_site_fract_x
 _atom_site_fract_y
 _atom_site_fract_z
 _atom_site_occupancy
  Ba  Ba0  1  0.951308  0.951308  0.951308  1
  Ba  Ba1  1  0.855504  0.855504  0.855504  1
  Ba  Ba2  1  0.144496  0.144496  0.144496  1
  Ba  Ba3  1  0.048692  0.048692  0.048692  1
  In  In4  1  0.277999  0.277999  0.277999  1
  In  In5  1  0.500000  0.500000  0.500000  1
  In  In6  1  0.389511  0.389511  0.389511  1
  In  In7  1  0.722001  0.722001  0.722001  1
  In  In8  1  0.610489  0.610489  0.610489  1
  Rh  Rh9  1  0.612267  0.612267  0.105688  1
  Rh  Rh10  1  0.894312  0.387733  0.387733  1
  Rh  Rh11  1  0.500000  0.000000  0.500000  1
  Rh  Rh12  1  0.387733  0.894312  0.387733  1
  Rh  Rh13  1  0.500000  0.500000  0.000000  1
  Rh  Rh14  1  0.105688  0.612267  0.612267  1
  Rh  Rh15  1  0.000000  0.500000  0.500000  1
  Rh  Rh16  1  0.387733  0.387733  0.894312  1
  Rh  Rh17  1  0.612267  0.105688  0.612267  1
