# generated using pymatgen
data_K5Fe6(Ni2P5)2
_symmetry_space_group_name_H-M   'P 1'
_cell_length_a   8.83688589
_cell_length_b   8.81862024
_cell_length_c   8.84787439
_cell_angle_alpha   124.22566499
_cell_angle_beta   124.24397809
_cell_angle_gamma   82.89492448
_symmetry_Int_Tables_number   1
_chemical_formula_structural   K5Fe6(Ni2P5)2
_chemical_formula_sum   'K5 Fe6 Ni4 P10'
_cell_volume   452.13548852
_cell_formula_units_Z   1
loop_
 _symmetry_equiv_pos_site_id
 _symmetry_equiv_pos_as_xyz
  1  'x, y, z'
loop_
 _atom_site_type_symbol
 _atom_site_label
 _atom_site_symmetry_multiplicity
 _atom_site_fract_x
 _atom_site_fract_y
 _atom_site_fract_z
 _atom_site_occupancy
  K  K0  1  0.001299  0.999520  0.999236  1
  K  K1  1  0.400547  0.799759  0.201906  1
  K  K2  1  0.800164  0.599957  0.399988  1
  K  K3  1  0.197696  0.398560  0.598207  1
  K  K4  1  0.600030  0.201978  0.800600  1
  Fe  Fe5  1  0.549908  0.849990  0.899890  1
  Fe  Fe6  1  0.650232  0.547840  0.697015  1
  Fe  Fe7  1  0.050074  0.349978  0.900083  1
  Fe  Fe8  1  0.450745  0.153297  0.102934  1
  Fe  Fe9  1  0.852242  0.949019  0.302373  1
  Fe  Fe10  1  0.246761  0.749622  0.497621  1
  Ni  Ni11  1  0.948152  0.649443  0.097570  1
  Ni  Ni12  1  0.349367  0.451990  0.301320  1
  Ni  Ni13  1  0.750616  0.248232  0.498809  1
  Ni  Ni14  1  0.151917  0.050697  0.702483  1
  P  P15  1  0.941265  0.541266  0.798609  1
  P  P16  1  0.343262  0.343799  0.003108  1
  P  P17  1  0.740140  0.135612  0.192343  1
  P  P18  1  0.142407  0.942510  0.400877  1
  P  P19  1  0.543912  0.748852  0.609302  1
  P  P20  1  0.651379  0.659595  0.994430  1
  P  P21  1  0.056508  0.458480  0.198850  1
  P  P22  1  0.457700  0.257467  0.399076  1
  P  P23  1  0.859093  0.056604  0.599424  1
  P  P24  1  0.264586  0.855936  0.803947  1
