# generated using pymatgen
data_Sm4Th6Sn6CN
_symmetry_space_group_name_H-M   'P 1'
_cell_length_a   9.29111900
_cell_length_b   9.29111831
_cell_length_c   6.50237000
_cell_angle_alpha   90.00000000
_cell_angle_beta   90.00000000
_cell_angle_gamma   120.00000601
_symmetry_Int_Tables_number   1
_chemical_formula_structural   Sm4Th6Sn6CN
_chemical_formula_sum   'Sm4 Th6 Sn6 C1 N1'
_cell_volume   486.11418763
_cell_formula_units_Z   1
loop_
 _symmetry_equiv_pos_site_id
 _symmetry_equiv_pos_as_xyz
  1  'x, y, z'
loop_
 _atom_site_type_symbol
 _atom_site_label
 _atom_site_symmetry_multiplicity
 _atom_site_fract_x
 _atom_site_fract_y
 _atom_site_fract_z
 _atom_site_occupancy
  Sm  Sm0  1  0.666667  0.333333  0.500000  1
  Sm  Sm1  1  0.333333  0.666667  0.500000  1
  Sm  Sm2  1  0.333333  0.666667  0.000000  1
  Sm  Sm3  1  0.666667  0.333333  0.000000  1
  Th  Th4  1  0.777993  0.777993  0.249768  1
  Th  Th5  1  0.222007  0.000000  0.249768  1
  Th  Th6  1  0.000000  0.222007  0.249768  1
  Th  Th7  1  0.222007  0.222007  0.750232  1
  Th  Th8  1  0.777993  0.000000  0.750232  1
  Th  Th9  1  0.000000  0.777993  0.750232  1
  Sn  Sn10  1  0.402622  0.402622  0.249340  1
  Sn  Sn11  1  0.597378  0.000000  0.249340  1
  Sn  Sn12  1  0.000000  0.597378  0.249340  1
  Sn  Sn13  1  0.597378  0.597378  0.750660  1
  Sn  Sn14  1  0.402622  0.000000  0.750660  1
  Sn  Sn15  1  0.000000  0.402622  0.750660  1
  C  C16  1  0.000000  0.000000  0.000000  1
  N  N17  1  0.000000  0.000000  0.500000  1
