# generated using pymatgen
data_Tb5CeRuRh
_symmetry_space_group_name_H-M   'P 1'
_cell_length_a   6.33057600
_cell_length_b   7.17199800
_cell_length_c   9.58990400
_cell_angle_alpha   90.00000000
_cell_angle_beta   90.00000000
_cell_angle_gamma   90.00000000
_symmetry_Int_Tables_number   1
_chemical_formula_structural   Tb5CeRuRh
_chemical_formula_sum   'Tb10 Ce2 Ru2 Rh2'
_cell_volume   435.40924528
_cell_formula_units_Z   2
loop_
 _symmetry_equiv_pos_site_id
 _symmetry_equiv_pos_as_xyz
  1  'x, y, z'
loop_
 _atom_site_type_symbol
 _atom_site_label
 _atom_site_symmetry_multiplicity
 _atom_site_fract_x
 _atom_site_fract_y
 _atom_site_fract_z
 _atom_site_occupancy
  Tb  Tb0  1  0.332226  0.677833  0.065895  1
  Tb  Tb1  1  0.167774  0.177833  0.434105  1
  Tb  Tb2  1  0.669957  0.324718  0.564566  1
  Tb  Tb3  1  0.830043  0.824718  0.935434  1
  Tb  Tb4  1  0.669957  0.324718  0.935434  1
  Tb  Tb5  1  0.830043  0.824718  0.564566  1
  Tb  Tb6  1  0.332226  0.677833  0.434105  1
  Tb  Tb7  1  0.167774  0.177833  0.065895  1
  Tb  Tb8  1  0.141924  0.462707  0.750000  1
  Tb  Tb9  1  0.358076  0.962707  0.750000  1
  Ce  Ce10  1  0.854075  0.550633  0.250000  1
  Ce  Ce11  1  0.645925  0.050633  0.250000  1
  Ru  Ru12  1  0.014630  0.864197  0.250000  1
  Ru  Ru13  1  0.485370  0.364197  0.250000  1
  Rh  Rh14  1  0.946205  0.117361  0.750000  1
  Rh  Rh15  1  0.553795  0.617361  0.750000  1
