# generated using pymatgen
data_Zr2PaIn2GaRh3
_symmetry_space_group_name_H-M   'P 1'
_cell_length_a   7.40074388
_cell_length_b   7.50097572
_cell_length_c   3.65057600
_cell_angle_alpha   90.00000000
_cell_angle_beta   90.00000000
_cell_angle_gamma   120.44482187
_symmetry_Int_Tables_number   1
_chemical_formula_structural   Zr2PaIn2GaRh3
_chemical_formula_sum   'Zr2 Pa1 In2 Ga1 Rh3'
_cell_volume   174.71130588
_cell_formula_units_Z   1
loop_
 _symmetry_equiv_pos_site_id
 _symmetry_equiv_pos_as_xyz
  1  'x, y, z'
loop_
 _atom_site_type_symbol
 _atom_site_label
 _atom_site_symmetry_multiplicity
 _atom_site_fract_x
 _atom_site_fract_y
 _atom_site_fract_z
 _atom_site_occupancy
  Zr  Zr0  1  0.599051  0.610179  0.500000  1
  Zr  Zr1  1  0.417619  0.994732  0.500000  1
  Pa  Pa2  1  0.995256  0.401887  0.500000  1
  In  In3  1  0.005095  0.759813  0.000000  1
  In  In4  1  0.280788  0.255328  0.000000  1
  Ga  Ga5  1  0.716163  0.983280  0.000000  1
  Rh  Rh6  1  0.324307  0.651499  0.000000  1
  Rh  Rh7  1  0.690332  0.330111  0.000000  1
  Rh  Rh8  1  0.971389  0.013171  0.500000  1
