# generated using pymatgen
data_Ba2Yb3(GaSb3)2
_symmetry_space_group_name_H-M   'P 1'
_cell_length_a   4.70229700
_cell_length_b   12.56315900
_cell_length_c   14.21850000
_cell_angle_alpha   90.00000000
_cell_angle_beta   90.00000000
_cell_angle_gamma   90.00000000
_symmetry_Int_Tables_number   1
_chemical_formula_structural   Ba2Yb3(GaSb3)2
_chemical_formula_sum   'Ba4 Yb6 Ga4 Sb12'
_cell_volume   839.96790978
_cell_formula_units_Z   2
loop_
 _symmetry_equiv_pos_site_id
 _symmetry_equiv_pos_as_xyz
  1  'x, y, z'
loop_
 _atom_site_type_symbol
 _atom_site_label
 _atom_site_symmetry_multiplicity
 _atom_site_fract_x
 _atom_site_fract_y
 _atom_site_fract_z
 _atom_site_occupancy
  Ba  Ba0  1  0.500000  0.675613  0.473391  1
  Ba  Ba1  1  0.500000  0.324387  0.526609  1
  Ba  Ba2  1  0.500000  0.824387  0.973391  1
  Ba  Ba3  1  0.500000  0.175613  0.026609  1
  Yb  Yb4  1  0.500000  0.000000  0.500000  1
  Yb  Yb5  1  0.500000  0.500000  0.000000  1
  Yb  Yb6  1  0.500000  0.910835  0.246917  1
  Yb  Yb7  1  0.500000  0.089165  0.753083  1
  Yb  Yb8  1  0.500000  0.410835  0.253083  1
  Yb  Yb9  1  0.500000  0.589165  0.746917  1
  Ga  Ga10  1  0.000000  0.317957  0.712487  1
  Ga  Ga11  1  0.000000  0.682043  0.287513  1
  Ga  Ga12  1  0.000000  0.817957  0.787513  1
  Ga  Ga13  1  0.000000  0.182043  0.212487  1
  Sb  Sb14  1  0.000000  0.983566  0.102514  1
  Sb  Sb15  1  0.000000  0.016434  0.897486  1
  Sb  Sb16  1  0.000000  0.483566  0.397486  1
  Sb  Sb17  1  0.000000  0.516434  0.602514  1
  Sb  Sb18  1  0.500000  0.159588  0.315049  1
  Sb  Sb19  1  0.500000  0.840412  0.684951  1
  Sb  Sb20  1  0.500000  0.659588  0.184951  1
  Sb  Sb21  1  0.500000  0.340412  0.815049  1
  Sb  Sb22  1  0.000000  0.366273  0.105611  1
  Sb  Sb23  1  0.000000  0.633727  0.894389  1
  Sb  Sb24  1  0.000000  0.866273  0.394389  1
  Sb  Sb25  1  0.000000  0.133727  0.605611  1
