# generated using pymatgen
data_Gd5Ho(Si3Os)8
_symmetry_space_group_name_H-M   'P 1'
_cell_length_a   10.13209612
_cell_length_b   10.13209738
_cell_length_c   8.17734300
_cell_angle_alpha   89.97309409
_cell_angle_beta   89.97309974
_cell_angle_gamma   132.45941797
_symmetry_Int_Tables_number   1
_chemical_formula_structural   Gd5Ho(Si3Os)8
_chemical_formula_sum   'Gd5 Ho1 Si24 Os8'
_cell_volume   619.33144335
_cell_formula_units_Z   1
loop_
 _symmetry_equiv_pos_site_id
 _symmetry_equiv_pos_as_xyz
  1  'x, y, z'
loop_
 _atom_site_type_symbol
 _atom_site_label
 _atom_site_symmetry_multiplicity
 _atom_site_fract_x
 _atom_site_fract_y
 _atom_site_fract_z
 _atom_site_occupancy
  Gd  Gd0  1  0.500000  0.500000  0.500000  1
  Gd  Gd1  1  0.501701  0.001931  0.750679  1
  Gd  Gd2  1  0.998069  0.498299  0.249321  1
  Gd  Gd3  1  0.498299  0.998069  0.249321  1
  Gd  Gd4  1  0.001931  0.501701  0.750679  1
  Ho  Ho5  1  0.000000  0.000000  0.000000  1
  Si  Si6  1  0.795357  0.204643  0.500000  1
  Si  Si7  1  0.294643  0.705357  0.000000  1
  Si  Si8  1  0.204643  0.795357  0.500000  1
  Si  Si9  1  0.705357  0.294643  0.000000  1
  Si  Si10  1  0.332620  0.332620  0.832916  1
  Si  Si11  1  0.667380  0.667380  0.167084  1
  Si  Si12  1  0.167964  0.167964  0.332926  1
  Si  Si13  1  0.832036  0.832036  0.667074  1
  Si  Si14  1  0.122288  0.888241  0.728476  1
  Si  Si15  1  0.111759  0.877712  0.271524  1
  Si  Si16  1  0.614606  0.379667  0.227422  1
  Si  Si17  1  0.620333  0.385394  0.772578  1
  Si  Si18  1  0.877712  0.111759  0.271524  1
  Si  Si19  1  0.888241  0.122288  0.728476  1
  Si  Si20  1  0.385394  0.620333  0.772578  1
  Si  Si21  1  0.379667  0.614606  0.227422  1
  Si  Si22  1  0.345286  0.111553  0.504582  1
  Si  Si23  1  0.888447  0.654714  0.495418  1
  Si  Si24  1  0.389153  0.155361  0.003749  1
  Si  Si25  1  0.844639  0.610847  0.996251  1
  Si  Si26  1  0.654714  0.888447  0.495418  1
  Si  Si27  1  0.111553  0.345286  0.504582  1
  Si  Si28  1  0.610847  0.844639  0.996251  1
  Si  Si29  1  0.155361  0.389153  0.003749  1
  Os  Os30  1  0.669173  0.330827  0.500000  1
  Os  Os31  1  0.167934  0.832066  0.000000  1
  Os  Os32  1  0.330827  0.669173  0.500000  1
  Os  Os33  1  0.832066  0.167934  0.000000  1
  Os  Os34  1  0.125845  0.125845  0.628197  1
  Os  Os35  1  0.874155  0.874155  0.371803  1
  Os  Os36  1  0.373028  0.373028  0.126098  1
  Os  Os37  1  0.626972  0.626972  0.873902  1
