# generated using pymatgen
data_DyAl7ZnCu4
_symmetry_space_group_name_H-M   'P 1'
_cell_length_a   6.70904574
_cell_length_b   6.70904546
_cell_length_c   6.70904572
_cell_angle_alpha   98.71208532
_cell_angle_beta   98.32132569
_cell_angle_gamma   134.73318116
_symmetry_Int_Tables_number   1
_chemical_formula_structural   DyAl7ZnCu4
_chemical_formula_sum   'Dy1 Al7 Zn1 Cu4'
_cell_volume   198.00310169
_cell_formula_units_Z   1
loop_
 _symmetry_equiv_pos_site_id
 _symmetry_equiv_pos_as_xyz
  1  'x, y, z'
loop_
 _atom_site_type_symbol
 _atom_site_label
 _atom_site_symmetry_multiplicity
 _atom_site_fract_x
 _atom_site_fract_y
 _atom_site_fract_z
 _atom_site_occupancy
  Dy  Dy0  1  0.000000  0.998975  0.998975  1
  Al  Al1  1  0.282792  0.502391  0.785183  1
  Al  Al2  1  0.651444  0.998202  0.649646  1
  Al  Al3  1  0.000000  0.347753  0.347753  1
  Al  Al4  1  0.000000  0.650927  0.650927  1
  Al  Al5  1  0.348556  0.998202  0.346758  1
  Al  Al6  1  0.717208  0.502391  0.219599  1
  Al  Al7  1  0.500000  0.279336  0.779336  1
  Zn  Zn8  1  0.500000  0.717823  0.217823  1
  Cu  Cu9  1  0.002613  0.001877  0.502735  1
  Cu  Cu10  1  0.500859  0.500122  0.502735  1
  Cu  Cu11  1  0.499141  0.001877  0.999264  1
  Cu  Cu12  1  0.997387  0.500122  0.999264  1
