# generated using pymatgen
data_Tb12InGa(SiTc)2
_symmetry_space_group_name_H-M   'P 1'
_cell_length_a   8.52968413
_cell_length_b   8.52904031
_cell_length_c   8.52968501
_cell_angle_alpha   104.79807748
_cell_angle_beta   111.55024330
_cell_angle_gamma   112.16763260
_symmetry_Int_Tables_number   1
_chemical_formula_structural   Tb12InGa(SiTc)2
_chemical_formula_sum   'Tb12 In1 Ga1 Si2 Tc2'
_cell_volume   475.29702269
_cell_formula_units_Z   1
loop_
 _symmetry_equiv_pos_site_id
 _symmetry_equiv_pos_as_xyz
  1  'x, y, z'
loop_
 _atom_site_type_symbol
 _atom_site_label
 _atom_site_symmetry_multiplicity
 _atom_site_fract_x
 _atom_site_fract_y
 _atom_site_fract_z
 _atom_site_occupancy
  Tb  Tb0  1  0.695946  0.261519  0.957500  1
  Tb  Tb1  1  0.304054  0.738481  0.042500  1
  Tb  Tb2  1  0.695981  0.738481  0.434428  1
  Tb  Tb3  1  0.304019  0.261519  0.565572  1
  Tb  Tb4  1  0.811599  0.144714  0.333115  1
  Tb  Tb5  1  0.811649  0.478512  0.666863  1
  Tb  Tb6  1  0.188401  0.855286  0.666885  1
  Tb  Tb7  1  0.188351  0.521488  0.333137  1
  Tb  Tb8  1  0.590898  0.771620  0.819280  1
  Tb  Tb9  1  0.952340  0.771620  0.180723  1
  Tb  Tb10  1  0.047660  0.228380  0.819277  1
  Tb  Tb11  1  0.409102  0.228380  0.180720  1
  In  In12  1  0.500000  0.000000  0.500000  1
  Ga  Ga13  1  0.500000  0.500000  0.000000  1
  Si  Si14  1  0.999989  0.113643  0.113654  1
  Si  Si15  1  0.000011  0.886357  0.886346  1
  Tc  Tc16  1  0.827558  0.500000  0.327558  1
  Tc  Tc17  1  0.172442  0.500000  0.672442  1
