# generated using pymatgen
data_Pr5W2C7
_symmetry_space_group_name_H-M   'P 1'
_cell_length_a   8.83918623
_cell_length_b   8.83918651
_cell_length_c   3.57313300
_cell_angle_alpha   90.00000000
_cell_angle_beta   90.00000000
_cell_angle_gamma   125.08829874
_symmetry_Int_Tables_number   1
_chemical_formula_structural   Pr5W2C7
_chemical_formula_sum   'Pr5 W2 C7'
_cell_volume   228.43827390
_cell_formula_units_Z   1
loop_
 _symmetry_equiv_pos_site_id
 _symmetry_equiv_pos_as_xyz
  1  'x, y, z'
loop_
 _atom_site_type_symbol
 _atom_site_label
 _atom_site_symmetry_multiplicity
 _atom_site_fract_x
 _atom_site_fract_y
 _atom_site_fract_z
 _atom_site_occupancy
  Pr  Pr0  1  0.500000  0.500000  0.000000  1
  Pr  Pr1  1  0.066292  0.324895  0.500000  1
  Pr  Pr2  1  0.933708  0.675105  0.500000  1
  Pr  Pr3  1  0.675105  0.933708  0.500000  1
  Pr  Pr4  1  0.324895  0.066292  0.500000  1
  W  W5  1  0.712240  0.287760  0.000000  1
  W  W6  1  0.287760  0.712240  0.000000  1
  C  C7  1  0.633896  0.366104  0.500000  1
  C  C8  1  0.366104  0.633896  0.500000  1
  C  C9  1  0.000000  0.000000  0.000000  1
  C  C10  1  0.166015  0.166015  0.000000  1
  C  C11  1  0.833985  0.833985  0.000000  1
  C  C12  1  0.000000  0.500000  0.000000  1
  C  C13  1  0.500000  0.000000  0.000000  1
