# generated using pymatgen
data_Cs3K2ZrAs3
_symmetry_space_group_name_H-M   'P 1'
_cell_length_a   11.86936864
_cell_length_b   11.86936757
_cell_length_c   16.57381900
_cell_angle_alpha   90.00000000
_cell_angle_beta   90.00000000
_cell_angle_gamma   141.78060617
_symmetry_Int_Tables_number   1
_chemical_formula_structural   Cs3K2ZrAs3
_chemical_formula_sum   'Cs12 K8 Zr4 As12'
_cell_volume   1444.57437954
_cell_formula_units_Z   4
loop_
 _symmetry_equiv_pos_site_id
 _symmetry_equiv_pos_as_xyz
  1  'x, y, z'
loop_
 _atom_site_type_symbol
 _atom_site_label
 _atom_site_symmetry_multiplicity
 _atom_site_fract_x
 _atom_site_fract_y
 _atom_site_fract_z
 _atom_site_occupancy
  Cs  Cs0  1  0.928559  0.597642  0.818478  1
  Cs  Cs1  1  0.571441  0.902358  0.318478  1
  Cs  Cs2  1  0.402358  0.071441  0.181522  1
  Cs  Cs3  1  0.071441  0.402358  0.181522  1
  Cs  Cs4  1  0.902358  0.571441  0.318478  1
  Cs  Cs5  1  0.428559  0.097642  0.681522  1
  Cs  Cs6  1  0.597642  0.928559  0.818478  1
  Cs  Cs7  1  0.260704  0.260704  0.311149  1
  Cs  Cs8  1  0.760704  0.760704  0.188851  1
  Cs  Cs9  1  0.239296  0.239296  0.811149  1
  Cs  Cs10  1  0.739296  0.739296  0.688851  1
  Cs  Cs11  1  0.097642  0.428559  0.681522  1
  K  K12  1  0.922572  0.077428  0.000000  1
  K  K13  1  0.577428  0.422572  0.500000  1
  K  K14  1  0.077428  0.922572  0.000000  1
  K  K15  1  0.422572  0.577428  0.500000  1
  K  K16  1  0.758569  0.241431  0.000000  1
  K  K17  1  0.741431  0.258569  0.500000  1
  K  K18  1  0.241431  0.758569  0.000000  1
  K  K19  1  0.258569  0.741431  0.500000  1
  Zr  Zr20  1  0.582220  0.417780  0.000000  1
  Zr  Zr21  1  0.917780  0.082220  0.500000  1
  Zr  Zr22  1  0.417780  0.582220  0.000000  1
  Zr  Zr23  1  0.082220  0.917780  0.500000  1
  As  As24  1  0.841634  0.543544  0.096317  1
  As  As25  1  0.456456  0.158366  0.903683  1
  As  As26  1  0.658366  0.956456  0.596317  1
  As  As27  1  0.956456  0.658366  0.596317  1
  As  As28  1  0.158366  0.456456  0.903683  1
  As  As29  1  0.543544  0.841634  0.096317  1
  As  As30  1  0.341634  0.043544  0.403683  1
  As  As31  1  0.178348  0.178348  0.584454  1
  As  As32  1  0.678348  0.678348  0.915546  1
  As  As33  1  0.321652  0.321652  0.084454  1
  As  As34  1  0.043544  0.341634  0.403683  1
  As  As35  1  0.821652  0.821652  0.415546  1
