# generated using pymatgen
data_Zr8CrSiBi4
_symmetry_space_group_name_H-M   'P 1'
_cell_length_a   8.31371593
_cell_length_b   8.31420434
_cell_length_c   8.31371678
_cell_angle_alpha   95.99322714
_cell_angle_beta   95.98754600
_cell_angle_gamma   142.30005221
_symmetry_Int_Tables_number   1
_chemical_formula_structural   Zr8CrSiBi4
_chemical_formula_sum   'Zr8 Cr1 Si1 Bi4'
_cell_volume   332.58219610
_cell_formula_units_Z   1
loop_
 _symmetry_equiv_pos_site_id
 _symmetry_equiv_pos_as_xyz
  1  'x, y, z'
loop_
 _atom_site_type_symbol
 _atom_site_label
 _atom_site_symmetry_multiplicity
 _atom_site_fract_x
 _atom_site_fract_y
 _atom_site_fract_z
 _atom_site_occupancy
  Zr  Zr0  1  0.078518  0.194506  0.281532  1
  Zr  Zr1  1  0.912950  0.797013  0.718498  1
  Zr  Zr2  1  0.796969  0.078483  0.884052  1
  Zr  Zr3  1  0.421485  0.702987  0.115938  1
  Zr  Zr4  1  0.194510  0.912989  0.115976  1
  Zr  Zr5  1  0.587026  0.305494  0.884011  1
  Zr  Zr6  1  0.702985  0.587011  0.281520  1
  Zr  Zr7  1  0.305570  0.421517  0.718486  1
  Cr  Cr8  1  0.749992  0.750000  0.999992  1
  Si  Si9  1  0.250008  0.250000  0.000008  1
  Bi  Bi10  1  0.139215  0.639207  0.778457  1
  Bi  Bi11  1  0.860774  0.360768  0.221516  1
  Bi  Bi12  1  0.360748  0.139232  0.500006  1
  Bi  Bi13  1  0.639250  0.860793  0.500008  1
