# generated using pymatgen
data_La3Sn3Pd2Ru
_symmetry_space_group_name_H-M   'P 1'
_cell_length_a   7.67604500
_cell_length_b   7.67604614
_cell_length_c   4.24347600
_cell_angle_alpha   90.00000000
_cell_angle_beta   90.00000000
_cell_angle_gamma   119.99999939
_symmetry_Int_Tables_number   1
_chemical_formula_structural   La3Sn3Pd2Ru
_chemical_formula_sum   'La3 Sn3 Pd2 Ru1'
_cell_volume   216.53468543
_cell_formula_units_Z   1
loop_
 _symmetry_equiv_pos_site_id
 _symmetry_equiv_pos_as_xyz
  1  'x, y, z'
loop_
 _atom_site_type_symbol
 _atom_site_label
 _atom_site_symmetry_multiplicity
 _atom_site_fract_x
 _atom_site_fract_y
 _atom_site_fract_z
 _atom_site_occupancy
  La  La0  1  0.000000  0.590434  0.000000  1
  La  La1  1  0.409566  0.409566  0.000000  1
  La  La2  1  0.590434  0.000000  0.000000  1
  Sn  Sn3  1  0.755695  0.755695  0.500000  1
  Sn  Sn4  1  0.000000  0.244305  0.500000  1
  Sn  Sn5  1  0.244305  0.000000  0.500000  1
  Pd  Pd6  1  0.666667  0.333333  0.500000  1
  Pd  Pd7  1  0.333333  0.666667  0.500000  1
  Ru  Ru8  1  0.000000  0.000000  0.000000  1
