# generated using pymatgen
data_K4HfPaI12
_symmetry_space_group_name_H-M   'P 1'
_cell_length_a   8.85119419
_cell_length_b   8.24055340
_cell_length_c   14.22894434
_cell_angle_alpha   54.59884310
_cell_angle_beta   89.92261252
_cell_angle_gamma   90.56986766
_symmetry_Int_Tables_number   1
_chemical_formula_structural   K4HfPaI12
_chemical_formula_sum   'K4 Hf1 Pa1 I12'
_cell_volume   845.88706126
_cell_formula_units_Z   1
loop_
 _symmetry_equiv_pos_site_id
 _symmetry_equiv_pos_as_xyz
  1  'x, y, z'
loop_
 _atom_site_type_symbol
 _atom_site_label
 _atom_site_symmetry_multiplicity
 _atom_site_fract_x
 _atom_site_fract_y
 _atom_site_fract_z
 _atom_site_occupancy
  K  K0  1  0.592681  0.733076  0.243427  1
  K  K1  1  0.087525  0.280532  0.242302  1
  K  K2  1  0.407319  0.266924  0.756573  1
  K  K3  1  0.912475  0.719468  0.757698  1
  Hf  Hf4  1  0.000000  0.000000  0.000000  1
  Pa  Pa5  1  0.500000  0.000000  0.500000  1
  I  I6  1  0.978599  0.865568  0.235106  1
  I  I7  1  0.480509  0.158876  0.246483  1
  I  I8  1  0.021401  0.134432  0.764894  1
  I  I9  1  0.519491  0.841124  0.753517  1
  I  I10  1  0.679085  0.640901  0.554822  1
  I  I11  1  0.174913  0.340330  0.945826  1
  I  I12  1  0.320915  0.359099  0.445178  1
  I  I13  1  0.825087  0.659670  0.054174  1
  I  I14  1  0.725573  0.218131  0.950085  1
  I  I15  1  0.202409  0.772453  0.549672  1
  I  I16  1  0.274427  0.781869  0.049915  1
  I  I17  1  0.797591  0.227547  0.450328  1
