# generated using pymatgen
data_TbHoNiAsS
_symmetry_space_group_name_H-M   'P 1'
_cell_length_a   4.01466300
_cell_length_b   4.01466312
_cell_length_c   13.96008100
_cell_angle_alpha   90.00000000
_cell_angle_beta   90.00000000
_cell_angle_gamma   120.00000722
_symmetry_Int_Tables_number   1
_chemical_formula_structural   TbHoNiAsS
_chemical_formula_sum   'Tb2 Ho2 Ni2 As2 S2'
_cell_volume   194.85732786
_cell_formula_units_Z   2
loop_
 _symmetry_equiv_pos_site_id
 _symmetry_equiv_pos_as_xyz
  1  'x, y, z'
loop_
 _atom_site_type_symbol
 _atom_site_label
 _atom_site_symmetry_multiplicity
 _atom_site_fract_x
 _atom_site_fract_y
 _atom_site_fract_z
 _atom_site_occupancy
  Tb  Tb0  1  0.666667  0.333333  0.385789  1
  Tb  Tb1  1  0.333333  0.666667  0.885789  1
  Ho  Ho2  1  0.333333  0.666667  0.614373  1
  Ho  Ho3  1  0.666667  0.333333  0.114373  1
  Ni  Ni4  1  0.000000  0.000000  0.749268  1
  Ni  Ni5  1  0.000000  0.000000  0.249268  1
  As  As6  1  0.333333  0.666667  0.248803  1
  As  As7  1  0.666667  0.333333  0.748803  1
  S  S8  1  0.000000  0.000000  0.001766  1
  S  S9  1  0.000000  0.000000  0.501766  1
