# generated using pymatgen
data_KRbSr2(SbAu)4
_symmetry_space_group_name_H-M   'P 1'
_cell_length_a   4.66007800
_cell_length_b   4.66007856
_cell_length_c   20.56993000
_cell_angle_alpha   90.00000000
_cell_angle_beta   90.00000000
_cell_angle_gamma   120.00001023
_symmetry_Int_Tables_number   1
_chemical_formula_structural   KRbSr2(SbAu)4
_chemical_formula_sum   'K1 Rb1 Sr2 Sb4 Au4'
_cell_volume   386.85643444
_cell_formula_units_Z   1
loop_
 _symmetry_equiv_pos_site_id
 _symmetry_equiv_pos_as_xyz
  1  'x, y, z'
loop_
 _atom_site_type_symbol
 _atom_site_label
 _atom_site_symmetry_multiplicity
 _atom_site_fract_x
 _atom_site_fract_y
 _atom_site_fract_z
 _atom_site_occupancy
  K  K0  1  0.000000  0.000000  0.000000  1
  Rb  Rb1  1  0.000000  0.000000  0.500000  1
  Sr  Sr2  1  0.000000  0.000000  0.247925  1
  Sr  Sr3  1  0.000000  0.000000  0.752075  1
  Sb  Sb4  1  0.333333  0.666667  0.367371  1
  Sb  Sb5  1  0.666667  0.333333  0.632629  1
  Sb  Sb6  1  0.666667  0.333333  0.873103  1
  Sb  Sb7  1  0.333333  0.666667  0.126897  1
  Au  Au8  1  0.666667  0.333333  0.350302  1
  Au  Au9  1  0.333333  0.666667  0.649698  1
  Au  Au10  1  0.333333  0.666667  0.855922  1
  Au  Au11  1  0.666667  0.333333  0.144078  1
