# generated using pymatgen
data_Ho16Tl6OsPd
_symmetry_space_group_name_H-M   'P 1'
_cell_length_a   10.41905500
_cell_length_b   10.41905498
_cell_length_c   7.01581700
_cell_angle_alpha   90.00000000
_cell_angle_beta   90.00000000
_cell_angle_gamma   120.00000324
_symmetry_Int_Tables_number   1
_chemical_formula_structural   Ho16Tl6OsPd
_chemical_formula_sum   'Ho16 Tl6 Os1 Pd1'
_cell_volume   659.57704125
_cell_formula_units_Z   1
loop_
 _symmetry_equiv_pos_site_id
 _symmetry_equiv_pos_as_xyz
  1  'x, y, z'
loop_
 _atom_site_type_symbol
 _atom_site_label
 _atom_site_symmetry_multiplicity
 _atom_site_fract_x
 _atom_site_fract_y
 _atom_site_fract_z
 _atom_site_occupancy
  Ho  Ho0  1  0.529892  0.059784  0.510243  1
  Ho  Ho1  1  0.940216  0.470108  0.510243  1
  Ho  Ho2  1  0.529892  0.470108  0.510243  1
  Ho  Ho3  1  0.465452  0.930904  0.007209  1
  Ho  Ho4  1  0.069096  0.534548  0.007209  1
  Ho  Ho5  1  0.465452  0.534548  0.007209  1
  Ho  Ho6  1  0.176397  0.352791  0.714182  1
  Ho  Ho7  1  0.647209  0.823603  0.714182  1
  Ho  Ho8  1  0.176397  0.823603  0.714182  1
  Ho  Ho9  1  0.825106  0.650212  0.212226  1
  Ho  Ho10  1  0.349788  0.174894  0.212226  1
  Ho  Ho11  1  0.825106  0.174894  0.212226  1
  Ho  Ho12  1  0.666667  0.333333  0.882273  1
  Ho  Ho13  1  0.333333  0.666667  0.384602  1
  Ho  Ho14  1  0.000000  0.000000  0.490672  1
  Ho  Ho15  1  0.000000  0.000000  0.993342  1
  Tl  Tl16  1  0.836693  0.673385  0.751847  1
  Tl  Tl17  1  0.326615  0.163307  0.751847  1
  Tl  Tl18  1  0.836693  0.163307  0.751847  1
  Tl  Tl19  1  0.162710  0.325419  0.253306  1
  Tl  Tl20  1  0.674581  0.837290  0.253306  1
  Tl  Tl21  1  0.162710  0.837290  0.253306  1
  Os  Os22  1  0.333333  0.666667  0.780080  1
  Pd  Pd23  1  0.666667  0.333333  0.280040  1
