# generated using pymatgen
data_Sc4CoNi3(SnH)4
_symmetry_space_group_name_H-M   'P 1'
_cell_length_a   4.09833500
_cell_length_b   6.87327237
_cell_length_c   8.01187568
_cell_angle_alpha   90.37340933
_cell_angle_beta   90.00000000
_cell_angle_gamma   90.00000000
_symmetry_Int_Tables_number   1
_chemical_formula_structural   Sc4CoNi3(SnH)4
_chemical_formula_sum   'Sc4 Co1 Ni3 Sn4 H4'
_cell_volume   225.68151454
_cell_formula_units_Z   1
loop_
 _symmetry_equiv_pos_site_id
 _symmetry_equiv_pos_as_xyz
  1  'x, y, z'
loop_
 _atom_site_type_symbol
 _atom_site_label
 _atom_site_symmetry_multiplicity
 _atom_site_fract_x
 _atom_site_fract_y
 _atom_site_fract_z
 _atom_site_occupancy
  Sc  Sc0  1  0.750000  0.515861  0.816029  1
  Sc  Sc1  1  0.250000  0.480841  0.186099  1
  Sc  Sc2  1  0.250000  0.989898  0.319198  1
  Sc  Sc3  1  0.750000  0.021556  0.679569  1
  Co  Co4  1  0.750000  0.260261  0.386956  1
  Ni  Ni5  1  0.250000  0.734789  0.614920  1
  Ni  Ni6  1  0.250000  0.235765  0.885557  1
  Ni  Ni7  1  0.750000  0.765440  0.113369  1
  Sn  Sn8  1  0.750000  0.157576  0.072272  1
  Sn  Sn9  1  0.250000  0.845349  0.929466  1
  Sn  Sn10  1  0.250000  0.342472  0.570534  1
  Sn  Sn11  1  0.750000  0.653061  0.428143  1
  H  H12  1  0.250000  0.959375  0.576588  1
  H  H13  1  0.750000  0.036988  0.421154  1
  H  H14  1  0.750000  0.540989  0.074353  1
  H  H15  1  0.250000  0.459777  0.925792  1
