# generated using pymatgen
data_K3Bi2SbTe6
_symmetry_space_group_name_H-M   'P 1'
_cell_length_a   7.90458773
_cell_length_b   7.90458922
_cell_length_c   8.75086656
_cell_angle_alpha   81.33934245
_cell_angle_beta   81.33934588
_cell_angle_gamma   120.05096931
_symmetry_Int_Tables_number   1
_chemical_formula_structural   K3Bi2SbTe6
_chemical_formula_sum   'K3 Bi2 Sb1 Te6'
_cell_volume   451.27073948
_cell_formula_units_Z   1
loop_
 _symmetry_equiv_pos_site_id
 _symmetry_equiv_pos_as_xyz
  1  'x, y, z'
loop_
 _atom_site_type_symbol
 _atom_site_label
 _atom_site_symmetry_multiplicity
 _atom_site_fract_x
 _atom_site_fract_y
 _atom_site_fract_z
 _atom_site_occupancy
  K  K0  1  0.667682  0.332318  0.500000  1
  K  K1  1  0.332318  0.667682  0.500000  1
  K  K2  1  0.000000  0.000000  0.500000  1
  Bi  Bi3  1  0.833443  0.166557  0.000000  1
  Bi  Bi4  1  0.166557  0.833443  0.000000  1
  Sb  Sb5  1  0.500000  0.500000  0.000000  1
  Te  Te6  1  0.757761  0.757761  0.209462  1
  Te  Te7  1  0.242239  0.242239  0.790538  1
  Te  Te8  1  0.429983  0.102541  0.209656  1
  Te  Te9  1  0.570017  0.897459  0.790344  1
  Te  Te10  1  0.897459  0.570017  0.790344  1
  Te  Te11  1  0.102541  0.429983  0.209656  1
