# generated using pymatgen
data_Eu3Y5(Si3Pt)4
_symmetry_space_group_name_H-M   'P 1'
_cell_length_a   8.19267000
_cell_length_b   8.20371237
_cell_length_c   8.47001000
_cell_angle_alpha   90.00000000
_cell_angle_beta   90.00000000
_cell_angle_gamma   120.04437974
_symmetry_Int_Tables_number   1
_chemical_formula_structural   Eu3Y5(Si3Pt)4
_chemical_formula_sum   'Eu3 Y5 Si12 Pt4'
_cell_volume   492.78337951
_cell_formula_units_Z   1
loop_
 _symmetry_equiv_pos_site_id
 _symmetry_equiv_pos_as_xyz
  1  'x, y, z'
loop_
 _atom_site_type_symbol
 _atom_site_label
 _atom_site_symmetry_multiplicity
 _atom_site_fract_x
 _atom_site_fract_y
 _atom_site_fract_z
 _atom_site_occupancy
  Eu  Eu0  1  0.000054  0.000021  0.250000  1
  Eu  Eu1  1  0.999994  0.999992  0.750000  1
  Eu  Eu2  1  0.000509  0.500259  0.250000  1
  Y  Y3  1  0.499765  0.500332  0.250000  1
  Y  Y4  1  0.500312  0.000627  0.750000  1
  Y  Y5  1  0.499756  0.999430  0.250000  1
  Y  Y6  1  0.500311  0.499689  0.750000  1
  Y  Y7  1  0.999381  0.499691  0.750000  1
  Si  Si8  1  0.167389  0.333167  0.997097  1
  Si  Si9  1  0.667888  0.833945  0.999460  1
  Si  Si10  1  0.167389  0.333167  0.502903  1
  Si  Si11  1  0.332080  0.166040  0.000121  1
  Si  Si12  1  0.167401  0.834224  0.997041  1
  Si  Si13  1  0.667888  0.833945  0.500540  1
  Si  Si14  1  0.832631  0.666834  0.997872  1
  Si  Si15  1  0.332080  0.166040  0.499879  1
  Si  Si16  1  0.167401  0.834224  0.502959  1
  Si  Si17  1  0.832631  0.666834  0.502128  1
  Si  Si18  1  0.832621  0.165796  0.997814  1
  Si  Si19  1  0.832621  0.165796  0.502186  1
  Pt  Pt20  1  0.335334  0.667664  0.994646  1
  Pt  Pt21  1  0.335334  0.667664  0.505354  1
  Pt  Pt22  1  0.664614  0.332310  0.995796  1
  Pt  Pt23  1  0.664614  0.332310  0.504204  1
