# generated using pymatgen
data_ErTm4Si7Pt9
_symmetry_space_group_name_H-M   'P 1'
_cell_length_a   10.15778800
_cell_length_b   10.15778761
_cell_length_c   4.03689100
_cell_angle_alpha   90.00000000
_cell_angle_beta   90.00000000
_cell_angle_gamma   120.00000128
_symmetry_Int_Tables_number   1
_chemical_formula_structural   ErTm4Si7Pt9
_chemical_formula_sum   'Er1 Tm4 Si7 Pt9'
_cell_volume   360.72473380
_cell_formula_units_Z   1
loop_
 _symmetry_equiv_pos_site_id
 _symmetry_equiv_pos_as_xyz
  1  'x, y, z'
loop_
 _atom_site_type_symbol
 _atom_site_label
 _atom_site_symmetry_multiplicity
 _atom_site_fract_x
 _atom_site_fract_y
 _atom_site_fract_z
 _atom_site_occupancy
  Er  Er0  1  0.333333  0.666667  0.500000  1
  Tm  Tm1  1  0.000000  0.000000  0.000000  1
  Tm  Tm2  1  0.899710  0.459009  0.500000  1
  Tm  Tm3  1  0.559299  0.100290  0.500000  1
  Tm  Tm4  1  0.540991  0.440701  0.500000  1
  Si  Si5  1  0.238690  0.184555  0.500000  1
  Si  Si6  1  0.815445  0.054136  0.500000  1
  Si  Si7  1  0.945864  0.761310  0.500000  1
  Si  Si8  1  0.558415  0.653868  0.000000  1
  Si  Si9  1  0.346132  0.904545  0.000000  1
  Si  Si10  1  0.095455  0.441585  0.000000  1
  Si  Si11  1  0.666667  0.333333  0.000000  1
  Pt  Pt12  1  0.214075  0.931823  0.500000  1
  Pt  Pt13  1  0.068177  0.282253  0.500000  1
  Pt  Pt14  1  0.717747  0.785925  0.500000  1
  Pt  Pt15  1  0.317299  0.417962  0.000000  1
  Pt  Pt16  1  0.582038  0.899337  0.000000  1
  Pt  Pt17  1  0.100663  0.682701  0.000000  1
  Pt  Pt18  1  0.376396  0.168378  0.000000  1
  Pt  Pt19  1  0.831622  0.208019  0.000000  1
  Pt  Pt20  1  0.791981  0.623604  0.000000  1
