# generated using pymatgen
data_DyY7Te12
_symmetry_space_group_name_H-M   'P 1'
_cell_length_a   14.53234825
_cell_length_b   13.85536741
_cell_length_c   7.56813959
_cell_angle_alpha   79.54428597
_cell_angle_beta   69.64979596
_cell_angle_gamma   30.80126314
_symmetry_Int_Tables_number   1
_chemical_formula_structural   DyY7Te12
_chemical_formula_sum   'Dy1 Y7 Te12'
_cell_volume   709.45822901
_cell_formula_units_Z   1
loop_
 _symmetry_equiv_pos_site_id
 _symmetry_equiv_pos_as_xyz
  1  'x, y, z'
loop_
 _atom_site_type_symbol
 _atom_site_label
 _atom_site_symmetry_multiplicity
 _atom_site_fract_x
 _atom_site_fract_y
 _atom_site_fract_z
 _atom_site_occupancy
  Dy  Dy0  1  0.749787  0.749787  0.250213  1
  Y  Y1  1  0.332736  0.332736  0.167264  1
  Y  Y2  1  0.167274  0.167274  0.332726  1
  Y  Y3  1  0.917287  0.917287  0.082713  1
  Y  Y4  1  0.082717  0.082717  0.917283  1
  Y  Y5  1  0.999799  0.999799  0.500201  1
  Y  Y6  1  0.500210  0.500210  0.999790  1
  Y  Y7  1  0.250202  0.250202  0.749798  1
  Te  Te8  1  0.998552  0.501448  0.501240  1
  Te  Te9  1  0.501448  0.998552  0.998760  1
  Te  Te10  1  0.251295  0.748698  0.748632  1
  Te  Te11  1  0.748698  0.251295  0.251375  1
  Te  Te12  1  0.665654  0.168818  0.833962  1
  Te  Te13  1  0.833945  0.331584  0.665700  1
  Te  Te14  1  0.331584  0.833945  0.168771  1
  Te  Te15  1  0.168818  0.665654  0.331565  1
  Te  Te16  1  0.584406  0.081037  0.415977  1
  Te  Te17  1  0.416208  0.918342  0.584146  1
  Te  Te18  1  0.918342  0.416208  0.081304  1
  Te  Te19  1  0.081037  0.584406  0.918580  1
