# generated using pymatgen
data_Tm20Cd3Ru2Au3
_symmetry_space_group_name_H-M   'P 1'
_cell_length_a   9.41502000
_cell_length_b   9.41501784
_cell_length_c   9.51377100
_cell_angle_alpha   90.00000000
_cell_angle_beta   90.00000000
_cell_angle_gamma   120.00000760
_symmetry_Int_Tables_number   1
_chemical_formula_structural   Tm20Cd3Ru2Au3
_chemical_formula_sum   'Tm20 Cd3 Ru2 Au3'
_cell_volume   730.34100718
_cell_formula_units_Z   1
loop_
 _symmetry_equiv_pos_site_id
 _symmetry_equiv_pos_as_xyz
  1  'x, y, z'
loop_
 _atom_site_type_symbol
 _atom_site_label
 _atom_site_symmetry_multiplicity
 _atom_site_fract_x
 _atom_site_fract_y
 _atom_site_fract_z
 _atom_site_occupancy
  Tm  Tm0  1  0.000000  0.000000  0.461774  1
  Tm  Tm1  1  0.000000  0.000000  0.038226  1
  Tm  Tm2  1  0.209698  0.790302  0.441296  1
  Tm  Tm3  1  0.209698  0.419397  0.441296  1
  Tm  Tm4  1  0.580603  0.790302  0.441296  1
  Tm  Tm5  1  0.791600  0.208400  0.557343  1
  Tm  Tm6  1  0.791600  0.583199  0.557343  1
  Tm  Tm7  1  0.416801  0.208400  0.557343  1
  Tm  Tm8  1  0.791600  0.208400  0.942657  1
  Tm  Tm9  1  0.791600  0.583199  0.942657  1
  Tm  Tm10  1  0.416801  0.208400  0.942657  1
  Tm  Tm11  1  0.209698  0.790302  0.058704  1
  Tm  Tm12  1  0.209698  0.419397  0.058704  1
  Tm  Tm13  1  0.580603  0.790302  0.058704  1
  Tm  Tm14  1  0.539615  0.460385  0.250000  1
  Tm  Tm15  1  0.539615  0.079230  0.250000  1
  Tm  Tm16  1  0.920770  0.460385  0.250000  1
  Tm  Tm17  1  0.459200  0.540800  0.750000  1
  Tm  Tm18  1  0.459200  0.918401  0.750000  1
  Tm  Tm19  1  0.081599  0.540800  0.750000  1
  Cd  Cd20  1  0.110298  0.889702  0.750000  1
  Cd  Cd21  1  0.110298  0.220596  0.750000  1
  Cd  Cd22  1  0.779404  0.889702  0.750000  1
  Ru  Ru23  1  0.333333  0.666667  0.250000  1
  Ru  Ru24  1  0.666667  0.333333  0.750000  1
  Au  Au25  1  0.870034  0.129966  0.250000  1
  Au  Au26  1  0.870034  0.740068  0.250000  1
  Au  Au27  1  0.259932  0.129966  0.250000  1
