# generated using pymatgen
data_Y4MnGa18Pd5
_symmetry_space_group_name_H-M   'P 1'
_cell_length_a   7.62964840
_cell_length_b   7.62964782
_cell_length_c   9.59301742
_cell_angle_alpha   89.97713339
_cell_angle_beta   89.97713103
_cell_angle_gamma   119.77387866
_symmetry_Int_Tables_number   1
_chemical_formula_structural   Y4MnGa18Pd5
_chemical_formula_sum   'Y4 Mn1 Ga18 Pd5'
_cell_volume   484.70756921
_cell_formula_units_Z   1
loop_
 _symmetry_equiv_pos_site_id
 _symmetry_equiv_pos_as_xyz
  1  'x, y, z'
loop_
 _atom_site_type_symbol
 _atom_site_label
 _atom_site_symmetry_multiplicity
 _atom_site_fract_x
 _atom_site_fract_y
 _atom_site_fract_z
 _atom_site_occupancy
  Y  Y0  1  0.996015  0.668131  0.250482  1
  Y  Y1  1  0.003985  0.331869  0.749518  1
  Y  Y2  1  0.668131  0.996015  0.250482  1
  Y  Y3  1  0.331869  0.003985  0.749518  1
  Mn  Mn4  1  0.000000  0.000000  0.000000  1
  Ga  Ga5  1  0.123337  0.123337  0.241737  1
  Ga  Ga6  1  0.876663  0.876663  0.758263  1
  Ga  Ga7  1  0.998413  0.323918  0.075559  1
  Ga  Ga8  1  0.001587  0.676082  0.924441  1
  Ga  Ga9  1  0.999325  0.664905  0.583010  1
  Ga  Ga10  1  0.335095  0.000675  0.416990  1
  Ga  Ga11  1  0.000675  0.335095  0.416990  1
  Ga  Ga12  1  0.664905  0.999325  0.583010  1
  Ga  Ga13  1  0.676082  0.001587  0.924441  1
  Ga  Ga14  1  0.323918  0.998413  0.075559  1
  Ga  Ga15  1  0.333471  0.333471  0.567194  1
  Ga  Ga16  1  0.666529  0.666529  0.432806  1
  Ga  Ga17  1  0.680222  0.680222  0.060163  1
  Ga  Ga18  1  0.319778  0.319778  0.939837  1
  Ga  Ga19  1  0.341622  0.544945  0.248560  1
  Ga  Ga20  1  0.658378  0.455055  0.751440  1
  Ga  Ga21  1  0.544945  0.341622  0.248560  1
  Ga  Ga22  1  0.455055  0.658378  0.751440  1
  Pd  Pd23  1  0.671132  0.328868  0.000000  1
  Pd  Pd24  1  0.328868  0.671132  0.000000  1
  Pd  Pd25  1  0.328987  0.671013  0.500000  1
  Pd  Pd26  1  0.671013  0.328987  0.500000  1
  Pd  Pd27  1  0.000000  0.000000  0.500000  1
