# generated using pymatgen
data_Tb2Ce(RhPb)3
_symmetry_space_group_name_H-M   'P 1'
_cell_length_a   7.70615092
_cell_length_b   7.81117820
_cell_length_c   3.91293300
_cell_angle_alpha   90.00000000
_cell_angle_beta   90.00000000
_cell_angle_gamma   120.45186745
_symmetry_Int_Tables_number   1
_chemical_formula_structural   Tb2Ce(RhPb)3
_chemical_formula_sum   'Tb2 Ce1 Rh3 Pb3'
_cell_volume   203.04465242
_cell_formula_units_Z   1
loop_
 _symmetry_equiv_pos_site_id
 _symmetry_equiv_pos_as_xyz
  1  'x, y, z'
loop_
 _atom_site_type_symbol
 _atom_site_label
 _atom_site_symmetry_multiplicity
 _atom_site_fract_x
 _atom_site_fract_y
 _atom_site_fract_z
 _atom_site_occupancy
  Tb  Tb0  1  0.405095  0.404747  0.500000  1
  Tb  Tb1  1  0.594905  0.999652  0.500000  1
  Ce  Ce2  1  0.000000  0.588821  0.500000  1
  Rh  Rh3  1  0.000000  0.992757  0.500000  1
  Rh  Rh4  1  0.683568  0.348638  0.000000  1
  Rh  Rh5  1  0.316432  0.665072  0.000000  1
  Pb  Pb6  1  0.728948  0.737577  0.000000  1
  Pb  Pb7  1  0.271052  0.008628  0.000000  1
  Pb  Pb8  1  0.000000  0.254106  0.000000  1
