# generated using pymatgen
data_Sm3Y2(OsO6)2
_symmetry_space_group_name_H-M   'P 1'
_cell_length_a   6.98095129
_cell_length_b   6.98095194
_cell_length_c   7.60657603
_cell_angle_alpha   73.76661375
_cell_angle_beta   73.76661447
_cell_angle_gamma   48.29402087
_symmetry_Int_Tables_number   1
_chemical_formula_structural   Sm3Y2(OsO6)2
_chemical_formula_sum   'Sm3 Y2 Os2 O12'
_cell_volume   263.44331751
_cell_formula_units_Z   1
loop_
 _symmetry_equiv_pos_site_id
 _symmetry_equiv_pos_as_xyz
  1  'x, y, z'
loop_
 _atom_site_type_symbol
 _atom_site_label
 _atom_site_symmetry_multiplicity
 _atom_site_fract_x
 _atom_site_fract_y
 _atom_site_fract_z
 _atom_site_occupancy
  Sm  Sm0  1  0.186971  0.186971  0.171217  1
  Sm  Sm1  1  0.813144  0.813144  0.828854  1
  Sm  Sm2  1  0.801942  0.801942  0.358763  1
  Y  Y3  1  0.499633  0.499633  0.500980  1
  Y  Y4  1  0.197912  0.197912  0.643206  1
  Os  Os5  1  0.718832  0.281931  0.999147  1
  Os  Os6  1  0.281931  0.718832  0.999147  1
  O  O7  1  0.998880  0.998880  0.167969  1
  O  O8  1  0.002989  0.002989  0.828563  1
  O  O9  1  0.499115  0.499115  0.798128  1
  O  O10  1  0.501586  0.501586  0.201278  1
  O  O11  1  0.594194  0.101229  0.572598  1
  O  O12  1  0.901856  0.399031  0.432806  1
  O  O13  1  0.399031  0.901856  0.432806  1
  O  O14  1  0.412186  0.916744  0.912239  1
  O  O15  1  0.085735  0.586091  0.083730  1
  O  O16  1  0.586091  0.085735  0.083730  1
  O  O17  1  0.916744  0.412186  0.912239  1
  O  O18  1  0.101229  0.594194  0.572598  1
