# generated using pymatgen
data_Ho14Er2MgCd3Pd4
_symmetry_space_group_name_H-M   'P 1'
_cell_length_a   9.67021936
_cell_length_b   9.67022001
_cell_length_c   9.66909014
_cell_angle_alpha   59.97431506
_cell_angle_beta   59.97432019
_cell_angle_gamma   59.97356726
_symmetry_Int_Tables_number   1
_chemical_formula_structural   Ho14Er2MgCd3Pd4
_chemical_formula_sum   'Ho14 Er2 Mg1 Cd3 Pd4'
_cell_volume   638.98083118
_cell_formula_units_Z   1
loop_
 _symmetry_equiv_pos_site_id
 _symmetry_equiv_pos_as_xyz
  1  'x, y, z'
loop_
 _atom_site_type_symbol
 _atom_site_label
 _atom_site_symmetry_multiplicity
 _atom_site_fract_x
 _atom_site_fract_y
 _atom_site_fract_z
 _atom_site_occupancy
  Ho  Ho0  1  0.354642  0.939235  0.354697  1
  Ho  Ho1  1  0.939235  0.354642  0.354697  1
  Ho  Ho2  1  0.810141  0.190894  0.190835  1
  Ho  Ho3  1  0.188470  0.812148  0.812219  1
  Ho  Ho4  1  0.190894  0.810141  0.190835  1
  Ho  Ho5  1  0.812148  0.188470  0.812219  1
  Ho  Ho6  1  0.190947  0.190947  0.810035  1
  Ho  Ho7  1  0.812268  0.812268  0.188427  1
  Ho  Ho8  1  0.933777  0.567296  0.567299  1
  Ho  Ho9  1  0.565048  0.935076  0.935040  1
  Ho  Ho10  1  0.567296  0.933777  0.567299  1
  Ho  Ho11  1  0.935076  0.565048  0.935040  1
  Ho  Ho12  1  0.567267  0.567267  0.933798  1
  Ho  Ho13  1  0.935005  0.935005  0.565090  1
  Er  Er14  1  0.351193  0.351193  0.351136  1
  Er  Er15  1  0.354554  0.354554  0.939569  1
  Mg  Mg16  1  0.576967  0.576967  0.577164  1
  Cd  Cd17  1  0.581311  0.581311  0.252887  1
  Cd  Cd18  1  0.581295  0.252859  0.581436  1
  Cd  Cd19  1  0.252859  0.581295  0.581436  1
  Pd  Pd20  1  0.145647  0.145647  0.145260  1
  Pd  Pd21  1  0.143052  0.143052  0.567877  1
  Pd  Pd22  1  0.143276  0.567634  0.142853  1
  Pd  Pd23  1  0.567634  0.143276  0.142853  1
