# generated using pymatgen
data_Gd6Sn6Pd5Pt
_symmetry_space_group_name_H-M   'P 1'
_cell_length_a   7.67721600
_cell_length_b   7.67721679
_cell_length_c   7.68663300
_cell_angle_alpha   90.00000000
_cell_angle_beta   90.00000000
_cell_angle_gamma   119.99999659
_symmetry_Int_Tables_number   1
_chemical_formula_structural   Gd6Sn6Pd5Pt
_chemical_formula_sum   'Gd6 Sn6 Pd5 Pt1'
_cell_volume   392.35063238
_cell_formula_units_Z   1
loop_
 _symmetry_equiv_pos_site_id
 _symmetry_equiv_pos_as_xyz
  1  'x, y, z'
loop_
 _atom_site_type_symbol
 _atom_site_label
 _atom_site_symmetry_multiplicity
 _atom_site_fract_x
 _atom_site_fract_y
 _atom_site_fract_z
 _atom_site_occupancy
  Gd  Gd0  1  0.403303  0.000721  0.249373  1
  Gd  Gd1  1  0.597419  0.596697  0.249373  1
  Gd  Gd2  1  0.999279  0.402581  0.249373  1
  Gd  Gd3  1  0.400209  0.994558  0.750618  1
  Gd  Gd4  1  0.594347  0.599791  0.750618  1
  Gd  Gd5  1  0.005442  0.405653  0.750618  1
  Sn  Sn6  1  0.739977  0.003025  0.999593  1
  Sn  Sn7  1  0.262180  0.260409  0.500525  1
  Sn  Sn8  1  0.998228  0.737820  0.500525  1
  Sn  Sn9  1  0.996975  0.736952  0.999593  1
  Sn  Sn10  1  0.263048  0.260023  0.999593  1
  Sn  Sn11  1  0.739591  0.001772  0.500525  1
  Pd  Pd12  1  0.333333  0.666667  0.495189  1
  Pd  Pd13  1  0.666667  0.333333  0.993094  1
  Pd  Pd14  1  0.666667  0.333333  0.506844  1
  Pd  Pd15  1  0.000000  0.000000  0.249215  1
  Pd  Pd16  1  0.000000  0.000000  0.750857  1
  Pt  Pt17  1  0.333333  0.666667  0.004475  1
