# generated using pymatgen
data_Pr4Mn5In(AgO10)2
_symmetry_space_group_name_H-M   'P 1'
_cell_length_a   5.89720600
_cell_length_b   7.83865849
_cell_length_c   8.90673581
_cell_angle_alpha   89.91319494
_cell_angle_beta   90.00000000
_cell_angle_gamma   90.00000000
_symmetry_Int_Tables_number   1
_chemical_formula_structural   Pr4Mn5In(AgO10)2
_chemical_formula_sum   'Pr4 Mn5 In1 Ag2 O20'
_cell_volume   411.72393472
_cell_formula_units_Z   1
loop_
 _symmetry_equiv_pos_site_id
 _symmetry_equiv_pos_as_xyz
  1  'x, y, z'
loop_
 _atom_site_type_symbol
 _atom_site_label
 _atom_site_symmetry_multiplicity
 _atom_site_fract_x
 _atom_site_fract_y
 _atom_site_fract_z
 _atom_site_occupancy
  Pr  Pr0  1  0.000000  0.353079  0.669768  1
  Pr  Pr1  1  0.000000  0.646318  0.327606  1
  Pr  Pr2  1  0.000000  0.854196  0.825061  1
  Pr  Pr3  1  0.000000  0.144493  0.174392  1
  Mn  Mn4  1  0.500000  0.406571  0.346837  1
  Mn  Mn5  1  0.255476  0.497479  0.003206  1
  Mn  Mn6  1  0.744041  0.005547  0.499673  1
  Mn  Mn7  1  0.744524  0.497479  0.003206  1
  Mn  Mn8  1  0.255959  0.005547  0.499673  1
  In  In9  1  0.500000  0.108396  0.847587  1
  Ag  Ag10  1  0.500000  0.928738  0.156972  1
  Ag  Ag11  1  0.500000  0.566083  0.654119  1
  O  O12  1  0.235245  0.905820  0.300580  1
  O  O13  1  0.228999  0.098509  0.699372  1
  O  O14  1  0.751882  0.402315  0.206887  1
  O  O15  1  0.765936  0.590969  0.798941  1
  O  O16  1  0.771001  0.098509  0.699372  1
  O  O17  1  0.764755  0.905820  0.300580  1
  O  O18  1  0.234064  0.590969  0.798941  1
  O  O19  1  0.248118  0.402315  0.206887  1
  O  O20  1  0.500000  0.353291  0.940839  1
  O  O21  1  0.500000  0.638308  0.057934  1
  O  O22  1  0.500000  0.867136  0.560918  1
  O  O23  1  0.500000  0.155707  0.437607  1
  O  O24  1  0.258558  0.994127  0.000949  1
  O  O25  1  0.729838  0.495051  0.491727  1
  O  O26  1  0.741442  0.994127  0.000949  1
  O  O27  1  0.270162  0.495051  0.491727  1
  O  O28  1  0.000000  0.159041  0.445148  1
  O  O29  1  0.000000  0.848390  0.549304  1
  O  O30  1  0.000000  0.648792  0.052729  1
  O  O31  1  0.000000  0.341832  0.950511  1
