# generated using pymatgen
data_Tb(Tm3Bi2)3
_symmetry_space_group_name_H-M   'P 1'
_cell_length_a   8.18026900
_cell_length_b   9.44463800
_cell_length_c   11.90046900
_cell_angle_alpha   90.00000000
_cell_angle_beta   90.00000000
_cell_angle_gamma   90.00000000
_symmetry_Int_Tables_number   1
_chemical_formula_structural   Tb(Tm3Bi2)3
_chemical_formula_sum   'Tb2 Tm18 Bi12'
_cell_volume   919.42642022
_cell_formula_units_Z   2
loop_
 _symmetry_equiv_pos_site_id
 _symmetry_equiv_pos_as_xyz
  1  'x, y, z'
loop_
 _atom_site_type_symbol
 _atom_site_label
 _atom_site_symmetry_multiplicity
 _atom_site_fract_x
 _atom_site_fract_y
 _atom_site_fract_z
 _atom_site_occupancy
  Tb  Tb0  1  0.685821  0.750000  0.781607  1
  Tb  Tb1  1  0.185821  0.750000  0.718393  1
  Tm  Tm2  1  0.353759  0.750000  0.217317  1
  Tm  Tm3  1  0.853759  0.750000  0.282683  1
  Tm  Tm4  1  0.646366  0.250000  0.782837  1
  Tm  Tm5  1  0.146366  0.250000  0.717163  1
  Tm  Tm6  1  0.692349  0.565557  0.059592  1
  Tm  Tm7  1  0.192349  0.934443  0.440408  1
  Tm  Tm8  1  0.307809  0.065516  0.940761  1
  Tm  Tm9  1  0.807809  0.434484  0.559239  1
  Tm  Tm10  1  0.307809  0.434484  0.940761  1
  Tm  Tm11  1  0.807809  0.065516  0.559239  1
  Tm  Tm12  1  0.692349  0.934443  0.059592  1
  Tm  Tm13  1  0.192349  0.565557  0.440408  1
  Tm  Tm14  1  0.476879  0.250000  0.488912  1
  Tm  Tm15  1  0.976879  0.250000  0.011088  1
  Tm  Tm16  1  0.523186  0.750000  0.510342  1
  Tm  Tm17  1  0.023186  0.750000  0.989658  1
  Tm  Tm18  1  0.313529  0.250000  0.217567  1
  Tm  Tm19  1  0.813529  0.250000  0.282433  1
  Bi  Bi20  1  0.404267  0.750000  0.958739  1
  Bi  Bi21  1  0.904267  0.750000  0.541261  1
  Bi  Bi22  1  0.595316  0.250000  0.042609  1
  Bi  Bi23  1  0.095316  0.250000  0.457391  1
  Bi  Bi24  1  0.566153  0.996371  0.325554  1
  Bi  Bi25  1  0.066153  0.503629  0.174446  1
  Bi  Bi26  1  0.434127  0.494976  0.673925  1
  Bi  Bi27  1  0.934127  0.005024  0.826075  1
  Bi  Bi28  1  0.434127  0.005024  0.673925  1
  Bi  Bi29  1  0.934127  0.494976  0.826075  1
  Bi  Bi30  1  0.566153  0.503629  0.325554  1
  Bi  Bi31  1  0.066153  0.996371  0.174446  1
