# generated using pymatgen
data_Pr17Ho3Si15Sn
_symmetry_space_group_name_H-M   'P 1'
_cell_length_a   7.92451649
_cell_length_b   7.90539387
_cell_length_c   15.27216131
_cell_angle_alpha   90.16903622
_cell_angle_beta   89.66833967
_cell_angle_gamma   89.79877070
_symmetry_Int_Tables_number   1
_chemical_formula_structural   Pr17Ho3Si15Sn
_chemical_formula_sum   'Pr17 Ho3 Si15 Sn1'
_cell_volume   956.72014351
_cell_formula_units_Z   1
loop_
 _symmetry_equiv_pos_site_id
 _symmetry_equiv_pos_as_xyz
  1  'x, y, z'
loop_
 _atom_site_type_symbol
 _atom_site_label
 _atom_site_symmetry_multiplicity
 _atom_site_fract_x
 _atom_site_fract_y
 _atom_site_fract_z
 _atom_site_occupancy
  Pr  Pr0  1  0.690204  0.693451  0.496681  1
  Pr  Pr1  1  0.375320  0.014283  0.448570  1
  Pr  Pr2  1  0.494394  0.871625  0.698091  1
  Pr  Pr3  1  0.510521  0.121942  0.196640  1
  Pr  Pr4  1  0.878433  0.488017  0.300916  1
  Pr  Pr5  1  0.120338  0.516091  0.806667  1
  Pr  Pr6  1  0.623818  0.986387  0.949069  1
  Pr  Pr7  1  0.005289  0.384141  0.546967  1
  Pr  Pr8  1  0.988580  0.621420  0.054640  1
  Pr  Pr9  1  0.128121  0.978304  0.880562  1
  Pr  Pr10  1  0.520922  0.626401  0.127676  1
  Pr  Pr11  1  0.488193  0.384565  0.627396  1
  Pr  Pr12  1  0.627891  0.522307  0.875689  1
  Pr  Pr13  1  0.374958  0.479225  0.370305  1
  Pr  Pr14  1  0.871873  0.021100  0.376555  1
  Pr  Pr15  1  0.979575  0.127389  0.123325  1
  Pr  Pr16  1  0.009219  0.858743  0.619620  1
  Ho  Ho17  1  0.310849  0.310028  0.000724  1
  Ho  Ho18  1  0.190539  0.811508  0.249727  1
  Ho  Ho19  1  0.801177  0.188768  0.752521  1
  Si  Si20  1  0.328150  0.689435  0.957133  1
  Si  Si21  1  0.666780  0.305584  0.453269  1
  Si  Si22  1  0.691285  0.327926  0.045801  1
  Si  Si23  1  0.306119  0.671093  0.543679  1
  Si  Si24  1  0.809294  0.829495  0.204105  1
  Si  Si25  1  0.170049  0.190859  0.295674  1
  Si  Si26  1  0.832339  0.809358  0.797240  1
  Si  Si27  1  0.286577  0.922576  0.063802  1
  Si  Si28  1  0.573862  0.790704  0.308811  1
  Si  Si29  1  0.433556  0.211951  0.817290  1
  Si  Si30  1  0.790329  0.573056  0.692524  1
  Si  Si31  1  0.213073  0.421117  0.186963  1
  Si  Si32  1  0.711951  0.083354  0.563933  1
  Si  Si33  1  0.923651  0.286656  0.938039  1
  Si  Si34  1  0.082594  0.715469  0.434005  1
  Sn  Sn35  1  0.190179  0.165676  0.695397  1
