# generated using pymatgen
data_Sc2U2Fe6Ge6Ru
_symmetry_space_group_name_H-M   'P 1'
_cell_length_a   6.87270970
_cell_length_b   6.87271020
_cell_length_c   6.98268718
_cell_angle_alpha   109.40467912
_cell_angle_beta   109.40469516
_cell_angle_gamma   108.95895147
_symmetry_Int_Tables_number   1
_chemical_formula_structural   Sc2U2Fe6Ge6Ru
_chemical_formula_sum   'Sc2 U2 Fe6 Ge6 Ru1'
_cell_volume   255.89476572
_cell_formula_units_Z   1
loop_
 _symmetry_equiv_pos_site_id
 _symmetry_equiv_pos_as_xyz
  1  'x, y, z'
loop_
 _atom_site_type_symbol
 _atom_site_label
 _atom_site_symmetry_multiplicity
 _atom_site_fract_x
 _atom_site_fract_y
 _atom_site_fract_z
 _atom_site_occupancy
  Sc  Sc0  1  0.000000  0.500000  0.000000  1
  Sc  Sc1  1  0.500000  0.000000  0.000000  1
  U  U2  1  0.000000  0.000000  0.500000  1
  U  U3  1  0.500000  0.500000  0.500000  1
  Fe  Fe4  1  0.750000  0.250000  0.500000  1
  Fe  Fe5  1  0.752637  0.516112  0.268749  1
  Fe  Fe6  1  0.483888  0.247363  0.731251  1
  Fe  Fe7  1  0.247363  0.483888  0.731251  1
  Fe  Fe8  1  0.250000  0.750000  0.500000  1
  Fe  Fe9  1  0.516112  0.752637  0.268749  1
  Ge  Ge10  1  0.678132  0.678132  0.000000  1
  Ge  Ge11  1  0.319857  0.986982  0.306839  1
  Ge  Ge12  1  0.986982  0.319857  0.306839  1
  Ge  Ge13  1  0.321868  0.321868  0.000000  1
  Ge  Ge14  1  0.680142  0.013018  0.693161  1
  Ge  Ge15  1  0.013018  0.680143  0.693161  1
  Ru  Ru16  1  0.000000  0.000000  0.000000  1
