# generated using pymatgen
data_Tm16Sc4Ir11Rh
_symmetry_space_group_name_H-M   'P 1'
_cell_length_a   10.65552800
_cell_length_b   10.65552800
_cell_length_c   6.23339500
_cell_angle_alpha   90.00000000
_cell_angle_beta   90.00000000
_cell_angle_gamma   90.00000000
_symmetry_Int_Tables_number   1
_chemical_formula_structural   Tm16Sc4Ir11Rh
_chemical_formula_sum   'Tm16 Sc4 Ir11 Rh1'
_cell_volume   707.74139469
_cell_formula_units_Z   1
loop_
 _symmetry_equiv_pos_site_id
 _symmetry_equiv_pos_as_xyz
  1  'x, y, z'
loop_
 _atom_site_type_symbol
 _atom_site_label
 _atom_site_symmetry_multiplicity
 _atom_site_fract_x
 _atom_site_fract_y
 _atom_site_fract_z
 _atom_site_occupancy
  Tm  Tm0  1  0.288316  0.086108  0.377876  1
  Tm  Tm1  1  0.288016  0.913674  0.875725  1
  Tm  Tm2  1  0.711984  0.086326  0.875725  1
  Tm  Tm3  1  0.711684  0.913892  0.377876  1
  Tm  Tm4  1  0.586326  0.788016  0.875725  1
  Tm  Tm5  1  0.586108  0.211684  0.377876  1
  Tm  Tm6  1  0.413892  0.788316  0.377876  1
  Tm  Tm7  1  0.413674  0.211984  0.875725  1
  Tm  Tm8  1  0.211463  0.413854  0.623277  1
  Tm  Tm9  1  0.211458  0.586231  0.123354  1
  Tm  Tm10  1  0.788542  0.413769  0.123354  1
  Tm  Tm11  1  0.788537  0.586146  0.623277  1
  Tm  Tm12  1  0.913769  0.711458  0.123354  1
  Tm  Tm13  1  0.913854  0.288537  0.623277  1
  Tm  Tm14  1  0.086146  0.711463  0.623277  1
  Tm  Tm15  1  0.086231  0.288542  0.123354  1
  Sc  Sc16  1  0.000000  0.000000  0.500048  1
  Sc  Sc17  1  0.000000  0.000000  0.000208  1
  Sc  Sc18  1  0.500000  0.500000  0.000208  1
  Sc  Sc19  1  0.500000  0.500000  0.500048  1
  Ir  Ir20  1  0.850373  0.148712  0.249620  1
  Ir  Ir21  1  0.850626  0.851082  0.749951  1
  Ir  Ir22  1  0.149374  0.148918  0.749951  1
  Ir  Ir23  1  0.149627  0.851288  0.249620  1
  Ir  Ir24  1  0.648918  0.350626  0.749951  1
  Ir  Ir25  1  0.648712  0.649627  0.249620  1
  Ir  Ir26  1  0.351288  0.350373  0.249620  1
  Ir  Ir27  1  0.351082  0.649374  0.749951  1
  Ir  Ir28  1  0.500000  0.000000  0.623656  1
  Ir  Ir29  1  0.000000  0.500000  0.876963  1
  Ir  Ir30  1  0.000000  0.500000  0.376780  1
  Rh  Rh31  1  0.500000  0.000000  0.122877  1
