# generated using pymatgen
data_Ti13Al9(Ru3Pt)2
_symmetry_space_group_name_H-M   'P 1'
_cell_length_a   8.74649537
_cell_length_b   8.77548088
_cell_length_c   8.74649516
_cell_angle_alpha   59.57525008
_cell_angle_beta   59.69320698
_cell_angle_gamma   59.57525857
_symmetry_Int_Tables_number   1
_chemical_formula_structural   Ti13Al9(Ru3Pt)2
_chemical_formula_sum   'Ti13 Al9 Ru6 Pt2'
_cell_volume   470.54572231
_cell_formula_units_Z   1
loop_
 _symmetry_equiv_pos_site_id
 _symmetry_equiv_pos_as_xyz
  1  'x, y, z'
loop_
 _atom_site_type_symbol
 _atom_site_label
 _atom_site_symmetry_multiplicity
 _atom_site_fract_x
 _atom_site_fract_y
 _atom_site_fract_z
 _atom_site_occupancy
  Ti  Ti0  1  0.213288  0.214708  0.787125  1
  Ti  Ti1  1  0.787125  0.214708  0.213288  1
  Ti  Ti2  1  0.214306  0.785886  0.214306  1
  Ti  Ti3  1  0.799947  0.796597  0.185816  1
  Ti  Ti4  1  0.185816  0.796597  0.799947  1
  Ti  Ti5  1  0.796140  0.192185  0.796140  1
  Ti  Ti6  1  0.379055  0.380014  0.379055  1
  Ti  Ti7  1  0.383349  0.861873  0.383349  1
  Ti  Ti8  1  0.864148  0.385611  0.377141  1
  Ti  Ti9  1  0.377141  0.385611  0.864148  1
  Ti  Ti10  1  0.844203  0.467517  0.844203  1
  Ti  Ti11  1  0.464602  0.841397  0.843032  1
  Ti  Ti12  1  0.843032  0.841397  0.464602  1
  Al  Al13  1  0.150881  0.154998  0.150881  1
  Al  Al14  1  0.158673  0.531170  0.158673  1
  Al  Al15  1  0.533786  0.159793  0.160007  1
  Al  Al16  1  0.160007  0.159793  0.533786  1
  Al  Al17  1  0.619162  0.616942  0.619162  1
  Al  Al18  1  0.616651  0.144404  0.616651  1
  Al  Al19  1  0.144100  0.614213  0.621089  1
  Al  Al20  1  0.621089  0.614213  0.144100  1
  Al  Al21  1  0.829697  0.828040  0.829697  1
  Ru  Ru22  1  0.003177  0.498931  0.003177  1
  Ru  Ru23  1  0.500483  0.501455  0.000232  1
  Ru  Ru24  1  0.000232  0.501455  0.500483  1
  Ru  Ru25  1  0.501781  0.997421  0.501781  1
  Ru  Ru26  1  0.500324  0.499955  0.500324  1
  Ru  Ru27  1  0.004272  0.005061  0.004272  1
  Pt  Pt28  1  0.004889  0.004026  0.498640  1
  Pt  Pt29  1  0.498640  0.004026  0.004889  1
