# generated using pymatgen
data_TbNd5Al24Os7Au
_symmetry_space_group_name_H-M   'P 1'
_cell_length_a   8.94501449
_cell_length_b   8.94501511
_cell_length_c   9.64585485
_cell_angle_alpha   89.87527190
_cell_angle_beta   90.12472746
_cell_angle_gamma   120.06080949
_symmetry_Int_Tables_number   1
_chemical_formula_structural   TbNd5Al24Os7Au
_chemical_formula_sum   'Tb1 Nd5 Al24 Os7 Au1'
_cell_volume   667.98339475
_cell_formula_units_Z   1
loop_
 _symmetry_equiv_pos_site_id
 _symmetry_equiv_pos_as_xyz
  1  'x, y, z'
loop_
 _atom_site_type_symbol
 _atom_site_label
 _atom_site_symmetry_multiplicity
 _atom_site_fract_x
 _atom_site_fract_y
 _atom_site_fract_z
 _atom_site_occupancy
  Tb  Tb0  1  0.806188  0.193812  0.745659  1
  Nd  Nd1  1  0.189614  0.382629  0.249995  1
  Nd  Nd2  1  0.810304  0.616922  0.749827  1
  Nd  Nd3  1  0.617371  0.810386  0.249995  1
  Nd  Nd4  1  0.383078  0.189696  0.749827  1
  Nd  Nd5  1  0.192502  0.807498  0.254102  1
  Al  Al6  1  0.328492  0.671508  0.015178  1
  Al  Al7  1  0.672223  0.327777  0.982679  1
  Al  Al8  1  0.666741  0.333259  0.514012  1
  Al  Al9  1  0.333869  0.666131  0.487711  1
  Al  Al10  1  0.161226  0.325515  0.575201  1
  Al  Al11  1  0.837183  0.673447  0.425834  1
  Al  Al12  1  0.674485  0.838774  0.575201  1
  Al  Al13  1  0.848719  0.677154  0.077980  1
  Al  Al14  1  0.326553  0.162817  0.425834  1
  Al  Al15  1  0.149421  0.321684  0.920891  1
  Al  Al16  1  0.163300  0.836700  0.575154  1
  Al  Al17  1  0.322846  0.151281  0.077980  1
  Al  Al18  1  0.836793  0.163207  0.427015  1
  Al  Al19  1  0.678316  0.850579  0.920891  1
  Al  Al20  1  0.836629  0.163371  0.072427  1
  Al  Al21  1  0.163353  0.836647  0.925505  1
  Al  Al22  1  0.562167  0.123093  0.249032  1
  Al  Al23  1  0.440314  0.878712  0.750890  1
  Al  Al24  1  0.876907  0.437833  0.249032  1
  Al  Al25  1  0.121288  0.559686  0.750890  1
  Al  Al26  1  0.564673  0.435327  0.256507  1
  Al  Al27  1  0.435247  0.564753  0.743827  1
  Al  Al28  1  0.999400  0.000600  0.250495  1
  Al  Al29  1  0.998903  0.001097  0.749616  1
  Os  Os30  1  0.500835  0.000354  0.999248  1
  Os  Os31  1  0.999646  0.499165  0.999248  1
  Os  Os32  1  0.501175  0.000524  0.500908  1
  Os  Os33  1  0.999476  0.498825  0.500908  1
  Os  Os34  1  0.500273  0.499727  0.500443  1
  Os  Os35  1  0.000080  0.999920  0.999838  1
  Os  Os36  1  0.000144  0.999856  0.500388  1
  Au  Au37  1  0.500267  0.499733  0.999829  1
