# generated using pymatgen
data_ThNiAg2(NO3)8
_symmetry_space_group_name_H-M   'P 1'
_cell_length_a   7.98951367
_cell_length_b   7.97613759
_cell_length_c   7.92255285
_cell_angle_alpha   87.05158333
_cell_angle_beta   92.85701998
_cell_angle_gamma   95.71255838
_symmetry_Int_Tables_number   1
_chemical_formula_structural   ThNiAg2(NO3)8
_chemical_formula_sum   'Th1 Ni1 Ag2 N8 O24'
_cell_volume   501.18766220
_cell_formula_units_Z   1
loop_
 _symmetry_equiv_pos_site_id
 _symmetry_equiv_pos_as_xyz
  1  'x, y, z'
loop_
 _atom_site_type_symbol
 _atom_site_label
 _atom_site_symmetry_multiplicity
 _atom_site_fract_x
 _atom_site_fract_y
 _atom_site_fract_z
 _atom_site_occupancy
  Th  Th0  1  0.000000  0.000000  0.500000  1
  Ni  Ni1  1  0.000000  0.500000  0.000000  1
  Ag  Ag2  1  0.500000  0.500000  0.500000  1
  Ag  Ag3  1  0.500000  0.000000  0.000000  1
  N  N4  1  0.703213  0.162938  0.352380  1
  N  N5  1  0.667276  0.354227  0.829071  1
  N  N6  1  0.828056  0.794537  0.845647  1
  N  N7  1  0.903439  0.690045  0.298558  1
  N  N8  1  0.171944  0.205463  0.154353  1
  N  N9  1  0.096561  0.309955  0.701442  1
  N  N10  1  0.332724  0.645773  0.170929  1
  N  N11  1  0.296787  0.837062  0.647620  1
  O  O12  1  0.554385  0.234503  0.807926  1
  O  O13  1  0.578937  0.227935  0.295134  1
  O  O14  1  0.678705  0.480844  0.724977  1
  O  O15  1  0.755508  0.032535  0.287702  1
  O  O16  1  0.836789  0.706807  0.439539  1
  O  O17  1  0.728753  0.778012  0.960555  1
  O  O18  1  0.772001  0.349178  0.955853  1
  O  O19  1  0.792126  0.217553  0.482494  1
  O  O20  1  0.806009  0.900932  0.719760  1
  O  O21  1  0.877019  0.555455  0.223350  1
  O  O22  1  0.956240  0.711254  0.842518  1
  O  O23  1  0.997953  0.815717  0.240733  1
  O  O24  1  0.002047  0.184283  0.759267  1
  O  O25  1  0.043760  0.288746  0.157482  1
  O  O26  1  0.122981  0.444545  0.776650  1
  O  O27  1  0.193991  0.099068  0.280240  1
  O  O28  1  0.227999  0.650822  0.044147  1
  O  O29  1  0.207874  0.782447  0.517506  1
  O  O30  1  0.271247  0.221988  0.039445  1
  O  O31  1  0.163211  0.293193  0.560461  1
  O  O32  1  0.321295  0.519156  0.275023  1
  O  O33  1  0.244492  0.967465  0.712298  1
  O  O34  1  0.421063  0.772065  0.704866  1
  O  O35  1  0.445615  0.765497  0.192074  1
