# generated using pymatgen
data_Lu5Sb2Os
_symmetry_space_group_name_H-M   'P 1'
_cell_length_a   7.66846800
_cell_length_b   8.82499400
_cell_length_c   12.04624100
_cell_angle_alpha   90.00000000
_cell_angle_beta   90.00000000
_cell_angle_gamma   90.00000000
_symmetry_Int_Tables_number   1
_chemical_formula_structural   Lu5Sb2Os
_chemical_formula_sum   'Lu20 Sb8 Os4'
_cell_volume   815.21953102
_cell_formula_units_Z   4
loop_
 _symmetry_equiv_pos_site_id
 _symmetry_equiv_pos_as_xyz
  1  'x, y, z'
loop_
 _atom_site_type_symbol
 _atom_site_label
 _atom_site_symmetry_multiplicity
 _atom_site_fract_x
 _atom_site_fract_y
 _atom_site_fract_z
 _atom_site_occupancy
  Lu  Lu0  1  0.161234  0.750000  0.212109  1
  Lu  Lu1  1  0.338766  0.750000  0.712109  1
  Lu  Lu2  1  0.838766  0.250000  0.787891  1
  Lu  Lu3  1  0.661234  0.250000  0.287891  1
  Lu  Lu4  1  0.446312  0.750000  0.996706  1
  Lu  Lu5  1  0.053688  0.750000  0.496706  1
  Lu  Lu6  1  0.553688  0.250000  0.003294  1
  Lu  Lu7  1  0.946312  0.250000  0.503294  1
  Lu  Lu8  1  0.626510  0.750000  0.305346  1
  Lu  Lu9  1  0.873490  0.750000  0.805346  1
  Lu  Lu10  1  0.373490  0.250000  0.694654  1
  Lu  Lu11  1  0.126510  0.250000  0.194654  1
  Lu  Lu12  1  0.824019  0.540745  0.066236  1
  Lu  Lu13  1  0.675981  0.959255  0.566236  1
  Lu  Lu14  1  0.175981  0.040745  0.933764  1
  Lu  Lu15  1  0.324019  0.459255  0.433764  1
  Lu  Lu16  1  0.175981  0.459255  0.933764  1
  Lu  Lu17  1  0.324019  0.040745  0.433764  1
  Lu  Lu18  1  0.824019  0.959255  0.066236  1
  Lu  Lu19  1  0.675981  0.540745  0.566236  1
  Sb  Sb20  1  0.932709  0.507210  0.329137  1
  Sb  Sb21  1  0.567291  0.992790  0.829137  1
  Sb  Sb22  1  0.067291  0.007210  0.670863  1
  Sb  Sb23  1  0.432709  0.492790  0.170863  1
  Sb  Sb24  1  0.067291  0.492790  0.670863  1
  Sb  Sb25  1  0.432709  0.007210  0.170863  1
  Sb  Sb26  1  0.932709  0.992790  0.329137  1
  Sb  Sb27  1  0.567291  0.507210  0.829137  1
  Os  Os28  1  0.425797  0.750000  0.490257  1
  Os  Os29  1  0.074203  0.750000  0.990257  1
  Os  Os30  1  0.574203  0.250000  0.509743  1
  Os  Os31  1  0.925797  0.250000  0.009743  1
