# generated using pymatgen
data_Na12LiCr7N16
_symmetry_space_group_name_H-M   'P 1'
_cell_length_a   5.55678700
_cell_length_b   9.84386549
_cell_length_c   9.34502225
_cell_angle_alpha   90.68598717
_cell_angle_beta   90.00000000
_cell_angle_gamma   90.00000000
_symmetry_Int_Tables_number   1
_chemical_formula_structural   Na12LiCr7N16
_chemical_formula_sum   'Na12 Li1 Cr7 N16'
_cell_volume   511.13854529
_cell_formula_units_Z   1
loop_
 _symmetry_equiv_pos_site_id
 _symmetry_equiv_pos_as_xyz
  1  'x, y, z'
loop_
 _atom_site_type_symbol
 _atom_site_label
 _atom_site_symmetry_multiplicity
 _atom_site_fract_x
 _atom_site_fract_y
 _atom_site_fract_z
 _atom_site_occupancy
  Na  Na0  1  0.639658  0.158145  0.424939  1
  Na  Na1  1  0.856312  0.842816  0.418172  1
  Na  Na2  1  0.639658  0.341855  0.075061  1
  Na  Na3  1  0.856312  0.657184  0.081828  1
  Na  Na4  1  0.362800  0.848773  0.585021  1
  Na  Na5  1  0.134451  0.163868  0.591395  1
  Na  Na6  1  0.362800  0.651227  0.914979  1
  Na  Na7  1  0.134451  0.336132  0.908605  1
  Na  Na8  1  0.754277  0.500514  0.412116  1
  Na  Na9  1  0.754277  0.999486  0.087884  1
  Na  Na10  1  0.254380  0.504818  0.592674  1
  Na  Na11  1  0.254380  0.995182  0.907326  1
  Li  Li12  1  0.671626  0.250000  0.750000  1
  Cr  Cr13  1  0.747169  0.495115  0.737136  1
  Cr  Cr14  1  0.747169  0.004885  0.762864  1
  Cr  Cr15  1  0.250916  0.499977  0.261653  1
  Cr  Cr16  1  0.250916  0.000023  0.238347  1
  Cr  Cr17  1  0.805322  0.750000  0.750000  1
  Cr  Cr18  1  0.301673  0.750000  0.250000  1
  Cr  Cr19  1  0.199471  0.250000  0.250000  1
  N  N20  1  0.891827  0.377844  0.636954  1
  N  N21  1  0.626827  0.644484  0.636184  1
  N  N22  1  0.891827  0.122156  0.863046  1
  N  N23  1  0.626827  0.855516  0.863816  1
  N  N24  1  0.115134  0.640933  0.360201  1
  N  N25  1  0.385664  0.361257  0.360824  1
  N  N26  1  0.115134  0.859067  0.139799  1
  N  N27  1  0.385664  0.138743  0.139176  1
  N  N28  1  0.531447  0.421407  0.836754  1
  N  N29  1  0.956967  0.613535  0.832918  1
  N  N30  1  0.531447  0.078593  0.663246  1
  N  N31  1  0.956967  0.886465  0.667082  1
  N  N32  1  0.458056  0.606182  0.164400  1
  N  N33  1  0.045071  0.391853  0.161769  1
  N  N34  1  0.458056  0.893818  0.335600  1
  N  N35  1  0.045071  0.108147  0.338231  1
