# generated using pymatgen
data_Li3Nd3HgAs2
_symmetry_space_group_name_H-M   'P 1'
_cell_length_a   7.31555900
_cell_length_b   7.31556067
_cell_length_c   4.40076300
_cell_angle_alpha   90.00000000
_cell_angle_beta   90.00000000
_cell_angle_gamma   120.00000601
_symmetry_Int_Tables_number   1
_chemical_formula_structural   Li3Nd3HgAs2
_chemical_formula_sum   'Li3 Nd3 Hg1 As2'
_cell_volume   203.96409354
_cell_formula_units_Z   1
loop_
 _symmetry_equiv_pos_site_id
 _symmetry_equiv_pos_as_xyz
  1  'x, y, z'
loop_
 _atom_site_type_symbol
 _atom_site_label
 _atom_site_symmetry_multiplicity
 _atom_site_fract_x
 _atom_site_fract_y
 _atom_site_fract_z
 _atom_site_occupancy
  Li  Li0  1  0.246772  0.000000  0.500000  1
  Li  Li1  1  0.753228  0.753228  0.500000  1
  Li  Li2  1  0.000000  0.246772  0.500000  1
  Nd  Nd3  1  0.000000  0.575579  0.000000  1
  Nd  Nd4  1  0.575579  0.000000  0.000000  1
  Nd  Nd5  1  0.424421  0.424421  0.000000  1
  Hg  Hg6  1  0.000000  0.000000  0.000000  1
  As  As7  1  0.333333  0.666667  0.500000  1
  As  As8  1  0.666667  0.333333  0.500000  1
