# generated using pymatgen
data_Tb2Nd2Sm(In2Pd)2
_symmetry_space_group_name_H-M   'P 1'
_cell_length_a   8.24999332
_cell_length_b   18.50101669
_cell_length_c   3.72861800
_cell_angle_alpha   90.00000000
_cell_angle_beta   90.00000000
_cell_angle_gamma   90.16282941
_symmetry_Int_Tables_number   1
_chemical_formula_structural   Tb2Nd2Sm(In2Pd)2
_chemical_formula_sum   'Tb4 Nd4 Sm2 In8 Pd4'
_cell_volume   569.10883798
_cell_formula_units_Z   2
loop_
 _symmetry_equiv_pos_site_id
 _symmetry_equiv_pos_as_xyz
  1  'x, y, z'
loop_
 _atom_site_type_symbol
 _atom_site_label
 _atom_site_symmetry_multiplicity
 _atom_site_fract_x
 _atom_site_fract_y
 _atom_site_fract_z
 _atom_site_occupancy
  Tb  Tb0  1  0.620493  0.084338  0.000000  1
  Tb  Tb1  1  0.379507  0.915662  0.000000  1
  Tb  Tb2  1  0.879759  0.584256  0.000000  1
  Tb  Tb3  1  0.120241  0.415744  0.000000  1
  Nd  Nd4  1  0.500000  0.500000  0.000000  1
  Nd  Nd5  1  0.000000  0.000000  0.000000  1
  Nd  Nd6  1  0.759763  0.783480  0.000000  1
  Nd  Nd7  1  0.240237  0.216520  0.000000  1
  Sm  Sm8  1  0.740444  0.283323  0.000000  1
  Sm  Sm9  1  0.259556  0.716677  0.000000  1
  In  In10  1  0.698466  0.934824  0.500000  1
  In  In11  1  0.301534  0.065176  0.500000  1
  In  In12  1  0.800777  0.434190  0.500000  1
  In  In13  1  0.199223  0.565810  0.500000  1
  In  In14  1  0.582144  0.651635  0.500000  1
  In  In15  1  0.417856  0.348365  0.500000  1
  In  In16  1  0.915952  0.152056  0.500000  1
  In  In17  1  0.084048  0.847944  0.500000  1
  Pd  Pd18  1  0.528344  0.194224  0.500000  1
  Pd  Pd19  1  0.471656  0.805776  0.500000  1
  Pd  Pd20  1  0.975031  0.693844  0.500000  1
  Pd  Pd21  1  0.024969  0.306156  0.500000  1
