# generated using pymatgen
data_YbSb12(IrRu)2
_symmetry_space_group_name_H-M   'P 1'
_cell_length_a   8.15265368
_cell_length_b   8.13907575
_cell_length_c   8.15265444
_cell_angle_alpha   109.47075612
_cell_angle_beta   109.53941717
_cell_angle_gamma   109.47098246
_symmetry_Int_Tables_number   1
_chemical_formula_structural   YbSb12(IrRu)2
_chemical_formula_sum   'Yb1 Sb12 Ir2 Ru2'
_cell_volume   416.09145159
_cell_formula_units_Z   1
loop_
 _symmetry_equiv_pos_site_id
 _symmetry_equiv_pos_as_xyz
  1  'x, y, z'
loop_
 _atom_site_type_symbol
 _atom_site_label
 _atom_site_symmetry_multiplicity
 _atom_site_fract_x
 _atom_site_fract_y
 _atom_site_fract_z
 _atom_site_occupancy
  Yb  Yb0  1  0.000000  0.000000  0.000000  1
  Sb  Sb1  1  0.341245  0.186626  0.845380  1
  Sb  Sb2  1  0.658754  0.813374  0.154620  1
  Sb  Sb3  1  0.662081  0.504556  0.842474  1
  Sb  Sb4  1  0.337919  0.495444  0.157526  1
  Sb  Sb5  1  0.183543  0.842331  0.337980  1
  Sb  Sb6  1  0.816457  0.157669  0.662021  1
  Sb  Sb7  1  0.504352  0.842331  0.658788  1
  Sb  Sb8  1  0.495648  0.157669  0.341213  1
  Sb  Sb9  1  0.846049  0.341793  0.183533  1
  Sb  Sb10  1  0.153951  0.658206  0.816467  1
  Sb  Sb11  1  0.841739  0.658206  0.504256  1
  Sb  Sb12  1  0.158261  0.341794  0.495744  1
  Ir  Ir13  1  0.000000  0.000000  0.500000  1
  Ir  Ir14  1  0.500000  0.000000  0.000000  1
  Ru  Ru15  1  0.000000  0.500000  0.000000  1
  Ru  Ru16  1  0.500000  0.500000  0.500000  1
