# generated using pymatgen
data_Li5In4Rh7
_symmetry_space_group_name_H-M   'P 1'
_cell_length_a   6.26196500
_cell_length_b   6.26196500
_cell_length_c   6.26196500
_cell_angle_alpha   90.00000000
_cell_angle_beta   90.00000000
_cell_angle_gamma   90.00000000
_symmetry_Int_Tables_number   1
_chemical_formula_structural   Li5In4Rh7
_chemical_formula_sum   'Li5 In4 Rh7'
_cell_volume   245.54545942
_cell_formula_units_Z   1
loop_
 _symmetry_equiv_pos_site_id
 _symmetry_equiv_pos_as_xyz
  1  'x, y, z'
loop_
 _atom_site_type_symbol
 _atom_site_label
 _atom_site_symmetry_multiplicity
 _atom_site_fract_x
 _atom_site_fract_y
 _atom_site_fract_z
 _atom_site_occupancy
  Li  Li0  1  0.246882  0.246882  0.246882  1
  Li  Li1  1  0.753119  0.753119  0.246882  1
  Li  Li2  1  0.500001  0.500001  0.500001  1
  Li  Li3  1  0.753119  0.246882  0.753119  1
  Li  Li4  1  0.246882  0.753119  0.753119  1
  In  In5  1  0.752322  0.247679  0.247679  1
  In  In6  1  0.247679  0.752322  0.247679  1
  In  In7  1  0.247679  0.247679  0.752322  1
  In  In8  1  0.752322  0.752322  0.752322  1
  Rh  Rh9  1  0.000000  0.000000  0.000000  1
  Rh  Rh10  1  0.500001  0.000000  0.000000  1
  Rh  Rh11  1  0.000000  0.500001  0.000000  1
  Rh  Rh12  1  0.500001  0.500001  0.000000  1
  Rh  Rh13  1  0.000000  0.000000  0.500001  1
  Rh  Rh14  1  0.500001  0.000000  0.500001  1
  Rh  Rh15  1  0.000000  0.500001  0.500001  1
