# generated using pymatgen
data_DyHo3Tm4(B6Rh)4
_symmetry_space_group_name_H-M   'P 1'
_cell_length_a   3.63391300
_cell_length_b   9.12724600
_cell_length_c   11.46452600
_cell_angle_alpha   90.00074020
_cell_angle_beta   90.00000000
_cell_angle_gamma   90.00000000
_symmetry_Int_Tables_number   1
_chemical_formula_structural   DyHo3Tm4(B6Rh)4
_chemical_formula_sum   'Dy1 Ho3 Tm4 B24 Rh4'
_cell_volume   380.25101768
_cell_formula_units_Z   1
loop_
 _symmetry_equiv_pos_site_id
 _symmetry_equiv_pos_as_xyz
  1  'x, y, z'
loop_
 _atom_site_type_symbol
 _atom_site_label
 _atom_site_symmetry_multiplicity
 _atom_site_fract_x
 _atom_site_fract_y
 _atom_site_fract_z
 _atom_site_occupancy
  Dy  Dy0  1  0.500000  0.321988  0.413948  1
  Ho  Ho1  1  0.500000  0.678290  0.586211  1
  Ho  Ho2  1  0.500000  0.178227  0.913913  1
  Ho  Ho3  1  0.500000  0.821813  0.086103  1
  Tm  Tm4  1  0.500000  0.444186  0.126864  1
  Tm  Tm5  1  0.500000  0.555873  0.873132  1
  Tm  Tm6  1  0.500000  0.055777  0.627067  1
  Tm  Tm7  1  0.500000  0.944132  0.373082  1
  B  B8  1  0.000000  0.107194  0.471133  1
  B  B9  1  0.000000  0.892553  0.529070  1
  B  B10  1  0.000000  0.392421  0.970941  1
  B  B11  1  0.000000  0.607710  0.029027  1
  B  B12  1  0.000000  0.132454  0.316560  1
  B  B13  1  0.000000  0.867371  0.683343  1
  B  B14  1  0.000000  0.367411  0.816760  1
  B  B15  1  0.000000  0.632695  0.183286  1
  B  B16  1  0.000000  0.054186  0.065312  1
  B  B17  1  0.000000  0.945757  0.934567  1
  B  B18  1  0.000000  0.445934  0.565744  1
  B  B19  1  0.000000  0.554549  0.434623  1
  B  B20  1  0.000000  0.483041  0.286310  1
  B  B21  1  0.000000  0.517319  0.713597  1
  B  B22  1  0.000000  0.017205  0.786614  1
  B  B23  1  0.000000  0.982706  0.213478  1
  B  B24  1  0.000000  0.250178  0.079640  1
  B  B25  1  0.000000  0.749908  0.920283  1
  B  B26  1  0.000000  0.249762  0.580077  1
  B  B27  1  0.000000  0.750255  0.420332  1
  B  B28  1  0.000000  0.294263  0.235887  1
  B  B29  1  0.000000  0.705588  0.763909  1
  B  B30  1  0.000000  0.205553  0.736291  1
  B  B31  1  0.000000  0.794428  0.263868  1
  Rh  Rh32  1  0.500000  0.139493  0.178890  1
  Rh  Rh33  1  0.500000  0.859969  0.819971  1
  Rh  Rh34  1  0.500000  0.360061  0.679630  1
  Rh  Rh35  1  0.500000  0.639752  0.320536  1
