# generated using pymatgen
data_Ce3Ho5(CdIr)2
_symmetry_space_group_name_H-M   'P 1'
_cell_length_a   9.63894678
_cell_length_b   9.71194677
_cell_length_c   9.71194631
_cell_angle_alpha   59.50333048
_cell_angle_beta   60.24833502
_cell_angle_gamma   60.24833500
_symmetry_Int_Tables_number   1
_chemical_formula_structural   Ce3Ho5(CdIr)2
_chemical_formula_sum   'Ce6 Ho10 Cd4 Ir4'
_cell_volume   642.80380888
_cell_formula_units_Z   2
loop_
 _symmetry_equiv_pos_site_id
 _symmetry_equiv_pos_as_xyz
  1  'x, y, z'
loop_
 _atom_site_type_symbol
 _atom_site_label
 _atom_site_symmetry_multiplicity
 _atom_site_fract_x
 _atom_site_fract_y
 _atom_site_fract_z
 _atom_site_occupancy
  Ce  Ce0  1  0.594061  0.601512  0.601512  1
  Ce  Ce1  1  0.601512  0.594061  0.202917  1
  Ce  Ce2  1  0.601512  0.202917  0.594061  1
  Ce  Ce3  1  0.202917  0.601512  0.601512  1
  Ce  Ce4  1  0.061798  0.438202  0.438202  1
  Ce  Ce5  1  0.438202  0.061798  0.061798  1
  Ho  Ho6  1  0.440300  0.059700  0.440300  1
  Ho  Ho7  1  0.059700  0.440300  0.059700  1
  Ho  Ho8  1  0.440300  0.440300  0.059700  1
  Ho  Ho9  1  0.059700  0.059700  0.440300  1
  Ho  Ho10  1  0.184424  0.815576  0.815576  1
  Ho  Ho11  1  0.815576  0.184424  0.184424  1
  Ho  Ho12  1  0.813206  0.186794  0.813206  1
  Ho  Ho13  1  0.186794  0.813206  0.186794  1
  Ho  Ho14  1  0.813206  0.813206  0.186794  1
  Ho  Ho15  1  0.186794  0.186794  0.813206  1
  Cd  Cd16  1  0.832499  0.831745  0.831745  1
  Cd  Cd17  1  0.831745  0.832499  0.504009  1
  Cd  Cd18  1  0.831745  0.504009  0.832499  1
  Cd  Cd19  1  0.504009  0.831745  0.831745  1
  Ir  Ir20  1  0.383020  0.396008  0.396008  1
  Ir  Ir21  1  0.396008  0.383020  0.824965  1
  Ir  Ir22  1  0.396008  0.824965  0.383020  1
  Ir  Ir23  1  0.824965  0.396008  0.396008  1
