# generated using pymatgen
data_La2NdAlGaRh2
_symmetry_space_group_name_H-M   'P 1'
_cell_length_a   5.75117600
_cell_length_b   8.32972100
_cell_length_c   13.78195800
_cell_angle_alpha   90.00000000
_cell_angle_beta   90.00000000
_cell_angle_gamma   90.00000000
_symmetry_Int_Tables_number   1
_chemical_formula_structural   La2NdAlGaRh2
_chemical_formula_sum   'La8 Nd4 Al4 Ga4 Rh8'
_cell_volume   660.23422824
_cell_formula_units_Z   4
loop_
 _symmetry_equiv_pos_site_id
 _symmetry_equiv_pos_as_xyz
  1  'x, y, z'
loop_
 _atom_site_type_symbol
 _atom_site_label
 _atom_site_symmetry_multiplicity
 _atom_site_fract_x
 _atom_site_fract_y
 _atom_site_fract_z
 _atom_site_occupancy
  La  La0  1  0.151129  0.401688  0.096861  1
  La  La1  1  0.848871  0.598312  0.903139  1
  La  La2  1  0.848871  0.598312  0.596861  1
  La  La3  1  0.848871  0.901688  0.403139  1
  La  La4  1  0.151129  0.401688  0.403139  1
  La  La5  1  0.151129  0.098312  0.596861  1
  La  La6  1  0.151129  0.098312  0.903139  1
  La  La7  1  0.848871  0.901688  0.096861  1
  Nd  Nd8  1  0.640514  0.257659  0.250000  1
  Nd  Nd9  1  0.359486  0.742341  0.750000  1
  Nd  Nd10  1  0.359486  0.757659  0.250000  1
  Nd  Nd11  1  0.640514  0.242341  0.750000  1
  Al  Al12  1  0.625947  0.250000  0.000000  1
  Al  Al13  1  0.374053  0.750000  0.000000  1
  Al  Al14  1  0.374053  0.750000  0.500000  1
  Al  Al15  1  0.625947  0.250000  0.500000  1
  Ga  Ga16  1  0.145940  0.109846  0.250000  1
  Ga  Ga17  1  0.854060  0.890154  0.750000  1
  Ga  Ga18  1  0.854060  0.609846  0.250000  1
  Ga  Ga19  1  0.145940  0.390154  0.750000  1
  Rh  Rh20  1  0.367264  0.028933  0.091208  1
  Rh  Rh21  1  0.632736  0.971067  0.908792  1
  Rh  Rh22  1  0.632736  0.971067  0.591208  1
  Rh  Rh23  1  0.632736  0.528933  0.408792  1
  Rh  Rh24  1  0.367264  0.028933  0.408792  1
  Rh  Rh25  1  0.367264  0.471067  0.591208  1
  Rh  Rh26  1  0.367264  0.471067  0.908792  1
  Rh  Rh27  1  0.632736  0.528933  0.091208  1
