# generated using pymatgen
data_Tb20Cd3Ag3Ru2
_symmetry_space_group_name_H-M   'P 1'
_cell_length_a   9.65340200
_cell_length_b   9.65340118
_cell_length_c   9.73699900
_cell_angle_alpha   90.00000000
_cell_angle_beta   90.00000000
_cell_angle_gamma   119.99999594
_symmetry_Int_Tables_number   1
_chemical_formula_structural   Tb20Cd3Ag3Ru2
_chemical_formula_sum   'Tb20 Cd3 Ag3 Ru2'
_cell_volume   785.80813815
_cell_formula_units_Z   1
loop_
 _symmetry_equiv_pos_site_id
 _symmetry_equiv_pos_as_xyz
  1  'x, y, z'
loop_
 _atom_site_type_symbol
 _atom_site_label
 _atom_site_symmetry_multiplicity
 _atom_site_fract_x
 _atom_site_fract_y
 _atom_site_fract_z
 _atom_site_occupancy
  Tb  Tb0  1  0.000000  0.000000  0.477314  1
  Tb  Tb1  1  0.000000  0.000000  0.022686  1
  Tb  Tb2  1  0.210411  0.789589  0.440662  1
  Tb  Tb3  1  0.210411  0.420822  0.440662  1
  Tb  Tb4  1  0.579178  0.789589  0.440662  1
  Tb  Tb5  1  0.790652  0.209348  0.560061  1
  Tb  Tb6  1  0.790652  0.581303  0.560061  1
  Tb  Tb7  1  0.418697  0.209348  0.560061  1
  Tb  Tb8  1  0.790652  0.209348  0.939939  1
  Tb  Tb9  1  0.790652  0.581303  0.939939  1
  Tb  Tb10  1  0.418697  0.209348  0.939939  1
  Tb  Tb11  1  0.210411  0.789589  0.059338  1
  Tb  Tb12  1  0.210411  0.420822  0.059338  1
  Tb  Tb13  1  0.579178  0.789589  0.059338  1
  Tb  Tb14  1  0.541248  0.458752  0.250000  1
  Tb  Tb15  1  0.541248  0.082497  0.250000  1
  Tb  Tb16  1  0.917503  0.458752  0.250000  1
  Tb  Tb17  1  0.458882  0.541118  0.750000  1
  Tb  Tb18  1  0.458882  0.917763  0.750000  1
  Tb  Tb19  1  0.082237  0.541118  0.750000  1
  Cd  Cd20  1  0.111376  0.888624  0.750000  1
  Cd  Cd21  1  0.111376  0.222752  0.750000  1
  Cd  Cd22  1  0.777248  0.888624  0.750000  1
  Ag  Ag23  1  0.876488  0.123512  0.250000  1
  Ag  Ag24  1  0.876488  0.752977  0.250000  1
  Ag  Ag25  1  0.247023  0.123512  0.250000  1
  Ru  Ru26  1  0.333333  0.666667  0.250000  1
  Ru  Ru27  1  0.666667  0.333333  0.750000  1
