# generated using pymatgen
data_SmHo6FeBr12
_symmetry_space_group_name_H-M   'P 1'
_cell_length_a   9.15188736
_cell_length_b   9.22829650
_cell_length_c   9.23431679
_cell_angle_alpha   106.77368302
_cell_angle_beta   107.07877328
_cell_angle_gamma   106.62524924
_symmetry_Int_Tables_number   1
_chemical_formula_structural   SmHo6FeBr12
_chemical_formula_sum   'Sm1 Ho6 Fe1 Br12'
_cell_volume   652.55708732
_cell_formula_units_Z   1
loop_
 _symmetry_equiv_pos_site_id
 _symmetry_equiv_pos_as_xyz
  1  'x, y, z'
loop_
 _atom_site_type_symbol
 _atom_site_label
 _atom_site_symmetry_multiplicity
 _atom_site_fract_x
 _atom_site_fract_y
 _atom_site_fract_z
 _atom_site_occupancy
  Sm  Sm0  1  0.701763  0.979004  0.904642  1
  Ho  Ho1  1  0.978104  0.903112  0.696232  1
  Ho  Ho2  1  0.501168  0.499088  0.500043  1
  Ho  Ho3  1  0.098453  0.304038  0.022220  1
  Ho  Ho4  1  0.290869  0.021081  0.093557  1
  Ho  Ho5  1  0.904455  0.697212  0.978787  1
  Ho  Ho6  1  0.021296  0.097136  0.304195  1
  Fe  Fe7  1  0.996915  0.000448  0.999259  1
  Br  Br8  1  0.071464  0.222115  0.678952  1
  Br  Br9  1  0.385552  0.166523  0.459282  1
  Br  Br10  1  0.613619  0.828372  0.532682  1
  Br  Br11  1  0.223878  0.681400  0.071408  1
  Br  Br12  1  0.782560  0.327730  0.930554  1
  Br  Br13  1  0.681019  0.072463  0.228593  1
  Br  Br14  1  0.538400  0.608385  0.830880  1
  Br  Br15  1  0.834600  0.538144  0.613617  1
  Br  Br16  1  0.930364  0.778294  0.321722  1
  Br  Br17  1  0.316310  0.929408  0.779070  1
  Br  Br18  1  0.461094  0.383715  0.167544  1
  Br  Br19  1  0.168114  0.462331  0.386760  1
