# generated using pymatgen
data_Ho6Er6Ir3Os
_symmetry_space_group_name_H-M   'P 1'
_cell_length_a   6.37518069
_cell_length_b   7.25795217
_cell_length_c   9.04064563
_cell_angle_alpha   90.01009181
_cell_angle_beta   90.05498167
_cell_angle_gamma   90.02232597
_symmetry_Int_Tables_number   1
_chemical_formula_structural   Ho6Er6Ir3Os
_chemical_formula_sum   'Ho6 Er6 Ir3 Os1'
_cell_volume   418.31728116
_cell_formula_units_Z   1
loop_
 _symmetry_equiv_pos_site_id
 _symmetry_equiv_pos_as_xyz
  1  'x, y, z'
loop_
 _atom_site_type_symbol
 _atom_site_label
 _atom_site_symmetry_multiplicity
 _atom_site_fract_x
 _atom_site_fract_y
 _atom_site_fract_z
 _atom_site_occupancy
  Ho  Ho0  1  0.325823  0.678315  0.063214  1
  Ho  Ho1  1  0.172029  0.175600  0.436862  1
  Ho  Ho2  1  0.872508  0.534868  0.250259  1
  Ho  Ho3  1  0.627532  0.034321  0.249769  1
  Ho  Ho4  1  0.128238  0.465624  0.749858  1
  Ho  Ho5  1  0.372866  0.964970  0.750114  1
  Er  Er6  1  0.671920  0.322779  0.562498  1
  Er  Er7  1  0.830618  0.823372  0.939419  1
  Er  Er8  1  0.671943  0.322780  0.937647  1
  Er  Er9  1  0.830671  0.823307  0.560517  1
  Er  Er10  1  0.326574  0.677846  0.436721  1
  Er  Er11  1  0.171434  0.175468  0.063071  1
  Ir  Ir12  1  0.458392  0.384287  0.249985  1
  Ir  Ir13  1  0.956938  0.116412  0.750628  1
  Ir  Ir14  1  0.543836  0.615696  0.749366  1
  Os  Os15  1  0.038678  0.884356  0.250071  1
