# generated using pymatgen
data_Tb5Si8P4Ir19
_symmetry_space_group_name_H-M   'P 1'
_cell_length_a   12.83619902
_cell_length_b   12.79780061
_cell_length_c   3.95668500
_cell_angle_alpha   90.00000000
_cell_angle_beta   90.00000000
_cell_angle_gamma   119.96802714
_symmetry_Int_Tables_number   1
_chemical_formula_structural   Tb5Si8P4Ir19
_chemical_formula_sum   'Tb5 Si8 P4 Ir19'
_cell_volume   563.08469194
_cell_formula_units_Z   1
loop_
 _symmetry_equiv_pos_site_id
 _symmetry_equiv_pos_as_xyz
  1  'x, y, z'
loop_
 _atom_site_type_symbol
 _atom_site_label
 _atom_site_symmetry_multiplicity
 _atom_site_fract_x
 _atom_site_fract_y
 _atom_site_fract_z
 _atom_site_occupancy
  Tb  Tb0  1  0.666883  0.333372  0.000000  1
  Tb  Tb1  1  0.332609  0.667427  0.000000  1
  Tb  Tb2  1  0.813861  0.813711  0.500000  1
  Tb  Tb3  1  0.185876  0.001082  0.500000  1
  Tb  Tb4  1  0.999343  0.183752  0.500000  1
  Si  Si5  1  0.685365  0.165322  0.500000  1
  Si  Si6  1  0.834489  0.519590  0.500000  1
  Si  Si7  1  0.481095  0.315122  0.500000  1
  Si  Si8  1  0.167657  0.688017  0.500000  1
  Si  Si9  1  0.518371  0.830175  0.500000  1
  Si  Si10  1  0.634533  0.633827  0.000000  1
  Si  Si11  1  0.366164  0.999677  0.000000  1
  Si  Si12  1  0.999413  0.365371  0.000000  1
  P  P13  1  0.307675  0.483782  0.500000  1
  P  P14  1  0.179312  0.180399  0.000000  1
  P  P15  1  0.819868  0.997256  0.000000  1
  P  P16  1  0.000335  0.822334  0.000000  1
  Ir  Ir17  1  0.807522  0.177809  0.000000  1
  Ir  Ir18  1  0.821666  0.628731  0.000000  1
  Ir  Ir19  1  0.370132  0.191830  0.000000  1
  Ir  Ir20  1  0.179315  0.806573  0.000000  1
  Ir  Ir21  1  0.624390  0.817604  0.000000  1
  Ir  Ir22  1  0.199431  0.379455  0.000000  1
  Ir  Ir23  1  0.456084  0.443889  0.000000  1
  Ir  Ir24  1  0.553108  0.002301  0.000000  1
  Ir  Ir25  1  0.998953  0.551201  0.000000  1
  Ir  Ir26  1  0.280245  0.284356  0.500000  1
  Ir  Ir27  1  0.720439  0.997763  0.500000  1
  Ir  Ir28  1  0.000384  0.722262  0.500000  1
  Ir  Ir29  1  0.871952  0.358079  0.500000  1
  Ir  Ir30  1  0.643265  0.514322  0.500000  1
  Ir  Ir31  1  0.486618  0.128576  0.500000  1
  Ir  Ir32  1  0.360852  0.873225  0.500000  1
  Ir  Ir33  1  0.505932  0.632832  0.500000  1
  Ir  Ir34  1  0.125892  0.487146  0.500000  1
  Ir  Ir35  1  0.000968  0.001830  0.000000  1
