# generated using pymatgen
data_Tb2YbAl3Ge2Pd
_symmetry_space_group_name_H-M   'P 1'
_cell_length_a   7.05084900
_cell_length_b   6.99397245
_cell_length_c   4.29334000
_cell_angle_alpha   90.00000000
_cell_angle_beta   90.00000000
_cell_angle_gamma   120.26937367
_symmetry_Int_Tables_number   1
_chemical_formula_structural   Tb2YbAl3Ge2Pd
_chemical_formula_sum   'Tb2 Yb1 Al3 Ge2 Pd1'
_cell_volume   182.85464222
_cell_formula_units_Z   1
loop_
 _symmetry_equiv_pos_site_id
 _symmetry_equiv_pos_as_xyz
  1  'x, y, z'
loop_
 _atom_site_type_symbol
 _atom_site_label
 _atom_site_symmetry_multiplicity
 _atom_site_fract_x
 _atom_site_fract_y
 _atom_site_fract_z
 _atom_site_occupancy
  Tb  Tb0  1  0.999872  0.417379  0.000000  1
  Tb  Tb1  1  0.582493  0.582620  0.000000  1
  Yb  Yb2  1  0.416812  0.000000  0.000000  1
  Al  Al3  1  0.769009  0.000000  0.500000  1
  Al  Al4  1  0.231082  0.236099  0.500000  1
  Al  Al5  1  0.994983  0.763900  0.500000  1
  Ge  Ge6  1  0.670388  0.336482  0.500000  1
  Ge  Ge7  1  0.333906  0.663517  0.500000  1
  Pd  Pd8  1  0.001454  0.000000  0.000000  1
