# generated using pymatgen
data_Hf11Sc7(Si8Mo)2
_symmetry_space_group_name_H-M   'P 1'
_cell_length_a   7.06782505
_cell_length_b   7.07105082
_cell_length_c   12.88471400
_cell_angle_alpha   89.97027868
_cell_angle_beta   89.99336072
_cell_angle_gamma   89.77021486
_symmetry_Int_Tables_number   1
_chemical_formula_structural   Hf11Sc7(Si8Mo)2
_chemical_formula_sum   'Hf11 Sc7 Si16 Mo2'
_cell_volume   643.93343879
_cell_formula_units_Z   1
loop_
 _symmetry_equiv_pos_site_id
 _symmetry_equiv_pos_as_xyz
  1  'x, y, z'
loop_
 _atom_site_type_symbol
 _atom_site_label
 _atom_site_symmetry_multiplicity
 _atom_site_fract_x
 _atom_site_fract_y
 _atom_site_fract_z
 _atom_site_occupancy
  Hf  Hf0  1  0.823268  0.823440  0.499902  1
  Hf  Hf1  1  0.176167  0.177277  0.000634  1
  Hf  Hf2  1  0.000182  0.348469  0.215944  1
  Hf  Hf3  1  0.497128  0.356944  0.127495  1
  Hf  Hf4  1  0.502941  0.642242  0.626874  1
  Hf  Hf5  1  0.853697  0.003474  0.874668  1
  Hf  Hf6  1  0.145268  0.996430  0.373586  1
  Hf  Hf7  1  0.642685  0.502512  0.372388  1
  Hf  Hf8  1  0.357631  0.496624  0.873492  1
  Hf  Hf9  1  0.003792  0.853357  0.126312  1
  Hf  Hf10  1  0.996262  0.146161  0.625429  1
  Sc  Sc11  1  0.495938  0.154739  0.533763  1
  Sc  Sc12  1  0.503142  0.845299  0.034975  1
  Sc  Sc13  1  0.653489  0.001834  0.282987  1
  Sc  Sc14  1  0.347241  0.999127  0.784160  1
  Sc  Sc15  1  0.845526  0.503815  0.965937  1
  Sc  Sc16  1  0.153893  0.496422  0.466158  1
  Sc  Sc17  1  0.000984  0.652949  0.716050  1
  Si  Si18  1  0.797214  0.147844  0.071397  1
  Si  Si19  1  0.203585  0.852742  0.570382  1
  Si  Si20  1  0.647574  0.702677  0.819859  1
  Si  Si21  1  0.351258  0.297663  0.320134  1
  Si  Si22  1  0.853372  0.204542  0.427406  1
  Si  Si23  1  0.146991  0.796196  0.930029  1
  Si  Si24  1  0.704348  0.646745  0.179591  1
  Si  Si25  1  0.297393  0.352070  0.680183  1
  Si  Si26  1  0.551457  0.199396  0.933374  1
  Si  Si27  1  0.448479  0.800471  0.432923  1
  Si  Si28  1  0.694648  0.955508  0.685370  1
  Si  Si29  1  0.304806  0.045185  0.185245  1
  Si  Si30  1  0.800747  0.448782  0.566614  1
  Si  Si31  1  0.199805  0.551319  0.066814  1
  Si  Si32  1  0.955694  0.694151  0.315296  1
  Si  Si33  1  0.044751  0.305037  0.814635  1
  Mo  Mo34  1  0.676432  0.323303  0.749854  1
  Mo  Mo35  1  0.322213  0.675251  0.250141  1
