# generated using pymatgen
data_Nd8Cd2TcPt
_symmetry_space_group_name_H-M   'P 1'
_cell_length_a   9.99697004
_cell_length_b   9.99697043
_cell_length_c   10.11120000
_cell_angle_alpha   59.62129176
_cell_angle_beta   59.62129044
_cell_angle_gamma   59.50684330
_symmetry_Int_Tables_number   1
_chemical_formula_structural   Nd8Cd2TcPt
_chemical_formula_sum   'Nd16 Cd4 Tc2 Pt2'
_cell_volume   707.76401242
_cell_formula_units_Z   2
loop_
 _symmetry_equiv_pos_site_id
 _symmetry_equiv_pos_as_xyz
  1  'x, y, z'
loop_
 _atom_site_type_symbol
 _atom_site_label
 _atom_site_symmetry_multiplicity
 _atom_site_fract_x
 _atom_site_fract_y
 _atom_site_fract_z
 _atom_site_occupancy
  Nd  Nd0  1  0.347581  0.347581  0.352930  1
  Nd  Nd1  1  0.347581  0.347581  0.951908  1
  Nd  Nd2  1  0.343552  0.958741  0.348853  1
  Nd  Nd3  1  0.958741  0.343552  0.348853  1
  Nd  Nd4  1  0.813954  0.190577  0.190850  1
  Nd  Nd5  1  0.190577  0.813954  0.804618  1
  Nd  Nd6  1  0.190577  0.813954  0.190850  1
  Nd  Nd7  1  0.813954  0.190577  0.804618  1
  Nd  Nd8  1  0.191066  0.191066  0.808934  1
  Nd  Nd9  1  0.806940  0.806940  0.193060  1
  Nd  Nd10  1  0.937908  0.557046  0.565068  1
  Nd  Nd11  1  0.557046  0.937908  0.939977  1
  Nd  Nd12  1  0.557046  0.937908  0.565068  1
  Nd  Nd13  1  0.937908  0.557046  0.939977  1
  Nd  Nd14  1  0.562739  0.562739  0.937261  1
  Nd  Nd15  1  0.940995  0.940995  0.559005  1
  Cd  Cd16  1  0.579938  0.579938  0.579930  1
  Cd  Cd17  1  0.579938  0.579938  0.260195  1
  Cd  Cd18  1  0.579488  0.258912  0.580800  1
  Cd  Cd19  1  0.258912  0.579488  0.580800  1
  Tc  Tc20  1  0.141010  0.141010  0.133088  1
  Tc  Tc21  1  0.141010  0.141010  0.584892  1
  Pt  Pt22  1  0.145746  0.575794  0.139230  1
  Pt  Pt23  1  0.575794  0.145746  0.139230  1
