# generated using pymatgen
data_Dy2Ho18Bi11Sb
_symmetry_space_group_name_H-M   'P 1'
_cell_length_a   8.21526153
_cell_length_b   9.49102100
_cell_length_c   11.99289001
_cell_angle_alpha   90.00000000
_cell_angle_beta   90.03662593
_cell_angle_gamma   90.00000000
_symmetry_Int_Tables_number   1
_chemical_formula_structural   Dy2Ho18Bi11Sb
_chemical_formula_sum   'Dy2 Ho18 Bi11 Sb1'
_cell_volume   935.10006993
_cell_formula_units_Z   1
loop_
 _symmetry_equiv_pos_site_id
 _symmetry_equiv_pos_as_xyz
  1  'x, y, z'
loop_
 _atom_site_type_symbol
 _atom_site_label
 _atom_site_symmetry_multiplicity
 _atom_site_fract_x
 _atom_site_fract_y
 _atom_site_fract_z
 _atom_site_occupancy
  Dy  Dy0  1  0.812623  0.250000  0.281260  1
  Dy  Dy1  1  0.188713  0.750000  0.720363  1
  Ho  Ho2  1  0.353225  0.750000  0.212878  1
  Ho  Ho3  1  0.852512  0.750000  0.284048  1
  Ho  Ho4  1  0.647652  0.250000  0.784196  1
  Ho  Ho5  1  0.147553  0.250000  0.716005  1
  Ho  Ho6  1  0.690193  0.566192  0.057391  1
  Ho  Ho7  1  0.192771  0.935811  0.441223  1
  Ho  Ho8  1  0.308457  0.060396  0.941507  1
  Ho  Ho9  1  0.807278  0.436135  0.558635  1
  Ho  Ho10  1  0.308457  0.439604  0.941507  1
  Ho  Ho11  1  0.807278  0.063865  0.558635  1
  Ho  Ho12  1  0.690193  0.933808  0.057391  1
  Ho  Ho13  1  0.192771  0.564189  0.441223  1
  Ho  Ho14  1  0.475126  0.250000  0.488031  1
  Ho  Ho15  1  0.975800  0.250000  0.011667  1
  Ho  Ho16  1  0.525058  0.750000  0.512039  1
  Ho  Ho17  1  0.028106  0.750000  0.987906  1
  Ho  Ho18  1  0.312832  0.250000  0.218710  1
  Ho  Ho19  1  0.683161  0.750000  0.783854  1
  Bi  Bi20  1  0.907495  0.750000  0.543251  1
  Bi  Bi21  1  0.592937  0.250000  0.042904  1
  Bi  Bi22  1  0.092963  0.250000  0.457286  1
  Bi  Bi23  1  0.565213  0.995273  0.325411  1
  Bi  Bi24  1  0.065417  0.504411  0.174325  1
  Bi  Bi25  1  0.434719  0.495306  0.674459  1
  Bi  Bi26  1  0.934240  0.004228  0.825585  1
  Bi  Bi27  1  0.434719  0.004694  0.674459  1
  Bi  Bi28  1  0.934240  0.495772  0.825585  1
  Bi  Bi29  1  0.565213  0.504727  0.325411  1
  Bi  Bi30  1  0.065417  0.995589  0.174325  1
  Sb  Sb31  1  0.407670  0.750000  0.958529  1
