# generated using pymatgen
data_HoTmCd4(Ni7B2)2
_symmetry_space_group_name_H-M   'P 1'
_cell_length_a   4.96804100
_cell_length_b   4.96803927
_cell_length_c   14.03087700
_cell_angle_alpha   90.00000000
_cell_angle_beta   90.00000000
_cell_angle_gamma   120.00000488
_symmetry_Int_Tables_number   1
_chemical_formula_structural   HoTmCd4(Ni7B2)2
_chemical_formula_sum   'Ho1 Tm1 Cd4 Ni14 B4'
_cell_volume   299.90632069
_cell_formula_units_Z   1
loop_
 _symmetry_equiv_pos_site_id
 _symmetry_equiv_pos_as_xyz
  1  'x, y, z'
loop_
 _atom_site_type_symbol
 _atom_site_label
 _atom_site_symmetry_multiplicity
 _atom_site_fract_x
 _atom_site_fract_y
 _atom_site_fract_z
 _atom_site_occupancy
  Ho  Ho0  1  0.333333  0.666667  0.750000  1
  Tm  Tm1  1  0.666667  0.333333  0.250000  1
  Cd  Cd2  1  0.333333  0.666667  0.529010  1
  Cd  Cd3  1  0.666667  0.333333  0.029753  1
  Cd  Cd4  1  0.666667  0.333333  0.470247  1
  Cd  Cd5  1  0.333333  0.666667  0.970990  1
  Ni  Ni6  1  0.000000  0.000000  0.000268  1
  Ni  Ni7  1  0.000000  0.000000  0.499732  1
  Ni  Ni8  1  0.165930  0.331861  0.147303  1
  Ni  Ni9  1  0.833904  0.667807  0.646618  1
  Ni  Ni10  1  0.668139  0.834070  0.147303  1
  Ni  Ni11  1  0.165930  0.834070  0.147303  1
  Ni  Ni12  1  0.833904  0.166096  0.646618  1
  Ni  Ni13  1  0.332193  0.166096  0.646618  1
  Ni  Ni14  1  0.833904  0.667807  0.853382  1
  Ni  Ni15  1  0.833904  0.166096  0.853382  1
  Ni  Ni16  1  0.332193  0.166096  0.853382  1
  Ni  Ni17  1  0.668139  0.834070  0.352697  1
  Ni  Ni18  1  0.165930  0.834070  0.352697  1
  Ni  Ni19  1  0.165930  0.331861  0.352697  1
  B  B20  1  0.333333  0.666667  0.250000  1
  B  B21  1  0.666667  0.333333  0.750000  1
  B  B22  1  0.000000  0.000000  0.250000  1
  B  B23  1  0.000000  0.000000  0.750000  1
