# generated using pymatgen
data_La8Pr12Si15Sn
_symmetry_space_group_name_H-M   'P 1'
_cell_length_a   7.97812999
_cell_length_b   7.95349626
_cell_length_c   15.44136800
_cell_angle_alpha   90.06922900
_cell_angle_beta   89.93590416
_cell_angle_gamma   90.01954223
_symmetry_Int_Tables_number   1
_chemical_formula_structural   La8Pr12Si15Sn
_chemical_formula_sum   'La8 Pr12 Si15 Sn1'
_cell_volume   979.81559854
_cell_formula_units_Z   1
loop_
 _symmetry_equiv_pos_site_id
 _symmetry_equiv_pos_as_xyz
  1  'x, y, z'
loop_
 _atom_site_type_symbol
 _atom_site_label
 _atom_site_symmetry_multiplicity
 _atom_site_fract_x
 _atom_site_fract_y
 _atom_site_fract_z
 _atom_site_occupancy
  La  La0  1  0.986792  0.622001  0.050672  1
  La  La1  1  0.011966  0.370500  0.556038  1
  La  La2  1  0.623746  0.987788  0.948265  1
  La  La3  1  0.122699  0.513439  0.802369  1
  La  La4  1  0.869373  0.480096  0.294482  1
  La  La5  1  0.513315  0.121328  0.196269  1
  La  La6  1  0.488819  0.878752  0.700372  1
  La  La7  1  0.381603  0.014957  0.447419  1
  Pr  Pr8  1  0.379842  0.477688  0.371551  1
  Pr  Pr9  1  0.863382  0.030459  0.371404  1
  Pr  Pr10  1  0.980380  0.127635  0.122944  1
  Pr  Pr11  1  0.018275  0.874036  0.627328  1
  Pr  Pr12  1  0.627426  0.518396  0.873893  1
  Pr  Pr13  1  0.483829  0.370155  0.629706  1
  Pr  Pr14  1  0.519085  0.626680  0.125345  1
  Pr  Pr15  1  0.126542  0.981325  0.877351  1
  Pr  Pr16  1  0.680250  0.692576  0.501840  1
  Pr  Pr17  1  0.810954  0.190398  0.751385  1
  Pr  Pr18  1  0.193217  0.810367  0.242371  1
  Pr  Pr19  1  0.308527  0.308612  0.999964  1
  Si  Si20  1  0.921065  0.288160  0.940009  1
  Si  Si21  1  0.714443  0.078451  0.560786  1
  Si  Si22  1  0.213253  0.421123  0.189801  1
  Si  Si23  1  0.788489  0.579859  0.690727  1
  Si  Si24  1  0.420507  0.213283  0.811919  1
  Si  Si25  1  0.579773  0.787194  0.309473  1
  Si  Si26  1  0.288058  0.921594  0.057821  1
  Si  Si27  1  0.831252  0.803882  0.798133  1
  Si  Si28  1  0.170836  0.195026  0.295389  1
  Si  Si29  1  0.804321  0.830140  0.202266  1
  Si  Si30  1  0.310291  0.665496  0.554856  1
  Si  Si31  1  0.696998  0.332667  0.046663  1
  Si  Si32  1  0.669808  0.307195  0.456988  1
  Si  Si33  1  0.332315  0.696209  0.952547  1
  Si  Si34  1  0.196321  0.169047  0.705800  1
  Sn  Sn35  1  0.072248  0.713485  0.435852  1
