# generated using pymatgen
data_Tb2SmMoO7
_symmetry_space_group_name_H-M   'P 1'
_cell_length_a   6.48937659
_cell_length_b   6.48937669
_cell_length_c   7.58746200
_cell_angle_alpha   90.00000000
_cell_angle_beta   90.00000000
_cell_angle_gamma   109.25340722
_symmetry_Int_Tables_number   1
_chemical_formula_structural   Tb2SmMoO7
_chemical_formula_sum   'Tb4 Sm2 Mo2 O14'
_cell_volume   301.65214520
_cell_formula_units_Z   2
loop_
 _symmetry_equiv_pos_site_id
 _symmetry_equiv_pos_as_xyz
  1  'x, y, z'
loop_
 _atom_site_type_symbol
 _atom_site_label
 _atom_site_symmetry_multiplicity
 _atom_site_fract_x
 _atom_site_fract_y
 _atom_site_fract_z
 _atom_site_occupancy
  Tb  Tb0  1  0.535565  0.000395  0.750000  1
  Tb  Tb1  1  0.000395  0.535565  0.250000  1
  Tb  Tb2  1  0.464435  0.999605  0.250000  1
  Tb  Tb3  1  0.999605  0.464435  0.750000  1
  Sm  Sm4  1  0.500000  0.500000  0.500000  1
  Sm  Sm5  1  0.500000  0.500000  0.000000  1
  Mo  Mo6  1  0.000000  0.000000  0.500000  1
  Mo  Mo7  1  0.000000  0.000000  0.000000  1
  O  O8  1  0.679456  0.927258  0.470542  1
  O  O9  1  0.927258  0.679456  0.529458  1
  O  O10  1  0.679456  0.927258  0.029458  1
  O  O11  1  0.927258  0.679456  0.970542  1
  O  O12  1  0.320544  0.072742  0.529458  1
  O  O13  1  0.072742  0.320544  0.470542  1
  O  O14  1  0.320544  0.072742  0.970542  1
  O  O15  1  0.072742  0.320544  0.029458  1
  O  O16  1  0.929424  0.070576  0.750000  1
  O  O17  1  0.070576  0.929424  0.250000  1
  O  O18  1  0.366896  0.633103  0.750000  1
  O  O19  1  0.633103  0.366896  0.250000  1
  O  O20  1  0.638556  0.361444  0.750000  1
  O  O21  1  0.361444  0.638556  0.250000  1
