# generated using pymatgen
data_Zr7Nb5Ga12
_symmetry_space_group_name_H-M   'P 1'
_cell_length_a   5.52676300
_cell_length_b   8.52928953
_cell_length_c   9.19985041
_cell_angle_alpha   89.78558482
_cell_angle_beta   90.00000000
_cell_angle_gamma   90.00000000
_symmetry_Int_Tables_number   1
_chemical_formula_structural   Zr7Nb5Ga12
_chemical_formula_sum   'Zr7 Nb5 Ga12'
_cell_volume   433.67204021
_cell_formula_units_Z   1
loop_
 _symmetry_equiv_pos_site_id
 _symmetry_equiv_pos_as_xyz
  1  'x, y, z'
loop_
 _atom_site_type_symbol
 _atom_site_label
 _atom_site_symmetry_multiplicity
 _atom_site_fract_x
 _atom_site_fract_y
 _atom_site_fract_z
 _atom_site_occupancy
  Zr  Zr0  1  0.250000  0.532232  0.379642  1
  Zr  Zr1  1  0.750000  0.966726  0.380872  1
  Zr  Zr2  1  0.250000  0.027581  0.620002  1
  Zr  Zr3  1  0.750000  0.367602  0.179568  1
  Zr  Zr4  1  0.250000  0.633934  0.817398  1
  Zr  Zr5  1  0.750000  0.871092  0.814495  1
  Zr  Zr6  1  0.250000  0.134467  0.187296  1
  Nb  Nb7  1  0.999869  0.747853  0.111482  1
  Nb  Nb8  1  0.499998  0.250212  0.887201  1
  Nb  Nb9  1  0.000002  0.250212  0.887201  1
  Nb  Nb10  1  0.500131  0.747853  0.111482  1
  Nb  Nb11  1  0.750000  0.469763  0.618649  1
  Ga  Ga12  1  0.996844  0.745864  0.573961  1
  Ga  Ga13  1  0.503250  0.252894  0.431088  1
  Ga  Ga14  1  0.996750  0.252894  0.431088  1
  Ga  Ga15  1  0.503156  0.745864  0.573961  1
  Ga  Ga16  1  0.750000  0.043919  0.079995  1
  Ga  Ga17  1  0.250000  0.956411  0.921329  1
  Ga  Ga18  1  0.750000  0.545522  0.913257  1
  Ga  Ga19  1  0.250000  0.453690  0.079636  1
  Ga  Ga20  1  0.750000  0.139595  0.650910  1
  Ga  Ga21  1  0.250000  0.866205  0.347459  1
  Ga  Ga22  1  0.750000  0.628932  0.349524  1
  Ga  Ga23  1  0.250000  0.368680  0.652505  1
