# generated using pymatgen
data_AlV3AuN
_symmetry_space_group_name_H-M   'P 1'
_cell_length_a   6.71066900
_cell_length_b   6.71066900
_cell_length_c   6.71066900
_cell_angle_alpha   90.00000000
_cell_angle_beta   90.00000000
_cell_angle_gamma   90.00000000
_symmetry_Int_Tables_number   1
_chemical_formula_structural   AlV3AuN
_chemical_formula_sum   'Al4 V12 Au4 N4'
_cell_volume   302.20208338
_cell_formula_units_Z   4
loop_
 _symmetry_equiv_pos_site_id
 _symmetry_equiv_pos_as_xyz
  1  'x, y, z'
loop_
 _atom_site_type_symbol
 _atom_site_label
 _atom_site_symmetry_multiplicity
 _atom_site_fract_x
 _atom_site_fract_y
 _atom_site_fract_z
 _atom_site_occupancy
  Al  Al0  1  0.178283  0.821717  0.321717  1
  Al  Al1  1  0.321717  0.178283  0.821717  1
  Al  Al2  1  0.821717  0.321717  0.178283  1
  Al  Al3  1  0.678283  0.678283  0.678283  1
  V  V4  1  0.788080  0.968954  0.374411  1
  V  V5  1  0.711920  0.031046  0.874411  1
  V  V6  1  0.211920  0.468954  0.125589  1
  V  V7  1  0.288080  0.531046  0.625589  1
  V  V8  1  0.968954  0.374411  0.788080  1
  V  V9  1  0.031046  0.874411  0.711920  1
  V  V10  1  0.468954  0.125589  0.211920  1
  V  V11  1  0.531046  0.625589  0.288080  1
  V  V12  1  0.374411  0.788080  0.968954  1
  V  V13  1  0.874411  0.711920  0.031046  1
  V  V14  1  0.125589  0.211920  0.468954  1
  V  V15  1  0.625589  0.288080  0.531046  1
  Au  Au16  1  0.573017  0.426983  0.926983  1
  Au  Au17  1  0.426983  0.926983  0.573017  1
  Au  Au18  1  0.926983  0.573017  0.426983  1
  Au  Au19  1  0.073017  0.073017  0.073017  1
  N  N20  1  0.872963  0.127037  0.627037  1
  N  N21  1  0.627037  0.872963  0.127037  1
  N  N22  1  0.127037  0.627037  0.872963  1
  N  N23  1  0.372963  0.372963  0.372963  1
