# generated using pymatgen
data_Dy8Ti9Nb2Si16Hg
_symmetry_space_group_name_H-M   'P 1'
_cell_length_a   7.09422515
_cell_length_b   7.08763712
_cell_length_c   12.95996504
_cell_angle_alpha   89.84957863
_cell_angle_beta   90.19586326
_cell_angle_gamma   89.64491361
_symmetry_Int_Tables_number   1
_chemical_formula_structural   Dy8Ti9Nb2Si16Hg
_chemical_formula_sum   'Dy8 Ti9 Nb2 Si16 Hg1'
_cell_volume   651.62520268
_cell_formula_units_Z   1
loop_
 _symmetry_equiv_pos_site_id
 _symmetry_equiv_pos_as_xyz
  1  'x, y, z'
loop_
 _atom_site_type_symbol
 _atom_site_label
 _atom_site_symmetry_multiplicity
 _atom_site_fract_x
 _atom_site_fract_y
 _atom_site_fract_z
 _atom_site_occupancy
  Dy  Dy0  1  0.998775  0.657780  0.032874  1
  Dy  Dy1  1  0.999636  0.343074  0.531596  1
  Dy  Dy2  1  0.658090  0.998792  0.967143  1
  Dy  Dy3  1  0.159113  0.501880  0.784379  1
  Dy  Dy4  1  0.843543  0.498647  0.285043  1
  Dy  Dy5  1  0.501921  0.159715  0.215522  1
  Dy  Dy6  1  0.499284  0.842791  0.715020  1
  Dy  Dy7  1  0.343659  0.998098  0.468514  1
  Ti  Ti8  1  0.852442  0.992151  0.376774  1
  Ti  Ti9  1  0.009272  0.152691  0.125388  1
  Ti  Ti10  1  0.991276  0.851998  0.622510  1
  Ti  Ti11  1  0.504218  0.350153  0.623054  1
  Ti  Ti12  1  0.152615  0.009306  0.874863  1
  Ti  Ti13  1  0.825749  0.174215  0.750697  1
  Ti  Ti14  1  0.174324  0.825887  0.249355  1
  Ti  Ti15  1  0.492427  0.648041  0.123508  1
  Ti  Ti16  1  0.647916  0.491879  0.876086  1
  Nb  Nb17  1  0.350795  0.505163  0.376782  1
  Nb  Nb18  1  0.327315  0.326809  0.000021  1
  Si  Si19  1  0.064658  0.716399  0.433103  1
  Si  Si20  1  0.951695  0.289613  0.935958  1
  Si  Si21  1  0.713804  0.067744  0.568023  1
  Si  Si22  1  0.207141  0.453864  0.186491  1
  Si  Si23  1  0.793715  0.540751  0.694840  1
  Si  Si24  1  0.453809  0.208173  0.813017  1
  Si  Si25  1  0.541745  0.795189  0.305180  1
  Si  Si26  1  0.289861  0.951288  0.063975  1
  Si  Si27  1  0.798982  0.867656  0.184428  1
  Si  Si28  1  0.273633  0.625923  0.573038  1
  Si  Si29  1  0.705941  0.368706  0.066484  1
  Si  Si30  1  0.627516  0.273653  0.426956  1
  Si  Si31  1  0.368749  0.706332  0.933247  1
  Si  Si32  1  0.131907  0.201221  0.316793  1
  Si  Si33  1  0.201141  0.132296  0.683291  1
  Si  Si34  1  0.868384  0.799040  0.815167  1
  Hg  Hg35  1  0.674949  0.673080  0.500880  1
