# generated using pymatgen
data_Tb16Tm4Sn7Pb9
_symmetry_space_group_name_H-M   'P 1'
_cell_length_a   8.15737700
_cell_length_b   8.22323746
_cell_length_c   15.62621600
_cell_angle_alpha   90.00000000
_cell_angle_beta   90.00000000
_cell_angle_gamma   90.03408523
_symmetry_Int_Tables_number   1
_chemical_formula_structural   Tb16Tm4Sn7Pb9
_chemical_formula_sum   'Tb16 Tm4 Sn7 Pb9'
_cell_volume   1048.20713514
_cell_formula_units_Z   1
loop_
 _symmetry_equiv_pos_site_id
 _symmetry_equiv_pos_as_xyz
  1  'x, y, z'
loop_
 _atom_site_type_symbol
 _atom_site_label
 _atom_site_symmetry_multiplicity
 _atom_site_fract_x
 _atom_site_fract_y
 _atom_site_fract_z
 _atom_site_occupancy
  Tb  Tb0  1  0.380228  0.838284  0.877089  1
  Tb  Tb1  1  0.880500  0.661231  0.622991  1
  Tb  Tb2  1  0.619658  0.161277  0.377662  1
  Tb  Tb3  1  0.119598  0.337261  0.122514  1
  Tb  Tb4  1  0.619658  0.161277  0.122338  1
  Tb  Tb5  1  0.119598  0.337261  0.377486  1
  Tb  Tb6  1  0.380228  0.838284  0.622911  1
  Tb  Tb7  1  0.880500  0.661231  0.877009  1
  Tb  Tb8  1  0.537004  0.324481  0.895908  1
  Tb  Tb9  1  0.037459  0.175069  0.604292  1
  Tb  Tb10  1  0.465492  0.675565  0.397173  1
  Tb  Tb11  1  0.960808  0.826696  0.101538  1
  Tb  Tb12  1  0.465492  0.675565  0.102827  1
  Tb  Tb13  1  0.960808  0.826696  0.398462  1
  Tb  Tb14  1  0.537004  0.324481  0.604092  1
  Tb  Tb15  1  0.037459  0.175069  0.895708  1
  Tm  Tm16  1  0.211079  0.503143  0.750000  1
  Tm  Tm17  1  0.711060  0.996668  0.750000  1
  Tm  Tm18  1  0.786934  0.495211  0.250000  1
  Tm  Tm19  1  0.290941  0.006365  0.250000  1
  Sn  Sn20  1  0.576349  0.621965  0.750000  1
  Sn  Sn21  1  0.076569  0.877543  0.750000  1
  Sn  Sn22  1  0.424279  0.376995  0.250000  1
  Sn  Sn23  1  0.923487  0.121162  0.250000  1
  Sn  Sn24  1  0.344733  0.148937  0.750000  1
  Sn  Sn25  1  0.844501  0.350821  0.750000  1
  Sn  Sn26  1  0.656155  0.850668  0.250000  1
  Pb  Pb27  1  0.280807  0.031345  0.041920  1
  Pb  Pb28  1  0.781618  0.467529  0.458116  1
  Pb  Pb29  1  0.718521  0.968640  0.542860  1
  Pb  Pb30  1  0.219124  0.531460  0.957959  1
  Pb  Pb31  1  0.718521  0.968640  0.957140  1
  Pb  Pb32  1  0.219124  0.531460  0.542041  1
  Pb  Pb33  1  0.280807  0.031345  0.458080  1
  Pb  Pb34  1  0.781618  0.467529  0.041884  1
  Pb  Pb35  1  0.152268  0.652843  0.250000  1
