# generated using pymatgen
data_TiGa2FeRu4
_symmetry_space_group_name_H-M   'P 1'
_cell_length_a   7.40172576
_cell_length_b   7.40172560
_cell_length_c   7.40172679
_cell_angle_alpha   33.62257307
_cell_angle_beta   33.62257257
_cell_angle_gamma   33.62257674
_symmetry_Int_Tables_number   1
_chemical_formula_structural   TiGa2FeRu4
_chemical_formula_sum   'Ti1 Ga2 Fe1 Ru4'
_cell_volume   110.75631821
_cell_formula_units_Z   1
loop_
 _symmetry_equiv_pos_site_id
 _symmetry_equiv_pos_as_xyz
  1  'x, y, z'
loop_
 _atom_site_type_symbol
 _atom_site_label
 _atom_site_symmetry_multiplicity
 _atom_site_fract_x
 _atom_site_fract_y
 _atom_site_fract_z
 _atom_site_occupancy
  Ti  Ti0  1  0.500000  0.500000  0.500000  1
  Ga  Ga1  1  0.248986  0.248986  0.248986  1
  Ga  Ga2  1  0.751014  0.751014  0.751014  1
  Fe  Fe3  1  0.000000  0.000000  0.000000  1
  Ru  Ru4  1  0.627622  0.627622  0.627622  1
  Ru  Ru5  1  0.122900  0.122900  0.122900  1
  Ru  Ru6  1  0.877100  0.877100  0.877100  1
  Ru  Ru7  1  0.372378  0.372378  0.372378  1
