# generated using pymatgen
data_Nd4B4Br2Cl3
_symmetry_space_group_name_H-M   'P 1'
_cell_length_a   10.79597761
_cell_length_b   10.79597727
_cell_length_c   9.67863066
_cell_angle_alpha   51.73132404
_cell_angle_beta   51.73132647
_cell_angle_gamma   22.98466257
_symmetry_Int_Tables_number   1
_chemical_formula_structural   Nd4B4Br2Cl3
_chemical_formula_sum   'Nd4 B4 Br2 Cl3'
_cell_volume   341.36285193
_cell_formula_units_Z   1
loop_
 _symmetry_equiv_pos_site_id
 _symmetry_equiv_pos_as_xyz
  1  'x, y, z'
loop_
 _atom_site_type_symbol
 _atom_site_label
 _atom_site_symmetry_multiplicity
 _atom_site_fract_x
 _atom_site_fract_y
 _atom_site_fract_z
 _atom_site_occupancy
  Nd  Nd0  1  0.148140  0.148140  0.779635  1
  Nd  Nd1  1  0.515639  0.515639  0.231533  1
  Nd  Nd2  1  0.486935  0.486935  0.765652  1
  Nd  Nd3  1  0.852755  0.852755  0.223128  1
  B  B4  1  0.004984  0.004984  0.092865  1
  B  B5  1  0.686856  0.313068  0.000692  1
  B  B6  1  0.996054  0.996054  0.907189  1
  B  B7  1  0.313068  0.686856  0.000692  1
  Br  Br8  1  0.305462  0.305462  0.076499  1
  Br  Br9  1  0.000762  0.000762  0.499138  1
  Cl  Cl10  1  0.332151  0.332151  0.464376  1
  Cl  Cl11  1  0.669912  0.669912  0.539075  1
  Cl  Cl12  1  0.687280  0.687280  0.919526  1
