# generated using pymatgen
data_Lu10Ag3Pt
_symmetry_space_group_name_H-M   'P 1'
_cell_length_a   9.34622100
_cell_length_b   9.34622141
_cell_length_c   9.43364800
_cell_angle_alpha   90.00000000
_cell_angle_beta   90.00000000
_cell_angle_gamma   120.00000209
_symmetry_Int_Tables_number   1
_chemical_formula_structural   Lu10Ag3Pt
_chemical_formula_sum   'Lu20 Ag6 Pt2'
_cell_volume   713.64528549
_cell_formula_units_Z   2
loop_
 _symmetry_equiv_pos_site_id
 _symmetry_equiv_pos_as_xyz
  1  'x, y, z'
loop_
 _atom_site_type_symbol
 _atom_site_label
 _atom_site_symmetry_multiplicity
 _atom_site_fract_x
 _atom_site_fract_y
 _atom_site_fract_z
 _atom_site_occupancy
  Lu  Lu0  1  0.000000  0.000000  0.500000  1
  Lu  Lu1  1  0.000000  0.000000  0.000000  1
  Lu  Lu2  1  0.542827  0.457173  0.250000  1
  Lu  Lu3  1  0.542827  0.085655  0.250000  1
  Lu  Lu4  1  0.914345  0.457173  0.250000  1
  Lu  Lu5  1  0.457173  0.542827  0.750000  1
  Lu  Lu6  1  0.457173  0.914345  0.750000  1
  Lu  Lu7  1  0.085655  0.542827  0.750000  1
  Lu  Lu8  1  0.207410  0.792590  0.445571  1
  Lu  Lu9  1  0.207410  0.414820  0.445571  1
  Lu  Lu10  1  0.585180  0.792590  0.445571  1
  Lu  Lu11  1  0.792590  0.207410  0.554429  1
  Lu  Lu12  1  0.792590  0.585180  0.554429  1
  Lu  Lu13  1  0.414820  0.207410  0.554429  1
  Lu  Lu14  1  0.792590  0.207410  0.945571  1
  Lu  Lu15  1  0.792590  0.585180  0.945571  1
  Lu  Lu16  1  0.414820  0.207410  0.945571  1
  Lu  Lu17  1  0.207410  0.792590  0.054429  1
  Lu  Lu18  1  0.207410  0.414820  0.054429  1
  Lu  Lu19  1  0.585180  0.792590  0.054429  1
  Ag  Ag20  1  0.883375  0.116625  0.250000  1
  Ag  Ag21  1  0.883375  0.766749  0.250000  1
  Ag  Ag22  1  0.233251  0.116625  0.250000  1
  Ag  Ag23  1  0.116625  0.883375  0.750000  1
  Ag  Ag24  1  0.116625  0.233251  0.750000  1
  Ag  Ag25  1  0.766749  0.883375  0.750000  1
  Pt  Pt26  1  0.333333  0.666667  0.250000  1
  Pt  Pt27  1  0.666667  0.333333  0.750000  1
