# generated using pymatgen
data_Ba4NdOsO8
_symmetry_space_group_name_H-M   'P 1'
_cell_length_a   7.46750247
_cell_length_b   7.46750181
_cell_length_c   6.09112300
_cell_angle_alpha   90.00000000
_cell_angle_beta   90.00000000
_cell_angle_gamma   132.15957116
_symmetry_Int_Tables_number   1
_chemical_formula_structural   Ba4NdOsO8
_chemical_formula_sum   'Ba4 Nd1 Os1 O8'
_cell_volume   251.78474855
_cell_formula_units_Z   1
loop_
 _symmetry_equiv_pos_site_id
 _symmetry_equiv_pos_as_xyz
  1  'x, y, z'
loop_
 _atom_site_type_symbol
 _atom_site_label
 _atom_site_symmetry_multiplicity
 _atom_site_fract_x
 _atom_site_fract_y
 _atom_site_fract_z
 _atom_site_occupancy
  Ba  Ba0  1  0.355415  0.644585  0.000000  1
  Ba  Ba1  1  0.852218  0.147782  0.500000  1
  Ba  Ba2  1  0.147782  0.852218  0.500000  1
  Ba  Ba3  1  0.644585  0.355415  0.000000  1
  Nd  Nd4  1  0.000000  0.000000  0.000000  1
  Os  Os5  1  0.500000  0.500000  0.500000  1
  O  O6  1  0.266217  0.266217  0.726850  1
  O  O7  1  0.733783  0.733783  0.273150  1
  O  O8  1  0.733783  0.733783  0.726850  1
  O  O9  1  0.266217  0.266217  0.273150  1
  O  O10  1  0.171213  0.828787  0.000000  1
  O  O11  1  0.649284  0.350716  0.500000  1
  O  O12  1  0.350716  0.649284  0.500000  1
  O  O13  1  0.828787  0.171213  0.000000  1
