# generated using pymatgen
data_Dy2Ho4CoNi
_symmetry_space_group_name_H-M   'P 1'
_cell_length_a   6.22843700
_cell_length_b   6.87365300
_cell_length_c   9.45617600
_cell_angle_alpha   90.00000000
_cell_angle_beta   90.00000000
_cell_angle_gamma   90.00000000
_symmetry_Int_Tables_number   1
_chemical_formula_structural   Dy2Ho4CoNi
_chemical_formula_sum   'Dy4 Ho8 Co2 Ni2'
_cell_volume   404.83889126
_cell_formula_units_Z   2
loop_
 _symmetry_equiv_pos_site_id
 _symmetry_equiv_pos_as_xyz
  1  'x, y, z'
loop_
 _atom_site_type_symbol
 _atom_site_label
 _atom_site_symmetry_multiplicity
 _atom_site_fract_x
 _atom_site_fract_y
 _atom_site_fract_z
 _atom_site_occupancy
  Dy  Dy0  1  0.364285  0.540803  0.250000  1
  Dy  Dy1  1  0.142278  0.035740  0.250000  1
  Dy  Dy2  1  0.864285  0.959197  0.750000  1
  Dy  Dy3  1  0.642278  0.464260  0.750000  1
  Ho  Ho4  1  0.674513  0.175593  0.067869  1
  Ho  Ho5  1  0.822175  0.679665  0.434070  1
  Ho  Ho6  1  0.322175  0.820335  0.934070  1
  Ho  Ho7  1  0.174513  0.324407  0.567869  1
  Ho  Ho8  1  0.674513  0.175593  0.432131  1
  Ho  Ho9  1  0.174513  0.324407  0.932131  1
  Ho  Ho10  1  0.322175  0.820335  0.565930  1
  Ho  Ho11  1  0.822175  0.679665  0.065930  1
  Co  Co12  1  0.551676  0.888443  0.250000  1
  Co  Co13  1  0.051676  0.611557  0.750000  1
  Ni  Ni14  1  0.948384  0.389260  0.250000  1
  Ni  Ni15  1  0.448384  0.110740  0.750000  1
