# generated using pymatgen
data_TbDy3Y(CoB3)2
_symmetry_space_group_name_H-M   'P 1'
_cell_length_a   5.40705463
_cell_length_b   5.40705338
_cell_length_c   8.41267320
_cell_angle_alpha   71.25459387
_cell_angle_beta   71.25459730
_cell_angle_gamma   59.99999878
_symmetry_Int_Tables_number   1
_chemical_formula_structural   TbDy3Y(CoB3)2
_chemical_formula_sum   'Tb1 Dy3 Y1 Co2 B6'
_cell_volume   197.79504989
_cell_formula_units_Z   1
loop_
 _symmetry_equiv_pos_site_id
 _symmetry_equiv_pos_as_xyz
  1  'x, y, z'
loop_
 _atom_site_type_symbol
 _atom_site_label
 _atom_site_symmetry_multiplicity
 _atom_site_fract_x
 _atom_site_fract_y
 _atom_site_fract_z
 _atom_site_occupancy
  Tb  Tb0  1  0.251345  0.251345  0.245965  1
  Dy  Dy1  1  0.749017  0.749017  0.752949  1
  Dy  Dy2  1  0.416888  0.416888  0.749333  1
  Dy  Dy3  1  0.583054  0.583054  0.250841  1
  Y  Y4  1  0.000235  0.000235  0.999295  1
  Co  Co5  1  0.119904  0.119904  0.640287  1
  Co  Co6  1  0.880094  0.880094  0.359718  1
  B  B7  1  0.168060  0.831581  0.500269  1
  B  B8  1  0.831581  0.500090  0.500269  1
  B  B9  1  0.500090  0.168060  0.500269  1
  B  B10  1  0.168060  0.500090  0.500269  1
  B  B11  1  0.500090  0.831581  0.500269  1
  B  B12  1  0.831581  0.168060  0.500269  1
