# generated using pymatgen
data_Dy8FeSi16Tc11
_symmetry_space_group_name_H-M   'P 1'
_cell_length_a   6.77659272
_cell_length_b   6.79608008
_cell_length_c   12.69177296
_cell_angle_alpha   89.83802429
_cell_angle_beta   89.89136615
_cell_angle_gamma   89.82651790
_symmetry_Int_Tables_number   1
_chemical_formula_structural   Dy8FeSi16Tc11
_chemical_formula_sum   'Dy8 Fe1 Si16 Tc11'
_cell_volume   584.50424182
_cell_formula_units_Z   1
loop_
 _symmetry_equiv_pos_site_id
 _symmetry_equiv_pos_as_xyz
  1  'x, y, z'
loop_
 _atom_site_type_symbol
 _atom_site_label
 _atom_site_symmetry_multiplicity
 _atom_site_fract_x
 _atom_site_fract_y
 _atom_site_fract_z
 _atom_site_occupancy
  Dy  Dy0  1  0.008227  0.661146  0.028768  1
  Dy  Dy1  1  0.991564  0.339680  0.532863  1
  Dy  Dy2  1  0.663610  0.002998  0.970103  1
  Dy  Dy3  1  0.164713  0.497343  0.778687  1
  Dy  Dy4  1  0.836532  0.506444  0.279565  1
  Dy  Dy5  1  0.497427  0.164784  0.218336  1
  Dy  Dy6  1  0.504085  0.839219  0.719989  1
  Dy  Dy7  1  0.333967  0.996174  0.469179  1
  Fe  Fe8  1  0.694915  0.530934  0.879157  1
  Si  Si9  1  0.017816  0.725110  0.438159  1
  Si  Si10  1  0.979173  0.276602  0.933670  1
  Si  Si11  1  0.723803  0.019340  0.562096  1
  Si  Si12  1  0.224294  0.478576  0.187231  1
  Si  Si13  1  0.762263  0.514508  0.694377  1
  Si  Si14  1  0.486969  0.237377  0.814065  1
  Si  Si15  1  0.520096  0.776611  0.313819  1
  Si  Si16  1  0.278179  0.974440  0.063799  1
  Si  Si17  1  0.808958  0.887398  0.186239  1
  Si  Si18  1  0.304535  0.615894  0.563867  1
  Si  Si19  1  0.692576  0.390270  0.057177  1
  Si  Si20  1  0.614690  0.305961  0.435880  1
  Si  Si21  1  0.398233  0.686341  0.935305  1
  Si  Si22  1  0.112684  0.192852  0.311608  1
  Si  Si23  1  0.191353  0.111729  0.689021  1
  Si  Si24  1  0.882586  0.801237  0.814932  1
  Tc  Tc25  1  0.315957  0.478515  0.378980  1
  Tc  Tc26  1  0.814685  0.017672  0.371739  1
  Tc  Tc27  1  0.986214  0.183124  0.124143  1
  Tc  Tc28  1  0.012444  0.815284  0.630825  1
  Tc  Tc29  1  0.475341  0.314234  0.620353  1
  Tc  Tc30  1  0.182069  0.973681  0.874082  1
  Tc  Tc31  1  0.662413  0.665457  0.500075  1
  Tc  Tc32  1  0.835184  0.166195  0.753617  1
  Tc  Tc33  1  0.164460  0.835662  0.250189  1
  Tc  Tc34  1  0.338749  0.334104  0.994713  1
  Tc  Tc35  1  0.519234  0.683108  0.123390  1
