# generated using pymatgen
data_K2Pr(IO3)5
_symmetry_space_group_name_H-M   'P 1'
_cell_length_a   8.39071171
_cell_length_b   8.39204100
_cell_length_c   12.46597800
_cell_angle_alpha   90.00000000
_cell_angle_beta   109.66648649
_cell_angle_gamma   90.00000000
_symmetry_Int_Tables_number   1
_chemical_formula_structural   K2Pr(IO3)5
_chemical_formula_sum   'K4 Pr2 I10 O30'
_cell_volume   826.59040751
_cell_formula_units_Z   2
loop_
 _symmetry_equiv_pos_site_id
 _symmetry_equiv_pos_as_xyz
  1  'x, y, z'
loop_
 _atom_site_type_symbol
 _atom_site_label
 _atom_site_symmetry_multiplicity
 _atom_site_fract_x
 _atom_site_fract_y
 _atom_site_fract_z
 _atom_site_occupancy
  K  K0  1  0.746164  0.000000  0.000000  1
  K  K1  1  0.246164  0.000000  0.000000  1
  K  K2  1  0.484124  0.510254  0.500000  1
  K  K3  1  0.984124  0.489745  0.500000  1
  Pr  Pr4  1  0.805928  0.500000  0.000000  1
  Pr  Pr5  1  0.305927  0.500000  0.000000  1
  I  I6  1  0.874280  0.264811  0.789610  1
  I  I7  1  0.084670  0.735189  0.210390  1
  I  I8  1  0.374280  0.735189  0.789610  1
  I  I9  1  0.584670  0.264811  0.210390  1
  I  I10  1  0.827427  0.754264  0.726948  1
  I  I11  1  0.100478  0.245736  0.273052  1
  I  I12  1  0.327427  0.245736  0.726948  1
  I  I13  1  0.600478  0.754264  0.273052  1
  I  I14  1  0.524309  0.052737  0.500000  1
  I  I15  1  0.024309  0.947263  0.500000  1
  O  O16  1  0.924022  0.063392  0.844667  1
  O  O17  1  0.079355  0.936608  0.155333  1
  O  O18  1  0.424022  0.936608  0.844667  1
  O  O19  1  0.579355  0.063392  0.155333  1
  O  O20  1  0.018971  0.380335  0.914119  1
  O  O21  1  0.104852  0.619665  0.085881  1
  O  O22  1  0.518971  0.619665  0.914119  1
  O  O23  1  0.604852  0.380335  0.085881  1
  O  O24  1  0.695590  0.304334  0.842217  1
  O  O25  1  0.853372  0.695666  0.157783  1
  O  O26  1  0.195590  0.695666  0.842217  1
  O  O27  1  0.353372  0.304334  0.157783  1
  O  O28  1  0.831191  0.711621  0.872182  1
  O  O29  1  0.959009  0.288379  0.127818  1
  O  O30  1  0.331191  0.288379  0.872182  1
  O  O31  1  0.459009  0.711621  0.127818  1
  O  O32  1  0.823397  0.553670  0.668083  1
  O  O33  1  0.155314  0.446330  0.331917  1
  O  O34  1  0.323397  0.446330  0.668083  1
  O  O35  1  0.655314  0.553670  0.331917  1
  O  O36  1  0.600947  0.801397  0.663072  1
  O  O37  1  0.937876  0.198603  0.336928  1
  O  O38  1  0.100947  0.198603  0.663072  1
  O  O39  1  0.437876  0.801397  0.336928  1
  O  O40  1  0.637292  0.189041  0.616217  1
  O  O41  1  0.021074  0.810959  0.383783  1
  O  O42  1  0.137292  0.810959  0.616217  1
  O  O43  1  0.521074  0.189041  0.383783  1
  O  O44  1  0.308168  0.098401  0.500000  1
  O  O45  1  0.808168  0.901599  0.500000  1
