# generated using pymatgen
data_Tb4Sm2NiI10
_symmetry_space_group_name_H-M   'P 1'
_cell_length_a   7.74778104
_cell_length_b   9.73751576
_cell_length_c   9.80274474
_cell_angle_alpha   107.27225248
_cell_angle_beta   96.86974288
_cell_angle_gamma   104.93026281
_symmetry_Int_Tables_number   1
_chemical_formula_structural   Tb4Sm2NiI10
_chemical_formula_sum   'Tb4 Sm2 Ni1 I10'
_cell_volume   666.77595939
_cell_formula_units_Z   1
loop_
 _symmetry_equiv_pos_site_id
 _symmetry_equiv_pos_as_xyz
  1  'x, y, z'
loop_
 _atom_site_type_symbol
 _atom_site_label
 _atom_site_symmetry_multiplicity
 _atom_site_fract_x
 _atom_site_fract_y
 _atom_site_fract_z
 _atom_site_occupancy
  Tb  Tb0  1  0.029777  0.719313  0.915544  1
  Tb  Tb1  1  0.970223  0.280687  0.084456  1
  Tb  Tb2  1  0.658107  0.877958  0.838339  1
  Tb  Tb3  1  0.341893  0.122042  0.161661  1
  Sm  Sm4  1  0.885275  0.958947  0.238949  1
  Sm  Sm5  1  0.114725  0.041053  0.761051  1
  Ni  Ni6  1  0.000000  0.000000  0.000000  1
  I  I7  1  0.647041  0.548629  0.728097  1
  I  I8  1  0.352959  0.451371  0.271903  1
  I  I9  1  0.734666  0.910250  0.538508  1
  I  I10  1  0.265334  0.089750  0.461492  1
  I  I11  1  0.084193  0.375158  0.821468  1
  I  I12  1  0.915807  0.624842  0.178532  1
  I  I13  1  0.450342  0.814739  0.090751  1
  I  I14  1  0.549658  0.185261  0.909249  1
  I  I15  1  0.224074  0.739085  0.654944  1
  I  I16  1  0.775926  0.260915  0.345056  1
