# generated using pymatgen
data_LaPr2Hg3PdRh2
_symmetry_space_group_name_H-M   'P 1'
_cell_length_a   7.71371358
_cell_length_b   7.71371281
_cell_length_c   4.06413000
_cell_angle_alpha   90.00000000
_cell_angle_beta   90.00000000
_cell_angle_gamma   119.24240170
_symmetry_Int_Tables_number   1
_chemical_formula_structural   LaPr2Hg3PdRh2
_chemical_formula_sum   'La1 Pr2 Hg3 Pd1 Rh2'
_cell_volume   211.00379349
_cell_formula_units_Z   1
loop_
 _symmetry_equiv_pos_site_id
 _symmetry_equiv_pos_as_xyz
  1  'x, y, z'
loop_
 _atom_site_type_symbol
 _atom_site_label
 _atom_site_symmetry_multiplicity
 _atom_site_fract_x
 _atom_site_fract_y
 _atom_site_fract_z
 _atom_site_occupancy
  La  La0  1  0.409312  0.409312  0.500000  1
  Pr  Pr1  1  0.593639  0.001144  0.500000  1
  Pr  Pr2  1  0.001144  0.593639  0.500000  1
  Hg  Hg3  1  0.744967  0.744967  0.000000  1
  Hg  Hg4  1  0.258472  0.997676  0.000000  1
  Hg  Hg5  1  0.997676  0.258472  0.000000  1
  Pd  Pd6  1  0.000438  0.000438  0.500000  1
  Rh  Rh7  1  0.660911  0.333442  0.000000  1
  Rh  Rh8  1  0.333442  0.660911  0.000000  1
