# generated using pymatgen
data_Ta12Cr7Ir5N4
_symmetry_space_group_name_H-M   'P 1'
_cell_length_a   8.16969194
_cell_length_b   8.22708207
_cell_length_c   8.22708200
_cell_angle_alpha   60.00000030
_cell_angle_beta   59.76734973
_cell_angle_gamma   59.76734445
_symmetry_Int_Tables_number   1
_chemical_formula_structural   Ta12Cr7Ir5N4
_chemical_formula_sum   'Ta12 Cr7 Ir5 N4'
_cell_volume   389.62439221
_cell_formula_units_Z   1
loop_
 _symmetry_equiv_pos_site_id
 _symmetry_equiv_pos_as_xyz
  1  'x, y, z'
loop_
 _atom_site_type_symbol
 _atom_site_label
 _atom_site_symmetry_multiplicity
 _atom_site_fract_x
 _atom_site_fract_y
 _atom_site_fract_z
 _atom_site_occupancy
  Ta  Ta0  1  0.808074  0.809012  0.191457  1
  Ta  Ta1  1  0.188471  0.197394  0.807068  1
  Ta  Ta2  1  0.808074  0.191457  0.809012  1
  Ta  Ta3  1  0.188471  0.807068  0.197394  1
  Ta  Ta4  1  0.188471  0.807068  0.807068  1
  Ta  Ta5  1  0.808074  0.191457  0.191457  1
  Ta  Ta6  1  0.444633  0.443275  0.056046  1
  Ta  Ta7  1  0.053309  0.055564  0.445563  1
  Ta  Ta8  1  0.444633  0.056046  0.443275  1
  Ta  Ta9  1  0.053309  0.445563  0.055564  1
  Ta  Ta10  1  0.053309  0.445563  0.445563  1
  Ta  Ta11  1  0.444633  0.056046  0.056046  1
  Cr  Cr12  1  0.096805  0.634398  0.634398  1
  Cr  Cr13  1  0.638965  0.113239  0.623898  1
  Cr  Cr14  1  0.638965  0.623898  0.113239  1
  Cr  Cr15  1  0.638965  0.623898  0.623898  1
  Cr  Cr16  1  0.834797  0.507172  0.829016  1
  Cr  Cr17  1  0.834797  0.829016  0.507172  1
  Cr  Cr18  1  0.834797  0.829016  0.829016  1
  Ir  Ir19  1  0.747564  0.417479  0.417479  1
  Ir  Ir20  1  0.415826  0.749429  0.417373  1
  Ir  Ir21  1  0.415826  0.417373  0.749429  1
  Ir  Ir22  1  0.415826  0.417373  0.417373  1
  Ir  Ir23  1  0.501704  0.832766  0.832766  1
  N  N24  1  0.625673  0.124776  0.124776  1
  N  N25  1  0.125344  0.627116  0.123771  1
  N  N26  1  0.125344  0.123771  0.627116  1
  N  N27  1  0.125344  0.123771  0.123771  1
