# generated using pymatgen
data_RbNaRuF6
_symmetry_space_group_name_H-M   'P 1'
_cell_length_a   6.31246600
_cell_length_b   8.35376200
_cell_length_c   11.81318500
_cell_angle_alpha   90.00000000
_cell_angle_beta   90.00000000
_cell_angle_gamma   90.00000000
_symmetry_Int_Tables_number   1
_chemical_formula_structural   RbNaRuF6
_chemical_formula_sum   'Rb4 Na4 Ru4 F24'
_cell_volume   622.94277792
_cell_formula_units_Z   4
loop_
 _symmetry_equiv_pos_site_id
 _symmetry_equiv_pos_as_xyz
  1  'x, y, z'
loop_
 _atom_site_type_symbol
 _atom_site_label
 _atom_site_symmetry_multiplicity
 _atom_site_fract_x
 _atom_site_fract_y
 _atom_site_fract_z
 _atom_site_occupancy
  Rb  Rb0  1  0.033011  0.752710  0.456382  1
  Rb  Rb1  1  0.533011  0.252710  0.043618  1
  Rb  Rb2  1  0.466989  0.752710  0.956382  1
  Rb  Rb3  1  0.966989  0.252710  0.543618  1
  Na  Na4  1  0.445757  0.501714  0.648416  1
  Na  Na5  1  0.554243  0.001714  0.351584  1
  Na  Na6  1  0.945757  0.001714  0.851584  1
  Na  Na7  1  0.054243  0.501714  0.148416  1
  Ru  Ru8  1  0.452949  0.001258  0.636849  1
  Ru  Ru9  1  0.047051  0.001258  0.136849  1
  Ru  Ru10  1  0.547051  0.501258  0.363151  1
  Ru  Ru11  1  0.952949  0.501258  0.863151  1
  F  F12  1  0.626540  0.279729  0.368500  1
  F  F13  1  0.188064  0.051822  0.717309  1
  F  F14  1  0.788301  0.959489  0.045527  1
  F  F15  1  0.471457  0.723829  0.358855  1
  F  F16  1  0.373460  0.779729  0.631500  1
  F  F17  1  0.528543  0.223829  0.641145  1
  F  F18  1  0.107665  0.466932  0.719285  1
  F  F19  1  0.288301  0.459489  0.454473  1
  F  F20  1  0.700580  0.532619  0.507824  1
  F  F21  1  0.688064  0.551822  0.782691  1
  F  F22  1  0.392335  0.466932  0.219285  1
  F  F23  1  0.892335  0.966932  0.280715  1
  F  F24  1  0.211699  0.459489  0.954473  1
  F  F25  1  0.711699  0.959489  0.545527  1
  F  F26  1  0.200580  0.032619  0.992176  1
  F  F27  1  0.971457  0.223829  0.141145  1
  F  F28  1  0.799420  0.532619  0.007824  1
  F  F29  1  0.811936  0.551822  0.282691  1
  F  F30  1  0.028543  0.723829  0.858855  1
  F  F31  1  0.311936  0.051822  0.217309  1
  F  F32  1  0.299420  0.032619  0.492176  1
  F  F33  1  0.873460  0.279729  0.868500  1
  F  F34  1  0.607665  0.966932  0.780715  1
  F  F35  1  0.126540  0.779729  0.131500  1
