# generated using pymatgen
data_DyIrBr18
_symmetry_space_group_name_H-M   'P 1'
_cell_length_a   9.29115410
_cell_length_b   9.28654197
_cell_length_c   9.29139563
_cell_angle_alpha   86.85486882
_cell_angle_beta   86.79562966
_cell_angle_gamma   86.81283388
_symmetry_Int_Tables_number   1
_chemical_formula_structural   DyIrBr18
_chemical_formula_sum   'Dy1 Ir1 Br18'
_cell_volume   798.11725092
_cell_formula_units_Z   1
loop_
 _symmetry_equiv_pos_site_id
 _symmetry_equiv_pos_as_xyz
  1  'x, y, z'
loop_
 _atom_site_type_symbol
 _atom_site_label
 _atom_site_symmetry_multiplicity
 _atom_site_fract_x
 _atom_site_fract_y
 _atom_site_fract_z
 _atom_site_occupancy
  Dy  Dy0  1  0.000000  0.000000  0.000000  1
  Ir  Ir1  1  0.500000  0.500000  0.500000  1
  Br  Br2  1  0.768798  0.470394  0.506430  1
  Br  Br3  1  0.507165  0.768837  0.470245  1
  Br  Br4  1  0.471398  0.507112  0.769005  1
  Br  Br5  1  0.231202  0.529606  0.493570  1
  Br  Br6  1  0.492835  0.231163  0.529755  1
  Br  Br7  1  0.528602  0.492888  0.230995  1
  Br  Br8  1  0.880242  0.382966  0.744279  1
  Br  Br9  1  0.744982  0.880315  0.383263  1
  Br  Br10  1  0.383721  0.744865  0.880409  1
  Br  Br11  1  0.119758  0.617034  0.255721  1
  Br  Br12  1  0.255018  0.119685  0.616737  1
  Br  Br13  1  0.616279  0.255135  0.119591  1
  Br  Br14  1  0.032144  0.972732  0.698794  1
  Br  Br15  1  0.698997  0.031997  0.973092  1
  Br  Br16  1  0.973332  0.698952  0.032445  1
  Br  Br17  1  0.967856  0.027268  0.301206  1
  Br  Br18  1  0.301003  0.968003  0.026908  1
  Br  Br19  1  0.026668  0.301048  0.967555  1
