# generated using pymatgen
data_Li2LaSnSb
_symmetry_space_group_name_H-M   'P 1'
_cell_length_a   4.48167800
_cell_length_b   4.48167800
_cell_length_c   11.71356300
_cell_angle_alpha   90.00000000
_cell_angle_beta   90.00000000
_cell_angle_gamma   90.00000000
_symmetry_Int_Tables_number   1
_chemical_formula_structural   Li2LaSnSb
_chemical_formula_sum   'Li4 La2 Sn2 Sb2'
_cell_volume   235.27203983
_cell_formula_units_Z   2
loop_
 _symmetry_equiv_pos_site_id
 _symmetry_equiv_pos_as_xyz
  1  'x, y, z'
loop_
 _atom_site_type_symbol
 _atom_site_label
 _atom_site_symmetry_multiplicity
 _atom_site_fract_x
 _atom_site_fract_y
 _atom_site_fract_z
 _atom_site_occupancy
  Li  Li0  1  0.000000  0.500000  0.366556  1
  Li  Li1  1  0.500000  0.000000  0.633444  1
  Li  Li2  1  0.000000  0.000000  0.000000  1
  Li  Li3  1  0.500000  0.500000  0.000000  1
  La  La4  1  0.000000  0.500000  0.738593  1
  La  La5  1  0.500000  0.000000  0.261407  1
  Sn  Sn6  1  0.000000  0.000000  0.500000  1
  Sn  Sn7  1  0.500000  0.500000  0.500000  1
  Sb  Sb8  1  0.500000  0.000000  0.852730  1
  Sb  Sb9  1  0.000000  0.500000  0.147270  1
