# generated using pymatgen
data_Er(ZrSe2)4
_symmetry_space_group_name_H-M   'P 1'
_cell_length_a   8.01033581
_cell_length_b   8.01033524
_cell_length_c   8.01033523
_cell_angle_alpha   56.35418502
_cell_angle_beta   56.35419262
_cell_angle_gamma   56.35418373
_symmetry_Int_Tables_number   1
_chemical_formula_structural   Er(ZrSe2)4
_chemical_formula_sum   'Er1 Zr4 Se8'
_cell_volume   332.79609697
_cell_formula_units_Z   1
loop_
 _symmetry_equiv_pos_site_id
 _symmetry_equiv_pos_as_xyz
  1  'x, y, z'
loop_
 _atom_site_type_symbol
 _atom_site_label
 _atom_site_symmetry_multiplicity
 _atom_site_fract_x
 _atom_site_fract_y
 _atom_site_fract_z
 _atom_site_occupancy
  Er  Er0  1  0.500000  0.500000  0.500000  1
  Zr  Zr1  1  0.000000  0.500000  0.500000  1
  Zr  Zr2  1  0.500000  0.000000  0.500000  1
  Zr  Zr3  1  0.500000  0.500000  0.000000  1
  Zr  Zr4  1  0.000000  0.000000  0.000000  1
  Se  Se5  1  0.243418  0.754309  0.754309  1
  Se  Se6  1  0.245691  0.245691  0.756582  1
  Se  Se7  1  0.756582  0.245691  0.245691  1
  Se  Se8  1  0.245691  0.756582  0.245691  1
  Se  Se9  1  0.254295  0.254295  0.254295  1
  Se  Se10  1  0.745705  0.745705  0.745705  1
  Se  Se11  1  0.754309  0.243418  0.754309  1
  Se  Se12  1  0.754309  0.754309  0.243418  1
