# generated using pymatgen
data_Pr4CdPb11
_symmetry_space_group_name_H-M   'P 1'
_cell_length_a   9.85769600
_cell_length_b   6.95629656
_cell_length_c   6.99716873
_cell_angle_alpha   89.78189098
_cell_angle_beta   90.00000000
_cell_angle_gamma   90.00000000
_symmetry_Int_Tables_number   1
_chemical_formula_structural   Pr4CdPb11
_chemical_formula_sum   'Pr4 Cd1 Pb11'
_cell_volume   479.81377189
_cell_formula_units_Z   1
loop_
 _symmetry_equiv_pos_site_id
 _symmetry_equiv_pos_as_xyz
  1  'x, y, z'
loop_
 _atom_site_type_symbol
 _atom_site_label
 _atom_site_symmetry_multiplicity
 _atom_site_fract_x
 _atom_site_fract_y
 _atom_site_fract_z
 _atom_site_occupancy
  Pr  Pr0  1  0.250000  0.004370  0.000653  1
  Pr  Pr1  1  0.250000  0.498363  0.502679  1
  Pr  Pr2  1  0.750000  0.998178  0.999208  1
  Pr  Pr3  1  0.750000  0.501245  0.498897  1
  Cd  Cd4  1  0.750000  0.496611  0.998383  1
  Pb  Pb5  1  0.995517  0.250174  0.750342  1
  Pb  Pb6  1  0.505840  0.254707  0.245195  1
  Pb  Pb7  1  0.503210  0.748813  0.248483  1
  Pb  Pb8  1  0.994833  0.745173  0.755054  1
  Pb  Pb9  1  0.996790  0.748813  0.248483  1
  Pb  Pb10  1  0.505167  0.745173  0.755054  1
  Pb  Pb11  1  0.504483  0.250174  0.750342  1
  Pb  Pb12  1  0.994160  0.254707  0.245195  1
  Pb  Pb13  1  0.250000  0.998629  0.500469  1
  Pb  Pb14  1  0.250000  0.503494  0.002297  1
  Pb  Pb15  1  0.750000  0.001375  0.499267  1
