# generated using pymatgen
data_Nb2Fe2SiP
_symmetry_space_group_name_H-M   'P 1'
_cell_length_a   3.65501400
_cell_length_b   6.21008712
_cell_length_c   6.99810113
_cell_angle_alpha   90.02235584
_cell_angle_beta   90.00000000
_cell_angle_gamma   90.00000000
_symmetry_Int_Tables_number   1
_chemical_formula_structural   Nb2Fe2SiP
_chemical_formula_sum   'Nb4 Fe4 Si2 P2'
_cell_volume   158.84257502
_cell_formula_units_Z   2
loop_
 _symmetry_equiv_pos_site_id
 _symmetry_equiv_pos_as_xyz
  1  'x, y, z'
loop_
 _atom_site_type_symbol
 _atom_site_label
 _atom_site_symmetry_multiplicity
 _atom_site_fract_x
 _atom_site_fract_y
 _atom_site_fract_z
 _atom_site_occupancy
  Nb  Nb0  1  0.250000  0.520863  0.181231  1
  Nb  Nb1  1  0.750000  0.479137  0.818769  1
  Nb  Nb2  1  0.750000  0.982178  0.678805  1
  Nb  Nb3  1  0.250000  0.017822  0.321195  1
  Fe  Fe4  1  0.250000  0.642576  0.556977  1
  Fe  Fe5  1  0.750000  0.357424  0.443023  1
  Fe  Fe6  1  0.750000  0.853283  0.069021  1
  Fe  Fe7  1  0.250000  0.146717  0.930979  1
  Si  Si8  1  0.250000  0.778507  0.881454  1
  Si  Si9  1  0.750000  0.221493  0.118546  1
  P  P10  1  0.750000  0.720345  0.384116  1
  P  P11  1  0.250000  0.279655  0.615884  1
