# generated using pymatgen
data_Dy4Sc16Bi11Pb
_symmetry_space_group_name_H-M   'P 1'
_cell_length_a   7.88469110
_cell_length_b   9.06458330
_cell_length_c   11.56210139
_cell_angle_alpha   90.02650998
_cell_angle_beta   89.98633976
_cell_angle_gamma   89.98759412
_symmetry_Int_Tables_number   1
_chemical_formula_structural   Dy4Sc16Bi11Pb
_chemical_formula_sum   'Dy4 Sc16 Bi11 Pb1'
_cell_volume   826.35989597
_cell_formula_units_Z   1
loop_
 _symmetry_equiv_pos_site_id
 _symmetry_equiv_pos_as_xyz
  1  'x, y, z'
loop_
 _atom_site_type_symbol
 _atom_site_label
 _atom_site_symmetry_multiplicity
 _atom_site_fract_x
 _atom_site_fract_y
 _atom_site_fract_z
 _atom_site_occupancy
  Dy  Dy0  1  0.316005  0.249729  0.219382  1
  Dy  Dy1  1  0.813896  0.248757  0.281287  1
  Dy  Dy2  1  0.684748  0.749998  0.781090  1
  Dy  Dy3  1  0.184706  0.750186  0.719032  1
  Sc  Sc4  1  0.349666  0.751289  0.221502  1
  Sc  Sc5  1  0.846791  0.751029  0.279403  1
  Sc  Sc6  1  0.651780  0.249984  0.779441  1
  Sc  Sc7  1  0.151799  0.249770  0.720656  1
  Sc  Sc8  1  0.693250  0.566744  0.061884  1
  Sc  Sc9  1  0.194877  0.932810  0.437681  1
  Sc  Sc10  1  0.306640  0.067350  0.937790  1
  Sc  Sc11  1  0.807127  0.433001  0.562267  1
  Sc  Sc12  1  0.306784  0.432657  0.937701  1
  Sc  Sc13  1  0.806008  0.067314  0.561933  1
  Sc  Sc14  1  0.693188  0.932960  0.062973  1
  Sc  Sc15  1  0.193062  0.566892  0.438059  1
  Sc  Sc16  1  0.483155  0.248525  0.488048  1
  Sc  Sc17  1  0.982077  0.250057  0.010801  1
  Sc  Sc18  1  0.517841  0.750696  0.510124  1
  Sc  Sc19  1  0.018113  0.749887  0.989020  1
  Bi  Bi20  1  0.402530  0.749927  0.966976  1
  Bi  Bi21  1  0.902559  0.750109  0.533063  1
  Bi  Bi22  1  0.597614  0.250043  0.033103  1
  Bi  Bi23  1  0.097436  0.250012  0.466729  1
  Bi  Bi24  1  0.063502  0.510056  0.171739  1
  Bi  Bi25  1  0.436338  0.489784  0.671528  1
  Bi  Bi26  1  0.936398  0.010193  0.828261  1
  Bi  Bi27  1  0.436523  0.010179  0.671841  1
  Bi  Bi28  1  0.936257  0.489794  0.828305  1
  Bi  Bi29  1  0.563403  0.509890  0.328504  1
  Bi  Bi30  1  0.063237  0.989974  0.171497  1
  Pb  Pb31  1  0.562688  0.990401  0.328376  1
