# generated using pymatgen
data_Er5Tl2Sb
_symmetry_space_group_name_H-M   'P 1'
_cell_length_a   8.88375367
_cell_length_b   8.84833737
_cell_length_c   6.58766500
_cell_angle_alpha   90.00000000
_cell_angle_beta   90.00000000
_cell_angle_gamma   119.86819585
_symmetry_Int_Tables_number   1
_chemical_formula_structural   Er5Tl2Sb
_chemical_formula_sum   'Er10 Tl4 Sb2'
_cell_volume   449.05092406
_cell_formula_units_Z   2
loop_
 _symmetry_equiv_pos_site_id
 _symmetry_equiv_pos_as_xyz
  1  'x, y, z'
loop_
 _atom_site_type_symbol
 _atom_site_label
 _atom_site_symmetry_multiplicity
 _atom_site_fract_x
 _atom_site_fract_y
 _atom_site_fract_z
 _atom_site_occupancy
  Er  Er0  1  0.003573  0.766042  0.750000  1
  Er  Er1  1  0.003573  0.237530  0.250000  1
  Er  Er2  1  0.764160  0.759029  0.250000  1
  Er  Er3  1  0.764160  0.005131  0.750000  1
  Er  Er4  1  0.233790  0.236213  0.750000  1
  Er  Er5  1  0.233790  0.997577  0.250000  1
  Er  Er6  1  0.329792  0.664897  0.500000  1
  Er  Er7  1  0.664359  0.332179  0.000000  1
  Er  Er8  1  0.664359  0.332179  0.500000  1
  Er  Er9  1  0.329792  0.664897  0.000000  1
  Tl  Tl10  1  0.398916  0.001585  0.750000  1
  Tl  Tl11  1  0.398916  0.397332  0.250000  1
  Tl  Tl12  1  0.998633  0.598103  0.250000  1
  Tl  Tl13  1  0.998633  0.400530  0.750000  1
  Sb  Sb14  1  0.606778  0.608904  0.750000  1
  Sb  Sb15  1  0.606778  0.997874  0.250000  1
