# generated using pymatgen
data_CeDy10Ho5(CdRu)4
_symmetry_space_group_name_H-M   'P 1'
_cell_length_a   9.64732561
_cell_length_b   9.64732595
_cell_length_c   9.64816940
_cell_angle_alpha   59.36123780
_cell_angle_beta   59.36124143
_cell_angle_gamma   59.36984542
_symmetry_Int_Tables_number   1
_chemical_formula_structural   CeDy10Ho5(CdRu)4
_chemical_formula_sum   'Ce1 Dy10 Ho5 Cd4 Ru4'
_cell_volume   625.76605421
_cell_formula_units_Z   1
loop_
 _symmetry_equiv_pos_site_id
 _symmetry_equiv_pos_as_xyz
  1  'x, y, z'
loop_
 _atom_site_type_symbol
 _atom_site_label
 _atom_site_symmetry_multiplicity
 _atom_site_fract_x
 _atom_site_fract_y
 _atom_site_fract_z
 _atom_site_occupancy
  Ce  Ce0  1  0.342484  0.342484  0.342313  1
  Dy  Dy1  1  0.562620  0.562620  0.937572  1
  Dy  Dy2  1  0.938178  0.561484  0.938335  1
  Dy  Dy3  1  0.561484  0.938178  0.938335  1
  Dy  Dy4  1  0.938307  0.938307  0.561362  1
  Dy  Dy5  1  0.562694  0.937521  0.562559  1
  Dy  Dy6  1  0.937521  0.562694  0.562559  1
  Dy  Dy7  1  0.189322  0.189322  0.812415  1
  Dy  Dy8  1  0.811038  0.187868  0.811161  1
  Dy  Dy9  1  0.187867  0.811039  0.811161  1
  Dy  Dy10  1  0.811209  0.811210  0.187814  1
  Ho  Ho11  1  0.189280  0.812292  0.189414  1
  Ho  Ho12  1  0.812292  0.189281  0.189415  1
  Ho  Ho13  1  0.346873  0.346873  0.956702  1
  Ho  Ho14  1  0.346801  0.956511  0.346907  1
  Ho  Ho15  1  0.956511  0.346801  0.346907  1
  Cd  Cd16  1  0.579869  0.579869  0.258021  1
  Cd  Cd17  1  0.579903  0.258080  0.579805  1
  Cd  Cd18  1  0.258080  0.579903  0.579805  1
  Cd  Cd19  1  0.579648  0.579648  0.579639  1
  Ru  Ru20  1  0.146429  0.146429  0.575084  1
  Ru  Ru21  1  0.146488  0.575177  0.146411  1
  Ru  Ru22  1  0.575177  0.146488  0.146411  1
  Ru  Ru23  1  0.139921  0.139921  0.139895  1
