# generated using pymatgen
data_Ba5Na3(In4Pt3)4
_symmetry_space_group_name_H-M   'P 1'
_cell_length_a   14.82953500
_cell_length_b   14.82953435
_cell_length_c   4.63765300
_cell_angle_alpha   90.00000000
_cell_angle_beta   90.00000000
_cell_angle_gamma   120.00000367
_symmetry_Int_Tables_number   1
_chemical_formula_structural   Ba5Na3(In4Pt3)4
_chemical_formula_sum   'Ba5 Na3 In16 Pt12'
_cell_volume   883.25054474
_cell_formula_units_Z   1
loop_
 _symmetry_equiv_pos_site_id
 _symmetry_equiv_pos_as_xyz
  1  'x, y, z'
loop_
 _atom_site_type_symbol
 _atom_site_label
 _atom_site_symmetry_multiplicity
 _atom_site_fract_x
 _atom_site_fract_y
 _atom_site_fract_z
 _atom_site_occupancy
  Ba  Ba0  1  0.333333  0.666667  0.000000  1
  Ba  Ba1  1  0.666667  0.333333  0.000000  1
  Ba  Ba2  1  0.811324  0.000000  0.500000  1
  Ba  Ba3  1  0.000000  0.811324  0.500000  1
  Ba  Ba4  1  0.188676  0.188676  0.500000  1
  Na  Na5  1  0.439821  0.000000  0.000000  1
  Na  Na6  1  0.000000  0.439821  0.000000  1
  Na  Na7  1  0.560179  0.560179  0.000000  1
  In  In8  1  0.182742  0.376526  0.000000  1
  In  In9  1  0.623474  0.806218  0.000000  1
  In  In10  1  0.376526  0.182742  0.000000  1
  In  In11  1  0.193782  0.817258  0.000000  1
  In  In12  1  0.806218  0.623474  0.000000  1
  In  In13  1  0.817258  0.193782  0.000000  1
  In  In14  1  0.280461  0.000000  0.500000  1
  In  In15  1  0.000000  0.280461  0.500000  1
  In  In16  1  0.719539  0.719539  0.500000  1
  In  In17  1  0.365198  0.489035  0.500000  1
  In  In18  1  0.510965  0.876163  0.500000  1
  In  In19  1  0.489035  0.365198  0.500000  1
  In  In20  1  0.123837  0.634802  0.500000  1
  In  In21  1  0.876163  0.510965  0.500000  1
  In  In22  1  0.634802  0.123837  0.500000  1
  In  In23  1  0.000000  0.000000  0.000000  1
  Pt  Pt24  1  0.168557  0.476724  0.500000  1
  Pt  Pt25  1  0.523276  0.691833  0.500000  1
  Pt  Pt26  1  0.476724  0.168557  0.500000  1
  Pt  Pt27  1  0.308167  0.831443  0.500000  1
  Pt  Pt28  1  0.691833  0.523276  0.500000  1
  Pt  Pt29  1  0.831443  0.308167  0.500000  1
  Pt  Pt30  1  0.182690  0.000000  0.000000  1
  Pt  Pt31  1  0.000000  0.182690  0.000000  1
  Pt  Pt32  1  0.817310  0.817310  0.000000  1
  Pt  Pt33  1  0.634855  0.000000  0.000000  1
  Pt  Pt34  1  0.000000  0.634855  0.000000  1
  Pt  Pt35  1  0.365145  0.365145  0.000000  1
