# generated using pymatgen
data_DyTi(NbS2)8
_symmetry_space_group_name_H-M   'P 1'
_cell_length_a   6.71290800
_cell_length_b   6.71290775
_cell_length_c   13.07565900
_cell_angle_alpha   90.00000000
_cell_angle_beta   90.00000000
_cell_angle_gamma   120.00001107
_symmetry_Int_Tables_number   1
_chemical_formula_structural   DyTi(NbS2)8
_chemical_formula_sum   'Dy1 Ti1 Nb8 S16'
_cell_volume   510.28822139
_cell_formula_units_Z   1
loop_
 _symmetry_equiv_pos_site_id
 _symmetry_equiv_pos_as_xyz
  1  'x, y, z'
loop_
 _atom_site_type_symbol
 _atom_site_label
 _atom_site_symmetry_multiplicity
 _atom_site_fract_x
 _atom_site_fract_y
 _atom_site_fract_z
 _atom_site_occupancy
  Dy  Dy0  1  0.000000  0.000000  0.500000  1
  Ti  Ti1  1  0.000000  0.000000  0.000000  1
  Nb  Nb2  1  0.000000  0.000000  0.236349  1
  Nb  Nb3  1  0.000000  0.000000  0.763651  1
  Nb  Nb4  1  0.504815  0.495185  0.235337  1
  Nb  Nb5  1  0.504815  0.009630  0.235337  1
  Nb  Nb6  1  0.990370  0.495185  0.235337  1
  Nb  Nb7  1  0.495185  0.504815  0.764663  1
  Nb  Nb8  1  0.495185  0.990370  0.764663  1
  Nb  Nb9  1  0.009630  0.504815  0.764663  1
  S  S10  1  0.333333  0.666667  0.886032  1
  S  S11  1  0.666667  0.333333  0.113968  1
  S  S12  1  0.666667  0.333333  0.358426  1
  S  S13  1  0.333333  0.666667  0.641574  1
  S  S14  1  0.168812  0.831188  0.356334  1
  S  S15  1  0.168812  0.337624  0.356334  1
  S  S16  1  0.662376  0.831188  0.356334  1
  S  S17  1  0.831188  0.168812  0.643666  1
  S  S18  1  0.831188  0.662376  0.643666  1
  S  S19  1  0.337624  0.168812  0.643666  1
  S  S20  1  0.833284  0.166716  0.885133  1
  S  S21  1  0.833284  0.666569  0.885133  1
  S  S22  1  0.333431  0.166716  0.885133  1
  S  S23  1  0.166716  0.833284  0.114867  1
  S  S24  1  0.166716  0.333431  0.114867  1
  S  S25  1  0.666569  0.833284  0.114867  1
