# generated using pymatgen
data_Er3Zr7(In2Ir)4
_symmetry_space_group_name_H-M   'P 1'
_cell_length_a   3.44593300
_cell_length_b   7.84967404
_cell_length_c   17.75325423
_cell_angle_alpha   89.94617830
_cell_angle_beta   90.00000000
_cell_angle_gamma   90.00000000
_symmetry_Int_Tables_number   1
_chemical_formula_structural   Er3Zr7(In2Ir)4
_chemical_formula_sum   'Er3 Zr7 In8 Ir4'
_cell_volume   480.21556522
_cell_formula_units_Z   1
loop_
 _symmetry_equiv_pos_site_id
 _symmetry_equiv_pos_as_xyz
  1  'x, y, z'
loop_
 _atom_site_type_symbol
 _atom_site_label
 _atom_site_symmetry_multiplicity
 _atom_site_fract_x
 _atom_site_fract_y
 _atom_site_fract_z
 _atom_site_occupancy
  Er  Er0  1  0.000000  0.749390  0.779691  1
  Er  Er1  1  0.000000  0.250980  0.720520  1
  Er  Er2  1  0.000000  0.748974  0.279091  1
  Zr  Zr3  1  0.000000  0.131345  0.417487  1
  Zr  Zr4  1  0.000000  0.871654  0.580575  1
  Zr  Zr5  1  0.000000  0.369910  0.920238  1
  Zr  Zr6  1  0.000000  0.627696  0.082419  1
  Zr  Zr7  1  0.000000  0.249857  0.222260  1
  Zr  Zr8  1  0.000000  0.998764  0.000724  1
  Zr  Zr9  1  0.000000  0.500331  0.498739  1
  In  In10  1  0.500000  0.428508  0.350694  1
  In  In11  1  0.500000  0.570702  0.647277  1
  In  In12  1  0.500000  0.070618  0.852312  1
  In  In13  1  0.500000  0.933164  0.147763  1
  In  In14  1  0.500000  0.293727  0.065632  1
  In  In15  1  0.500000  0.701769  0.937612  1
  In  In16  1  0.500000  0.202533  0.562931  1
  In  In17  1  0.500000  0.800251  0.435362  1
  Ir  Ir18  1  0.500000  0.046932  0.306644  1
  Ir  Ir19  1  0.500000  0.962716  0.689034  1
  Ir  Ir20  1  0.500000  0.462165  0.812011  1
  Ir  Ir21  1  0.500000  0.528013  0.190988  1
