# generated using pymatgen
data_Nd6Ho10Cd4IrPd3
_symmetry_space_group_name_H-M   'P 1'
_cell_length_a   9.76977050
_cell_length_b   9.74012184
_cell_length_c   9.74012300
_cell_angle_alpha   59.99999267
_cell_angle_beta   60.10033024
_cell_angle_gamma   60.10033587
_symmetry_Int_Tables_number   1
_chemical_formula_structural   Nd6Ho10Cd4IrPd3
_chemical_formula_sum   'Nd6 Ho10 Cd4 Ir1 Pd3'
_cell_volume   656.37968483
_cell_formula_units_Z   1
loop_
 _symmetry_equiv_pos_site_id
 _symmetry_equiv_pos_as_xyz
  1  'x, y, z'
loop_
 _atom_site_type_symbol
 _atom_site_label
 _atom_site_symmetry_multiplicity
 _atom_site_fract_x
 _atom_site_fract_y
 _atom_site_fract_z
 _atom_site_occupancy
  Nd  Nd0  1  0.937522  0.563385  0.563385  1
  Nd  Nd1  1  0.565901  0.937137  0.937137  1
  Nd  Nd2  1  0.565901  0.937137  0.559824  1
  Nd  Nd3  1  0.937522  0.563385  0.935707  1
  Nd  Nd4  1  0.565901  0.559824  0.937137  1
  Nd  Nd5  1  0.937522  0.935707  0.563385  1
  Ho  Ho6  1  0.353256  0.346878  0.346878  1
  Ho  Ho7  1  0.353256  0.346878  0.952988  1
  Ho  Ho8  1  0.353256  0.952988  0.346878  1
  Ho  Ho9  1  0.942356  0.352548  0.352548  1
  Ho  Ho10  1  0.808215  0.187222  0.187222  1
  Ho  Ho11  1  0.190708  0.811152  0.811152  1
  Ho  Ho12  1  0.190708  0.811152  0.186987  1
  Ho  Ho13  1  0.808215  0.187222  0.817340  1
  Ho  Ho14  1  0.190708  0.186987  0.811152  1
  Ho  Ho15  1  0.808215  0.817340  0.187222  1
  Cd  Cd16  1  0.578814  0.580649  0.580649  1
  Cd  Cd17  1  0.578814  0.580649  0.259886  1
  Cd  Cd18  1  0.578814  0.259886  0.580649  1
  Cd  Cd19  1  0.261225  0.579591  0.579591  1
  Ir  Ir20  1  0.573430  0.142190  0.142190  1
  Pd  Pd21  1  0.139913  0.143968  0.143968  1
  Pd  Pd22  1  0.139913  0.143968  0.572150  1
  Pd  Pd23  1  0.139913  0.572150  0.143968  1
