# generated using pymatgen
data_Tm4Al18Ni2Ir3Rh
_symmetry_space_group_name_H-M   'P 1'
_cell_length_a   7.50228876
_cell_length_b   7.50227945
_cell_length_c   9.33595411
_cell_angle_alpha   90.00857806
_cell_angle_beta   90.00864597
_cell_angle_gamma   120.00721255
_symmetry_Int_Tables_number   1
_chemical_formula_structural   Tm4Al18Ni2Ir3Rh
_chemical_formula_sum   'Tm4 Al18 Ni2 Ir3 Rh1'
_cell_volume   455.03495966
_cell_formula_units_Z   1
loop_
 _symmetry_equiv_pos_site_id
 _symmetry_equiv_pos_as_xyz
  1  'x, y, z'
loop_
 _atom_site_type_symbol
 _atom_site_label
 _atom_site_symmetry_multiplicity
 _atom_site_fract_x
 _atom_site_fract_y
 _atom_site_fract_z
 _atom_site_occupancy
  Tm  Tm0  1  0.995093  0.666906  0.249660  1
  Tm  Tm1  1  0.006016  0.334389  0.750574  1
  Tm  Tm2  1  0.665607  0.993981  0.249426  1
  Tm  Tm3  1  0.333093  0.004903  0.750339  1
  Al  Al4  1  0.118683  0.118654  0.250017  1
  Al  Al5  1  0.881344  0.881316  0.749983  1
  Al  Al6  1  0.999128  0.330734  0.075370  1
  Al  Al7  1  0.000138  0.669030  0.924707  1
  Al  Al8  1  0.000136  0.668836  0.575110  1
  Al  Al9  1  0.331164  0.999864  0.424890  1
  Al  Al10  1  0.998195  0.330585  0.425018  1
  Al  Al11  1  0.669413  0.001803  0.574981  1
  Al  Al12  1  0.669264  0.000869  0.924630  1
  Al  Al13  1  0.330968  0.999860  0.075292  1
  Al  Al14  1  0.329762  0.329588  0.552227  1
  Al  Al15  1  0.670411  0.670237  0.447772  1
  Al  Al16  1  0.670264  0.670115  0.051959  1
  Al  Al17  1  0.329883  0.329734  0.948040  1
  Al  Al18  1  0.338450  0.545216  0.250170  1
  Al  Al19  1  0.661813  0.453114  0.749152  1
  Al  Al20  1  0.546884  0.338184  0.250850  1
  Al  Al21  1  0.454782  0.661547  0.749830  1
  Ni  Ni22  1  0.999971  0.000032  0.000000  1
  Ni  Ni23  1  0.000042  0.999954  0.499999  1
  Ir  Ir24  1  0.672238  0.327759  0.000000  1
  Ir  Ir25  1  0.327552  0.672446  0.000000  1
  Ir  Ir26  1  0.327569  0.672431  0.499999  1
  Rh  Rh27  1  0.672138  0.327911  0.500006  1
