# generated using pymatgen
data_Ti10Be2Sn5Bi
_symmetry_space_group_name_H-M   'P 1'
_cell_length_a   8.18822603
_cell_length_b   8.18822602
_cell_length_c   5.47688800
_cell_angle_alpha   90.00000000
_cell_angle_beta   90.00000000
_cell_angle_gamma   119.78218851
_symmetry_Int_Tables_number   1
_chemical_formula_structural   Ti10Be2Sn5Bi
_chemical_formula_sum   'Ti10 Be2 Sn5 Bi1'
_cell_volume   318.70813797
_cell_formula_units_Z   1
loop_
 _symmetry_equiv_pos_site_id
 _symmetry_equiv_pos_as_xyz
  1  'x, y, z'
loop_
 _atom_site_type_symbol
 _atom_site_label
 _atom_site_symmetry_multiplicity
 _atom_site_fract_x
 _atom_site_fract_y
 _atom_site_fract_z
 _atom_site_occupancy
  Ti  Ti0  1  0.251852  0.997781  0.750000  1
  Ti  Ti1  1  0.753035  0.005914  0.250000  1
  Ti  Ti2  1  0.997781  0.251852  0.750000  1
  Ti  Ti3  1  0.005914  0.753035  0.250000  1
  Ti  Ti4  1  0.749083  0.749083  0.750000  1
  Ti  Ti5  1  0.247473  0.247473  0.250000  1
  Ti  Ti6  1  0.330660  0.667233  0.502423  1
  Ti  Ti7  1  0.667233  0.330660  0.502423  1
  Ti  Ti8  1  0.667233  0.330660  0.997577  1
  Ti  Ti9  1  0.330660  0.667233  0.997577  1
  Be  Be10  1  0.000979  0.000979  0.504165  1
  Be  Be11  1  0.000979  0.000979  0.995835  1
  Sn  Sn12  1  0.611181  0.998390  0.750000  1
  Sn  Sn13  1  0.390641  0.001100  0.250000  1
  Sn  Sn14  1  0.998390  0.611181  0.750000  1
  Sn  Sn15  1  0.001100  0.390641  0.250000  1
  Sn  Sn16  1  0.383770  0.383770  0.750000  1
  Bi  Bi17  1  0.612037  0.612037  0.250000  1
