# generated using pymatgen
data_Tb2NdSi5PPd20
_symmetry_space_group_name_H-M   'P 1'
_cell_length_a   8.73124177
_cell_length_b   8.73124164
_cell_length_c   8.73098500
_cell_angle_alpha   60.00096855
_cell_angle_beta   60.00096902
_cell_angle_gamma   60.01091413
_symmetry_Int_Tables_number   1
_chemical_formula_structural   Tb2NdSi5PPd20
_chemical_formula_sum   'Tb2 Nd1 Si5 P1 Pd20'
_cell_volume   470.69808980
_cell_formula_units_Z   1
loop_
 _symmetry_equiv_pos_site_id
 _symmetry_equiv_pos_as_xyz
  1  'x, y, z'
loop_
 _atom_site_type_symbol
 _atom_site_label
 _atom_site_symmetry_multiplicity
 _atom_site_fract_x
 _atom_site_fract_y
 _atom_site_fract_z
 _atom_site_occupancy
  Tb  Tb0  1  0.748615  0.748615  0.751385  1
  Tb  Tb1  1  0.000949  0.000949  0.999051  1
  Nd  Nd2  1  0.248777  0.248777  0.251223  1
  Si  Si3  1  0.732663  0.265399  0.267320  1
  Si  Si4  1  0.265399  0.732663  0.734618  1
  Si  Si5  1  0.265399  0.732663  0.267320  1
  Si  Si6  1  0.732663  0.265399  0.734618  1
  Si  Si7  1  0.267511  0.267511  0.732489  1
  P  P8  1  0.735033  0.735033  0.264967  1
  Pd  Pd9  1  0.385240  0.385240  0.385011  1
  Pd  Pd10  1  0.616308  0.616308  0.614924  1
  Pd  Pd11  1  0.385240  0.385240  0.844508  1
  Pd  Pd12  1  0.387032  0.842042  0.385463  1
  Pd  Pd13  1  0.616308  0.616308  0.152459  1
  Pd  Pd14  1  0.616751  0.150075  0.616587  1
  Pd  Pd15  1  0.842042  0.387032  0.385463  1
  Pd  Pd16  1  0.150075  0.616751  0.616587  1
  Pd  Pd17  1  0.346234  0.999665  0.999115  1
  Pd  Pd18  1  0.655088  0.997681  0.001010  1
  Pd  Pd19  1  0.999665  0.346234  0.654987  1
  Pd  Pd20  1  0.997681  0.655088  0.346221  1
  Pd  Pd21  1  0.999665  0.346234  0.999115  1
  Pd  Pd22  1  0.655088  0.997681  0.346221  1
  Pd  Pd23  1  0.997681  0.655088  0.001010  1
  Pd  Pd24  1  0.346234  0.999665  0.654987  1
  Pd  Pd25  1  0.001041  0.001041  0.344983  1
  Pd  Pd26  1  0.001041  0.001041  0.652934  1
  Pd  Pd27  1  0.656203  0.348372  0.997712  1
  Pd  Pd28  1  0.348372  0.656203  0.997712  1
