# generated using pymatgen
data_Tb2UGa3Ir2Pt
_symmetry_space_group_name_H-M   'P 1'
_cell_length_a   7.20371482
_cell_length_b   7.35371525
_cell_length_c   3.84477200
_cell_angle_alpha   90.00000000
_cell_angle_beta   90.00000000
_cell_angle_gamma   120.69125386
_symmetry_Int_Tables_number   1
_chemical_formula_structural   Tb2UGa3Ir2Pt
_chemical_formula_sum   'Tb2 U1 Ga3 Ir2 Pt1'
_cell_volume   175.14474467
_cell_formula_units_Z   1
loop_
 _symmetry_equiv_pos_site_id
 _symmetry_equiv_pos_as_xyz
  1  'x, y, z'
loop_
 _atom_site_type_symbol
 _atom_site_label
 _atom_site_symmetry_multiplicity
 _atom_site_fract_x
 _atom_site_fract_y
 _atom_site_fract_z
 _atom_site_occupancy
  Tb  Tb0  1  0.408092  0.410986  0.500000  1
  Tb  Tb1  1  0.591908  0.002895  0.500000  1
  U  U2  1  0.000000  0.580617  0.500000  1
  Ga  Ga3  1  0.734466  0.745178  0.000000  1
  Ga  Ga4  1  0.265534  0.010712  0.000000  1
  Ga  Ga5  1  0.000000  0.239218  0.000000  1
  Ir  Ir6  1  0.703244  0.364129  0.000000  1
  Ir  Ir7  1  0.296756  0.660887  0.000000  1
  Pt  Pt8  1  0.000000  0.985376  0.500000  1
