# generated using pymatgen
data_Dy9Y4Ho7Bi12
_symmetry_space_group_name_H-M   'P 1'
_cell_length_a   8.25672402
_cell_length_b   9.51847700
_cell_length_c   12.06525103
_cell_angle_alpha   90.00022838
_cell_angle_beta   90.00811973
_cell_angle_gamma   89.99890402
_symmetry_Int_Tables_number   1
_chemical_formula_structural   Dy9Y4Ho7Bi12
_chemical_formula_sum   'Dy9 Y4 Ho7 Bi12'
_cell_volume   948.22541491
_cell_formula_units_Z   1
loop_
 _symmetry_equiv_pos_site_id
 _symmetry_equiv_pos_as_xyz
  1  'x, y, z'
loop_
 _atom_site_type_symbol
 _atom_site_label
 _atom_site_symmetry_multiplicity
 _atom_site_fract_x
 _atom_site_fract_y
 _atom_site_fract_z
 _atom_site_occupancy
  Dy  Dy0  1  0.186337  0.749997  0.719019  1
  Dy  Dy1  1  0.686329  0.750036  0.781022  1
  Dy  Dy2  1  0.813697  0.249960  0.281009  1
  Dy  Dy3  1  0.313660  0.250031  0.218982  1
  Dy  Dy4  1  0.193720  0.563090  0.440317  1
  Dy  Dy5  1  0.693789  0.563159  0.059705  1
  Dy  Dy6  1  0.193760  0.936915  0.440285  1
  Dy  Dy7  1  0.306203  0.063148  0.940300  1
  Dy  Dy8  1  0.806233  0.436839  0.559705  1
  Y  Y9  1  0.354025  0.750051  0.215173  1
  Y  Y10  1  0.853900  0.750049  0.284753  1
  Y  Y11  1  0.646048  0.250010  0.784780  1
  Y  Y12  1  0.146072  0.250023  0.715209  1
  Ho  Ho13  1  0.026116  0.750015  0.988595  1
  Ho  Ho14  1  0.526208  0.750036  0.511430  1
  Ho  Ho15  1  0.973907  0.250026  0.011380  1
  Ho  Ho16  1  0.473944  0.249962  0.488613  1
  Ho  Ho17  1  0.306251  0.436778  0.940321  1
  Ho  Ho18  1  0.806229  0.063203  0.559676  1
  Ho  Ho19  1  0.693756  0.936797  0.059667  1
  Bi  Bi20  1  0.433568  0.003633  0.673685  1
  Bi  Bi21  1  0.933533  0.496381  0.826341  1
  Bi  Bi22  1  0.566507  0.503623  0.326293  1
  Bi  Bi23  1  0.066433  0.996391  0.173662  1
  Bi  Bi24  1  0.566540  0.996383  0.326306  1
  Bi  Bi25  1  0.066503  0.503636  0.173641  1
  Bi  Bi26  1  0.433467  0.496378  0.673731  1
  Bi  Bi27  1  0.933455  0.003635  0.826327  1
  Bi  Bi28  1  0.409309  0.749818  0.957882  1
  Bi  Bi29  1  0.909195  0.750284  0.542165  1
  Bi  Bi30  1  0.590699  0.249818  0.042115  1
  Bi  Bi31  1  0.090607  0.249895  0.457913  1
