# generated using pymatgen
data_Zr10Ga2Bi4S
_symmetry_space_group_name_H-M   'P 1'
_cell_length_a   8.58299959
_cell_length_b   8.61356909
_cell_length_c   5.83165620
_cell_angle_alpha   90.07285129
_cell_angle_beta   89.96344521
_cell_angle_gamma   120.11788326
_symmetry_Int_Tables_number   1
_chemical_formula_structural   Zr10Ga2Bi4S
_chemical_formula_sum   'Zr10 Ga2 Bi4 S1'
_cell_volume   372.92999486
_cell_formula_units_Z   1
loop_
 _symmetry_equiv_pos_site_id
 _symmetry_equiv_pos_as_xyz
  1  'x, y, z'
loop_
 _atom_site_type_symbol
 _atom_site_label
 _atom_site_symmetry_multiplicity
 _atom_site_fract_x
 _atom_site_fract_y
 _atom_site_fract_z
 _atom_site_occupancy
  Zr  Zr0  1  0.000000  0.755162  0.243566  1
  Zr  Zr1  1  0.245728  0.242931  0.234414  1
  Zr  Zr2  1  0.754272  0.997202  0.234414  1
  Zr  Zr3  1  0.000000  0.245867  0.761561  1
  Zr  Zr4  1  0.735983  0.754312  0.756335  1
  Zr  Zr5  1  0.264017  0.018329  0.756335  1
  Zr  Zr6  1  0.340364  0.666715  0.507859  1
  Zr  Zr7  1  0.659636  0.326350  0.507859  1
  Zr  Zr8  1  0.659797  0.326144  0.991489  1
  Zr  Zr9  1  0.340203  0.666348  0.991489  1
  Ga  Ga10  1  0.391164  0.393263  0.752858  1
  Ga  Ga11  1  0.608836  0.002099  0.752858  1
  Bi  Bi12  1  0.000000  0.394443  0.252584  1
  Bi  Bi13  1  0.601673  0.597638  0.250100  1
  Bi  Bi14  1  0.398327  0.995965  0.250100  1
  Bi  Bi15  1  0.000000  0.616769  0.751843  1
  S  S16  1  0.000000  0.000460  0.504336  1
