# generated using pymatgen
data_Ta4BeFe2Co2P3
_symmetry_space_group_name_H-M   'P 1'
_cell_length_a   3.56166900
_cell_length_b   6.07944659
_cell_length_c   6.92379487
_cell_angle_alpha   90.49963462
_cell_angle_beta   90.00000000
_cell_angle_gamma   90.00000000
_symmetry_Int_Tables_number   1
_chemical_formula_structural   Ta4BeFe2Co2P3
_chemical_formula_sum   'Ta4 Be1 Fe2 Co2 P3'
_cell_volume   149.91506724
_cell_formula_units_Z   1
loop_
 _symmetry_equiv_pos_site_id
 _symmetry_equiv_pos_as_xyz
  1  'x, y, z'
loop_
 _atom_site_type_symbol
 _atom_site_label
 _atom_site_symmetry_multiplicity
 _atom_site_fract_x
 _atom_site_fract_y
 _atom_site_fract_z
 _atom_site_occupancy
  Ta  Ta0  1  0.250000  0.027125  0.826039  1
  Ta  Ta1  1  0.250000  0.521669  0.675461  1
  Ta  Ta2  1  0.750000  0.989936  0.179617  1
  Ta  Ta3  1  0.750000  0.470705  0.317052  1
  Be  Be4  1  0.250000  0.276365  0.119926  1
  Fe  Fe5  1  0.250000  0.140328  0.440304  1
  Fe  Fe6  1  0.750000  0.853378  0.564049  1
  Co  Co7  1  0.250000  0.644578  0.062575  1
  Co  Co8  1  0.750000  0.356910  0.937102  1
  P  P9  1  0.250000  0.773092  0.378179  1
  P  P10  1  0.750000  0.723840  0.882741  1
  P  P11  1  0.750000  0.222075  0.616956  1
