# generated using pymatgen
data_Nb8Cr2SiB4As
_symmetry_space_group_name_H-M   'P 1'
_cell_length_a   7.25070548
_cell_length_b   7.25070583
_cell_length_c   7.25070751
_cell_angle_alpha   130.15928941
_cell_angle_beta   130.15928986
_cell_angle_gamma   73.15224753
_symmetry_Int_Tables_number   1
_chemical_formula_structural   Nb8Cr2SiB4As
_chemical_formula_sum   'Nb8 Cr2 Si1 B4 As1'
_cell_volume   217.39754662
_cell_formula_units_Z   1
loop_
 _symmetry_equiv_pos_site_id
 _symmetry_equiv_pos_as_xyz
  1  'x, y, z'
loop_
 _atom_site_type_symbol
 _atom_site_label
 _atom_site_symmetry_multiplicity
 _atom_site_fract_x
 _atom_site_fract_y
 _atom_site_fract_z
 _atom_site_occupancy
  Nb  Nb0  1  0.803298  0.307011  0.839567  1
  Nb  Nb1  1  0.192989  0.696702  0.160433  1
  Nb  Nb2  1  0.467444  0.963731  0.160433  1
  Nb  Nb3  1  0.307011  0.467444  0.503712  1
  Nb  Nb4  1  0.032556  0.192989  0.496288  1
  Nb  Nb5  1  0.536269  0.032556  0.839567  1
  Nb  Nb6  1  0.696702  0.536269  0.503712  1
  Nb  Nb7  1  0.963731  0.803298  0.496288  1
  Cr  Cr8  1  0.998350  0.998350  0.000000  1
  Cr  Cr9  1  0.501650  0.501650  0.000000  1
  Si  Si10  1  0.750000  0.750000  0.000000  1
  B  B11  1  0.120315  0.620315  0.740631  1
  B  B12  1  0.879685  0.379685  0.259369  1
  B  B13  1  0.620315  0.879685  0.500000  1
  B  B14  1  0.379685  0.120315  0.500000  1
  As  As15  1  0.250000  0.250000  0.000000  1
