# generated using pymatgen
data_Ho4Er2ReSb2
_symmetry_space_group_name_H-M   'P 1'
_cell_length_a   8.10128601
_cell_length_b   8.10055389
_cell_length_c   4.29678000
_cell_angle_alpha   90.00000000
_cell_angle_beta   90.00000000
_cell_angle_gamma   119.99700064
_symmetry_Int_Tables_number   1
_chemical_formula_structural   Ho4Er2ReSb2
_chemical_formula_sum   'Ho4 Er2 Re1 Sb2'
_cell_volume   244.20556430
_cell_formula_units_Z   1
loop_
 _symmetry_equiv_pos_site_id
 _symmetry_equiv_pos_as_xyz
  1  'x, y, z'
loop_
 _atom_site_type_symbol
 _atom_site_label
 _atom_site_symmetry_multiplicity
 _atom_site_fract_x
 _atom_site_fract_y
 _atom_site_fract_z
 _atom_site_occupancy
  Ho  Ho0  1  0.000000  0.235558  0.000000  1
  Ho  Ho1  1  0.605418  0.999873  0.500000  1
  Ho  Ho2  1  0.394582  0.394455  0.500000  1
  Ho  Ho3  1  0.000000  0.605832  0.500000  1
  Er  Er4  1  0.235540  0.999954  0.000000  1
  Er  Er5  1  0.764460  0.764414  0.000000  1
  Re  Re6  1  0.000000  0.999588  0.500000  1
  Sb  Sb7  1  0.333599  0.666964  0.000000  1
  Sb  Sb8  1  0.666401  0.333364  0.000000  1
