# generated using pymatgen
data_K3ZrIr2O9
_symmetry_space_group_name_H-M   'P 1'
_cell_length_a   5.85572800
_cell_length_b   5.85572713
_cell_length_c   14.37147600
_cell_angle_alpha   90.00000000
_cell_angle_beta   90.00000000
_cell_angle_gamma   59.99989338
_symmetry_Int_Tables_number   1
_chemical_formula_structural   K3ZrIr2O9
_chemical_formula_sum   'K6 Zr2 Ir4 O18'
_cell_volume   426.76939289
_cell_formula_units_Z   2
loop_
 _symmetry_equiv_pos_site_id
 _symmetry_equiv_pos_as_xyz
  1  'x, y, z'
loop_
 _atom_site_type_symbol
 _atom_site_label
 _atom_site_symmetry_multiplicity
 _atom_site_fract_x
 _atom_site_fract_y
 _atom_site_fract_z
 _atom_site_occupancy
  K  K0  1  0.333334  0.333334  0.098309  1
  K  K1  1  0.000000  0.000000  0.250000  1
  K  K2  1  0.333334  0.333334  0.401691  1
  K  K3  1  0.666666  0.666666  0.598309  1
  K  K4  1  0.000000  0.000000  0.750000  1
  K  K5  1  0.666666  0.666666  0.901691  1
  Zr  Zr6  1  0.000000  0.000000  0.000000  1
  Zr  Zr7  1  0.000000  0.000000  0.499999  1
  Ir  Ir8  1  0.666667  0.666667  0.154363  1
  Ir  Ir9  1  0.666667  0.666667  0.345636  1
  Ir  Ir10  1  0.333333  0.333333  0.654363  1
  Ir  Ir11  1  0.333333  0.333333  0.845636  1
  O  O12  1  0.826893  0.346212  0.080898  1
  O  O13  1  0.826893  0.826893  0.080898  1
  O  O14  1  0.346212  0.826893  0.080898  1
  O  O15  1  0.523686  0.523686  0.250000  1
  O  O16  1  0.952628  0.523686  0.250000  1
  O  O17  1  0.523686  0.952628  0.250000  1
  O  O18  1  0.826893  0.346212  0.419101  1
  O  O19  1  0.346212  0.826893  0.419101  1
  O  O20  1  0.826893  0.826893  0.419102  1
  O  O21  1  0.173106  0.173106  0.580898  1
  O  O22  1  0.653786  0.173106  0.580899  1
  O  O23  1  0.173106  0.653786  0.580899  1
  O  O24  1  0.476314  0.047369  0.750000  1
  O  O25  1  0.047369  0.476314  0.750000  1
  O  O26  1  0.476315  0.476315  0.750000  1
  O  O27  1  0.653786  0.173106  0.919102  1
  O  O28  1  0.173106  0.173106  0.919102  1
  O  O29  1  0.173106  0.653786  0.919102  1
