# generated using pymatgen
data_NaEr4Si9P3Ir19
_symmetry_space_group_name_H-M   'P 1'
_cell_length_a   12.79400297
_cell_length_b   12.79400269
_cell_length_c   3.94395500
_cell_angle_alpha   90.00000000
_cell_angle_beta   90.00000000
_cell_angle_gamma   120.09026441
_symmetry_Int_Tables_number   1
_chemical_formula_structural   NaEr4Si9P3Ir19
_chemical_formula_sum   'Na1 Er4 Si9 P3 Ir19'
_cell_volume   558.57273079
_cell_formula_units_Z   1
loop_
 _symmetry_equiv_pos_site_id
 _symmetry_equiv_pos_as_xyz
  1  'x, y, z'
loop_
 _atom_site_type_symbol
 _atom_site_label
 _atom_site_symmetry_multiplicity
 _atom_site_fract_x
 _atom_site_fract_y
 _atom_site_fract_z
 _atom_site_occupancy
  Na  Na0  1  0.814445  0.814445  0.500000  1
  Er  Er1  1  0.666589  0.332169  0.000000  1
  Er  Er2  1  0.332169  0.666589  0.000000  1
  Er  Er3  1  0.183519  0.999438  0.500000  1
  Er  Er4  1  0.999438  0.183519  0.500000  1
  Si  Si5  1  0.686376  0.166462  0.500000  1
  Si  Si6  1  0.831767  0.519632  0.500000  1
  Si  Si7  1  0.481344  0.313734  0.500000  1
  Si  Si8  1  0.166462  0.686376  0.500000  1
  Si  Si9  1  0.519632  0.831767  0.500000  1
  Si  Si10  1  0.313734  0.481344  0.500000  1
  Si  Si11  1  0.634552  0.634552  0.000000  1
  Si  Si12  1  0.366791  0.000403  0.000000  1
  Si  Si13  1  0.000403  0.366791  0.000000  1
  P  P14  1  0.178928  0.178928  0.000000  1
  P  P15  1  0.819601  0.996456  0.000000  1
  P  P16  1  0.996456  0.819601  0.000000  1
  Ir  Ir17  1  0.808983  0.180345  0.000000  1
  Ir  Ir18  1  0.818581  0.622647  0.000000  1
  Ir  Ir19  1  0.372567  0.192963  0.000000  1
  Ir  Ir20  1  0.180345  0.808983  0.000000  1
  Ir  Ir21  1  0.622647  0.818581  0.000000  1
  Ir  Ir22  1  0.192963  0.372567  0.000000  1
  Ir  Ir23  1  0.447058  0.447058  0.000000  1
  Ir  Ir24  1  0.555088  0.005714  0.000000  1
  Ir  Ir25  1  0.005714  0.555088  0.000000  1
  Ir  Ir26  1  0.278766  0.278766  0.500000  1
  Ir  Ir27  1  0.722495  0.000916  0.500000  1
  Ir  Ir28  1  0.000916  0.722495  0.500000  1
  Ir  Ir29  1  0.872623  0.360712  0.500000  1
  Ir  Ir30  1  0.638963  0.512293  0.500000  1
  Ir  Ir31  1  0.486983  0.127820  0.500000  1
  Ir  Ir32  1  0.360712  0.872623  0.500000  1
  Ir  Ir33  1  0.512293  0.638963  0.500000  1
  Ir  Ir34  1  0.127820  0.486983  0.500000  1
  Ir  Ir35  1  0.002276  0.002276  0.000000  1
