# generated using pymatgen
data_Ce2B6MoW
_symmetry_space_group_name_H-M   'P 1'
_cell_length_a   3.13990800
_cell_length_b   5.56291150
_cell_length_c   6.90922858
_cell_angle_alpha   75.30244908
_cell_angle_beta   90.00000000
_cell_angle_gamma   90.00000000
_symmetry_Int_Tables_number   1
_chemical_formula_structural   Ce2B6MoW
_chemical_formula_sum   'Ce2 B6 Mo1 W1'
_cell_volume   116.73476522
_cell_formula_units_Z   1
loop_
 _symmetry_equiv_pos_site_id
 _symmetry_equiv_pos_as_xyz
  1  'x, y, z'
loop_
 _atom_site_type_symbol
 _atom_site_label
 _atom_site_symmetry_multiplicity
 _atom_site_fract_x
 _atom_site_fract_y
 _atom_site_fract_z
 _atom_site_occupancy
  Ce  Ce0  1  0.750000  0.845004  0.688221  1
  Ce  Ce1  1  0.250000  0.154788  0.311457  1
  B  B2  1  0.250000  0.578857  0.469910  1
  B  B3  1  0.750000  0.420936  0.528436  1
  B  B4  1  0.250000  0.589353  0.991666  1
  B  B5  1  0.750000  0.410536  0.009446  1
  B  B6  1  0.250000  0.918533  0.991771  1
  B  B7  1  0.750000  0.081776  0.008815  1
  Mo  Mo8  1  0.250000  0.317202  0.786228  1
  W  W9  1  0.750000  0.683017  0.214051  1
