# generated using pymatgen
data_Er2Al9OsPt2
_symmetry_space_group_name_H-M   'P 1'
_cell_length_a   7.58649289
_cell_length_b   7.58649178
_cell_length_c   9.43931000
_cell_angle_alpha   90.00000000
_cell_angle_beta   90.00000000
_cell_angle_gamma   119.48610397
_symmetry_Int_Tables_number   1
_chemical_formula_structural   Er2Al9OsPt2
_chemical_formula_sum   'Er4 Al18 Os2 Pt4'
_cell_volume   472.91016310
_cell_formula_units_Z   2
loop_
 _symmetry_equiv_pos_site_id
 _symmetry_equiv_pos_as_xyz
  1  'x, y, z'
loop_
 _atom_site_type_symbol
 _atom_site_label
 _atom_site_symmetry_multiplicity
 _atom_site_fract_x
 _atom_site_fract_y
 _atom_site_fract_z
 _atom_site_occupancy
  Er  Er0  1  0.994366  0.671735  0.750000  1
  Er  Er1  1  0.005634  0.328265  0.250000  1
  Er  Er2  1  0.671735  0.994366  0.750000  1
  Er  Er3  1  0.328265  0.005634  0.250000  1
  Al  Al4  1  0.124790  0.124790  0.750000  1
  Al  Al5  1  0.875210  0.875210  0.250000  1
  Al  Al6  1  0.999865  0.330451  0.576490  1
  Al  Al7  1  0.000135  0.669549  0.423510  1
  Al  Al8  1  0.000135  0.669549  0.076490  1
  Al  Al9  1  0.330451  0.999865  0.923510  1
  Al  Al10  1  0.999865  0.330451  0.923510  1
  Al  Al11  1  0.669549  0.000135  0.076490  1
  Al  Al12  1  0.669549  0.000135  0.423510  1
  Al  Al13  1  0.330451  0.999865  0.576490  1
  Al  Al14  1  0.328471  0.328471  0.056192  1
  Al  Al15  1  0.671529  0.671529  0.943808  1
  Al  Al16  1  0.671529  0.671529  0.556192  1
  Al  Al17  1  0.328471  0.328471  0.443808  1
  Al  Al18  1  0.341072  0.546880  0.750000  1
  Al  Al19  1  0.658928  0.453120  0.250000  1
  Al  Al20  1  0.546880  0.341072  0.750000  1
  Al  Al21  1  0.453120  0.658928  0.250000  1
  Os  Os22  1  0.000000  0.000000  0.500000  1
  Os  Os23  1  0.000000  0.000000  0.000000  1
  Pt  Pt24  1  0.672444  0.327556  0.500000  1
  Pt  Pt25  1  0.327556  0.672444  0.500000  1
  Pt  Pt26  1  0.327556  0.672444  0.000000  1
  Pt  Pt27  1  0.672444  0.327556  0.000000  1
