# generated using pymatgen
data_Rb8TmU3Br20
_symmetry_space_group_name_H-M   'P 1'
_cell_length_a   8.79789568
_cell_length_b   9.35639800
_cell_length_c   14.20304987
_cell_angle_alpha   90.00000000
_cell_angle_beta   89.53430857
_cell_angle_gamma   90.00000000
_symmetry_Int_Tables_number   1
_chemical_formula_structural   Rb8TmU3Br20
_chemical_formula_sum   'Rb8 Tm1 U3 Br20'
_cell_volume   1169.10834986
_cell_formula_units_Z   1
loop_
 _symmetry_equiv_pos_site_id
 _symmetry_equiv_pos_as_xyz
  1  'x, y, z'
loop_
 _atom_site_type_symbol
 _atom_site_label
 _atom_site_symmetry_multiplicity
 _atom_site_fract_x
 _atom_site_fract_y
 _atom_site_fract_z
 _atom_site_occupancy
  Rb  Rb0  1  0.543318  0.500316  0.825300  1
  Rb  Rb1  1  0.457392  0.501399  0.175310  1
  Rb  Rb2  1  0.042821  0.501544  0.671429  1
  Rb  Rb3  1  0.457392  0.998601  0.175310  1
  Rb  Rb4  1  0.956459  0.501013  0.328673  1
  Rb  Rb5  1  0.543318  0.999684  0.825300  1
  Rb  Rb6  1  0.956459  0.998987  0.328673  1
  Rb  Rb7  1  0.042821  0.998456  0.671429  1
  Tm  Tm8  1  0.569591  0.750000  0.501151  1
  U  U9  1  0.430937  0.250000  0.497487  1
  U  U10  1  0.070724  0.250000  0.998268  1
  U  U11  1  0.930010  0.750000  0.002139  1
  Br  Br12  1  0.837146  0.750000  0.802877  1
  Br  Br13  1  0.164477  0.250000  0.198162  1
  Br  Br14  1  0.336391  0.250000  0.696887  1
  Br  Br15  1  0.659985  0.750000  0.309985  1
  Br  Br16  1  0.379362  0.750000  0.661552  1
  Br  Br17  1  0.630633  0.250000  0.329200  1
  Br  Br18  1  0.869948  0.250000  0.829977  1
  Br  Br19  1  0.129227  0.750000  0.170246  1
  Br  Br20  1  0.895319  0.750000  0.514132  1
  Br  Br21  1  0.093255  0.250000  0.487184  1
  Br  Br22  1  0.410399  0.250000  0.988183  1
  Br  Br23  1  0.590011  0.750000  0.012361  1
  Br  Br24  1  0.653077  0.033686  0.573943  1
  Br  Br25  1  0.347905  0.952264  0.425489  1
  Br  Br26  1  0.155324  0.958982  0.919802  1
  Br  Br27  1  0.347905  0.547736  0.425489  1
  Br  Br28  1  0.844995  0.040845  0.080159  1
  Br  Br29  1  0.653077  0.466314  0.573943  1
  Br  Br30  1  0.844995  0.459155  0.080159  1
  Br  Br31  1  0.155324  0.541018  0.919802  1
