# generated using pymatgen
data_Lu4Tc3Os4W
_symmetry_space_group_name_H-M   'P 1'
_cell_length_a   5.36587100
_cell_length_b   5.25240116
_cell_length_c   8.91955300
_cell_angle_alpha   90.00000000
_cell_angle_beta   90.00000000
_cell_angle_gamma   120.71723976
_symmetry_Int_Tables_number   1
_chemical_formula_structural   Lu4Tc3Os4W
_chemical_formula_sum   'Lu4 Tc3 Os4 W1'
_cell_volume   216.11625514
_cell_formula_units_Z   1
loop_
 _symmetry_equiv_pos_site_id
 _symmetry_equiv_pos_as_xyz
  1  'x, y, z'
loop_
 _atom_site_type_symbol
 _atom_site_label
 _atom_site_symmetry_multiplicity
 _atom_site_fract_x
 _atom_site_fract_y
 _atom_site_fract_z
 _atom_site_occupancy
  Lu  Lu0  1  0.333118  0.666237  0.435362  1
  Lu  Lu1  1  0.669299  0.338599  0.564953  1
  Lu  Lu2  1  0.669299  0.338599  0.935047  1
  Lu  Lu3  1  0.333118  0.666237  0.064638  1
  Tc  Tc4  1  0.346445  0.172343  0.250000  1
  Tc  Tc5  1  0.829332  0.658664  0.250000  1
  Tc  Tc6  1  0.825899  0.172343  0.250000  1
  Os  Os7  1  0.172320  0.823404  0.750000  1
  Os  Os8  1  0.651082  0.823404  0.750000  1
  Os  Os9  1  0.003473  0.006946  0.002220  1
  Os  Os10  1  0.003473  0.006946  0.497780  1
  W  W11  1  0.163140  0.326282  0.750000  1
