# generated using pymatgen
data_PrSm9(Si2Hg)2
_symmetry_space_group_name_H-M   'P 1'
_cell_length_a   7.69234215
_cell_length_b   7.69234134
_cell_length_c   9.18819759
_cell_angle_alpha   114.70825342
_cell_angle_beta   114.70824886
_cell_angle_gamma   90.22360383
_symmetry_Int_Tables_number   1
_chemical_formula_structural   PrSm9(Si2Hg)2
_chemical_formula_sum   'Pr1 Sm9 Si4 Hg2'
_cell_volume   438.05523129
_cell_formula_units_Z   1
loop_
 _symmetry_equiv_pos_site_id
 _symmetry_equiv_pos_as_xyz
  1  'x, y, z'
loop_
 _atom_site_type_symbol
 _atom_site_label
 _atom_site_symmetry_multiplicity
 _atom_site_fract_x
 _atom_site_fract_y
 _atom_site_fract_z
 _atom_site_occupancy
  Pr  Pr0  1  0.535636  0.035636  0.718617  1
  Sm  Sm1  1  0.500192  0.500212  0.000322  1
  Sm  Sm2  1  0.000212  0.000192  0.000322  1
  Sm  Sm3  1  0.962966  0.814868  0.278075  1
  Sm  Sm4  1  0.314868  0.462966  0.278075  1
  Sm  Sm5  1  0.813983  0.313983  0.278113  1
  Sm  Sm6  1  0.463180  0.963180  0.277459  1
  Sm  Sm7  1  0.036191  0.186005  0.722090  1
  Sm  Sm8  1  0.686005  0.536191  0.722090  1
  Sm  Sm9  1  0.185246  0.685246  0.722110  1
  Si  Si10  1  0.618162  0.881458  0.001745  1
  Si  Si11  1  0.381458  0.118162  0.001745  1
  Si  Si12  1  0.884354  0.384354  0.001572  1
  Si  Si13  1  0.118051  0.618051  0.000573  1
  Hg  Hg14  1  0.751027  0.748468  0.498547  1
  Hg  Hg15  1  0.248468  0.251027  0.498547  1
