# generated using pymatgen
data_Dy3Ta(Ni4P3)2
_symmetry_space_group_name_H-M   'P 1'
_cell_length_a   3.77428800
_cell_length_b   10.72075400
_cell_length_c   12.37949300
_cell_angle_alpha   90.00000000
_cell_angle_beta   90.00000000
_cell_angle_gamma   90.00000000
_symmetry_Int_Tables_number   1
_chemical_formula_structural   Dy3Ta(Ni4P3)2
_chemical_formula_sum   'Dy6 Ta2 Ni16 P12'
_cell_volume   500.91406423
_cell_formula_units_Z   2
loop_
 _symmetry_equiv_pos_site_id
 _symmetry_equiv_pos_as_xyz
  1  'x, y, z'
loop_
 _atom_site_type_symbol
 _atom_site_label
 _atom_site_symmetry_multiplicity
 _atom_site_fract_x
 _atom_site_fract_y
 _atom_site_fract_z
 _atom_site_occupancy
  Dy  Dy0  1  0.000000  0.500000  0.524678  1
  Dy  Dy1  1  0.500000  0.000000  0.475322  1
  Dy  Dy2  1  0.500000  0.819308  0.207044  1
  Dy  Dy3  1  0.500000  0.180692  0.207044  1
  Dy  Dy4  1  0.000000  0.680692  0.792956  1
  Dy  Dy5  1  0.000000  0.319308  0.792956  1
  Ta  Ta6  1  0.500000  0.500000  0.152530  1
  Ta  Ta7  1  0.000000  0.000000  0.847470  1
  Ni  Ni8  1  0.500000  0.500000  0.699604  1
  Ni  Ni9  1  0.000000  0.000000  0.300396  1
  Ni  Ni10  1  0.000000  0.500000  0.983287  1
  Ni  Ni11  1  0.500000  0.000000  0.016713  1
  Ni  Ni12  1  0.500000  0.334556  0.986960  1
  Ni  Ni13  1  0.500000  0.665444  0.986960  1
  Ni  Ni14  1  0.000000  0.165444  0.013040  1
  Ni  Ni15  1  0.000000  0.834556  0.013040  1
  Ni  Ni16  1  0.500000  0.301502  0.427935  1
  Ni  Ni17  1  0.500000  0.698498  0.427935  1
  Ni  Ni18  1  0.000000  0.198498  0.572065  1
  Ni  Ni19  1  0.000000  0.801502  0.572065  1
  Ni  Ni20  1  0.500000  0.878888  0.709206  1
  Ni  Ni21  1  0.500000  0.121112  0.709206  1
  Ni  Ni22  1  0.000000  0.621112  0.290794  1
  Ni  Ni23  1  0.000000  0.378888  0.290794  1
  P  P24  1  0.500000  0.500000  0.877095  1
  P  P25  1  0.000000  0.000000  0.122905  1
  P  P26  1  0.500000  0.500000  0.352331  1
  P  P27  1  0.000000  0.000000  0.647669  1
  P  P28  1  0.500000  0.313758  0.613616  1
  P  P29  1  0.500000  0.686242  0.613616  1
  P  P30  1  0.000000  0.186242  0.386384  1
  P  P31  1  0.000000  0.813758  0.386384  1
  P  P32  1  0.500000  0.842136  0.893775  1
  P  P33  1  0.500000  0.157864  0.893775  1
  P  P34  1  0.000000  0.657864  0.106225  1
  P  P35  1  0.000000  0.342136  0.106225  1
