# generated using pymatgen
data_CaNd(NiRh)2
_symmetry_space_group_name_H-M   'P 1'
_cell_length_a   5.40729043
_cell_length_b   5.24418121
_cell_length_c   5.24418127
_cell_angle_alpha   58.48791891
_cell_angle_beta   58.96568703
_cell_angle_gamma   58.96568975
_symmetry_Int_Tables_number   1
_chemical_formula_structural   CaNd(NiRh)2
_chemical_formula_sum   'Ca1 Nd1 Ni2 Rh2'
_cell_volume   102.28163276
_cell_formula_units_Z   1
loop_
 _symmetry_equiv_pos_site_id
 _symmetry_equiv_pos_as_xyz
  1  'x, y, z'
loop_
 _atom_site_type_symbol
 _atom_site_label
 _atom_site_symmetry_multiplicity
 _atom_site_fract_x
 _atom_site_fract_y
 _atom_site_fract_z
 _atom_site_occupancy
  Ca  Ca0  1  0.752282  0.747718  0.747718  1
  Nd  Nd1  1  0.498999  0.501001  0.501001  1
  Ni  Ni2  1  0.124535  0.125337  0.625592  1
  Ni  Ni3  1  0.124535  0.625592  0.125337  1
  Rh  Rh4  1  0.124619  0.125176  0.125176  1
  Rh  Rh5  1  0.625029  0.125176  0.125176  1
