# generated using pymatgen
data_Tm2ScAl9Si3Os4
_symmetry_space_group_name_H-M   'P 1'
_cell_length_a   8.63080000
_cell_length_b   8.62874149
_cell_length_c   9.48755200
_cell_angle_alpha   90.00000000
_cell_angle_beta   90.00000000
_cell_angle_gamma   120.00789195
_symmetry_Int_Tables_number   1
_chemical_formula_structural   Tm2ScAl9Si3Os4
_chemical_formula_sum   'Tm4 Sc2 Al18 Si6 Os8'
_cell_volume   611.85536072
_cell_formula_units_Z   2
loop_
 _symmetry_equiv_pos_site_id
 _symmetry_equiv_pos_as_xyz
  1  'x, y, z'
loop_
 _atom_site_type_symbol
 _atom_site_label
 _atom_site_symmetry_multiplicity
 _atom_site_fract_x
 _atom_site_fract_y
 _atom_site_fract_z
 _atom_site_occupancy
  Tm  Tm0  1  0.610060  0.808013  0.250000  1
  Tm  Tm1  1  0.389940  0.191987  0.750000  1
  Tm  Tm2  1  0.197954  0.808013  0.250000  1
  Tm  Tm3  1  0.802046  0.191987  0.750000  1
  Sc  Sc4  1  0.196750  0.393501  0.250000  1
  Sc  Sc5  1  0.803250  0.606499  0.750000  1
  Al  Al6  1  0.164810  0.329621  0.577682  1
  Al  Al7  1  0.835190  0.670379  0.422318  1
  Al  Al8  1  0.670871  0.833318  0.578488  1
  Al  Al9  1  0.835190  0.670379  0.077682  1
  Al  Al10  1  0.329129  0.166682  0.421512  1
  Al  Al11  1  0.164810  0.329621  0.922318  1
  Al  Al12  1  0.162447  0.833318  0.578488  1
  Al  Al13  1  0.329129  0.166682  0.078488  1
  Al  Al14  1  0.837553  0.166682  0.421512  1
  Al  Al15  1  0.670871  0.833318  0.921512  1
  Al  Al16  1  0.837553  0.166682  0.078488  1
  Al  Al17  1  0.162447  0.833318  0.921512  1
  Al  Al18  1  0.875648  0.434518  0.250000  1
  Al  Al19  1  0.124352  0.565482  0.750000  1
  Al  Al20  1  0.558870  0.434518  0.250000  1
  Al  Al21  1  0.441130  0.565482  0.750000  1
  Al  Al22  1  0.004484  0.008968  0.250000  1
  Al  Al23  1  0.995516  0.991032  0.750000  1
  Si  Si24  1  0.331067  0.662134  0.042791  1
  Si  Si25  1  0.668933  0.337866  0.957209  1
  Si  Si26  1  0.668933  0.337866  0.542791  1
  Si  Si27  1  0.331067  0.662134  0.457209  1
  Si  Si28  1  0.563690  0.127380  0.250000  1
  Si  Si29  1  0.436310  0.872620  0.750000  1
  Os  Os30  1  0.500000  0.000000  0.000000  1
  Os  Os31  1  0.000000  0.500000  0.000000  1
  Os  Os32  1  0.500000  0.000000  0.500000  1
  Os  Os33  1  0.500000  0.500000  0.000000  1
  Os  Os34  1  0.000000  0.500000  0.500000  1
  Os  Os35  1  0.500000  0.500000  0.500000  1
  Os  Os36  1  0.000000  0.000000  0.000000  1
  Os  Os37  1  0.000000  0.000000  0.500000  1
