# generated using pymatgen
data_Dy3Tm7IrOs3
_symmetry_space_group_name_H-M   'P 1'
_cell_length_a   6.31297768
_cell_length_b   7.31733030
_cell_length_c   8.30918090
_cell_angle_alpha   96.98595714
_cell_angle_beta   112.17313294
_cell_angle_gamma   89.93758297
_symmetry_Int_Tables_number   1
_chemical_formula_structural   Dy3Tm7IrOs3
_chemical_formula_sum   'Dy3 Tm7 Ir1 Os3'
_cell_volume   352.39154068
_cell_formula_units_Z   1
loop_
 _symmetry_equiv_pos_site_id
 _symmetry_equiv_pos_as_xyz
  1  'x, y, z'
loop_
 _atom_site_type_symbol
 _atom_site_label
 _atom_site_symmetry_multiplicity
 _atom_site_fract_x
 _atom_site_fract_y
 _atom_site_fract_z
 _atom_site_occupancy
  Dy  Dy0  1  0.971648  0.916079  0.182841  1
  Dy  Dy1  1  0.788209  0.581003  0.815836  1
  Dy  Dy2  1  0.024860  0.082939  0.812504  1
  Tm  Tm3  1  0.209511  0.418998  0.181854  1
  Tm  Tm4  1  0.645246  0.816508  0.438140  1
  Tm  Tm5  1  0.207410  0.681438  0.562530  1
  Tm  Tm6  1  0.354729  0.182522  0.564008  1
  Tm  Tm7  1  0.795089  0.319638  0.437671  1
  Tm  Tm8  1  0.421297  0.748705  0.999569  1
  Tm  Tm9  1  0.578760  0.250704  0.999824  1
  Ir  Ir10  1  0.399089  0.078425  0.222297  1
  Os  Os11  1  0.821803  0.575521  0.219015  1
  Os  Os12  1  0.602508  0.923986  0.780790  1
  Os  Os13  1  0.179843  0.423536  0.783123  1
