# generated using pymatgen
data_Ac2BeBPd8
_symmetry_space_group_name_H-M   'P 1'
_cell_length_a   5.57135200
_cell_length_b   5.57135168
_cell_length_c   7.90638800
_cell_angle_alpha   90.00000000
_cell_angle_beta   90.00000000
_cell_angle_gamma   120.00000188
_symmetry_Int_Tables_number   1
_chemical_formula_structural   Ac2BeBPd8
_chemical_formula_sum   'Ac2 Be1 B1 Pd8'
_cell_volume   212.53473528
_cell_formula_units_Z   1
loop_
 _symmetry_equiv_pos_site_id
 _symmetry_equiv_pos_as_xyz
  1  'x, y, z'
loop_
 _atom_site_type_symbol
 _atom_site_label
 _atom_site_symmetry_multiplicity
 _atom_site_fract_x
 _atom_site_fract_y
 _atom_site_fract_z
 _atom_site_occupancy
  Ac  Ac0  1  0.000000  0.000000  0.500000  1
  Ac  Ac1  1  0.000000  0.000000  0.000000  1
  Be  Be2  1  0.333333  0.666667  0.000000  1
  B  B3  1  0.666667  0.333333  0.000000  1
  Pd  Pd4  1  0.333333  0.666667  0.500000  1
  Pd  Pd5  1  0.666667  0.333333  0.500000  1
  Pd  Pd6  1  0.501979  0.003958  0.202048  1
  Pd  Pd7  1  0.501979  0.003958  0.797952  1
  Pd  Pd8  1  0.996042  0.498021  0.202048  1
  Pd  Pd9  1  0.996042  0.498021  0.797952  1
  Pd  Pd10  1  0.501979  0.498021  0.202048  1
  Pd  Pd11  1  0.501979  0.498021  0.797952  1
