# generated using pymatgen
data_BaEu3(AlSn)4
_symmetry_space_group_name_H-M   'P 1'
_cell_length_a   4.63766700
_cell_length_b   4.63766724
_cell_length_c   18.29922800
_cell_angle_alpha   90.00000000
_cell_angle_beta   90.00000000
_cell_angle_gamma   119.99999117
_symmetry_Int_Tables_number   1
_chemical_formula_structural   BaEu3(AlSn)4
_chemical_formula_sum   'Ba1 Eu3 Al4 Sn4'
_cell_volume   340.84943951
_cell_formula_units_Z   1
loop_
 _symmetry_equiv_pos_site_id
 _symmetry_equiv_pos_as_xyz
  1  'x, y, z'
loop_
 _atom_site_type_symbol
 _atom_site_label
 _atom_site_symmetry_multiplicity
 _atom_site_fract_x
 _atom_site_fract_y
 _atom_site_fract_z
 _atom_site_occupancy
  Ba  Ba0  1  0.000000  0.000000  0.500000  1
  Eu  Eu1  1  0.000000  0.000000  0.000000  1
  Eu  Eu2  1  0.000000  0.000000  0.240285  1
  Eu  Eu3  1  0.000000  0.000000  0.759715  1
  Al  Al4  1  0.666667  0.333333  0.324166  1
  Al  Al5  1  0.333333  0.666667  0.675834  1
  Al  Al6  1  0.333333  0.666667  0.844838  1
  Al  Al7  1  0.666667  0.333333  0.155162  1
  Sn  Sn8  1  0.333333  0.666667  0.368553  1
  Sn  Sn9  1  0.666667  0.333333  0.631447  1
  Sn  Sn10  1  0.666667  0.333333  0.888595  1
  Sn  Sn11  1  0.333333  0.666667  0.111405  1
