# generated using pymatgen
data_Tb6Nd2AlPd24
_symmetry_space_group_name_H-M   'P 1'
_cell_length_a   8.40665224
_cell_length_b   8.40665224
_cell_length_c   8.40665224
_cell_angle_alpha   90.10627289
_cell_angle_beta   89.89372711
_cell_angle_gamma   89.89372711
_symmetry_Int_Tables_number   1
_chemical_formula_structural   Tb6Nd2AlPd24
_chemical_formula_sum   'Tb6 Nd2 Al1 Pd24'
_cell_volume   594.11019130
_cell_formula_units_Z   1
loop_
 _symmetry_equiv_pos_site_id
 _symmetry_equiv_pos_as_xyz
  1  'x, y, z'
loop_
 _atom_site_type_symbol
 _atom_site_label
 _atom_site_symmetry_multiplicity
 _atom_site_fract_x
 _atom_site_fract_y
 _atom_site_fract_z
 _atom_site_occupancy
  Tb  Tb0  1  0.252043  0.251740  0.251740  1
  Tb  Tb1  1  0.747957  0.748260  0.748260  1
  Tb  Tb2  1  0.748260  0.747957  0.251740  1
  Tb  Tb3  1  0.748260  0.251740  0.747957  1
  Tb  Tb4  1  0.251740  0.252043  0.748260  1
  Tb  Tb5  1  0.251740  0.748260  0.252043  1
  Nd  Nd6  1  0.252099  0.747901  0.747901  1
  Nd  Nd7  1  0.747901  0.252099  0.252099  1
  Al  Al8  1  0.000000  0.000000  0.000000  1
  Pd  Pd9  1  0.259868  0.498291  0.002591  1
  Pd  Pd10  1  0.740132  0.501709  0.997409  1
  Pd  Pd11  1  0.002591  0.259868  0.501709  1
  Pd  Pd12  1  0.498291  0.259868  0.997409  1
  Pd  Pd13  1  0.997409  0.740132  0.498291  1
  Pd  Pd14  1  0.501709  0.740132  0.002591  1
  Pd  Pd15  1  0.498291  0.997409  0.259868  1
  Pd  Pd16  1  0.259868  0.002591  0.498291  1
  Pd  Pd17  1  0.501709  0.002591  0.740132  1
  Pd  Pd18  1  0.740132  0.997409  0.501709  1
  Pd  Pd19  1  0.002591  0.501709  0.259868  1
  Pd  Pd20  1  0.997409  0.498291  0.740132  1
  Pd  Pd21  1  0.252820  0.497575  0.497575  1
  Pd  Pd22  1  0.747180  0.502425  0.502425  1
  Pd  Pd23  1  0.497575  0.252820  0.502425  1
  Pd  Pd24  1  0.502425  0.747180  0.497575  1
  Pd  Pd25  1  0.497575  0.502425  0.252820  1
  Pd  Pd26  1  0.502425  0.497575  0.747180  1
  Pd  Pd27  1  0.289769  0.002128  0.002128  1
  Pd  Pd28  1  0.710231  0.997872  0.997872  1
  Pd  Pd29  1  0.002128  0.289769  0.997872  1
  Pd  Pd30  1  0.997872  0.710231  0.002128  1
  Pd  Pd31  1  0.002128  0.997872  0.289769  1
  Pd  Pd32  1  0.997872  0.002128  0.710231  1
