# generated using pymatgen
data_Lu12ZnCuTe4
_symmetry_space_group_name_H-M   'P 1'
_cell_length_a   3.98004700
_cell_length_b   11.33625500
_cell_length_c   21.12855400
_cell_angle_alpha   90.00000000
_cell_angle_beta   90.00000000
_cell_angle_gamma   90.00000000
_symmetry_Int_Tables_number   1
_chemical_formula_structural   Lu12ZnCuTe4
_chemical_formula_sum   'Lu24 Zn2 Cu2 Te8'
_cell_volume   953.29558756
_cell_formula_units_Z   2
loop_
 _symmetry_equiv_pos_site_id
 _symmetry_equiv_pos_as_xyz
  1  'x, y, z'
loop_
 _atom_site_type_symbol
 _atom_site_label
 _atom_site_symmetry_multiplicity
 _atom_site_fract_x
 _atom_site_fract_y
 _atom_site_fract_z
 _atom_site_occupancy
  Lu  Lu0  1  0.750000  0.940243  0.640818  1
  Lu  Lu1  1  0.250000  0.378562  0.476628  1
  Lu  Lu2  1  0.250000  0.118951  0.973996  1
  Lu  Lu3  1  0.250000  0.313226  0.109587  1
  Lu  Lu4  1  0.750000  0.238055  0.232057  1
  Lu  Lu5  1  0.250000  0.763094  0.767755  1
  Lu  Lu6  1  0.750000  0.690708  0.891520  1
  Lu  Lu7  1  0.250000  0.027584  0.156409  1
  Lu  Lu8  1  0.750000  0.112541  0.493816  1
  Lu  Lu9  1  0.250000  0.470220  0.653893  1
  Lu  Lu10  1  0.750000  0.878562  0.023372  1
  Lu  Lu11  1  0.750000  0.559196  0.140621  1
  Lu  Lu12  1  0.750000  0.813226  0.390413  1
  Lu  Lu13  1  0.750000  0.618951  0.526004  1
  Lu  Lu14  1  0.250000  0.440243  0.859182  1
  Lu  Lu15  1  0.250000  0.059196  0.359379  1
  Lu  Lu16  1  0.250000  0.190708  0.608480  1
  Lu  Lu17  1  0.250000  0.738055  0.267943  1
  Lu  Lu18  1  0.750000  0.388476  0.993728  1
  Lu  Lu19  1  0.750000  0.527584  0.343591  1
  Lu  Lu20  1  0.250000  0.612541  0.006184  1
  Lu  Lu21  1  0.750000  0.263094  0.732245  1
  Lu  Lu22  1  0.750000  0.970220  0.846107  1
  Lu  Lu23  1  0.250000  0.888476  0.506272  1
  Zn  Zn24  1  0.750000  0.133946  0.075716  1
  Zn  Zn25  1  0.250000  0.633946  0.424284  1
  Cu  Cu26  1  0.250000  0.864479  0.923562  1
  Cu  Cu27  1  0.750000  0.364479  0.576438  1
  Te  Te28  1  0.250000  0.732836  0.625472  1
  Te  Te29  1  0.750000  0.267636  0.374675  1
  Te  Te30  1  0.250000  0.045510  0.738679  1
  Te  Te31  1  0.250000  0.454736  0.238588  1
  Te  Te32  1  0.750000  0.232836  0.874528  1
  Te  Te33  1  0.750000  0.545510  0.761321  1
  Te  Te34  1  0.250000  0.767636  0.125325  1
  Te  Te35  1  0.750000  0.954736  0.261412  1
