# generated using pymatgen
data_Y4Lu6IrRu3
_symmetry_space_group_name_H-M   'P 1'
_cell_length_a   6.24812264
_cell_length_b   7.26952000
_cell_length_c   8.37480033
_cell_angle_alpha   97.21867213
_cell_angle_beta   112.01950853
_cell_angle_gamma   90.02287597
_symmetry_Int_Tables_number   1
_chemical_formula_structural   Y4Lu6IrRu3
_chemical_formula_sum   'Y4 Lu6 Ir1 Ru3'
_cell_volume   349.38122147
_cell_formula_units_Z   1
loop_
 _symmetry_equiv_pos_site_id
 _symmetry_equiv_pos_as_xyz
  1  'x, y, z'
loop_
 _atom_site_type_symbol
 _atom_site_label
 _atom_site_symmetry_multiplicity
 _atom_site_fract_x
 _atom_site_fract_y
 _atom_site_fract_z
 _atom_site_occupancy
  Y  Y0  1  0.522977  0.081977  0.809539  1
  Y  Y1  1  0.477519  0.919452  0.190205  1
  Y  Y2  1  0.714659  0.417369  0.190169  1
  Y  Y3  1  0.286164  0.582249  0.808768  1
  Lu  Lu4  1  0.300496  0.313812  0.434703  1
  Lu  Lu5  1  0.699940  0.685139  0.566585  1
  Lu  Lu6  1  0.866709  0.185349  0.566152  1
  Lu  Lu7  1  0.132790  0.815321  0.434359  1
  Lu  Lu8  1  0.078946  0.249354  0.999401  1
  Lu  Lu9  1  0.920144  0.750044  0.999949  1
  Ir  Ir10  1  0.314211  0.575664  0.223602  1
  Ru  Ru11  1  0.684553  0.424870  0.776491  1
  Ru  Ru12  1  0.092321  0.923884  0.776974  1
  Ru  Ru13  1  0.908572  0.075519  0.223102  1
