# generated using pymatgen
data_Pt5(Se4S)2
_symmetry_space_group_name_H-M   'P 1'
_cell_length_a   16.14375404
_cell_length_b   16.14375424
_cell_length_c   6.63671100
_cell_angle_alpha   87.88307899
_cell_angle_beta   87.88307494
_cell_angle_gamma   13.30104364
_symmetry_Int_Tables_number   1
_chemical_formula_structural   Pt5(Se4S)2
_chemical_formula_sum   'Pt5 Se8 S2'
_cell_volume   397.66434329
_cell_formula_units_Z   1
loop_
 _symmetry_equiv_pos_site_id
 _symmetry_equiv_pos_as_xyz
  1  'x, y, z'
loop_
 _atom_site_type_symbol
 _atom_site_label
 _atom_site_symmetry_multiplicity
 _atom_site_fract_x
 _atom_site_fract_y
 _atom_site_fract_z
 _atom_site_occupancy
  Pt  Pt0  1  0.005647  0.005647  0.028602  1
  Pt  Pt1  1  0.603927  0.603927  0.002367  1
  Pt  Pt2  1  0.205152  0.205152  0.970248  1
  Pt  Pt3  1  0.806479  0.806479  0.975012  1
  Pt  Pt4  1  0.407358  0.407358  0.010841  1
  Se  Se5  1  0.671437  0.671437  0.783655  1
  Se  Se6  1  0.275817  0.275817  0.775256  1
  Se  Se7  1  0.878961  0.878961  0.803826  1
  Se  Se8  1  0.537342  0.537342  0.220671  1
  Se  Se9  1  0.138036  0.138036  0.182362  1
  Se  Se10  1  0.736633  0.736633  0.162167  1
  Se  Se11  1  0.335353  0.335353  0.177938  1
  Se  Se12  1  0.935576  0.935576  0.217139  1
  S  S13  1  0.071615  0.071615  0.838325  1
  S  S14  1  0.476389  0.476389  0.851589  1
