# generated using pymatgen
data_Pt2I5Cl7
_symmetry_space_group_name_H-M   'P 1'
_cell_length_a   6.34407000
_cell_length_b   13.47248845
_cell_length_c   11.37282053
_cell_angle_alpha   90.31467622
_cell_angle_beta   90.00000000
_cell_angle_gamma   90.00000000
_symmetry_Int_Tables_number   1
_chemical_formula_structural   Pt2I5Cl7
_chemical_formula_sum   'Pt4 I10 Cl14'
_cell_volume   972.02497114
_cell_formula_units_Z   2
loop_
 _symmetry_equiv_pos_site_id
 _symmetry_equiv_pos_as_xyz
  1  'x, y, z'
loop_
 _atom_site_type_symbol
 _atom_site_label
 _atom_site_symmetry_multiplicity
 _atom_site_fract_x
 _atom_site_fract_y
 _atom_site_fract_z
 _atom_site_occupancy
  Pt  Pt0  1  0.938063  0.739337  0.862189  1
  Pt  Pt1  1  0.438063  0.260663  0.637811  1
  Pt  Pt2  1  0.061618  0.262435  0.133358  1
  Pt  Pt3  1  0.561618  0.737565  0.366642  1
  I  I4  1  0.321732  0.704273  0.955750  1
  I  I5  1  0.821732  0.295727  0.544250  1
  I  I6  1  0.684767  0.301490  0.036042  1
  I  I7  1  0.184767  0.698510  0.463958  1
  I  I8  1  0.553312  0.767887  0.752593  1
  I  I9  1  0.053312  0.232113  0.747407  1
  I  I10  1  0.448719  0.225318  0.239767  1
  I  I11  1  0.948719  0.774682  0.260233  1
  I  I12  1  0.839319  0.873086  0.029475  1
  I  I13  1  0.339319  0.126914  0.470525  1
  Cl  Cl14  1  0.202238  0.397871  0.032373  1
  Cl  Cl15  1  0.702238  0.602129  0.467627  1
  Cl  Cl16  1  0.165687  0.156640  0.975551  1
  Cl  Cl17  1  0.665687  0.843360  0.524449  1
  Cl  Cl18  1  0.798674  0.611597  0.977092  1
  Cl  Cl19  1  0.298674  0.388403  0.522908  1
  Cl  Cl20  1  0.066542  0.872550  0.749895  1
  Cl  Cl21  1  0.566542  0.127450  0.750105  1
  Cl  Cl22  1  0.956005  0.370871  0.282604  1
  Cl  Cl23  1  0.456005  0.629129  0.217396  1
  Cl  Cl24  1  0.929950  0.122448  0.232452  1
  Cl  Cl25  1  0.429950  0.877552  0.267548  1
  Cl  Cl26  1  0.033373  0.619187  0.720398  1
  Cl  Cl27  1  0.533373  0.380813  0.779602  1
