# generated using pymatgen
data_Mn3TlGe2O9
_symmetry_space_group_name_H-M   'P 1'
_cell_length_a   5.99530084
_cell_length_b   5.99290526
_cell_length_c   14.13270000
_cell_angle_alpha   90.04699036
_cell_angle_beta   89.92000016
_cell_angle_gamma   120.01544909
_symmetry_Int_Tables_number   1
_chemical_formula_structural   Mn3TlGe2O9
_chemical_formula_sum   'Mn6 Tl2 Ge4 O18'
_cell_volume   439.67938854
_cell_formula_units_Z   2
loop_
 _symmetry_equiv_pos_site_id
 _symmetry_equiv_pos_as_xyz
  1  'x, y, z'
loop_
 _atom_site_type_symbol
 _atom_site_label
 _atom_site_symmetry_multiplicity
 _atom_site_fract_x
 _atom_site_fract_y
 _atom_site_fract_z
 _atom_site_occupancy
  Mn  Mn0  1  0.499893  0.500213  0.500018  1
  Mn  Mn1  1  0.500201  0.000315  0.000024  1
  Mn  Mn2  1  0.500004  0.499774  0.000048  1
  Mn  Mn3  1  0.999970  0.499826  0.499989  1
  Mn  Mn4  1  0.500110  0.999909  0.500000  1
  Mn  Mn5  1  0.999856  0.499763  0.000031  1
  Tl  Tl6  1  0.333275  0.666462  0.750015  1
  Tl  Tl7  1  0.666829  0.333546  0.249966  1
  Ge  Ge8  1  0.999875  0.999676  0.624562  1
  Ge  Ge9  1  0.000137  0.000354  0.375419  1
  Ge  Ge10  1  0.000198  0.000435  0.124611  1
  Ge  Ge11  1  0.999785  0.999672  0.875378  1
  O  O12  1  0.999533  0.998865  0.749969  1
  O  O13  1  0.000461  0.001145  0.250032  1
  O  O14  1  0.666559  0.333425  0.558443  1
  O  O15  1  0.333555  0.666600  0.441576  1
  O  O16  1  0.333000  0.666631  0.058432  1
  O  O17  1  0.666746  0.333334  0.941593  1
  O  O18  1  0.163788  0.836021  0.586141  1
  O  O19  1  0.672723  0.835850  0.586361  1
  O  O20  1  0.163752  0.327058  0.586456  1
  O  O21  1  0.836200  0.163941  0.413898  1
  O  O22  1  0.327335  0.164176  0.413618  1
  O  O23  1  0.836347  0.672969  0.413529  1
  O  O24  1  0.836463  0.163791  0.086359  1
  O  O25  1  0.327687  0.164267  0.086156  1
  O  O26  1  0.836910  0.673020  0.086438  1
  O  O27  1  0.163458  0.836183  0.913587  1
  O  O28  1  0.672259  0.835701  0.913808  1
  O  O29  1  0.163083  0.327080  0.913539  1
