# generated using pymatgen
data_Cs15Na(TiSe4)4
_symmetry_space_group_name_H-M   'P 1'
_cell_length_a   9.21647544
_cell_length_b   10.77572000
_cell_length_c   15.93082100
_cell_angle_alpha   90.00000000
_cell_angle_beta   90.08622524
_cell_angle_gamma   90.00000000
_symmetry_Int_Tables_number   1
_chemical_formula_structural   Cs15Na(TiSe4)4
_chemical_formula_sum   'Cs15 Na1 Ti4 Se16'
_cell_volume   1582.15429327
_cell_formula_units_Z   1
loop_
 _symmetry_equiv_pos_site_id
 _symmetry_equiv_pos_as_xyz
  1  'x, y, z'
loop_
 _atom_site_type_symbol
 _atom_site_label
 _atom_site_symmetry_multiplicity
 _atom_site_fract_x
 _atom_site_fract_y
 _atom_site_fract_z
 _atom_site_occupancy
  Cs  Cs0  1  0.002072  0.999175  0.996734  1
  Cs  Cs1  1  0.498107  0.003272  0.502920  1
  Cs  Cs2  1  0.002072  0.500825  0.996734  1
  Cs  Cs3  1  0.498107  0.496728  0.502920  1
  Cs  Cs4  1  0.982569  0.750000  0.426885  1
  Cs  Cs5  1  0.485009  0.250000  0.074251  1
  Cs  Cs6  1  0.013223  0.250000  0.576790  1
  Cs  Cs7  1  0.834319  0.053922  0.276353  1
  Cs  Cs8  1  0.332040  0.945028  0.215170  1
  Cs  Cs9  1  0.164476  0.558339  0.724348  1
  Cs  Cs10  1  0.661065  0.444754  0.784709  1
  Cs  Cs11  1  0.164476  0.941661  0.724348  1
  Cs  Cs12  1  0.661065  0.055246  0.784709  1
  Cs  Cs13  1  0.834319  0.446078  0.276353  1
  Cs  Cs14  1  0.332040  0.554972  0.215170  1
  Na  Na15  1  0.604191  0.750000  0.949641  1
  Ti  Ti16  1  0.753031  0.750000  0.669317  1
  Ti  Ti17  1  0.238080  0.250000  0.332483  1
  Ti  Ti18  1  0.735356  0.750000  0.159897  1
  Ti  Ti19  1  0.260246  0.250000  0.834440  1
  Se  Se20  1  0.996697  0.250000  0.824997  1
  Se  Se21  1  0.501105  0.250000  0.321984  1
  Se  Se22  1  0.491704  0.750000  0.667994  1
  Se  Se23  1  0.997156  0.750000  0.171425  1
  Se  Se24  1  0.654577  0.568083  0.084390  1
  Se  Se25  1  0.157031  0.433557  0.404718  1
  Se  Se26  1  0.341279  0.067587  0.907419  1
  Se  Se27  1  0.839920  0.931825  0.597796  1
  Se  Se28  1  0.341279  0.432413  0.907419  1
  Se  Se29  1  0.839920  0.568175  0.597796  1
  Se  Se30  1  0.654577  0.931917  0.084390  1
  Se  Se31  1  0.157031  0.066443  0.404718  1
  Se  Se32  1  0.632310  0.750000  0.299743  1
  Se  Se33  1  0.133438  0.250000  0.192053  1
  Se  Se34  1  0.363575  0.250000  0.693224  1
  Se  Se35  1  0.842532  0.750000  0.815760  1
