# generated using pymatgen
data_TbHo9(In3Br)2
_symmetry_space_group_name_H-M   'P 1'
_cell_length_a   9.16578907
_cell_length_b   9.16578953
_cell_length_c   6.74398700
_cell_angle_alpha   90.00000000
_cell_angle_beta   90.00000000
_cell_angle_gamma   120.01379010
_symmetry_Int_Tables_number   1
_chemical_formula_structural   TbHo9(In3Br)2
_chemical_formula_sum   'Tb1 Ho9 In6 Br2'
_cell_volume   490.59908034
_cell_formula_units_Z   1
loop_
 _symmetry_equiv_pos_site_id
 _symmetry_equiv_pos_as_xyz
  1  'x, y, z'
loop_
 _atom_site_type_symbol
 _atom_site_label
 _atom_site_symmetry_multiplicity
 _atom_site_fract_x
 _atom_site_fract_y
 _atom_site_fract_z
 _atom_site_occupancy
  Tb  Tb0  1  0.733829  0.733829  0.250000  1
  Ho  Ho1  1  0.000020  0.733666  0.750000  1
  Ho  Ho2  1  0.733666  0.000020  0.750000  1
  Ho  Ho3  1  0.333167  0.666600  0.500073  1
  Ho  Ho4  1  0.266404  0.266404  0.750000  1
  Ho  Ho5  1  0.000013  0.266345  0.250000  1
  Ho  Ho6  1  0.666600  0.333167  0.500073  1
  Ho  Ho7  1  0.266345  0.000013  0.250000  1
  Ho  Ho8  1  0.333167  0.666600  0.999927  1
  Ho  Ho9  1  0.666600  0.333167  0.999927  1
  In  In10  1  0.392736  0.999961  0.750000  1
  In  In11  1  0.000308  0.607134  0.250000  1
  In  In12  1  0.607134  0.000308  0.250000  1
  In  In13  1  0.999961  0.392736  0.750000  1
  In  In14  1  0.392412  0.392412  0.250000  1
  In  In15  1  0.607174  0.607174  0.750000  1
  Br  Br16  1  0.000232  0.000232  0.500364  1
  Br  Br17  1  0.000232  0.000232  0.999636  1
