# generated using pymatgen
data_LuNb8BiS16
_symmetry_space_group_name_H-M   'P 1'
_cell_length_a   6.72881000
_cell_length_b   6.72880929
_cell_length_c   13.76576800
_cell_angle_alpha   90.00000000
_cell_angle_beta   90.00000000
_cell_angle_gamma   120.00001332
_symmetry_Int_Tables_number   1
_chemical_formula_structural   LuNb8BiS16
_chemical_formula_sum   'Lu1 Nb8 Bi1 S16'
_cell_volume   539.76846028
_cell_formula_units_Z   1
loop_
 _symmetry_equiv_pos_site_id
 _symmetry_equiv_pos_as_xyz
  1  'x, y, z'
loop_
 _atom_site_type_symbol
 _atom_site_label
 _atom_site_symmetry_multiplicity
 _atom_site_fract_x
 _atom_site_fract_y
 _atom_site_fract_z
 _atom_site_occupancy
  Lu  Lu0  1  0.000000  0.000000  0.000000  1
  Nb  Nb1  1  0.000000  0.000000  0.242806  1
  Nb  Nb2  1  0.000000  0.000000  0.757194  1
  Nb  Nb3  1  0.505511  0.494489  0.243341  1
  Nb  Nb4  1  0.505511  0.011022  0.243341  1
  Nb  Nb5  1  0.988978  0.494489  0.243341  1
  Nb  Nb6  1  0.494489  0.505511  0.756659  1
  Nb  Nb7  1  0.494489  0.988978  0.756659  1
  Nb  Nb8  1  0.011022  0.505511  0.756659  1
  Bi  Bi9  1  0.000000  0.000000  0.500000  1
  S  S10  1  0.333333  0.666667  0.873183  1
  S  S11  1  0.666667  0.333333  0.126817  1
  S  S12  1  0.666667  0.333333  0.359786  1
  S  S13  1  0.333333  0.666667  0.640214  1
  S  S14  1  0.169675  0.830325  0.355953  1
  S  S15  1  0.169675  0.339351  0.355953  1
  S  S16  1  0.660649  0.830325  0.355953  1
  S  S17  1  0.830325  0.169675  0.644047  1
  S  S18  1  0.830325  0.660649  0.644047  1
  S  S19  1  0.339351  0.169675  0.644047  1
  S  S20  1  0.831518  0.168482  0.870562  1
  S  S21  1  0.831518  0.663038  0.870562  1
  S  S22  1  0.336962  0.168482  0.870562  1
  S  S23  1  0.168482  0.831518  0.129438  1
  S  S24  1  0.168482  0.336962  0.129438  1
  S  S25  1  0.663038  0.831518  0.129438  1
