# generated using pymatgen
data_Tm6Al24FeRu6Rh
_symmetry_space_group_name_H-M   'P 1'
_cell_length_a   8.75262548
_cell_length_b   8.76681796
_cell_length_c   9.53307807
_cell_angle_alpha   89.99999800
_cell_angle_beta   89.85852093
_cell_angle_gamma   120.05366603
_symmetry_Int_Tables_number   1
_chemical_formula_structural   Tm6Al24FeRu6Rh
_chemical_formula_sum   'Tm6 Al24 Fe1 Ru6 Rh1'
_cell_volume   633.15091519
_cell_formula_units_Z   1
loop_
 _symmetry_equiv_pos_site_id
 _symmetry_equiv_pos_as_xyz
  1  'x, y, z'
loop_
 _atom_site_type_symbol
 _atom_site_label
 _atom_site_symmetry_multiplicity
 _atom_site_fract_x
 _atom_site_fract_y
 _atom_site_fract_z
 _atom_site_occupancy
  Tm  Tm0  1  0.804491  0.191840  0.748919  1
  Tm  Tm1  1  0.195509  0.808160  0.251081  1
  Tm  Tm2  1  0.388525  0.194262  0.749660  1
  Tm  Tm3  1  0.611475  0.805738  0.250340  1
  Tm  Tm4  1  0.804491  0.612652  0.748919  1
  Tm  Tm5  1  0.195509  0.387348  0.251081  1
  Al  Al6  1  0.665258  0.332629  0.980003  1
  Al  Al7  1  0.334742  0.667371  0.019997  1
  Al  Al8  1  0.333160  0.666580  0.480298  1
  Al  Al9  1  0.666840  0.333420  0.519702  1
  Al  Al10  1  0.837856  0.162991  0.421999  1
  Al  Al11  1  0.162144  0.837009  0.578001  1
  Al  Al12  1  0.325840  0.162919  0.422528  1
  Al  Al13  1  0.161234  0.841363  0.922968  1
  Al  Al14  1  0.674160  0.837081  0.577472  1
  Al  Al15  1  0.838766  0.158637  0.077032  1
  Al  Al16  1  0.837856  0.674865  0.421999  1
  Al  Al17  1  0.679340  0.839670  0.923166  1
  Al  Al18  1  0.162144  0.325135  0.578001  1
  Al  Al19  1  0.320660  0.160330  0.076834  1
  Al  Al20  1  0.161234  0.319871  0.922968  1
  Al  Al21  1  0.838766  0.680129  0.077032  1
  Al  Al22  1  0.437634  0.561074  0.750540  1
  Al  Al23  1  0.562366  0.438926  0.249460  1
  Al  Al24  1  0.122391  0.561197  0.749580  1
  Al  Al25  1  0.877609  0.438803  0.250420  1
  Al  Al26  1  0.437634  0.876561  0.750540  1
  Al  Al27  1  0.562366  0.123439  0.249460  1
  Al  Al28  1  0.999657  0.999829  0.756216  1
  Al  Al29  1  0.000343  0.000171  0.243784  1
  Fe  Fe30  1  0.000000  0.000000  0.000000  1
  Ru  Ru31  1  0.500000  0.500000  0.000000  1
  Ru  Ru32  1  0.500000  0.500000  0.500000  1
  Ru  Ru33  1  0.500000  0.000000  0.000000  1
  Ru  Ru34  1  0.000000  0.500000  0.500000  1
  Ru  Ru35  1  0.500000  0.000000  0.500000  1
  Ru  Ru36  1  0.000000  0.000000  0.500000  1
  Rh  Rh37  1  0.000000  0.500000  0.000000  1
