# generated using pymatgen
data_Er4B12MoRh
_symmetry_space_group_name_H-M   'P 1'
_cell_length_a   3.64669600
_cell_length_b   9.14656279
_cell_length_c   11.55130374
_cell_angle_alpha   90.41945214
_cell_angle_beta   90.00000000
_cell_angle_gamma   90.00000000
_symmetry_Int_Tables_number   1
_chemical_formula_structural   Er4B12MoRh
_chemical_formula_sum   'Er8 B24 Mo2 Rh2'
_cell_volume   385.28033819
_cell_formula_units_Z   2
loop_
 _symmetry_equiv_pos_site_id
 _symmetry_equiv_pos_as_xyz
  1  'x, y, z'
loop_
 _atom_site_type_symbol
 _atom_site_label
 _atom_site_symmetry_multiplicity
 _atom_site_fract_x
 _atom_site_fract_y
 _atom_site_fract_z
 _atom_site_occupancy
  Er  Er0  1  0.500000  0.319365  0.411567  1
  Er  Er1  1  0.500000  0.680635  0.588433  1
  Er  Er2  1  0.500000  0.174520  0.916763  1
  Er  Er3  1  0.500000  0.825480  0.083237  1
  Er  Er4  1  0.500000  0.443674  0.126855  1
  Er  Er5  1  0.500000  0.556326  0.873145  1
  Er  Er6  1  0.500000  0.054673  0.627863  1
  Er  Er7  1  0.500000  0.945327  0.372137  1
  B  B8  1  0.000000  0.107402  0.471672  1
  B  B9  1  0.000000  0.892598  0.528328  1
  B  B10  1  0.000000  0.394949  0.970199  1
  B  B11  1  0.000000  0.605051  0.029801  1
  B  B12  1  0.000000  0.132953  0.317611  1
  B  B13  1  0.000000  0.867047  0.682389  1
  B  B14  1  0.000000  0.368156  0.815652  1
  B  B15  1  0.000000  0.631844  0.184348  1
  B  B16  1  0.000000  0.051767  0.066087  1
  B  B17  1  0.000000  0.948233  0.933913  1
  B  B18  1  0.000000  0.446110  0.565518  1
  B  B19  1  0.000000  0.553890  0.434482  1
  B  B20  1  0.000000  0.483535  0.288416  1
  B  B21  1  0.000000  0.516465  0.711584  1
  B  B22  1  0.000000  0.020289  0.786114  1
  B  B23  1  0.000000  0.979711  0.213886  1
  B  B24  1  0.000000  0.250366  0.079315  1
  B  B25  1  0.000000  0.749634  0.920685  1
  B  B26  1  0.000000  0.250728  0.578848  1
  B  B27  1  0.000000  0.749272  0.421152  1
  B  B28  1  0.000000  0.296113  0.236696  1
  B  B29  1  0.000000  0.703887  0.763304  1
  B  B30  1  0.000000  0.208690  0.734016  1
  B  B31  1  0.000000  0.791310  0.265984  1
  Mo  Mo32  1  0.500000  0.139700  0.181126  1
  Mo  Mo33  1  0.500000  0.860300  0.818874  1
  Rh  Rh34  1  0.500000  0.361471  0.678138  1
  Rh  Rh35  1  0.500000  0.638529  0.321862  1
