# generated using pymatgen
data_Tb5HoAl24PdRu7
_symmetry_space_group_name_H-M   'P 1'
_cell_length_a   8.82578095
_cell_length_b   8.82578148
_cell_length_c   9.58894494
_cell_angle_alpha   89.86601641
_cell_angle_beta   90.13398110
_cell_angle_gamma   119.73586555
_symmetry_Int_Tables_number   1
_chemical_formula_structural   Tb5HoAl24PdRu7
_chemical_formula_sum   'Tb5 Ho1 Al24 Pd1 Ru7'
_cell_volume   648.56865731
_cell_formula_units_Z   1
loop_
 _symmetry_equiv_pos_site_id
 _symmetry_equiv_pos_as_xyz
  1  'x, y, z'
loop_
 _atom_site_type_symbol
 _atom_site_label
 _atom_site_symmetry_multiplicity
 _atom_site_fract_x
 _atom_site_fract_y
 _atom_site_fract_z
 _atom_site_occupancy
  Tb  Tb0  1  0.191097  0.385963  0.250807  1
  Tb  Tb1  1  0.808858  0.613878  0.749187  1
  Tb  Tb2  1  0.614037  0.808903  0.250807  1
  Tb  Tb3  1  0.386122  0.191142  0.749187  1
  Tb  Tb4  1  0.193810  0.806190  0.251972  1
  Ho  Ho5  1  0.805832  0.194168  0.747891  1
  Al  Al6  1  0.330170  0.669830  0.019120  1
  Al  Al7  1  0.670052  0.329948  0.980540  1
  Al  Al8  1  0.667014  0.332986  0.515732  1
  Al  Al9  1  0.333173  0.666827  0.484570  1
  Al  Al10  1  0.162474  0.324158  0.578486  1
  Al  Al11  1  0.837230  0.675697  0.421742  1
  Al  Al12  1  0.675842  0.837526  0.578486  1
  Al  Al13  1  0.843908  0.677222  0.078989  1
  Al  Al14  1  0.324303  0.162770  0.421742  1
  Al  Al15  1  0.155728  0.322628  0.920783  1
  Al  Al16  1  0.162775  0.837225  0.578432  1
  Al  Al17  1  0.322778  0.156092  0.078989  1
  Al  Al18  1  0.837190  0.162810  0.421992  1
  Al  Al19  1  0.677372  0.844272  0.920783  1
  Al  Al20  1  0.837243  0.162757  0.077177  1
  Al  Al21  1  0.162724  0.837276  0.922403  1
  Al  Al22  1  0.561009  0.122676  0.248978  1
  Al  Al23  1  0.439636  0.877876  0.751030  1
  Al  Al24  1  0.877324  0.438991  0.248978  1
  Al  Al25  1  0.122124  0.560364  0.751030  1
  Al  Al26  1  0.562153  0.437847  0.252409  1
  Al  Al27  1  0.437801  0.562199  0.747629  1
  Al  Al28  1  0.999352  0.000648  0.250020  1
  Al  Al29  1  0.000379  0.999621  0.750003  1
  Pd  Pd30  1  0.500078  0.499922  0.999961  1
  Ru  Ru31  1  0.500308  0.000152  0.999797  1
  Ru  Ru32  1  0.999848  0.499692  0.999797  1
  Ru  Ru33  1  0.500366  0.000213  0.500232  1
  Ru  Ru34  1  0.999787  0.499634  0.500232  1
  Ru  Ru35  1  0.500103  0.499897  0.500064  1
  Ru  Ru36  1  0.000010  0.999990  0.999957  1
  Ru  Ru37  1  0.999991  0.000009  0.500066  1
