# generated using pymatgen
data_H3SBr
_symmetry_space_group_name_H-M   'P 1'
_cell_length_a   4.99196346
_cell_length_b   4.99196290
_cell_length_c   4.99196430
_cell_angle_alpha   64.25190152
_cell_angle_beta   64.25190297
_cell_angle_gamma   64.25190157
_symmetry_Int_Tables_number   1
_chemical_formula_structural   H3SBr
_chemical_formula_sum   'H3 S1 Br1'
_cell_volume   96.18266527
_cell_formula_units_Z   1
loop_
 _symmetry_equiv_pos_site_id
 _symmetry_equiv_pos_as_xyz
  1  'x, y, z'
loop_
 _atom_site_type_symbol
 _atom_site_label
 _atom_site_symmetry_multiplicity
 _atom_site_fract_x
 _atom_site_fract_y
 _atom_site_fract_z
 _atom_site_occupancy
  H  H0  1  0.283833  0.673126  0.283833  1
  H  H1  1  0.283833  0.283833  0.673126  1
  H  H2  1  0.673126  0.283833  0.283833  1
  S  S3  1  0.477980  0.477980  0.477980  1
  Br  Br4  1  0.985229  0.985229  0.985229  1
