# generated using pymatgen
data_TbEr5Nb2(Co4P3)4
_symmetry_space_group_name_H-M   'P 1'
_cell_length_a   3.70504100
_cell_length_b   10.63114000
_cell_length_c   12.32446600
_cell_angle_alpha   90.00000000
_cell_angle_beta   90.00000000
_cell_angle_gamma   90.00000000
_symmetry_Int_Tables_number   1
_chemical_formula_structural   TbEr5Nb2(Co4P3)4
_chemical_formula_sum   'Tb1 Er5 Nb2 Co16 P12'
_cell_volume   485.44604441
_cell_formula_units_Z   1
loop_
 _symmetry_equiv_pos_site_id
 _symmetry_equiv_pos_as_xyz
  1  'x, y, z'
loop_
 _atom_site_type_symbol
 _atom_site_label
 _atom_site_symmetry_multiplicity
 _atom_site_fract_x
 _atom_site_fract_y
 _atom_site_fract_z
 _atom_site_occupancy
  Tb  Tb0  1  0.500000  0.000000  0.472960  1
  Er  Er1  1  0.000000  0.500000  0.526990  1
  Er  Er2  1  0.500000  0.820418  0.204905  1
  Er  Er3  1  0.500000  0.179582  0.204905  1
  Er  Er4  1  0.000000  0.679339  0.794815  1
  Er  Er5  1  0.000000  0.320661  0.794815  1
  Nb  Nb6  1  0.500000  0.500000  0.157447  1
  Nb  Nb7  1  0.000000  0.000000  0.843149  1
  Co  Co8  1  0.500000  0.500000  0.702166  1
  Co  Co9  1  0.000000  0.000000  0.296888  1
  Co  Co10  1  0.000000  0.500000  0.985621  1
  Co  Co11  1  0.500000  0.000000  0.014265  1
  Co  Co12  1  0.500000  0.332529  0.991399  1
  Co  Co13  1  0.500000  0.667471  0.991399  1
  Co  Co14  1  0.000000  0.167747  0.008562  1
  Co  Co15  1  0.000000  0.832253  0.008562  1
  Co  Co16  1  0.500000  0.296116  0.432428  1
  Co  Co17  1  0.500000  0.703884  0.432428  1
  Co  Co18  1  0.000000  0.205672  0.567655  1
  Co  Co19  1  0.000000  0.794328  0.567655  1
  Co  Co20  1  0.500000  0.876525  0.704825  1
  Co  Co21  1  0.500000  0.123475  0.704825  1
  Co  Co22  1  0.000000  0.622943  0.295471  1
  Co  Co23  1  0.000000  0.377057  0.295471  1
  P  P24  1  0.500000  0.500000  0.881658  1
  P  P25  1  0.000000  0.000000  0.118098  1
  P  P26  1  0.500000  0.500000  0.356861  1
  P  P27  1  0.000000  0.000000  0.644583  1
  P  P28  1  0.500000  0.311655  0.615899  1
  P  P29  1  0.500000  0.688345  0.615899  1
  P  P30  1  0.000000  0.189510  0.383678  1
  P  P31  1  0.000000  0.810490  0.383678  1
  P  P32  1  0.500000  0.840710  0.892741  1
  P  P33  1  0.500000  0.159290  0.892741  1
  P  P34  1  0.000000  0.658985  0.107280  1
  P  P35  1  0.000000  0.341015  0.107280  1
