# generated using pymatgen
data_Tm5AlCo5
_symmetry_space_group_name_H-M   'P 1'
_cell_length_a   5.40611171
_cell_length_b   5.40611180
_cell_length_c   20.40024500
_cell_angle_alpha   90.00000000
_cell_angle_beta   90.00000000
_cell_angle_gamma   136.98801652
_symmetry_Int_Tables_number   1
_chemical_formula_structural   Tm5AlCo5
_chemical_formula_sum   'Tm10 Al2 Co10'
_cell_volume   406.71120585
_cell_formula_units_Z   2
loop_
 _symmetry_equiv_pos_site_id
 _symmetry_equiv_pos_as_xyz
  1  'x, y, z'
loop_
 _atom_site_type_symbol
 _atom_site_label
 _atom_site_symmetry_multiplicity
 _atom_site_fract_x
 _atom_site_fract_y
 _atom_site_fract_z
 _atom_site_occupancy
  Tm  Tm0  1  0.288804  0.711196  0.250000  1
  Tm  Tm1  1  0.291573  0.708427  0.066393  1
  Tm  Tm2  1  0.997902  0.002098  0.842061  1
  Tm  Tm3  1  0.711196  0.288804  0.750000  1
  Tm  Tm4  1  0.708427  0.291573  0.566393  1
  Tm  Tm5  1  0.002098  0.997902  0.342061  1
  Tm  Tm6  1  0.997902  0.002098  0.657939  1
  Tm  Tm7  1  0.708427  0.291573  0.933607  1
  Tm  Tm8  1  0.002098  0.997902  0.157939  1
  Tm  Tm9  1  0.291573  0.708427  0.433607  1
  Al  Al10  1  0.000000  0.000000  0.500000  1
  Al  Al11  1  0.000000  0.000000  0.000000  1
  Co  Co12  1  0.293823  0.706177  0.654697  1
  Co  Co13  1  0.582200  0.417800  0.441352  1
  Co  Co14  1  0.415352  0.584648  0.750000  1
  Co  Co15  1  0.417800  0.582200  0.941352  1
  Co  Co16  1  0.584648  0.415352  0.250000  1
  Co  Co17  1  0.417800  0.582200  0.558648  1
  Co  Co18  1  0.706177  0.293823  0.345303  1
  Co  Co19  1  0.706177  0.293823  0.154697  1
  Co  Co20  1  0.582200  0.417800  0.058648  1
  Co  Co21  1  0.293823  0.706177  0.845303  1
