# generated using pymatgen
data_Tm5Co4Si3(P3Ru5)3
_symmetry_space_group_name_H-M   'P 1'
_cell_length_a   12.50546200
_cell_length_b   12.50546133
_cell_length_c   3.85126300
_cell_angle_alpha   90.00000000
_cell_angle_beta   90.00000000
_cell_angle_gamma   120.00000178
_symmetry_Int_Tables_number   1
_chemical_formula_structural   Tm5Co4Si3(P3Ru5)3
_chemical_formula_sum   'Tm5 Co4 Si3 P9 Ru15'
_cell_volume   521.59480776
_cell_formula_units_Z   1
loop_
 _symmetry_equiv_pos_site_id
 _symmetry_equiv_pos_as_xyz
  1  'x, y, z'
loop_
 _atom_site_type_symbol
 _atom_site_label
 _atom_site_symmetry_multiplicity
 _atom_site_fract_x
 _atom_site_fract_y
 _atom_site_fract_z
 _atom_site_occupancy
  Tm  Tm0  1  0.666667  0.333333  0.000000  1
  Tm  Tm1  1  0.333333  0.666667  0.000000  1
  Tm  Tm2  1  0.180341  0.180341  0.500000  1
  Tm  Tm3  1  0.819659  0.000000  0.500000  1
  Tm  Tm4  1  0.000000  0.819659  0.500000  1
  Co  Co5  1  0.721818  0.721818  0.500000  1
  Co  Co6  1  0.278182  0.000000  0.500000  1
  Co  Co7  1  0.000000  0.278182  0.500000  1
  Co  Co8  1  0.000000  0.000000  0.000000  1
  Si  Si9  1  0.371268  0.371268  0.000000  1
  Si  Si10  1  0.628732  0.000000  0.000000  1
  Si  Si11  1  0.000000  0.628732  0.000000  1
  P  P12  1  0.838914  0.311579  0.500000  1
  P  P13  1  0.688421  0.527335  0.500000  1
  P  P14  1  0.472665  0.161086  0.500000  1
  P  P15  1  0.311579  0.838914  0.500000  1
  P  P16  1  0.527335  0.688421  0.500000  1
  P  P17  1  0.161086  0.472665  0.500000  1
  P  P18  1  0.822978  0.822978  0.000000  1
  P  P19  1  0.177022  0.000000  0.000000  1
  P  P20  1  0.000000  0.177022  0.000000  1
  Ru  Ru21  1  0.823636  0.194913  0.000000  1
  Ru  Ru22  1  0.805087  0.628722  0.000000  1
  Ru  Ru23  1  0.371278  0.176364  0.000000  1
  Ru  Ru24  1  0.194913  0.823636  0.000000  1
  Ru  Ru25  1  0.628722  0.805087  0.000000  1
  Ru  Ru26  1  0.176364  0.371278  0.000000  1
  Ru  Ru27  1  0.561054  0.561054  0.000000  1
  Ru  Ru28  1  0.438946  0.000000  0.000000  1
  Ru  Ru29  1  0.000000  0.438946  0.000000  1
  Ru  Ru30  1  0.638888  0.129233  0.500000  1
  Ru  Ru31  1  0.870767  0.509656  0.500000  1
  Ru  Ru32  1  0.490344  0.361112  0.500000  1
  Ru  Ru33  1  0.129233  0.638888  0.500000  1
  Ru  Ru34  1  0.509656  0.870767  0.500000  1
  Ru  Ru35  1  0.361112  0.490344  0.500000  1
