# generated using pymatgen
data_Na4Li2(ReH9)3
_symmetry_space_group_name_H-M   'P 1'
_cell_length_a   8.52773900
_cell_length_b   8.45443545
_cell_length_c   5.05323800
_cell_angle_alpha   90.00000000
_cell_angle_beta   90.00000000
_cell_angle_gamma   120.28723615
_symmetry_Int_Tables_number   1
_chemical_formula_structural   Na4Li2(ReH9)3
_chemical_formula_sum   'Na4 Li2 Re3 H27'
_cell_volume   314.59701156
_cell_formula_units_Z   1
loop_
 _symmetry_equiv_pos_site_id
 _symmetry_equiv_pos_as_xyz
  1  'x, y, z'
loop_
 _atom_site_type_symbol
 _atom_site_label
 _atom_site_symmetry_multiplicity
 _atom_site_fract_x
 _atom_site_fract_y
 _atom_site_fract_z
 _atom_site_occupancy
  Na  Na0  1  0.260410  0.000000  0.500000  1
  Na  Na1  1  0.999297  0.592739  0.000000  1
  Na  Na2  1  0.406558  0.407261  0.000000  1
  Na  Na3  1  0.600779  0.000000  0.000000  1
  Li  Li4  1  0.999712  0.273540  0.500000  1
  Li  Li5  1  0.726172  0.726460  0.500000  1
  Re  Re6  1  0.675875  0.340459  0.500000  1
  Re  Re7  1  0.335415  0.659541  0.500000  1
  Re  Re8  1  0.991283  0.000000  0.000000  1
  H  H9  1  0.808593  0.317543  0.734030  1
  H  H10  1  0.694381  0.495121  0.735266  1
  H  H11  1  0.533407  0.215940  0.751817  1
  H  H12  1  0.199258  0.504879  0.264734  1
  H  H13  1  0.533407  0.215940  0.248183  1
  H  H14  1  0.808593  0.317543  0.265970  1
  H  H15  1  0.694381  0.495121  0.264734  1
  H  H16  1  0.317465  0.784060  0.751817  1
  H  H17  1  0.491048  0.682457  0.734030  1
  H  H18  1  0.189014  0.000000  0.000000  1
  H  H19  1  0.789657  0.804665  0.000000  1
  H  H20  1  0.984991  0.195335  0.000000  1
  H  H21  1  0.854160  0.000000  0.245725  1
  H  H22  1  0.133124  0.147778  0.762730  1
  H  H23  1  0.985346  0.852222  0.762730  1
  H  H24  1  0.985346  0.852222  0.237270  1
  H  H25  1  0.133124  0.147778  0.237270  1
  H  H26  1  0.854160  0.000000  0.754275  1
  H  H27  1  0.131743  0.644475  0.500000  1
  H  H28  1  0.511481  0.874409  0.500000  1
  H  H29  1  0.357367  0.475028  0.500000  1
  H  H30  1  0.487269  0.355525  0.500000  1
  H  H31  1  0.882341  0.524972  0.500000  1
  H  H32  1  0.637073  0.125591  0.500000  1
  H  H33  1  0.199258  0.504879  0.735266  1
  H  H34  1  0.317465  0.784060  0.248183  1
  H  H35  1  0.491048  0.682457  0.265970  1
