# generated using pymatgen
data_Yb2Pr15Sm3Sn16
_symmetry_space_group_name_H-M   'P 1'
_cell_length_a   8.20187938
_cell_length_b   8.51717076
_cell_length_c   16.14800800
_cell_angle_alpha   90.07393075
_cell_angle_beta   89.38767174
_cell_angle_gamma   90.06689345
_symmetry_Int_Tables_number   1
_chemical_formula_structural   Yb2Pr15Sm3Sn16
_chemical_formula_sum   'Yb2 Pr15 Sm3 Sn16'
_cell_volume   1127.98217335
_cell_formula_units_Z   1
loop_
 _symmetry_equiv_pos_site_id
 _symmetry_equiv_pos_as_xyz
  1  'x, y, z'
loop_
 _atom_site_type_symbol
 _atom_site_label
 _atom_site_symmetry_multiplicity
 _atom_site_fract_x
 _atom_site_fract_y
 _atom_site_fract_z
 _atom_site_occupancy
  Yb  Yb0  1  0.829013  0.503780  0.250945  1
  Yb  Yb1  1  0.329111  0.994579  0.250728  1
  Pr  Pr2  1  0.843440  0.669934  0.624579  1
  Pr  Pr3  1  0.654251  0.168564  0.376739  1
  Pr  Pr4  1  0.160436  0.327525  0.122746  1
  Pr  Pr5  1  0.661331  0.170958  0.123496  1
  Pr  Pr6  1  0.155095  0.330288  0.376845  1
  Pr  Pr7  1  0.344440  0.831293  0.624801  1
  Pr  Pr8  1  0.839550  0.671341  0.875490  1
  Pr  Pr9  1  0.495323  0.319939  0.902300  1
  Pr  Pr10  1  0.999943  0.181776  0.597750  1
  Pr  Pr11  1  0.502716  0.681984  0.403876  1
  Pr  Pr12  1  0.004785  0.815854  0.096584  1
  Pr  Pr13  1  0.504068  0.681893  0.095889  1
  Pr  Pr14  1  0.002506  0.817356  0.403631  1
  Pr  Pr15  1  0.499324  0.319139  0.598020  1
  Pr  Pr16  1  0.995478  0.181045  0.902057  1
  Sm  Sm17  1  0.337150  0.830634  0.874463  1
  Sm  Sm18  1  0.171182  0.498873  0.749080  1
  Sm  Sm19  1  0.671069  0.002592  0.749130  1
  Sn  Sn20  1  0.324215  0.034179  0.037356  1
  Sn  Sn21  1  0.814556  0.461361  0.462224  1
  Sn  Sn22  1  0.686370  0.963909  0.540497  1
  Sn  Sn23  1  0.178508  0.537614  0.958180  1
  Sn  Sn24  1  0.671036  0.963867  0.958099  1
  Sn  Sn25  1  0.186251  0.537544  0.540181  1
  Sn  Sn26  1  0.313751  0.037726  0.462136  1
  Sn  Sn27  1  0.823564  0.463260  0.038380  1
  Sn  Sn28  1  0.536017  0.612103  0.751767  1
  Sn  Sn29  1  0.038069  0.891434  0.751340  1
  Sn  Sn30  1  0.460358  0.394556  0.249929  1
  Sn  Sn31  1  0.960745  0.104217  0.250060  1
  Sn  Sn32  1  0.301567  0.145513  0.751611  1
  Sn  Sn33  1  0.800912  0.355219  0.751079  1
  Sn  Sn34  1  0.702019  0.858530  0.249048  1
  Sn  Sn35  1  0.201857  0.639624  0.248965  1
