# generated using pymatgen
data_Nd7HoGaPd24
_symmetry_space_group_name_H-M   'P 1'
_cell_length_a   8.47959755
_cell_length_b   8.47959755
_cell_length_c   8.47959755
_cell_angle_alpha   90.06284286
_cell_angle_beta   90.06284286
_cell_angle_gamma   89.93715714
_symmetry_Int_Tables_number   1
_chemical_formula_structural   Nd7HoGaPd24
_chemical_formula_sum   'Nd7 Ho1 Ga1 Pd24'
_cell_volume   609.71227542
_cell_formula_units_Z   1
loop_
 _symmetry_equiv_pos_site_id
 _symmetry_equiv_pos_as_xyz
  1  'x, y, z'
loop_
 _atom_site_type_symbol
 _atom_site_label
 _atom_site_symmetry_multiplicity
 _atom_site_fract_x
 _atom_site_fract_y
 _atom_site_fract_z
 _atom_site_occupancy
  Nd  Nd0  1  0.251833  0.748121  0.251879  1
  Nd  Nd1  1  0.748121  0.251833  0.251879  1
  Nd  Nd2  1  0.748121  0.748121  0.748167  1
  Nd  Nd3  1  0.748434  0.748434  0.251566  1
  Nd  Nd4  1  0.748372  0.251790  0.748210  1
  Nd  Nd5  1  0.251790  0.748372  0.748210  1
  Nd  Nd6  1  0.251790  0.251790  0.251628  1
  Ho  Ho7  1  0.252103  0.252103  0.747897  1
  Ga  Ga8  1  0.999860  0.999860  0.000140  1
  Pd  Pd9  1  0.497250  0.497250  0.746418  1
  Pd  Pd10  1  0.497250  0.253582  0.502750  1
  Pd  Pd11  1  0.253582  0.497250  0.502750  1
  Pd  Pd12  1  0.500010  0.500010  0.253567  1
  Pd  Pd13  1  0.500010  0.746433  0.499990  1
  Pd  Pd14  1  0.746433  0.500010  0.499990  1
  Pd  Pd15  1  0.002403  0.002403  0.706696  1
  Pd  Pd16  1  0.002403  0.293304  0.997597  1
  Pd  Pd17  1  0.293304  0.002403  0.997597  1
  Pd  Pd18  1  0.000043  0.000043  0.294225  1
  Pd  Pd19  1  0.000043  0.705775  0.999957  1
  Pd  Pd20  1  0.705775  0.000043  0.999957  1
  Pd  Pd21  1  0.002878  0.497783  0.738946  1
  Pd  Pd22  1  0.497783  0.261054  0.997122  1
  Pd  Pd23  1  0.261054  0.002878  0.502217  1
  Pd  Pd24  1  0.002878  0.261054  0.502217  1
  Pd  Pd25  1  0.497783  0.002878  0.738946  1
  Pd  Pd26  1  0.261054  0.497783  0.997122  1
  Pd  Pd27  1  0.999945  0.499870  0.260995  1
  Pd  Pd28  1  0.499870  0.739005  0.000055  1
  Pd  Pd29  1  0.999945  0.739005  0.500130  1
  Pd  Pd30  1  0.499870  0.999945  0.260995  1
  Pd  Pd31  1  0.739005  0.999945  0.500130  1
  Pd  Pd32  1  0.739005  0.499870  0.000055  1
