# generated using pymatgen
data_Tb5DyCr2(Co4P3)4
_symmetry_space_group_name_H-M   'P 1'
_cell_length_a   3.70007000
_cell_length_b   10.54014800
_cell_length_c   12.20818300
_cell_angle_alpha   90.00098500
_cell_angle_beta   90.00000000
_cell_angle_gamma   90.00000000
_symmetry_Int_Tables_number   1
_chemical_formula_structural   Tb5DyCr2(Co4P3)4
_chemical_formula_sum   'Tb5 Dy1 Cr2 Co16 P12'
_cell_volume   476.11041312
_cell_formula_units_Z   1
loop_
 _symmetry_equiv_pos_site_id
 _symmetry_equiv_pos_as_xyz
  1  'x, y, z'
loop_
 _atom_site_type_symbol
 _atom_site_label
 _atom_site_symmetry_multiplicity
 _atom_site_fract_x
 _atom_site_fract_y
 _atom_site_fract_z
 _atom_site_occupancy
  Tb  Tb0  1  0.000000  0.499938  0.521931  1
  Tb  Tb1  1  0.500000  0.999972  0.478155  1
  Tb  Tb2  1  0.500000  0.817775  0.204466  1
  Tb  Tb3  1  0.500000  0.182221  0.204676  1
  Tb  Tb4  1  0.000000  0.682109  0.795377  1
  Dy  Dy5  1  0.000000  0.317788  0.795473  1
  Cr  Cr6  1  0.500000  0.499826  0.154217  1
  Cr  Cr7  1  0.000000  0.000397  0.845614  1
  Co  Co8  1  0.500000  0.499674  0.702165  1
  Co  Co9  1  0.000000  0.000052  0.297936  1
  Co  Co10  1  0.000000  0.499729  0.986768  1
  Co  Co11  1  0.500000  0.000246  0.012896  1
  Co  Co12  1  0.500000  0.332534  0.992109  1
  Co  Co13  1  0.500000  0.667204  0.992296  1
  Co  Co14  1  0.000000  0.167614  0.007503  1
  Co  Co15  1  0.000000  0.832680  0.007469  1
  Co  Co16  1  0.500000  0.296141  0.430751  1
  Co  Co17  1  0.500000  0.703762  0.430446  1
  Co  Co18  1  0.000000  0.203835  0.569870  1
  Co  Co19  1  0.000000  0.796152  0.569524  1
  Co  Co20  1  0.500000  0.879776  0.709270  1
  Co  Co21  1  0.500000  0.120652  0.709461  1
  Co  Co22  1  0.000000  0.620288  0.290661  1
  Co  Co23  1  0.000000  0.379658  0.290911  1
  P  P24  1  0.500000  0.499628  0.882057  1
  P  P25  1  0.000000  0.000107  0.117598  1
  P  P26  1  0.500000  0.499993  0.342147  1
  P  P27  1  0.000000  0.000015  0.657878  1
  P  P28  1  0.500000  0.310822  0.616195  1
  P  P29  1  0.500000  0.689094  0.615689  1
  P  P30  1  0.000000  0.189195  0.384508  1
  P  P31  1  0.000000  0.810793  0.384247  1
  P  P32  1  0.500000  0.848328  0.892571  1
  P  P33  1  0.500000  0.152084  0.892332  1
  P  P34  1  0.000000  0.651573  0.107278  1
  P  P35  1  0.000000  0.348345  0.107558  1
