# generated using pymatgen
data_Tb2TmLu(B6Os)2
_symmetry_space_group_name_H-M   'P 1'
_cell_length_a   3.63489400
_cell_length_b   9.09915208
_cell_length_c   11.49321110
_cell_angle_alpha   90.01513000
_cell_angle_beta   90.00000000
_cell_angle_gamma   90.00000000
_symmetry_Int_Tables_number   1
_chemical_formula_structural   Tb2TmLu(B6Os)2
_chemical_formula_sum   'Tb4 Tm2 Lu2 B24 Os4'
_cell_volume   380.13166053
_cell_formula_units_Z   2
loop_
 _symmetry_equiv_pos_site_id
 _symmetry_equiv_pos_as_xyz
  1  'x, y, z'
loop_
 _atom_site_type_symbol
 _atom_site_label
 _atom_site_symmetry_multiplicity
 _atom_site_fract_x
 _atom_site_fract_y
 _atom_site_fract_z
 _atom_site_occupancy
  Tb  Tb0  1  0.000000  0.321550  0.413948  1
  Tb  Tb1  1  0.000000  0.678450  0.586052  1
  Tb  Tb2  1  0.000000  0.821326  0.085950  1
  Tb  Tb3  1  0.000000  0.178674  0.914050  1
  Tm  Tm4  1  0.000000  0.944343  0.372943  1
  Tm  Tm5  1  0.000000  0.055657  0.627057  1
  Lu  Lu6  1  0.000000  0.444455  0.126806  1
  Lu  Lu7  1  0.000000  0.555545  0.873194  1
  B  B8  1  0.500000  0.554611  0.432521  1
  B  B9  1  0.500000  0.445389  0.567479  1
  B  B10  1  0.500000  0.054693  0.067430  1
  B  B11  1  0.500000  0.945307  0.932570  1
  B  B12  1  0.500000  0.749641  0.419277  1
  B  B13  1  0.500000  0.250359  0.580723  1
  B  B14  1  0.500000  0.250094  0.080720  1
  B  B15  1  0.500000  0.749906  0.919280  1
  B  B16  1  0.500000  0.791621  0.266259  1
  B  B17  1  0.500000  0.208379  0.733740  1
  B  B18  1  0.500000  0.292095  0.233579  1
  B  B19  1  0.500000  0.707905  0.766422  1
  B  B20  1  0.500000  0.630745  0.184517  1
  B  B21  1  0.500000  0.369255  0.815483  1
  B  B22  1  0.500000  0.131161  0.315255  1
  B  B23  1  0.500000  0.868839  0.684745  1
  B  B24  1  0.500000  0.983407  0.213589  1
  B  B25  1  0.500000  0.016593  0.786411  1
  B  B26  1  0.500000  0.483160  0.286116  1
  B  B27  1  0.500000  0.516840  0.713884  1
  B  B28  1  0.500000  0.603786  0.028546  1
  B  B29  1  0.500000  0.396214  0.971454  1
  B  B30  1  0.500000  0.104407  0.471293  1
  B  B31  1  0.500000  0.895593  0.528707  1
  Os  Os32  1  0.000000  0.638147  0.320102  1
  Os  Os33  1  0.000000  0.361853  0.679898  1
  Os  Os34  1  0.000000  0.138938  0.179522  1
  Os  Os35  1  0.000000  0.861062  0.820478  1
