# generated using pymatgen
data_Sr8Y9Lu3Sn16
_symmetry_space_group_name_H-M   'P 1'
_cell_length_a   8.05461800
_cell_length_b   8.51563455
_cell_length_c   16.19545700
_cell_angle_alpha   90.00000000
_cell_angle_beta   90.00000000
_cell_angle_gamma   89.85164073
_symmetry_Int_Tables_number   1
_chemical_formula_structural   Sr8Y9Lu3Sn16
_chemical_formula_sum   'Sr8 Y9 Lu3 Sn16'
_cell_volume   1110.84564041
_cell_formula_units_Z   1
loop_
 _symmetry_equiv_pos_site_id
 _symmetry_equiv_pos_as_xyz
  1  'x, y, z'
loop_
 _atom_site_type_symbol
 _atom_site_label
 _atom_site_symmetry_multiplicity
 _atom_site_fract_x
 _atom_site_fract_y
 _atom_site_fract_z
 _atom_site_occupancy
  Sr  Sr0  1  0.503324  0.677858  0.593460  1
  Sr  Sr1  1  0.003834  0.823806  0.906532  1
  Sr  Sr2  1  0.496171  0.322592  0.094138  1
  Sr  Sr3  1  0.995695  0.177348  0.405890  1
  Sr  Sr4  1  0.496171  0.322592  0.405862  1
  Sr  Sr5  1  0.995695  0.177348  0.094110  1
  Sr  Sr6  1  0.503324  0.677858  0.906540  1
  Sr  Sr7  1  0.003834  0.823806  0.593468  1
  Y  Y8  1  0.674115  0.165398  0.623869  1
  Y  Y9  1  0.176331  0.334370  0.876041  1
  Y  Y10  1  0.324425  0.834794  0.124178  1
  Y  Y11  1  0.825426  0.664740  0.375730  1
  Y  Y12  1  0.324425  0.834794  0.375822  1
  Y  Y13  1  0.825426  0.664740  0.124270  1
  Y  Y14  1  0.674115  0.165398  0.876131  1
  Y  Y15  1  0.176331  0.334370  0.623959  1
  Y  Y16  1  0.841371  0.505953  0.750000  1
  Lu  Lu17  1  0.341246  0.993246  0.750000  1
  Lu  Lu18  1  0.158720  0.493556  0.250000  1
  Lu  Lu19  1  0.658271  0.004074  0.250000  1
  Sn  Sn20  1  0.662019  0.959564  0.456517  1
  Sn  Sn21  1  0.162064  0.540070  0.043207  1
  Sn  Sn22  1  0.338284  0.040225  0.956917  1
  Sn  Sn23  1  0.838127  0.459839  0.542929  1
  Sn  Sn24  1  0.338284  0.040225  0.543083  1
  Sn  Sn25  1  0.838127  0.459839  0.957071  1
  Sn  Sn26  1  0.662019  0.959564  0.043483  1
  Sn  Sn27  1  0.162064  0.540070  0.456793  1
  Sn  Sn28  1  0.476081  0.366820  0.750000  1
  Sn  Sn29  1  0.977980  0.132211  0.750000  1
  Sn  Sn30  1  0.522453  0.631120  0.250000  1
  Sn  Sn31  1  0.022125  0.866042  0.250000  1
  Sn  Sn32  1  0.709044  0.869471  0.750000  1
  Sn  Sn33  1  0.210690  0.635185  0.750000  1
  Sn  Sn34  1  0.292160  0.134494  0.250000  1
  Sn  Sn35  1  0.790226  0.366625  0.250000  1
