# generated using pymatgen
data_Lu2Co9CuP6
_symmetry_space_group_name_H-M   'P 1'
_cell_length_a   3.63896200
_cell_length_b   10.19821300
_cell_length_c   11.75891600
_cell_angle_alpha   90.00000000
_cell_angle_beta   90.00000000
_cell_angle_gamma   90.00000000
_symmetry_Int_Tables_number   1
_chemical_formula_structural   Lu2Co9CuP6
_chemical_formula_sum   'Lu4 Co18 Cu2 P12'
_cell_volume   436.38406837
_cell_formula_units_Z   2
loop_
 _symmetry_equiv_pos_site_id
 _symmetry_equiv_pos_as_xyz
  1  'x, y, z'
loop_
 _atom_site_type_symbol
 _atom_site_label
 _atom_site_symmetry_multiplicity
 _atom_site_fract_x
 _atom_site_fract_y
 _atom_site_fract_z
 _atom_site_occupancy
  Lu  Lu0  1  0.250000  0.577821  0.702358  1
  Lu  Lu1  1  0.250000  0.922179  0.202358  1
  Lu  Lu2  1  0.750000  0.419304  0.296707  1
  Lu  Lu3  1  0.750000  0.080696  0.796707  1
  Co  Co4  1  0.750000  0.286805  0.007958  1
  Co  Co5  1  0.750000  0.213195  0.507958  1
  Co  Co6  1  0.250000  0.405248  0.485931  1
  Co  Co7  1  0.250000  0.094752  0.985931  1
  Co  Co8  1  0.750000  0.591622  0.516691  1
  Co  Co9  1  0.750000  0.908378  0.016691  1
  Co  Co10  1  0.250000  0.224018  0.175312  1
  Co  Co11  1  0.250000  0.275982  0.675312  1
  Co  Co12  1  0.750000  0.777538  0.825957  1
  Co  Co13  1  0.750000  0.722462  0.325957  1
  Co  Co14  1  0.250000  0.881413  0.699488  1
  Co  Co15  1  0.250000  0.618587  0.199488  1
  Co  Co16  1  0.750000  0.120694  0.299314  1
  Co  Co17  1  0.750000  0.379306  0.799314  1
  Co  Co18  1  0.250000  0.465068  0.931149  1
  Co  Co19  1  0.250000  0.034932  0.431149  1
  Co  Co20  1  0.750000  0.535776  0.066793  1
  Co  Co21  1  0.750000  0.964224  0.566793  1
  Cu  Cu22  1  0.250000  0.715172  0.991714  1
  Cu  Cu23  1  0.250000  0.784828  0.491714  1
  P  P24  1  0.250000  0.421329  0.112760  1
  P  P25  1  0.250000  0.078671  0.612760  1
  P  P26  1  0.750000  0.576142  0.882896  1
  P  P27  1  0.750000  0.923858  0.382896  1
  P  P28  1  0.250000  0.266942  0.867552  1
  P  P29  1  0.250000  0.233058  0.367552  1
  P  P30  1  0.750000  0.733002  0.138916  1
  P  P31  1  0.750000  0.766998  0.638916  1
  P  P32  1  0.250000  0.597336  0.390500  1
  P  P33  1  0.250000  0.902664  0.890500  1
  P  P34  1  0.750000  0.396784  0.608005  1
  P  P35  1  0.750000  0.103216  0.108005  1
