# generated using pymatgen
data_CaTb(RhO3)2
_symmetry_space_group_name_H-M   'P 1'
_cell_length_a   5.35199600
_cell_length_b   5.75298900
_cell_length_c   7.68929300
_cell_angle_alpha   90.00000000
_cell_angle_beta   90.00000000
_cell_angle_gamma   90.00000000
_symmetry_Int_Tables_number   1
_chemical_formula_structural   CaTb(RhO3)2
_chemical_formula_sum   'Ca2 Tb2 Rh4 O12'
_cell_volume   236.75313244
_cell_formula_units_Z   2
loop_
 _symmetry_equiv_pos_site_id
 _symmetry_equiv_pos_as_xyz
  1  'x, y, z'
loop_
 _atom_site_type_symbol
 _atom_site_label
 _atom_site_symmetry_multiplicity
 _atom_site_fract_x
 _atom_site_fract_y
 _atom_site_fract_z
 _atom_site_occupancy
  Ca  Ca0  1  0.478502  0.432116  0.750000  1
  Ca  Ca1  1  0.021498  0.932116  0.750000  1
  Tb  Tb2  1  0.525024  0.577392  0.250000  1
  Tb  Tb3  1  0.974976  0.077392  0.250000  1
  Rh  Rh4  1  0.496351  0.003033  0.996366  1
  Rh  Rh5  1  0.003649  0.503033  0.503634  1
  Rh  Rh6  1  0.496351  0.003033  0.503634  1
  Rh  Rh7  1  0.003649  0.503033  0.996366  1
  O  O8  1  0.378439  0.957023  0.250000  1
  O  O9  1  0.121561  0.457023  0.250000  1
  O  O10  1  0.613206  0.048193  0.750000  1
  O  O11  1  0.886794  0.548193  0.750000  1
  O  O12  1  0.806491  0.801888  0.065037  1
  O  O13  1  0.693509  0.301888  0.434963  1
  O  O14  1  0.175205  0.187717  0.546759  1
  O  O15  1  0.324795  0.687717  0.953241  1
  O  O16  1  0.175205  0.187717  0.953241  1
  O  O17  1  0.324795  0.687717  0.546759  1
  O  O18  1  0.806491  0.801888  0.434963  1
  O  O19  1  0.693509  0.301888  0.065037  1
