# generated using pymatgen
data_CeDy7(MgOs)2
_symmetry_space_group_name_H-M   'P 1'
_cell_length_a   9.59044893
_cell_length_b   9.74558434
_cell_length_c   9.74558455
_cell_angle_alpha   58.94960389
_cell_angle_beta   60.52519910
_cell_angle_gamma   60.52519650
_symmetry_Int_Tables_number   1
_chemical_formula_structural   CeDy7(MgOs)2
_chemical_formula_sum   'Ce2 Dy14 Mg4 Os4'
_cell_volume   643.75853088
_cell_formula_units_Z   2
loop_
 _symmetry_equiv_pos_site_id
 _symmetry_equiv_pos_as_xyz
  1  'x, y, z'
loop_
 _atom_site_type_symbol
 _atom_site_label
 _atom_site_symmetry_multiplicity
 _atom_site_fract_x
 _atom_site_fract_y
 _atom_site_fract_z
 _atom_site_occupancy
  Ce  Ce0  1  0.813266  0.186734  0.186734  1
  Ce  Ce1  1  0.186734  0.813266  0.813266  1
  Dy  Dy2  1  0.188040  0.811960  0.188040  1
  Dy  Dy3  1  0.811960  0.188040  0.811960  1
  Dy  Dy4  1  0.188040  0.188040  0.811960  1
  Dy  Dy5  1  0.811960  0.811960  0.188040  1
  Dy  Dy6  1  0.924172  0.575828  0.575828  1
  Dy  Dy7  1  0.575828  0.924172  0.924172  1
  Dy  Dy8  1  0.555694  0.944306  0.555694  1
  Dy  Dy9  1  0.944306  0.555694  0.944306  1
  Dy  Dy10  1  0.555694  0.555694  0.944306  1
  Dy  Dy11  1  0.944306  0.944306  0.555694  1
  Dy  Dy12  1  0.331553  0.351502  0.351502  1
  Dy  Dy13  1  0.351502  0.331553  0.965443  1
  Dy  Dy14  1  0.351502  0.965443  0.331553  1
  Dy  Dy15  1  0.965443  0.351502  0.351502  1
  Mg  Mg16  1  0.583039  0.577635  0.577635  1
  Mg  Mg17  1  0.577635  0.583039  0.261690  1
  Mg  Mg18  1  0.577635  0.261690  0.583039  1
  Mg  Mg19  1  0.261690  0.577635  0.577635  1
  Os  Os20  1  0.107588  0.152672  0.152672  1
  Os  Os21  1  0.152672  0.107588  0.587069  1
  Os  Os22  1  0.152672  0.587069  0.107588  1
  Os  Os23  1  0.587069  0.152672  0.152672  1
