# generated using pymatgen
data_HoTm6Sn23Ru6
_symmetry_space_group_name_H-M   'P 1'
_cell_length_a   9.82889600
_cell_length_b   9.82889446
_cell_length_c   10.04457600
_cell_angle_alpha   90.00000000
_cell_angle_beta   90.00000000
_cell_angle_gamma   119.99999173
_symmetry_Int_Tables_number   1
_chemical_formula_structural   HoTm6Sn23Ru6
_chemical_formula_sum   'Ho1 Tm6 Sn23 Ru6'
_cell_volume   840.37222157
_cell_formula_units_Z   1
loop_
 _symmetry_equiv_pos_site_id
 _symmetry_equiv_pos_as_xyz
  1  'x, y, z'
loop_
 _atom_site_type_symbol
 _atom_site_label
 _atom_site_symmetry_multiplicity
 _atom_site_fract_x
 _atom_site_fract_y
 _atom_site_fract_z
 _atom_site_occupancy
  Ho  Ho0  1  0.000000  0.000000  0.000000  1
  Tm  Tm1  1  0.514340  0.485660  0.697342  1
  Tm  Tm2  1  0.514340  0.028679  0.697342  1
  Tm  Tm3  1  0.971321  0.485660  0.697342  1
  Tm  Tm4  1  0.028679  0.514340  0.302658  1
  Tm  Tm5  1  0.485660  0.971321  0.302658  1
  Tm  Tm6  1  0.485660  0.514340  0.302658  1
  Sn  Sn7  1  0.666667  0.333333  0.177081  1
  Sn  Sn8  1  0.666667  0.333333  0.869108  1
  Sn  Sn9  1  0.333333  0.666667  0.130892  1
  Sn  Sn10  1  0.349168  0.349168  0.000000  1
  Sn  Sn11  1  0.000000  0.650832  0.000000  1
  Sn  Sn12  1  0.650832  0.000000  0.000000  1
  Sn  Sn13  1  0.650832  0.650832  0.000000  1
  Sn  Sn14  1  0.333333  0.666667  0.822919  1
  Sn  Sn15  1  0.440989  0.220495  0.463509  1
  Sn  Sn16  1  0.220495  0.779505  0.536491  1
  Sn  Sn17  1  0.220495  0.440989  0.536491  1
  Sn  Sn18  1  0.559011  0.779505  0.536491  1
  Sn  Sn19  1  0.119086  0.880914  0.274445  1
  Sn  Sn20  1  0.779505  0.559011  0.463509  1
  Sn  Sn21  1  0.779505  0.220495  0.463509  1
  Sn  Sn22  1  0.349168  0.000000  0.000000  1
  Sn  Sn23  1  0.119086  0.238172  0.274445  1
  Sn  Sn24  1  0.761828  0.880914  0.274445  1
  Sn  Sn25  1  0.238172  0.119086  0.725555  1
  Sn  Sn26  1  0.880914  0.761828  0.725555  1
  Sn  Sn27  1  0.880914  0.119086  0.725555  1
  Sn  Sn28  1  0.000000  0.000000  0.500000  1
  Sn  Sn29  1  0.000000  0.349168  0.000000  1
  Ru  Ru30  1  0.170416  0.829584  0.797097  1
  Ru  Ru31  1  0.170416  0.340833  0.797097  1
  Ru  Ru32  1  0.659167  0.829584  0.797097  1
  Ru  Ru33  1  0.340833  0.170416  0.202903  1
  Ru  Ru34  1  0.829584  0.659167  0.202903  1
  Ru  Ru35  1  0.829584  0.170416  0.202903  1
