# generated using pymatgen
data_ZnCd3Au2
_symmetry_space_group_name_H-M   'P 1'
_cell_length_a   8.74349010
_cell_length_b   8.74348960
_cell_length_c   8.74349000
_cell_angle_alpha   59.99999093
_cell_angle_beta   59.99999283
_cell_angle_gamma   59.99999988
_symmetry_Int_Tables_number   1
_chemical_formula_structural   ZnCd3Au2
_chemical_formula_sum   'Zn4 Cd12 Au8'
_cell_volume   472.64970038
_cell_formula_units_Z   4
loop_
 _symmetry_equiv_pos_site_id
 _symmetry_equiv_pos_as_xyz
  1  'x, y, z'
loop_
 _atom_site_type_symbol
 _atom_site_label
 _atom_site_symmetry_multiplicity
 _atom_site_fract_x
 _atom_site_fract_y
 _atom_site_fract_z
 _atom_site_occupancy
  Zn  Zn0  1  0.125000  0.625000  0.625000  1
  Zn  Zn1  1  0.625000  0.125000  0.625000  1
  Zn  Zn2  1  0.625000  0.625000  0.125000  1
  Zn  Zn3  1  0.625000  0.625000  0.625000  1
  Cd  Cd4  1  0.809504  0.809504  0.190496  1
  Cd  Cd5  1  0.190496  0.190496  0.809504  1
  Cd  Cd6  1  0.809504  0.190496  0.809504  1
  Cd  Cd7  1  0.190496  0.809504  0.190496  1
  Cd  Cd8  1  0.190496  0.809504  0.809504  1
  Cd  Cd9  1  0.809504  0.190496  0.190496  1
  Cd  Cd10  1  0.440496  0.440496  0.059504  1
  Cd  Cd11  1  0.059504  0.059504  0.440496  1
  Cd  Cd12  1  0.440496  0.059504  0.440496  1
  Cd  Cd13  1  0.059504  0.440496  0.059504  1
  Cd  Cd14  1  0.059504  0.440496  0.440496  1
  Cd  Cd15  1  0.440496  0.059504  0.059504  1
  Au  Au16  1  0.764902  0.411699  0.411699  1
  Au  Au17  1  0.411699  0.764902  0.411699  1
  Au  Au18  1  0.411699  0.411699  0.764902  1
  Au  Au19  1  0.411699  0.411699  0.411699  1
  Au  Au20  1  0.485098  0.838301  0.838301  1
  Au  Au21  1  0.838301  0.485098  0.838301  1
  Au  Au22  1  0.838301  0.838301  0.485098  1
  Au  Au23  1  0.838301  0.838301  0.838301  1
