# generated using pymatgen
data_Sm8TcOsI8
_symmetry_space_group_name_H-M   'P 1'
_cell_length_a   10.92529085
_cell_length_b   10.92529357
_cell_length_c   6.36137851
_cell_angle_alpha   89.78167813
_cell_angle_beta   89.78167196
_cell_angle_gamma   89.75334327
_symmetry_Int_Tables_number   1
_chemical_formula_structural   Sm8TcOsI8
_chemical_formula_sum   'Sm8 Tc1 Os1 I8'
_cell_volume   759.28891105
_cell_formula_units_Z   1
loop_
 _symmetry_equiv_pos_site_id
 _symmetry_equiv_pos_as_xyz
  1  'x, y, z'
loop_
 _atom_site_type_symbol
 _atom_site_label
 _atom_site_symmetry_multiplicity
 _atom_site_fract_x
 _atom_site_fract_y
 _atom_site_fract_z
 _atom_site_occupancy
  Sm  Sm0  1  0.211292  0.914608  0.000415  1
  Sm  Sm1  1  0.788634  0.085401  0.999715  1
  Sm  Sm2  1  0.085392  0.788708  0.499585  1
  Sm  Sm3  1  0.914599  0.211366  0.500285  1
  Sm  Sm4  1  0.788544  0.915421  0.500596  1
  Sm  Sm5  1  0.211539  0.084582  0.499295  1
  Sm  Sm6  1  0.084579  0.211456  0.999404  1
  Sm  Sm7  1  0.915418  0.788461  0.000705  1
  Tc  Tc8  1  0.999930  0.000070  0.250000  1
  Os  Os9  1  0.999932  0.000068  0.750000  1
  I  I10  1  0.373106  0.838561  0.497466  1
  I  I11  1  0.627015  0.161391  0.501710  1
  I  I12  1  0.161439  0.626894  0.002534  1
  I  I13  1  0.838609  0.372985  0.998290  1
  I  I14  1  0.371502  0.160337  0.004477  1
  I  I15  1  0.628448  0.839641  0.996829  1
  I  I16  1  0.839663  0.628498  0.495523  1
  I  I17  1  0.160359  0.371552  0.503171  1
