# generated using pymatgen
data_Yb2Ce3Pb3S
_symmetry_space_group_name_H-M   'P 1'
_cell_length_a   9.42182500
_cell_length_b   9.42182492
_cell_length_c   6.87844100
_cell_angle_alpha   90.00000000
_cell_angle_beta   90.00000000
_cell_angle_gamma   119.99999676
_symmetry_Int_Tables_number   1
_chemical_formula_structural   Yb2Ce3Pb3S
_chemical_formula_sum   'Yb4 Ce6 Pb6 S2'
_cell_volume   528.79912234
_cell_formula_units_Z   2
loop_
 _symmetry_equiv_pos_site_id
 _symmetry_equiv_pos_as_xyz
  1  'x, y, z'
loop_
 _atom_site_type_symbol
 _atom_site_label
 _atom_site_symmetry_multiplicity
 _atom_site_fract_x
 _atom_site_fract_y
 _atom_site_fract_z
 _atom_site_occupancy
  Yb  Yb0  1  0.666667  0.333333  0.000000  1
  Yb  Yb1  1  0.333333  0.666667  0.000000  1
  Yb  Yb2  1  0.333333  0.666667  0.500000  1
  Yb  Yb3  1  0.666667  0.333333  0.500000  1
  Ce  Ce4  1  0.758238  0.758238  0.750000  1
  Ce  Ce5  1  0.241762  0.000000  0.750000  1
  Ce  Ce6  1  0.000000  0.241762  0.750000  1
  Ce  Ce7  1  0.241762  0.241762  0.250000  1
  Ce  Ce8  1  0.758238  0.000000  0.250000  1
  Ce  Ce9  1  0.000000  0.758238  0.250000  1
  Pb  Pb10  1  0.398394  0.398394  0.750000  1
  Pb  Pb11  1  0.601606  0.000000  0.750000  1
  Pb  Pb12  1  0.000000  0.601606  0.750000  1
  Pb  Pb13  1  0.601606  0.601606  0.250000  1
  Pb  Pb14  1  0.398394  0.000000  0.250000  1
  Pb  Pb15  1  0.000000  0.398394  0.250000  1
  S  S16  1  0.000000  0.000000  0.000000  1
  S  S17  1  0.000000  0.000000  0.500000  1
