# generated using pymatgen
data_Hf3V3N
_symmetry_space_group_name_H-M   'P 1'
_cell_length_a   8.51220905
_cell_length_b   8.47708201
_cell_length_c   8.51220700
_cell_angle_alpha   59.86282669
_cell_angle_beta   59.99999629
_cell_angle_gamma   59.86282793
_symmetry_Int_Tables_number   1
_chemical_formula_structural   Hf3V3N
_chemical_formula_sum   'Hf12 V12 N4'
_cell_volume   433.42330774
_cell_formula_units_Z   4
loop_
 _symmetry_equiv_pos_site_id
 _symmetry_equiv_pos_as_xyz
  1  'x, y, z'
loop_
 _atom_site_type_symbol
 _atom_site_label
 _atom_site_symmetry_multiplicity
 _atom_site_fract_x
 _atom_site_fract_y
 _atom_site_fract_z
 _atom_site_occupancy
  Hf  Hf0  1  0.812279  0.187676  0.187766  1
  Hf  Hf1  1  0.187703  0.812182  0.187703  1
  Hf  Hf2  1  0.812412  0.812182  0.187703  1
  Hf  Hf3  1  0.187703  0.812182  0.812412  1
  Hf  Hf4  1  0.812279  0.187676  0.812279  1
  Hf  Hf5  1  0.187766  0.187676  0.812279  1
  Hf  Hf6  1  0.437871  0.062099  0.062160  1
  Hf  Hf7  1  0.062265  0.437832  0.062265  1
  Hf  Hf8  1  0.437638  0.437832  0.062265  1
  Hf  Hf9  1  0.062265  0.437832  0.437638  1
  Hf  Hf10  1  0.437871  0.062099  0.437871  1
  Hf  Hf11  1  0.062160  0.062099  0.437871  1
  V  V12  1  0.421251  0.422433  0.735064  1
  V  V13  1  0.421251  0.422433  0.421251  1
  V  V14  1  0.735064  0.422433  0.421251  1
  V  V15  1  0.421501  0.735495  0.421501  1
  V  V16  1  0.828839  0.827978  0.514344  1
  V  V17  1  0.828839  0.827978  0.828839  1
  V  V18  1  0.514344  0.827978  0.828839  1
  V  V19  1  0.625447  0.625282  0.123823  1
  V  V20  1  0.625447  0.625282  0.625447  1
  V  V21  1  0.123823  0.625282  0.625447  1
  V  V22  1  0.625219  0.124342  0.625219  1
  V  V23  1  0.828795  0.513615  0.828795  1
  N  N24  1  0.124998  0.125015  0.624991  1
  N  N25  1  0.124998  0.125015  0.124998  1
  N  N26  1  0.624991  0.125015  0.124998  1
  N  N27  1  0.124981  0.625055  0.124981  1
