# generated using pymatgen
data_Tb20N19
_symmetry_space_group_name_H-M   'P 1'
_cell_length_a   9.26198781
_cell_length_b   9.26198660
_cell_length_c   9.26198699
_cell_angle_alpha   106.55404958
_cell_angle_beta   106.55403981
_cell_angle_gamma   115.47775982
_symmetry_Int_Tables_number   1
_chemical_formula_structural   Tb20N19
_chemical_formula_sum   'Tb20 N19'
_cell_volume   606.53877072
_cell_formula_units_Z   1
loop_
 _symmetry_equiv_pos_site_id
 _symmetry_equiv_pos_as_xyz
  1  'x, y, z'
loop_
 _atom_site_type_symbol
 _atom_site_label
 _atom_site_symmetry_multiplicity
 _atom_site_fract_x
 _atom_site_fract_y
 _atom_site_fract_z
 _atom_site_occupancy
  Tb  Tb0  1  0.047249  0.649954  0.200564  1
  Tb  Tb1  1  0.395007  0.708810  0.103818  1
  Tb  Tb2  1  0.100157  0.797891  0.898048  1
  Tb  Tb3  1  0.760526  0.760526  0.000000  1
  Tb  Tb4  1  0.797891  0.899843  0.697734  1
  Tb  Tb5  1  0.449391  0.846683  0.799436  1
  Tb  Tb6  1  0.500000  0.000000  0.500000  1
  Tb  Tb7  1  0.153317  0.952751  0.602705  1
  Tb  Tb8  1  0.202109  0.100157  0.302266  1
  Tb  Tb9  1  0.846683  0.047249  0.397295  1
  Tb  Tb10  1  0.899843  0.202109  0.101952  1
  Tb  Tb11  1  0.550609  0.153317  0.200564  1
  Tb  Tb12  1  0.604993  0.291190  0.896182  1
  Tb  Tb13  1  0.239474  0.239474  0.000000  1
  Tb  Tb14  1  0.291190  0.395007  0.686197  1
  Tb  Tb15  1  0.952751  0.350046  0.799436  1
  Tb  Tb16  1  0.000000  0.500000  0.500000  1
  Tb  Tb17  1  0.649954  0.449391  0.602705  1
  Tb  Tb18  1  0.708810  0.604993  0.313803  1
  Tb  Tb19  1  0.350046  0.550609  0.397295  1
  N  N20  1  0.897710  0.698981  0.596690  1
  N  N21  1  0.550834  0.650455  0.702690  1
  N  N22  1  0.600366  0.799088  0.399455  1
  N  N23  1  0.250000  0.750000  0.500000  1
  N  N24  1  0.301019  0.897710  0.198729  1
  N  N25  1  0.947765  0.848144  0.297310  1
  N  N26  1  0.000000  0.000000  0.000000  1
  N  N27  1  0.650455  0.947765  0.099621  1
  N  N28  1  0.698981  0.102290  0.801271  1
  N  N29  1  0.349545  0.052235  0.900379  1
  N  N30  1  0.052235  0.151856  0.702690  1
  N  N31  1  0.750000  0.250000  0.500000  1
  N  N32  1  0.399634  0.200912  0.600545  1
  N  N33  1  0.449166  0.349545  0.297310  1
  N  N34  1  0.102290  0.301019  0.403310  1
  N  N35  1  0.151856  0.449166  0.099621  1
  N  N36  1  0.200912  0.600366  0.801279  1
  N  N37  1  0.799088  0.399634  0.198721  1
  N  N38  1  0.848144  0.550834  0.900379  1
