# generated using pymatgen
data_Pr3Sm(IO4)4
_symmetry_space_group_name_H-M   'P 1'
_cell_length_a   5.74937699
_cell_length_b   5.75885461
_cell_length_c   11.16757100
_cell_angle_alpha   90.03386695
_cell_angle_beta   89.72135179
_cell_angle_gamma   90.08010531
_symmetry_Int_Tables_number   1
_chemical_formula_structural   Pr3Sm(IO4)4
_chemical_formula_sum   'Pr3 Sm1 I4 O16'
_cell_volume   369.75153770
_cell_formula_units_Z   1
loop_
 _symmetry_equiv_pos_site_id
 _symmetry_equiv_pos_as_xyz
  1  'x, y, z'
loop_
 _atom_site_type_symbol
 _atom_site_label
 _atom_site_symmetry_multiplicity
 _atom_site_fract_x
 _atom_site_fract_y
 _atom_site_fract_z
 _atom_site_occupancy
  Pr  Pr0  1  0.490580  0.316646  0.893204  1
  Pr  Pr1  1  0.502731  0.816248  0.109746  1
  Pr  Pr2  1  0.004950  0.817271  0.893378  1
  Sm  Sm3  1  0.986956  0.317305  0.103232  1
  I  I4  1  0.004448  0.325851  0.634850  1
  I  I5  1  0.998037  0.824338  0.362487  1
  I  I6  1  0.496698  0.826009  0.635041  1
  I  I7  1  0.508533  0.324195  0.364429  1
  O  O8  1  0.240085  0.068833  0.009595  1
  O  O9  1  0.753809  0.565058  0.994227  1
  O  O10  1  0.249736  0.564555  0.009089  1
  O  O11  1  0.743444  0.068661  0.994601  1
  O  O12  1  0.129899  0.432249  0.776432  1
  O  O13  1  0.871777  0.936542  0.222611  1
  O  O14  1  0.368891  0.931906  0.776831  1
  O  O15  1  0.638370  0.428438  0.223006  1
  O  O16  1  0.847954  0.084279  0.713000  1
  O  O17  1  0.150929  0.582135  0.282883  1
  O  O18  1  0.651830  0.584811  0.713060  1
  O  O19  1  0.354515  0.079804  0.288511  1
  O  O20  1  0.245971  0.164624  0.563704  1
  O  O21  1  0.756043  0.664595  0.434748  1
  O  O22  1  0.256731  0.664419  0.563547  1
  O  O23  1  0.747085  0.164873  0.437789  1
