# generated using pymatgen
data_Dy4HoZn2Bi
_symmetry_space_group_name_H-M   'P 1'
_cell_length_a   8.63853768
_cell_length_b   8.63853882
_cell_length_c   8.63853779
_cell_angle_alpha   123.38700713
_cell_angle_beta   123.38700393
_cell_angle_gamma   84.22726686
_symmetry_Int_Tables_number   1
_chemical_formula_structural   Dy4HoZn2Bi
_chemical_formula_sum   'Dy8 Ho2 Zn4 Bi2'
_cell_volume   430.10880126
_cell_formula_units_Z   2
loop_
 _symmetry_equiv_pos_site_id
 _symmetry_equiv_pos_as_xyz
  1  'x, y, z'
loop_
 _atom_site_type_symbol
 _atom_site_label
 _atom_site_symmetry_multiplicity
 _atom_site_fract_x
 _atom_site_fract_y
 _atom_site_fract_z
 _atom_site_occupancy
  Dy  Dy0  1  0.011168  0.511168  0.806080  1
  Dy  Dy1  1  0.705088  0.205088  0.193920  1
  Dy  Dy2  1  0.511168  0.705088  0.500000  1
  Dy  Dy3  1  0.205088  0.011168  0.500000  1
  Dy  Dy4  1  0.988832  0.488832  0.193920  1
  Dy  Dy5  1  0.294912  0.794912  0.806080  1
  Dy  Dy6  1  0.488832  0.294912  0.500000  1
  Dy  Dy7  1  0.794912  0.988832  0.500000  1
  Ho  Ho8  1  0.000000  0.000000  0.000000  1
  Ho  Ho9  1  0.500000  0.500000  0.000000  1
  Zn  Zn10  1  0.639152  0.139152  0.778304  1
  Zn  Zn11  1  0.360848  0.860848  0.221696  1
  Zn  Zn12  1  0.139152  0.360848  0.500000  1
  Zn  Zn13  1  0.860848  0.639152  0.500000  1
  Bi  Bi14  1  0.750000  0.750000  0.000000  1
  Bi  Bi15  1  0.250000  0.250000  0.000000  1
