# generated using pymatgen
data_Y4ErTl2Bi
_symmetry_space_group_name_H-M   'P 1'
_cell_length_a   9.06647104
_cell_length_b   9.05844082
_cell_length_c   6.62315000
_cell_angle_alpha   90.05485150
_cell_angle_beta   89.97259854
_cell_angle_gamma   119.97070380
_symmetry_Int_Tables_number   1
_chemical_formula_structural   Y4ErTl2Bi
_chemical_formula_sum   'Y8 Er2 Tl4 Bi2'
_cell_volume   471.21041924
_cell_formula_units_Z   2
loop_
 _symmetry_equiv_pos_site_id
 _symmetry_equiv_pos_as_xyz
  1  'x, y, z'
loop_
 _atom_site_type_symbol
 _atom_site_label
 _atom_site_symmetry_multiplicity
 _atom_site_fract_x
 _atom_site_fract_y
 _atom_site_fract_z
 _atom_site_occupancy
  Y  Y0  1  0.670510  0.337717  0.006248  1
  Y  Y1  1  0.329490  0.667208  0.006248  1
  Y  Y2  1  0.767681  0.759347  0.749452  1
  Y  Y3  1  0.232319  0.991664  0.749452  1
  Y  Y4  1  0.000000  0.241738  0.749466  1
  Y  Y5  1  0.238716  0.239124  0.250493  1
  Y  Y6  1  0.761284  0.000408  0.250493  1
  Y  Y7  1  0.000000  0.760531  0.250974  1
  Er  Er8  1  0.329679  0.667578  0.493047  1
  Er  Er9  1  0.670321  0.337897  0.493047  1
  Tl  Tl10  1  0.000000  0.597330  0.747176  1
  Tl  Tl11  1  0.604544  0.606976  0.251971  1
  Tl  Tl12  1  0.395456  0.002432  0.251971  1
  Tl  Tl13  1  0.000000  0.396404  0.253282  1
  Bi  Bi14  1  0.394881  0.394263  0.748340  1
  Bi  Bi15  1  0.605119  0.999382  0.748340  1
