# generated using pymatgen
data_SmNpB6W
_symmetry_space_group_name_H-M   'P 1'
_cell_length_a   3.63987900
_cell_length_b   9.42049300
_cell_length_c   11.50110600
_cell_angle_alpha   90.00000000
_cell_angle_beta   90.00000000
_cell_angle_gamma   90.00000000
_symmetry_Int_Tables_number   1
_chemical_formula_structural   SmNpB6W
_chemical_formula_sum   'Sm4 Np4 B24 W4'
_cell_volume   394.36665250
_cell_formula_units_Z   4
loop_
 _symmetry_equiv_pos_site_id
 _symmetry_equiv_pos_as_xyz
  1  'x, y, z'
loop_
 _atom_site_type_symbol
 _atom_site_label
 _atom_site_symmetry_multiplicity
 _atom_site_fract_x
 _atom_site_fract_y
 _atom_site_fract_z
 _atom_site_occupancy
  Sm  Sm0  1  0.000000  0.337723  0.407914  1
  Sm  Sm1  1  0.000000  0.662277  0.592086  1
  Sm  Sm2  1  0.000000  0.837723  0.092086  1
  Sm  Sm3  1  0.000000  0.162277  0.907914  1
  Np  Np4  1  0.000000  0.959562  0.401126  1
  Np  Np5  1  0.000000  0.040438  0.598874  1
  Np  Np6  1  0.000000  0.459562  0.098874  1
  Np  Np7  1  0.000000  0.540438  0.901126  1
  B  B8  1  0.500000  0.553718  0.430978  1
  B  B9  1  0.500000  0.446282  0.569022  1
  B  B10  1  0.500000  0.053718  0.069022  1
  B  B11  1  0.500000  0.946282  0.930978  1
  B  B12  1  0.500000  0.748132  0.422954  1
  B  B13  1  0.500000  0.251868  0.577046  1
  B  B14  1  0.500000  0.248132  0.077046  1
  B  B15  1  0.500000  0.751868  0.922954  1
  B  B16  1  0.500000  0.806913  0.275702  1
  B  B17  1  0.500000  0.193087  0.724298  1
  B  B18  1  0.500000  0.306913  0.224298  1
  B  B19  1  0.500000  0.693087  0.775702  1
  B  B20  1  0.500000  0.643762  0.186245  1
  B  B21  1  0.500000  0.356238  0.813755  1
  B  B22  1  0.500000  0.143762  0.313755  1
  B  B23  1  0.500000  0.856238  0.686245  1
  B  B24  1  0.500000  0.989475  0.222818  1
  B  B25  1  0.500000  0.010525  0.777182  1
  B  B26  1  0.500000  0.489475  0.277182  1
  B  B27  1  0.500000  0.510525  0.722818  1
  B  B28  1  0.500000  0.636132  0.037545  1
  B  B29  1  0.500000  0.363868  0.962455  1
  B  B30  1  0.500000  0.136132  0.462455  1
  B  B31  1  0.500000  0.863868  0.537545  1
  W  W32  1  0.000000  0.648483  0.317219  1
  W  W33  1  0.000000  0.351517  0.682781  1
  W  W34  1  0.000000  0.148483  0.182781  1
  W  W35  1  0.000000  0.851517  0.817219  1
