# generated using pymatgen
data_Sc2USn3Ir2Rh
_symmetry_space_group_name_H-M   'P 1'
_cell_length_a   7.41373055
_cell_length_b   7.55062225
_cell_length_c   3.72251400
_cell_angle_alpha   90.00000000
_cell_angle_beta   90.00000000
_cell_angle_gamma   120.61291223
_symmetry_Int_Tables_number   1
_chemical_formula_structural   Sc2USn3Ir2Rh
_chemical_formula_sum   'Sc2 U1 Sn3 Ir2 Rh1'
_cell_volume   179.33745102
_cell_formula_units_Z   1
loop_
 _symmetry_equiv_pos_site_id
 _symmetry_equiv_pos_as_xyz
  1  'x, y, z'
loop_
 _atom_site_type_symbol
 _atom_site_label
 _atom_site_symmetry_multiplicity
 _atom_site_fract_x
 _atom_site_fract_y
 _atom_site_fract_z
 _atom_site_occupancy
  Sc  Sc0  1  0.402782  0.399669  0.500000  1
  Sc  Sc1  1  0.597255  0.996915  0.500000  1
  U  U2  1  0.000006  0.588471  0.500000  1
  Sn  Sn3  1  0.716490  0.735738  0.000000  1
  Sn  Sn4  1  0.283498  0.019229  0.000000  1
  Sn  Sn5  1  0.000016  0.246983  0.000000  1
  Ir  Ir6  1  0.691437  0.358395  0.000000  1
  Ir  Ir7  1  0.308580  0.666972  0.000000  1
  Rh  Rh8  1  0.999938  0.987627  0.500000  1
