# generated using pymatgen
data_Tb4Lu4In3Ir
_symmetry_space_group_name_H-M   'P 1'
_cell_length_a   10.27099000
_cell_length_b   10.27099064
_cell_length_c   7.05162000
_cell_angle_alpha   90.00000000
_cell_angle_beta   90.00000000
_cell_angle_gamma   119.99999794
_symmetry_Int_Tables_number   1
_chemical_formula_structural   Tb4Lu4In3Ir
_chemical_formula_sum   'Tb8 Lu8 In6 Ir2'
_cell_volume   644.23480104
_cell_formula_units_Z   2
loop_
 _symmetry_equiv_pos_site_id
 _symmetry_equiv_pos_as_xyz
  1  'x, y, z'
loop_
 _atom_site_type_symbol
 _atom_site_label
 _atom_site_symmetry_multiplicity
 _atom_site_fract_x
 _atom_site_fract_y
 _atom_site_fract_z
 _atom_site_occupancy
  Tb  Tb0  1  0.532747  0.065494  0.787882  1
  Tb  Tb1  1  0.934506  0.467253  0.787882  1
  Tb  Tb2  1  0.532747  0.467253  0.787882  1
  Tb  Tb3  1  0.467253  0.934506  0.287882  1
  Tb  Tb4  1  0.065494  0.532747  0.287882  1
  Tb  Tb5  1  0.467253  0.532747  0.287882  1
  Tb  Tb6  1  0.000000  0.000000  0.773985  1
  Tb  Tb7  1  0.000000  0.000000  0.273985  1
  Lu  Lu8  1  0.822809  0.645619  0.492242  1
  Lu  Lu9  1  0.354381  0.177191  0.492242  1
  Lu  Lu10  1  0.822809  0.177191  0.492242  1
  Lu  Lu11  1  0.177191  0.354381  0.992242  1
  Lu  Lu12  1  0.645619  0.822809  0.992242  1
  Lu  Lu13  1  0.177191  0.822809  0.992242  1
  Lu  Lu14  1  0.666667  0.333333  0.171914  1
  Lu  Lu15  1  0.333333  0.666667  0.671914  1
  In  In16  1  0.836390  0.672782  0.039723  1
  In  In17  1  0.327218  0.163610  0.039723  1
  In  In18  1  0.836390  0.163610  0.039723  1
  In  In19  1  0.163610  0.327218  0.539723  1
  In  In20  1  0.672782  0.836390  0.539723  1
  In  In21  1  0.163610  0.836390  0.539723  1
  Ir  Ir22  1  0.666667  0.333333  0.557597  1
  Ir  Ir23  1  0.333333  0.666667  0.057597  1
