# generated using pymatgen
data_SmCdSnSbO7
_symmetry_space_group_name_H-M   'P 1'
_cell_length_a   7.46353400
_cell_length_b   7.46353400
_cell_length_c   10.54061900
_cell_angle_alpha   90.00000000
_cell_angle_beta   90.00000000
_cell_angle_gamma   90.00000000
_symmetry_Int_Tables_number   1
_chemical_formula_structural   SmCdSnSbO7
_chemical_formula_sum   'Sm4 Cd4 Sn4 Sb4 O28'
_cell_volume   587.15822215
_cell_formula_units_Z   4
loop_
 _symmetry_equiv_pos_site_id
 _symmetry_equiv_pos_as_xyz
  1  'x, y, z'
loop_
 _atom_site_type_symbol
 _atom_site_label
 _atom_site_symmetry_multiplicity
 _atom_site_fract_x
 _atom_site_fract_y
 _atom_site_fract_z
 _atom_site_occupancy
  Sm  Sm0  1  0.000000  0.740131  0.000000  1
  Sm  Sm1  1  0.259869  0.000000  0.250000  1
  Sm  Sm2  1  0.000000  0.259869  0.500000  1
  Sm  Sm3  1  0.740131  0.000000  0.750000  1
  Cd  Cd4  1  0.500000  0.734895  0.000000  1
  Cd  Cd5  1  0.500000  0.265105  0.500000  1
  Cd  Cd6  1  0.734895  0.500000  0.750000  1
  Cd  Cd7  1  0.265105  0.500000  0.250000  1
  Sn  Sn8  1  0.757232  0.000000  0.250000  1
  Sn  Sn9  1  0.000000  0.757232  0.500000  1
  Sn  Sn10  1  0.242768  0.000000  0.750000  1
  Sn  Sn11  1  0.000000  0.242768  0.000000  1
  Sb  Sb12  1  0.245106  0.500000  0.750000  1
  Sb  Sb13  1  0.500000  0.754894  0.500000  1
  Sb  Sb14  1  0.500000  0.245106  0.000000  1
  Sb  Sb15  1  0.754894  0.500000  0.250000  1
  O  O16  1  0.258754  0.741246  0.125000  1
  O  O17  1  0.545947  0.947912  0.371953  1
  O  O18  1  0.741246  0.258754  0.625000  1
  O  O19  1  0.968647  0.968647  0.375000  1
  O  O20  1  0.052088  0.454053  0.878047  1
  O  O21  1  0.031353  0.031353  0.875000  1
  O  O22  1  0.031353  0.968647  0.625000  1
  O  O23  1  0.257023  0.237383  0.077338  1
  O  O24  1  0.237383  0.257023  0.672662  1
  O  O25  1  0.257023  0.762617  0.422662  1
  O  O26  1  0.444559  0.444559  0.875000  1
  O  O27  1  0.454053  0.052088  0.871953  1
  O  O28  1  0.454053  0.947912  0.628047  1
  O  O29  1  0.555441  0.555441  0.375000  1
  O  O30  1  0.545947  0.052088  0.128047  1
  O  O31  1  0.555441  0.444559  0.125000  1
  O  O32  1  0.742977  0.762617  0.577338  1
  O  O33  1  0.741246  0.741246  0.875000  1
  O  O34  1  0.762617  0.257023  0.327338  1
  O  O35  1  0.762617  0.742977  0.172662  1
  O  O36  1  0.742977  0.237383  0.922662  1
  O  O37  1  0.947912  0.545947  0.378047  1
  O  O38  1  0.947912  0.454053  0.121953  1
  O  O39  1  0.968647  0.031353  0.125000  1
  O  O40  1  0.052088  0.545947  0.621953  1
  O  O41  1  0.258754  0.258754  0.375000  1
  O  O42  1  0.237383  0.742977  0.827338  1
  O  O43  1  0.444559  0.555441  0.625000  1
