# generated using pymatgen
data_Sm2Tm4FeI10
_symmetry_space_group_name_H-M   'P 1'
_cell_length_a   7.72271382
_cell_length_b   9.73400269
_cell_length_c   9.58265100
_cell_angle_alpha   106.56793251
_cell_angle_beta   95.97353701
_cell_angle_gamma   105.09910681
_symmetry_Int_Tables_number   1
_chemical_formula_structural   Sm2Tm4FeI10
_chemical_formula_sum   'Sm2 Tm4 Fe1 I10'
_cell_volume   654.11438962
_cell_formula_units_Z   1
loop_
 _symmetry_equiv_pos_site_id
 _symmetry_equiv_pos_as_xyz
  1  'x, y, z'
loop_
 _atom_site_type_symbol
 _atom_site_label
 _atom_site_symmetry_multiplicity
 _atom_site_fract_x
 _atom_site_fract_y
 _atom_site_fract_z
 _atom_site_occupancy
  Sm  Sm0  1  0.892198  0.959809  0.219579  1
  Sm  Sm1  1  0.107802  0.040191  0.780421  1
  Tm  Tm2  1  0.029247  0.717294  0.914889  1
  Tm  Tm3  1  0.970753  0.282706  0.085111  1
  Tm  Tm4  1  0.655796  0.876789  0.835910  1
  Tm  Tm5  1  0.344204  0.123211  0.164090  1
  Fe  Fe6  1  0.000000  0.000000  0.000000  1
  I  I7  1  0.651555  0.552517  0.729852  1
  I  I8  1  0.348445  0.447483  0.270148  1
  I  I9  1  0.740218  0.912271  0.544400  1
  I  I10  1  0.259782  0.087729  0.455600  1
  I  I11  1  0.085128  0.373958  0.821502  1
  I  I12  1  0.914872  0.626042  0.178498  1
  I  I13  1  0.454393  0.817429  0.092720  1
  I  I14  1  0.545607  0.182571  0.907280  1
  I  I15  1  0.223313  0.742106  0.657140  1
  I  I16  1  0.776687  0.257894  0.342860  1
