# generated using pymatgen
data_HoCu2Ni2Au
_symmetry_space_group_name_H-M   'P 1'
_cell_length_a   5.00477586
_cell_length_b   4.95210523
_cell_length_c   4.95210482
_cell_angle_alpha   59.74039611
_cell_angle_beta   59.64752964
_cell_angle_gamma   59.64753637
_symmetry_Int_Tables_number   1
_chemical_formula_structural   HoCu2Ni2Au
_chemical_formula_sum   'Ho1 Cu2 Ni2 Au1'
_cell_volume   86.15188640
_cell_formula_units_Z   1
loop_
 _symmetry_equiv_pos_site_id
 _symmetry_equiv_pos_as_xyz
  1  'x, y, z'
loop_
 _atom_site_type_symbol
 _atom_site_label
 _atom_site_symmetry_multiplicity
 _atom_site_fract_x
 _atom_site_fract_y
 _atom_site_fract_z
 _atom_site_occupancy
  Ho  Ho0  1  0.002981  0.997019  0.997019  1
  Cu  Cu1  1  0.623932  0.625606  0.126531  1
  Cu  Cu2  1  0.623932  0.126531  0.625606  1
  Ni  Ni3  1  0.124928  0.625912  0.625912  1
  Ni  Ni4  1  0.623247  0.625912  0.625912  1
  Au  Au5  1  0.250980  0.249020  0.249020  1
