# generated using pymatgen
data_LaGdYTaO7
_symmetry_space_group_name_H-M   'P 1'
_cell_length_a   6.56808096
_cell_length_b   6.56807988
_cell_length_c   7.67279000
_cell_angle_alpha   90.00000000
_cell_angle_beta   90.00000000
_cell_angle_gamma   109.17044870
_symmetry_Int_Tables_number   1
_chemical_formula_structural   LaGdYTaO7
_chemical_formula_sum   'La2 Gd2 Y2 Ta2 O14'
_cell_volume   312.64629440
_cell_formula_units_Z   2
loop_
 _symmetry_equiv_pos_site_id
 _symmetry_equiv_pos_as_xyz
  1  'x, y, z'
loop_
 _atom_site_type_symbol
 _atom_site_label
 _atom_site_symmetry_multiplicity
 _atom_site_fract_x
 _atom_site_fract_y
 _atom_site_fract_z
 _atom_site_occupancy
  La  La0  1  0.499363  0.499363  0.500000  1
  La  La1  1  0.499363  0.499363  0.000000  1
  Gd  Gd2  1  0.533008  0.000464  0.750000  1
  Gd  Gd3  1  0.000464  0.533008  0.250000  1
  Y  Y4  1  0.467508  0.999368  0.250000  1
  Y  Y5  1  0.999368  0.467508  0.750000  1
  Ta  Ta6  1  0.999735  0.999735  0.500000  1
  Ta  Ta7  1  0.999735  0.999735  0.000000  1
  O  O8  1  0.683362  0.933803  0.466217  1
  O  O9  1  0.933803  0.683362  0.533783  1
  O  O10  1  0.683362  0.933803  0.033783  1
  O  O11  1  0.933803  0.683362  0.966217  1
  O  O12  1  0.317580  0.066861  0.529999  1
  O  O13  1  0.066861  0.317580  0.470001  1
  O  O14  1  0.317580  0.066861  0.970001  1
  O  O15  1  0.066861  0.317580  0.029999  1
  O  O16  1  0.939690  0.061590  0.750000  1
  O  O17  1  0.061590  0.939690  0.250000  1
  O  O18  1  0.361128  0.633077  0.750000  1
  O  O19  1  0.633077  0.361128  0.250000  1
  O  O20  1  0.644060  0.358701  0.750000  1
  O  O21  1  0.358701  0.644060  0.250000  1
