# generated using pymatgen
data_Sc4Ti2B4Ru3Rh7
_symmetry_space_group_name_H-M   'P 1'
_cell_length_a   3.04116300
_cell_length_b   9.47141508
_cell_length_c   9.45619808
_cell_angle_alpha   90.01491756
_cell_angle_beta   90.00000000
_cell_angle_gamma   90.00000000
_symmetry_Int_Tables_number   1
_chemical_formula_structural   Sc4Ti2B4Ru3Rh7
_chemical_formula_sum   'Sc4 Ti2 B4 Ru3 Rh7'
_cell_volume   272.37742759
_cell_formula_units_Z   1
loop_
 _symmetry_equiv_pos_site_id
 _symmetry_equiv_pos_as_xyz
  1  'x, y, z'
loop_
 _atom_site_type_symbol
 _atom_site_label
 _atom_site_symmetry_multiplicity
 _atom_site_fract_x
 _atom_site_fract_y
 _atom_site_fract_z
 _atom_site_occupancy
  Sc  Sc0  1  0.000000  0.172623  0.173607  1
  Sc  Sc1  1  0.000000  0.673609  0.322621  1
  Sc  Sc2  1  0.000000  0.326802  0.673598  1
  Sc  Sc3  1  0.000000  0.824088  0.830840  1
  Ti  Ti4  1  0.000000  0.505006  0.001541  1
  Ti  Ti5  1  0.000000  0.999403  0.499560  1
  B  B6  1  0.000000  0.873650  0.117593  1
  B  B7  1  0.000000  0.379298  0.378972  1
  B  B8  1  0.000000  0.620965  0.620869  1
  B  B9  1  0.000000  0.121823  0.880626  1
  Ru  Ru10  1  0.500000  0.001812  0.000194  1
  Ru  Ru11  1  0.500000  0.715736  0.072583  1
  Ru  Ru12  1  0.500000  0.500053  0.499598  1
  Rh  Rh13  1  0.500000  0.425728  0.216239  1
  Rh  Rh14  1  0.500000  0.929580  0.284737  1
  Rh  Rh15  1  0.500000  0.215933  0.428394  1
  Rh  Rh16  1  0.500000  0.784033  0.572439  1
  Rh  Rh17  1  0.500000  0.072737  0.716009  1
  Rh  Rh18  1  0.500000  0.571877  0.783006  1
  Rh  Rh19  1  0.500000  0.285241  0.926969  1
