# generated using pymatgen
data_Lu3Sc5Re3B24Ir
_symmetry_space_group_name_H-M   'P 1'
_cell_length_a   3.54979000
_cell_length_b   8.93786493
_cell_length_c   11.28590900
_cell_angle_alpha   90.08868782
_cell_angle_beta   90.00000000
_cell_angle_gamma   90.00000000
_symmetry_Int_Tables_number   1
_chemical_formula_structural   Lu3Sc5Re3B24Ir
_chemical_formula_sum   'Lu3 Sc5 Re3 B24 Ir1'
_cell_volume   358.07374044
_cell_formula_units_Z   1
loop_
 _symmetry_equiv_pos_site_id
 _symmetry_equiv_pos_as_xyz
  1  'x, y, z'
loop_
 _atom_site_type_symbol
 _atom_site_label
 _atom_site_symmetry_multiplicity
 _atom_site_fract_x
 _atom_site_fract_y
 _atom_site_fract_z
 _atom_site_occupancy
  Lu  Lu0  1  0.500000  0.315807  0.415069  1
  Lu  Lu1  1  0.500000  0.680808  0.590630  1
  Lu  Lu2  1  0.500000  0.179178  0.912543  1
  Sc  Sc3  1  0.500000  0.825915  0.079219  1
  Sc  Sc4  1  0.500000  0.442071  0.126520  1
  Sc  Sc5  1  0.500000  0.556271  0.872501  1
  Sc  Sc6  1  0.500000  0.054775  0.628329  1
  Sc  Sc7  1  0.500000  0.945931  0.371552  1
  Re  Re8  1  0.500000  0.138371  0.180917  1
  Re  Re9  1  0.500000  0.860497  0.821271  1
  Re  Re10  1  0.500000  0.360856  0.679490  1
  B  B11  1  0.000000  0.097013  0.472808  1
  B  B12  1  0.000000  0.900038  0.526815  1
  B  B13  1  0.000000  0.402238  0.973611  1
  B  B14  1  0.000000  0.600421  0.028015  1
  B  B15  1  0.000000  0.128569  0.317413  1
  B  B16  1  0.000000  0.870388  0.683438  1
  B  B17  1  0.000000  0.371380  0.817092  1
  B  B18  1  0.000000  0.630738  0.180977  1
  B  B19  1  0.000000  0.052347  0.066073  1
  B  B20  1  0.000000  0.946496  0.934587  1
  B  B21  1  0.000000  0.446624  0.566000  1
  B  B22  1  0.000000  0.554586  0.434116  1
  B  B23  1  0.000000  0.481021  0.286291  1
  B  B24  1  0.000000  0.520237  0.713762  1
  B  B25  1  0.000000  0.019652  0.786651  1
  B  B26  1  0.000000  0.978857  0.212329  1
  B  B27  1  0.000000  0.252933  0.080258  1
  B  B28  1  0.000000  0.747522  0.921381  1
  B  B29  1  0.000000  0.246190  0.580472  1
  B  B30  1  0.000000  0.753317  0.420305  1
  B  B31  1  0.000000  0.294438  0.235997  1
  B  B32  1  0.000000  0.705597  0.765712  1
  B  B33  1  0.000000  0.205618  0.735388  1
  B  B34  1  0.000000  0.793963  0.263415  1
  Ir  Ir35  1  0.500000  0.639335  0.319050  1
