# generated using pymatgen
data_Nd6P13PtRh19
_symmetry_space_group_name_H-M   'P 1'
_cell_length_a   13.46955700
_cell_length_b   13.46955542
_cell_length_c   3.98357400
_cell_angle_alpha   90.00000000
_cell_angle_beta   90.00000000
_cell_angle_gamma   120.00000143
_symmetry_Int_Tables_number   1
_chemical_formula_structural   Nd6P13PtRh19
_chemical_formula_sum   'Nd6 P13 Pt1 Rh19'
_cell_volume   625.90740326
_cell_formula_units_Z   1
loop_
 _symmetry_equiv_pos_site_id
 _symmetry_equiv_pos_as_xyz
  1  'x, y, z'
loop_
 _atom_site_type_symbol
 _atom_site_label
 _atom_site_symmetry_multiplicity
 _atom_site_fract_x
 _atom_site_fract_y
 _atom_site_fract_z
 _atom_site_occupancy
  Nd  Nd0  1  0.531513  0.718301  0.247363  1
  Nd  Nd1  1  0.281699  0.813212  0.247363  1
  Nd  Nd2  1  0.186788  0.468487  0.247363  1
  Nd  Nd3  1  0.470058  0.282288  0.752691  1
  Nd  Nd4  1  0.717712  0.187770  0.752691  1
  Nd  Nd5  1  0.812230  0.529942  0.752691  1
  P  P6  1  0.522536  0.136293  0.250969  1
  P  P7  1  0.863707  0.386243  0.250969  1
  P  P8  1  0.613757  0.477464  0.250969  1
  P  P9  1  0.947532  0.718638  0.255779  1
  P  P10  1  0.281362  0.228894  0.255779  1
  P  P11  1  0.771106  0.052468  0.255779  1
  P  P12  1  0.387483  0.521356  0.749537  1
  P  P13  1  0.478644  0.866125  0.749537  1
  P  P14  1  0.133875  0.612517  0.749537  1
  P  P15  1  0.719180  0.771248  0.745059  1
  P  P16  1  0.228752  0.947932  0.745059  1
  P  P17  1  0.052068  0.280820  0.745059  1
  P  P18  1  0.000000  0.000000  0.994136  1
  Pt  Pt19  1  0.333333  0.666667  0.748725  1
  Rh  Rh20  1  0.923112  0.249088  0.256279  1
  Rh  Rh21  1  0.750912  0.674024  0.256279  1
  Rh  Rh22  1  0.325976  0.076888  0.256279  1
  Rh  Rh23  1  0.437955  0.023453  0.752607  1
  Rh  Rh24  1  0.976547  0.414502  0.752607  1
  Rh  Rh25  1  0.585498  0.562045  0.752607  1
  Rh  Rh26  1  0.666667  0.333333  0.248152  1
  Rh  Rh27  1  0.092616  0.184540  0.245921  1
  Rh  Rh28  1  0.815460  0.908076  0.245921  1
  Rh  Rh29  1  0.091924  0.907384  0.245921  1
  Rh  Rh30  1  0.023030  0.584906  0.248313  1
  Rh  Rh31  1  0.415094  0.438123  0.248313  1
  Rh  Rh32  1  0.561877  0.976970  0.248313  1
  Rh  Rh33  1  0.673854  0.922638  0.743743  1
  Rh  Rh34  1  0.077362  0.751216  0.743743  1
  Rh  Rh35  1  0.248784  0.326146  0.743743  1
  Rh  Rh36  1  0.906871  0.814007  0.754734  1
  Rh  Rh37  1  0.185993  0.092865  0.754734  1
  Rh  Rh38  1  0.907135  0.093129  0.754734  1
