# generated using pymatgen
data_Tl2PtS15
_symmetry_space_group_name_H-M   'P 1'
_cell_length_a   9.20598183
_cell_length_b   9.20596260
_cell_length_c   12.99414831
_cell_angle_alpha   88.36643179
_cell_angle_beta   88.36637770
_cell_angle_gamma   66.16783950
_symmetry_Int_Tables_number   1
_chemical_formula_structural   Tl2PtS15
_chemical_formula_sum   'Tl4 Pt2 S30'
_cell_volume   1006.76931110
_cell_formula_units_Z   2
loop_
 _symmetry_equiv_pos_site_id
 _symmetry_equiv_pos_as_xyz
  1  'x, y, z'
loop_
 _atom_site_type_symbol
 _atom_site_label
 _atom_site_symmetry_multiplicity
 _atom_site_fract_x
 _atom_site_fract_y
 _atom_site_fract_z
 _atom_site_occupancy
  Tl  Tl0  1  0.730240  0.061148  0.086845  1
  Tl  Tl1  1  0.368866  0.175077  0.343757  1
  Tl  Tl2  1  0.061147  0.730240  0.586846  1
  Tl  Tl3  1  0.175077  0.368865  0.843757  1
  Pt  Pt4  1  0.216432  0.804327  0.252447  1
  Pt  Pt5  1  0.804329  0.216431  0.752447  1
  S  S6  1  0.058602  0.647905  0.049554  1
  S  S7  1  0.370517  0.987306  0.053045  1
  S  S8  1  0.095356  0.845190  0.083337  1
  S  S9  1  0.235285  0.221509  0.099528  1
  S  S10  1  0.860787  0.656745  0.136045  1
  S  S11  1  0.024202  0.212396  0.158334  1
  S  S12  1  0.441776  0.853377  0.184067  1
  S  S13  1  0.342848  0.518826  0.222144  1
  S  S14  1  0.582108  0.441746  0.232250  1
  S  S15  1  0.954318  0.593526  0.282602  1
  S  S16  1  0.083456  0.085032  0.292733  1
  S  S17  1  0.980695  0.788999  0.332885  1
  S  S18  1  0.630979  0.430988  0.389709  1
  S  S19  1  0.563996  0.669947  0.417330  1
  S  S20  1  0.322249  0.775440  0.424387  1
  S  S21  1  0.647904  0.058603  0.549554  1
  S  S22  1  0.987307  0.370517  0.553045  1
  S  S23  1  0.845191  0.095357  0.583336  1
  S  S24  1  0.221509  0.235286  0.599528  1
  S  S25  1  0.656743  0.860787  0.636045  1
  S  S26  1  0.212398  0.024201  0.658334  1
  S  S27  1  0.853377  0.441775  0.684067  1
  S  S28  1  0.518825  0.342849  0.722144  1
  S  S29  1  0.441748  0.582108  0.732250  1
  S  S30  1  0.593526  0.954317  0.782601  1
  S  S31  1  0.085031  0.083457  0.792732  1
  S  S32  1  0.788999  0.980695  0.832884  1
  S  S33  1  0.430990  0.630980  0.889710  1
  S  S34  1  0.669948  0.563996  0.917331  1
  S  S35  1  0.775441  0.322249  0.924388  1
