# generated using pymatgen
data_Nd7GdZn3Si12Pd
_symmetry_space_group_name_H-M   'P 1'
_cell_length_a   8.19029560
_cell_length_b   8.19029679
_cell_length_c   8.54236350
_cell_angle_alpha   90.12125259
_cell_angle_beta   89.87874809
_cell_angle_gamma   119.92574087
_symmetry_Int_Tables_number   1
_chemical_formula_structural   Nd7GdZn3Si12Pd
_chemical_formula_sum   'Nd7 Gd1 Zn3 Si12 Pd1'
_cell_volume   496.62786959
_cell_formula_units_Z   1
loop_
 _symmetry_equiv_pos_site_id
 _symmetry_equiv_pos_as_xyz
  1  'x, y, z'
loop_
 _atom_site_type_symbol
 _atom_site_label
 _atom_site_symmetry_multiplicity
 _atom_site_fract_x
 _atom_site_fract_y
 _atom_site_fract_z
 _atom_site_occupancy
  Nd  Nd0  1  0.499838  0.500162  0.249228  1
  Nd  Nd1  1  0.001053  0.500438  0.750722  1
  Nd  Nd2  1  0.000260  0.500216  0.249428  1
  Nd  Nd3  1  0.499562  0.998947  0.750722  1
  Nd  Nd4  1  0.499784  0.999740  0.249428  1
  Nd  Nd5  1  0.999994  0.000006  0.749150  1
  Nd  Nd6  1  0.999956  0.000044  0.250902  1
  Gd  Gd7  1  0.499759  0.500241  0.750377  1
  Zn  Zn8  1  0.666403  0.333597  0.996775  1
  Zn  Zn9  1  0.333677  0.666323  0.999469  1
  Zn  Zn10  1  0.333647  0.666353  0.501478  1
  Si  Si11  1  0.833589  0.166411  0.000688  1
  Si  Si12  1  0.165985  0.834015  0.999498  1
  Si  Si13  1  0.333667  0.167442  0.998950  1
  Si  Si14  1  0.163891  0.836109  0.499691  1
  Si  Si15  1  0.667106  0.832882  0.997596  1
  Si  Si16  1  0.832335  0.167665  0.500088  1
  Si  Si17  1  0.832558  0.666333  0.998950  1
  Si  Si18  1  0.671431  0.835208  0.501271  1
  Si  Si19  1  0.167118  0.332894  0.997596  1
  Si  Si20  1  0.336194  0.168709  0.502106  1
  Si  Si21  1  0.164792  0.328569  0.501271  1
  Si  Si22  1  0.831291  0.663806  0.502106  1
  Pd  Pd23  1  0.666109  0.333891  0.502508  1
