# generated using pymatgen
data_CaTb3Ir8
_symmetry_space_group_name_H-M   'P 1'
_cell_length_a   5.36955800
_cell_length_b   5.36955882
_cell_length_c   8.74223800
_cell_angle_alpha   90.00000000
_cell_angle_beta   90.00000000
_cell_angle_gamma   120.00000729
_symmetry_Int_Tables_number   1
_chemical_formula_structural   CaTb3Ir8
_chemical_formula_sum   'Ca1 Tb3 Ir8'
_cell_volume   218.28825396
_cell_formula_units_Z   1
loop_
 _symmetry_equiv_pos_site_id
 _symmetry_equiv_pos_as_xyz
  1  'x, y, z'
loop_
 _atom_site_type_symbol
 _atom_site_label
 _atom_site_symmetry_multiplicity
 _atom_site_fract_x
 _atom_site_fract_y
 _atom_site_fract_z
 _atom_site_occupancy
  Ca  Ca0  1  0.666666  0.333334  0.934598  1
  Tb  Tb1  1  0.333334  0.666667  0.063000  1
  Tb  Tb2  1  0.333334  0.666667  0.431526  1
  Tb  Tb3  1  0.666666  0.333334  0.573241  1
  Ir  Ir4  1  0.000000  0.000000  0.999331  1
  Ir  Ir5  1  0.339355  0.169678  0.251139  1
  Ir  Ir6  1  0.830322  0.169678  0.251139  1
  Ir  Ir7  1  0.830322  0.660644  0.251139  1
  Ir  Ir8  1  0.000000  0.000000  0.499722  1
  Ir  Ir9  1  0.169644  0.339288  0.748389  1
  Ir  Ir10  1  0.169645  0.830355  0.748389  1
  Ir  Ir11  1  0.660710  0.830355  0.748389  1
