# generated using pymatgen
data_InTc12Br25
_symmetry_space_group_name_H-M   'P 1'
_cell_length_a   10.13290316
_cell_length_b   11.07686111
_cell_length_c   11.85323777
_cell_angle_alpha   82.89263220
_cell_angle_beta   73.61020049
_cell_angle_gamma   86.58625181
_symmetry_Int_Tables_number   1
_chemical_formula_structural   InTc12Br25
_chemical_formula_sum   'In1 Tc12 Br25'
_cell_volume   1266.12239625
_cell_formula_units_Z   1
loop_
 _symmetry_equiv_pos_site_id
 _symmetry_equiv_pos_as_xyz
  1  'x, y, z'
loop_
 _atom_site_type_symbol
 _atom_site_label
 _atom_site_symmetry_multiplicity
 _atom_site_fract_x
 _atom_site_fract_y
 _atom_site_fract_z
 _atom_site_occupancy
  In  In0  1  0.500000  0.000000  0.000000  1
  Tc  Tc1  1  0.833171  0.257213  0.126695  1
  Tc  Tc2  1  0.166829  0.742787  0.873305  1
  Tc  Tc3  1  0.760986  0.124115  0.283028  1
  Tc  Tc4  1  0.239014  0.875885  0.716972  1
  Tc  Tc5  1  0.065330  0.274936  0.191927  1
  Tc  Tc6  1  0.934670  0.725064  0.808073  1
  Tc  Tc7  1  0.847865  0.427279  0.265716  1
  Tc  Tc8  1  0.152135  0.572721  0.734284  1
  Tc  Tc9  1  0.773320  0.295658  0.424121  1
  Tc  Tc10  1  0.226680  0.704342  0.575879  1
  Tc  Tc11  1  0.990797  0.143985  0.350524  1
  Tc  Tc12  1  0.009203  0.856015  0.649476  1
  Br  Br13  1  0.945401  0.962579  0.262896  1
  Br  Br14  1  0.054599  0.037421  0.737104  1
  Br  Br15  1  0.967993  0.272253  0.514341  1
  Br  Br16  1  0.032007  0.727747  0.485659  1
  Br  Br17  1  0.655667  0.425221  0.170621  1
  Br  Br18  1  0.344333  0.574779  0.829379  1
  Br  Br19  1  0.085242  0.465417  0.277484  1
  Br  Br20  1  0.914758  0.534583  0.722516  1
  Br  Br21  1  0.000000  0.500000  0.000000  1
  Br  Br22  1  0.608628  0.970285  0.246154  1
  Br  Br23  1  0.391372  0.029715  0.753846  1
  Br  Br24  1  0.195120  0.032912  0.402767  1
  Br  Br25  1  0.804880  0.967088  0.597233  1
  Br  Br26  1  0.552641  0.221352  0.408433  1
  Br  Br27  1  0.447359  0.778648  0.591567  1
  Br  Br28  1  0.059146  0.163006  0.023729  1
  Br  Br29  1  0.940854  0.836994  0.976271  1
  Br  Br30  1  0.775894  0.638048  0.314140  1
  Br  Br31  1  0.224106  0.361952  0.685860  1
  Br  Br32  1  0.742033  0.216200  0.957120  1
  Br  Br33  1  0.257967  0.783800  0.042880  1
  Br  Br34  1  0.324155  0.259150  0.120674  1
  Br  Br35  1  0.675845  0.740850  0.879326  1
  Br  Br36  1  0.641321  0.403803  0.593833  1
  Br  Br37  1  0.358679  0.596197  0.406167  1
