# generated using pymatgen
data_Yb12Sn4HN2
_symmetry_space_group_name_H-M   'P 1'
_cell_length_a   4.87476300
_cell_length_b   4.87476300
_cell_length_c   19.64707800
_cell_angle_alpha   90.00000000
_cell_angle_beta   90.00000000
_cell_angle_gamma   90.00000000
_symmetry_Int_Tables_number   1
_chemical_formula_structural   Yb12Sn4HN2
_chemical_formula_sum   'Yb12 Sn4 H1 N2'
_cell_volume   466.87968971
_cell_formula_units_Z   1
loop_
 _symmetry_equiv_pos_site_id
 _symmetry_equiv_pos_as_xyz
  1  'x, y, z'
loop_
 _atom_site_type_symbol
 _atom_site_label
 _atom_site_symmetry_multiplicity
 _atom_site_fract_x
 _atom_site_fract_y
 _atom_site_fract_z
 _atom_site_occupancy
  Yb  Yb0  1  0.500000  0.500000  0.864840  1
  Yb  Yb1  1  0.500000  0.500000  0.135160  1
  Yb  Yb2  1  0.500000  0.500000  0.367347  1
  Yb  Yb3  1  0.500000  0.500000  0.632653  1
  Yb  Yb4  1  0.500000  0.000000  0.000000  1
  Yb  Yb5  1  0.500000  0.000000  0.251121  1
  Yb  Yb6  1  0.500000  0.000000  0.500000  1
  Yb  Yb7  1  0.500000  0.000000  0.748879  1
  Yb  Yb8  1  0.000000  0.500000  0.000000  1
  Yb  Yb9  1  0.000000  0.500000  0.251121  1
  Yb  Yb10  1  0.000000  0.500000  0.500000  1
  Yb  Yb11  1  0.000000  0.500000  0.748879  1
  Sn  Sn12  1  0.000000  0.000000  0.878229  1
  Sn  Sn13  1  0.000000  0.000000  0.121771  1
  Sn  Sn14  1  0.000000  0.000000  0.381455  1
  Sn  Sn15  1  0.000000  0.000000  0.618545  1
  H  H16  1  0.500000  0.500000  0.500000  1
  N  N17  1  0.500000  0.500000  0.252226  1
  N  N18  1  0.500000  0.500000  0.747774  1
