# generated using pymatgen
data_Ho3Er5Re(B8Os)3
_symmetry_space_group_name_H-M   'P 1'
_cell_length_a   3.64468800
_cell_length_b   9.11586780
_cell_length_c   11.49772900
_cell_angle_alpha   90.08441793
_cell_angle_beta   90.00000000
_cell_angle_gamma   90.00000000
_symmetry_Int_Tables_number   1
_chemical_formula_structural   Ho3Er5Re(B8Os)3
_chemical_formula_sum   'Ho3 Er5 Re1 B24 Os3'
_cell_volume   382.00581352
_cell_formula_units_Z   1
loop_
 _symmetry_equiv_pos_site_id
 _symmetry_equiv_pos_as_xyz
  1  'x, y, z'
loop_
 _atom_site_type_symbol
 _atom_site_label
 _atom_site_symmetry_multiplicity
 _atom_site_fract_x
 _atom_site_fract_y
 _atom_site_fract_z
 _atom_site_occupancy
  Ho  Ho0  1  0.000000  0.322093  0.414934  1
  Ho  Ho1  1  0.000000  0.680229  0.588081  1
  Ho  Ho2  1  0.000000  0.822412  0.083663  1
  Er  Er3  1  0.000000  0.176584  0.913256  1
  Er  Er4  1  0.000000  0.943466  0.371926  1
  Er  Er5  1  0.000000  0.055781  0.627736  1
  Er  Er6  1  0.000000  0.443057  0.127749  1
  Er  Er7  1  0.000000  0.556334  0.872736  1
  Re  Re8  1  0.000000  0.862524  0.821339  1
  B  B9  1  0.500000  0.553821  0.433328  1
  B  B10  1  0.500000  0.446246  0.566905  1
  B  B11  1  0.500000  0.053741  0.067065  1
  B  B12  1  0.500000  0.947237  0.933338  1
  B  B13  1  0.500000  0.748771  0.419561  1
  B  B14  1  0.500000  0.251300  0.580320  1
  B  B15  1  0.500000  0.248467  0.080435  1
  B  B16  1  0.500000  0.751184  0.919410  1
  B  B17  1  0.500000  0.790807  0.265927  1
  B  B18  1  0.500000  0.208765  0.733477  1
  B  B19  1  0.500000  0.291252  0.234057  1
  B  B20  1  0.500000  0.708138  0.765928  1
  B  B21  1  0.500000  0.630914  0.185196  1
  B  B22  1  0.500000  0.368555  0.814479  1
  B  B23  1  0.500000  0.131511  0.314929  1
  B  B24  1  0.500000  0.868869  0.685403  1
  B  B25  1  0.500000  0.983028  0.212713  1
  B  B26  1  0.500000  0.018187  0.787292  1
  B  B27  1  0.500000  0.482766  0.287653  1
  B  B28  1  0.500000  0.517189  0.712757  1
  B  B29  1  0.500000  0.605033  0.029754  1
  B  B30  1  0.500000  0.393343  0.970803  1
  B  B31  1  0.500000  0.106338  0.470246  1
  B  B32  1  0.500000  0.894175  0.528774  1
  Os  Os33  1  0.000000  0.637449  0.321338  1
  Os  Os34  1  0.000000  0.362465  0.678258  1
  Os  Os35  1  0.000000  0.137967  0.179233  1
