# generated using pymatgen
data_Pr8Si15Ag
_symmetry_space_group_name_H-M   'P 1'
_cell_length_a   8.29327900
_cell_length_b   8.29328036
_cell_length_c   8.52855300
_cell_angle_alpha   90.00000000
_cell_angle_beta   90.00000000
_cell_angle_gamma   120.00000654
_symmetry_Int_Tables_number   1
_chemical_formula_structural   Pr8Si15Ag
_chemical_formula_sum   'Pr8 Si15 Ag1'
_cell_volume   507.99399568
_cell_formula_units_Z   1
loop_
 _symmetry_equiv_pos_site_id
 _symmetry_equiv_pos_as_xyz
  1  'x, y, z'
loop_
 _atom_site_type_symbol
 _atom_site_label
 _atom_site_symmetry_multiplicity
 _atom_site_fract_x
 _atom_site_fract_y
 _atom_site_fract_z
 _atom_site_occupancy
  Pr  Pr0  1  0.496475  0.503525  0.756515  1
  Pr  Pr1  1  0.496923  0.503077  0.243457  1
  Pr  Pr2  1  0.007049  0.503525  0.756515  1
  Pr  Pr3  1  0.006154  0.503077  0.243457  1
  Pr  Pr4  1  0.496475  0.992951  0.756515  1
  Pr  Pr5  1  0.496923  0.993846  0.243457  1
  Pr  Pr6  1  0.000000  0.000000  0.751647  1
  Pr  Pr7  1  0.000000  0.000000  0.248342  1
  Si  Si8  1  0.833462  0.166538  0.999874  1
  Si  Si9  1  0.166575  0.833425  0.000029  1
  Si  Si10  1  0.333073  0.166538  0.999874  1
  Si  Si11  1  0.165785  0.834215  0.500661  1
  Si  Si12  1  0.666851  0.833425  0.000029  1
  Si  Si13  1  0.836664  0.163336  0.499295  1
  Si  Si14  1  0.833462  0.666927  0.999874  1
  Si  Si15  1  0.668430  0.834215  0.500661  1
  Si  Si16  1  0.166575  0.333149  0.000029  1
  Si  Si17  1  0.326672  0.163336  0.499295  1
  Si  Si18  1  0.165785  0.331570  0.500661  1
  Si  Si19  1  0.836664  0.673328  0.499295  1
  Si  Si20  1  0.666667  0.333333  0.999333  1
  Si  Si21  1  0.333333  0.666667  0.000635  1
  Si  Si22  1  0.333333  0.666667  0.498801  1
  Ag  Ag23  1  0.666667  0.333333  0.501748  1
