# generated using pymatgen
data_Zr6Ti4In4Ga8Rh7
_symmetry_space_group_name_H-M   'P 1'
_cell_length_a   8.95025681
_cell_length_b   8.95025747
_cell_length_c   8.95025800
_cell_angle_alpha   60.00000545
_cell_angle_beta   60.00000299
_cell_angle_gamma   60.00000232
_symmetry_Int_Tables_number   1
_chemical_formula_structural   Zr6Ti4In4Ga8Rh7
_chemical_formula_sum   'Zr6 Ti4 In4 Ga8 Rh7'
_cell_volume   506.98092276
_cell_formula_units_Z   1
loop_
 _symmetry_equiv_pos_site_id
 _symmetry_equiv_pos_as_xyz
  1  'x, y, z'
loop_
 _atom_site_type_symbol
 _atom_site_label
 _atom_site_symmetry_multiplicity
 _atom_site_fract_x
 _atom_site_fract_y
 _atom_site_fract_z
 _atom_site_occupancy
  Zr  Zr0  1  0.691030  0.691030  0.308970  1
  Zr  Zr1  1  0.308970  0.691030  0.308970  1
  Zr  Zr2  1  0.691030  0.308970  0.308970  1
  Zr  Zr3  1  0.308970  0.308970  0.691030  1
  Zr  Zr4  1  0.691030  0.308970  0.691030  1
  Zr  Zr5  1  0.308970  0.691030  0.691030  1
  Ti  Ti6  1  0.876356  0.876356  0.370933  1
  Ti  Ti7  1  0.876356  0.370933  0.876356  1
  Ti  Ti8  1  0.370933  0.876356  0.876356  1
  Ti  Ti9  1  0.876356  0.876356  0.876356  1
  In  In10  1  0.120604  0.120604  0.638188  1
  In  In11  1  0.120604  0.638188  0.120604  1
  In  In12  1  0.638188  0.120604  0.120604  1
  In  In13  1  0.120604  0.120604  0.120604  1
  Ga  Ga14  1  0.658689  0.658689  0.023930  1
  Ga  Ga15  1  0.658689  0.023930  0.658689  1
  Ga  Ga16  1  0.023930  0.658689  0.658689  1
  Ga  Ga17  1  0.658689  0.658689  0.658689  1
  Ga  Ga18  1  0.343600  0.343600  0.969203  1
  Ga  Ga19  1  0.343600  0.969203  0.343600  1
  Ga  Ga20  1  0.969203  0.343600  0.343600  1
  Ga  Ga21  1  0.343600  0.343600  0.343600  1
  Rh  Rh22  1  0.000000  0.000000  0.000000  1
  Rh  Rh23  1  0.993821  0.993821  0.506179  1
  Rh  Rh24  1  0.506179  0.993821  0.506179  1
  Rh  Rh25  1  0.993821  0.506179  0.506179  1
  Rh  Rh26  1  0.506179  0.506179  0.993821  1
  Rh  Rh27  1  0.993821  0.506179  0.993821  1
  Rh  Rh28  1  0.506179  0.993821  0.993821  1
