# generated using pymatgen
data_DyHo4Tm11(CdPt)4
_symmetry_space_group_name_H-M   'P 1'
_cell_length_a   9.59223872
_cell_length_b   9.59313084
_cell_length_c   9.59205580
_cell_angle_alpha   60.05190793
_cell_angle_beta   60.00485785
_cell_angle_gamma   59.99578121
_symmetry_Int_Tables_number   1
_chemical_formula_structural   DyHo4Tm11(CdPt)4
_chemical_formula_sum   'Dy1 Ho4 Tm11 Cd4 Pt4'
_cell_volume   624.38034111
_cell_formula_units_Z   1
loop_
 _symmetry_equiv_pos_site_id
 _symmetry_equiv_pos_as_xyz
  1  'x, y, z'
loop_
 _atom_site_type_symbol
 _atom_site_label
 _atom_site_symmetry_multiplicity
 _atom_site_fract_x
 _atom_site_fract_y
 _atom_site_fract_z
 _atom_site_occupancy
  Dy  Dy0  1  0.935775  0.935220  0.564121  1
  Ho  Ho1  1  0.563167  0.936689  0.936837  1
  Ho  Ho2  1  0.564691  0.935268  0.564064  1
  Ho  Ho3  1  0.935815  0.563915  0.935428  1
  Ho  Ho4  1  0.564869  0.564080  0.935251  1
  Tm  Tm5  1  0.351160  0.352293  0.352271  1
  Tm  Tm6  1  0.352277  0.353472  0.942009  1
  Tm  Tm7  1  0.352389  0.941966  0.353420  1
  Tm  Tm8  1  0.944242  0.352410  0.352241  1
  Tm  Tm9  1  0.810329  0.189746  0.189497  1
  Tm  Tm10  1  0.188928  0.811147  0.811233  1
  Tm  Tm11  1  0.188985  0.810797  0.189440  1
  Tm  Tm12  1  0.810684  0.189692  0.810884  1
  Tm  Tm13  1  0.188879  0.189589  0.810826  1
  Tm  Tm14  1  0.810757  0.810867  0.189537  1
  Tm  Tm15  1  0.935847  0.564000  0.564157  1
  Cd  Cd16  1  0.582591  0.581351  0.581352  1
  Cd  Cd17  1  0.581842  0.581328  0.254981  1
  Cd  Cd18  1  0.581702  0.255101  0.581338  1
  Cd  Cd19  1  0.254831  0.581204  0.581358  1
  Pt  Pt20  1  0.144023  0.143107  0.142966  1
  Pt  Pt21  1  0.143199  0.143025  0.570714  1
  Pt  Pt22  1  0.143151  0.570677  0.142999  1
  Pt  Pt23  1  0.569866  0.143055  0.143075  1
