# generated using pymatgen
data_Cd22Pd3
_symmetry_space_group_name_H-M   'P 1'
_cell_length_a   8.77365898
_cell_length_b   8.77365801
_cell_length_c   8.74237524
_cell_angle_alpha   71.44036880
_cell_angle_beta   71.44037379
_cell_angle_gamma   57.97409596
_symmetry_Int_Tables_number   1
_chemical_formula_structural   Cd22Pd3
_chemical_formula_sum   'Cd22 Pd3'
_cell_volume   531.43149036
_cell_formula_units_Z   1
loop_
 _symmetry_equiv_pos_site_id
 _symmetry_equiv_pos_as_xyz
  1  'x, y, z'
loop_
 _atom_site_type_symbol
 _atom_site_label
 _atom_site_symmetry_multiplicity
 _atom_site_fract_x
 _atom_site_fract_y
 _atom_site_fract_z
 _atom_site_occupancy
  Cd  Cd0  1  0.347151  0.738920  0.309687  1
  Cd  Cd1  1  0.652849  0.261080  0.690313  1
  Cd  Cd2  1  0.261080  0.652849  0.690313  1
  Cd  Cd3  1  0.738920  0.347151  0.309687  1
  Cd  Cd4  1  0.677882  0.322118  0.000000  1
  Cd  Cd5  1  0.322118  0.677882  0.000000  1
  Cd  Cd6  1  0.831220  0.831220  0.782928  1
  Cd  Cd7  1  0.168780  0.168780  0.217072  1
  Cd  Cd8  1  0.978196  0.978196  0.175094  1
  Cd  Cd9  1  0.021804  0.021804  0.824906  1
  Cd  Cd10  1  0.351197  0.351197  0.272959  1
  Cd  Cd11  1  0.648803  0.648803  0.727041  1
  Cd  Cd12  1  0.687096  0.687096  0.375775  1
  Cd  Cd13  1  0.312904  0.312904  0.624225  1
  Cd  Cd14  1  0.662543  0.025033  0.463179  1
  Cd  Cd15  1  0.337457  0.974967  0.536821  1
  Cd  Cd16  1  0.974967  0.337457  0.536821  1
  Cd  Cd17  1  0.025033  0.662543  0.463179  1
  Cd  Cd18  1  0.616188  0.999534  0.098135  1
  Cd  Cd19  1  0.383812  0.000466  0.901865  1
  Cd  Cd20  1  0.000466  0.383812  0.901865  1
  Cd  Cd21  1  0.999534  0.616188  0.098135  1
  Pd  Pd22  1  0.658550  0.658550  0.053107  1
  Pd  Pd23  1  0.341450  0.341450  0.946893  1
  Pd  Pd24  1  0.000000  0.000000  0.500000  1
