# generated using pymatgen
data_DyEr4Co9(P6Ru5)2
_symmetry_space_group_name_H-M   'P 1'
_cell_length_a   12.30502965
_cell_length_b   12.25431923
_cell_length_c   3.75460900
_cell_angle_alpha   90.00000000
_cell_angle_beta   90.00000000
_cell_angle_gamma   119.74250051
_symmetry_Int_Tables_number   1
_chemical_formula_structural   DyEr4Co9(P6Ru5)2
_chemical_formula_sum   'Dy1 Er4 Co9 P12 Ru10'
_cell_volume   491.57325274
_cell_formula_units_Z   1
loop_
 _symmetry_equiv_pos_site_id
 _symmetry_equiv_pos_as_xyz
  1  'x, y, z'
loop_
 _atom_site_type_symbol
 _atom_site_label
 _atom_site_symmetry_multiplicity
 _atom_site_fract_x
 _atom_site_fract_y
 _atom_site_fract_z
 _atom_site_occupancy
  Dy  Dy0  1  0.332974  0.666852  0.000000  1
  Er  Er1  1  0.663355  0.333293  0.000000  1
  Er  Er2  1  0.182930  0.181539  0.500000  1
  Er  Er3  1  0.818976  0.998413  0.500000  1
  Er  Er4  1  0.999561  0.819296  0.500000  1
  Co  Co5  1  0.803213  0.630716  0.000000  1
  Co  Co6  1  0.367713  0.171207  0.000000  1
  Co  Co7  1  0.194820  0.828309  0.000000  1
  Co  Co8  1  0.630013  0.801247  0.000000  1
  Co  Co9  1  0.176468  0.369529  0.000000  1
  Co  Co10  1  0.719262  0.718928  0.500000  1
  Co  Co11  1  0.278964  0.999936  0.500000  1
  Co  Co12  1  0.007101  0.284478  0.500000  1
  Co  Co13  1  0.999386  0.998962  0.000000  1
  P  P14  1  0.362256  0.362046  0.000000  1
  P  P15  1  0.634170  0.996764  0.000000  1
  P  P16  1  0.000466  0.638835  0.000000  1
  P  P17  1  0.837774  0.316147  0.500000  1
  P  P18  1  0.684508  0.523129  0.500000  1
  P  P19  1  0.473796  0.159816  0.500000  1
  P  P20  1  0.315971  0.840765  0.500000  1
  P  P21  1  0.524198  0.683212  0.500000  1
  P  P22  1  0.161948  0.478271  0.500000  1
  P  P23  1  0.821201  0.821493  0.000000  1
  P  P24  1  0.177184  0.000090  0.000000  1
  P  P25  1  0.005915  0.180180  0.000000  1
  Ru  Ru26  1  0.555407  0.553905  0.000000  1
  Ru  Ru27  1  0.440210  0.995516  0.000000  1
  Ru  Ru28  1  0.008660  0.450624  0.000000  1
  Ru  Ru29  1  0.827039  0.197304  0.000000  1
  Ru  Ru30  1  0.640341  0.126000  0.500000  1
  Ru  Ru31  1  0.872164  0.519114  0.500000  1
  Ru  Ru32  1  0.480894  0.352114  0.500000  1
  Ru  Ru33  1  0.129647  0.650604  0.500000  1
  Ru  Ru34  1  0.518487  0.869985  0.500000  1
  Ru  Ru35  1  0.353024  0.481380  0.500000  1
