# generated using pymatgen
data_Tb8AsPBr12
_symmetry_space_group_name_H-M   'P 1'
_cell_length_a   4.04715100
_cell_length_b   13.27230411
_cell_length_c   13.99397226
_cell_angle_alpha   89.94037133
_cell_angle_beta   90.00000000
_cell_angle_gamma   90.00000000
_symmetry_Int_Tables_number   1
_chemical_formula_structural   Tb8AsPBr12
_chemical_formula_sum   'Tb8 As1 P1 Br12'
_cell_volume   751.68607680
_cell_formula_units_Z   1
loop_
 _symmetry_equiv_pos_site_id
 _symmetry_equiv_pos_as_xyz
  1  'x, y, z'
loop_
 _atom_site_type_symbol
 _atom_site_label
 _atom_site_symmetry_multiplicity
 _atom_site_fract_x
 _atom_site_fract_y
 _atom_site_fract_z
 _atom_site_occupancy
  Tb  Tb0  1  0.500000  0.119745  0.339523  1
  Tb  Tb1  1  0.500000  0.880255  0.660477  1
  Tb  Tb2  1  0.500000  0.616158  0.155685  1
  Tb  Tb3  1  0.500000  0.383842  0.844315  1
  Tb  Tb4  1  0.000000  0.118740  0.578858  1
  Tb  Tb5  1  0.000000  0.881260  0.421142  1
  Tb  Tb6  1  0.000000  0.613657  0.924489  1
  Tb  Tb7  1  0.000000  0.386343  0.075511  1
  As  As8  1  0.500000  0.000000  0.500000  1
  P  P9  1  0.500000  0.500000  0.000000  1
  Br  Br10  1  0.500000  0.244247  0.162650  1
  Br  Br11  1  0.500000  0.755753  0.837350  1
  Br  Br12  1  0.500000  0.743149  0.336644  1
  Br  Br13  1  0.500000  0.256851  0.663356  1
  Br  Br14  1  0.000000  0.255676  0.412201  1
  Br  Br15  1  0.000000  0.744324  0.587799  1
  Br  Br16  1  0.000000  0.754778  0.087593  1
  Br  Br17  1  0.000000  0.245222  0.912407  1
  Br  Br18  1  0.000000  0.000884  0.243024  1
  Br  Br19  1  0.000000  0.999116  0.756976  1
  Br  Br20  1  0.000000  0.500982  0.256105  1
  Br  Br21  1  0.000000  0.499018  0.743895  1
