# generated using pymatgen
data_Er12CdCo4Os
_symmetry_space_group_name_H-M   'P 1'
_cell_length_a   8.20308831
_cell_length_b   8.20308802
_cell_length_c   8.20308915
_cell_angle_alpha   111.53810841
_cell_angle_beta   110.58367758
_cell_angle_gamma   106.33810984
_symmetry_Int_Tables_number   1
_chemical_formula_structural   Er12CdCo4Os
_chemical_formula_sum   'Er12 Cd1 Co4 Os1'
_cell_volume   423.94553017
_cell_formula_units_Z   1
loop_
 _symmetry_equiv_pos_site_id
 _symmetry_equiv_pos_as_xyz
  1  'x, y, z'
loop_
 _atom_site_type_symbol
 _atom_site_label
 _atom_site_symmetry_multiplicity
 _atom_site_fract_x
 _atom_site_fract_y
 _atom_site_fract_z
 _atom_site_occupancy
  Er  Er0  1  0.181025  0.278957  0.459982  1
  Er  Er1  1  0.818975  0.721043  0.540018  1
  Er  Er2  1  0.181025  0.721043  0.902067  1
  Er  Er3  1  0.818975  0.278957  0.097933  1
  Er  Er4  1  0.314173  0.619415  0.305242  1
  Er  Er5  1  0.685827  0.380585  0.694758  1
  Er  Er6  1  0.314173  0.008932  0.694758  1
  Er  Er7  1  0.685827  0.991068  0.305242  1
  Er  Er8  1  0.416315  0.220780  0.195535  1
  Er  Er9  1  0.583685  0.779220  0.804465  1
  Er  Er10  1  0.025245  0.220780  0.804465  1
  Er  Er11  1  0.974755  0.779220  0.195535  1
  Cd  Cd12  1  0.500000  0.500000  0.000000  1
  Co  Co13  1  0.112237  0.612237  0.500000  1
  Co  Co14  1  0.887763  0.387763  0.500000  1
  Co  Co15  1  0.375938  0.000000  0.375938  1
  Co  Co16  1  0.624062  0.000000  0.624062  1
  Os  Os17  1  0.000000  0.000000  0.000000  1
