# generated using pymatgen
data_HfZr5BeI12
_symmetry_space_group_name_H-M   'P 1'
_cell_length_a   9.29359501
_cell_length_b   9.31561842
_cell_length_c   9.26931520
_cell_angle_alpha   106.73998320
_cell_angle_beta   106.81562364
_cell_angle_gamma   106.93804327
_symmetry_Int_Tables_number   1
_chemical_formula_structural   HfZr5BeI12
_chemical_formula_sum   'Hf1 Zr5 Be1 I12'
_cell_volume   671.37844059
_cell_formula_units_Z   1
loop_
 _symmetry_equiv_pos_site_id
 _symmetry_equiv_pos_as_xyz
  1  'x, y, z'
loop_
 _atom_site_type_symbol
 _atom_site_label
 _atom_site_symmetry_multiplicity
 _atom_site_fract_x
 _atom_site_fract_y
 _atom_site_fract_z
 _atom_site_occupancy
  Hf  Hf0  1  0.972731  0.725795  0.909544  1
  Zr  Zr1  1  0.281119  0.092263  0.027427  1
  Zr  Zr2  1  0.092569  0.028075  0.281681  1
  Zr  Zr3  1  0.907668  0.972870  0.718962  1
  Zr  Zr4  1  0.720285  0.907786  0.972917  1
  Zr  Zr5  1  0.027708  0.282518  0.092649  1
  Be  Be6  1  0.001119  0.003314  0.001260  1
  I  I7  1  0.922436  0.309968  0.775583  1
  I  I8  1  0.687972  0.221307  0.076629  1
  I  I9  1  0.442364  0.140239  0.367093  1
  I  I10  1  0.860342  0.632719  0.560905  1
  I  I11  1  0.223263  0.076226  0.687809  1
  I  I12  1  0.636957  0.558043  0.859337  1
  I  I13  1  0.367302  0.441545  0.140578  1
  I  I14  1  0.776188  0.921513  0.311183  1
  I  I15  1  0.141273  0.366588  0.442950  1
  I  I16  1  0.557430  0.858104  0.633009  1
  I  I17  1  0.305586  0.773635  0.921550  1
  I  I18  1  0.075687  0.687495  0.218935  1
