# generated using pymatgen
data_Y2ZnNiIr
_symmetry_space_group_name_H-M   'P 1'
_cell_length_a   4.15262560
_cell_length_b   5.43310315
_cell_length_c   5.43310300
_cell_angle_alpha   62.32412586
_cell_angle_beta   67.53247854
_cell_angle_gamma   67.53248387
_symmetry_Int_Tables_number   1
_chemical_formula_structural   Y2ZnNiIr
_chemical_formula_sum   'Y2 Zn1 Ni1 Ir1'
_cell_volume   97.12803138
_cell_formula_units_Z   1
loop_
 _symmetry_equiv_pos_site_id
 _symmetry_equiv_pos_as_xyz
  1  'x, y, z'
loop_
 _atom_site_type_symbol
 _atom_site_label
 _atom_site_symmetry_multiplicity
 _atom_site_fract_x
 _atom_site_fract_y
 _atom_site_fract_z
 _atom_site_occupancy
  Y  Y0  1  0.203246  0.290944  0.302564  1
  Y  Y1  1  0.796754  0.697436  0.709056  1
  Zn  Zn2  1  0.000000  0.991802  0.008198  1
  Ni  Ni3  1  0.500000  0.737999  0.262001  1
  Ir  Ir4  1  0.500000  0.281819  0.718181  1
