# generated using pymatgen
data_Tb2Nd(GaIr)2
_symmetry_space_group_name_H-M   'P 1'
_cell_length_a   5.59631700
_cell_length_b   8.04279300
_cell_length_c   13.57054700
_cell_angle_alpha   90.00000000
_cell_angle_beta   90.00000000
_cell_angle_gamma   90.00000000
_symmetry_Int_Tables_number   1
_chemical_formula_structural   Tb2Nd(GaIr)2
_chemical_formula_sum   'Tb8 Nd4 Ga8 Ir8'
_cell_volume   610.81058093
_cell_formula_units_Z   4
loop_
 _symmetry_equiv_pos_site_id
 _symmetry_equiv_pos_as_xyz
  1  'x, y, z'
loop_
 _atom_site_type_symbol
 _atom_site_label
 _atom_site_symmetry_multiplicity
 _atom_site_fract_x
 _atom_site_fract_y
 _atom_site_fract_z
 _atom_site_occupancy
  Tb  Tb0  1  0.146825  0.396396  0.097292  1
  Tb  Tb1  1  0.853175  0.603604  0.902708  1
  Tb  Tb2  1  0.853175  0.603604  0.597292  1
  Tb  Tb3  1  0.853175  0.896396  0.402708  1
  Tb  Tb4  1  0.146825  0.396396  0.402708  1
  Tb  Tb5  1  0.146825  0.103604  0.597292  1
  Tb  Tb6  1  0.146825  0.103604  0.902708  1
  Tb  Tb7  1  0.853175  0.896396  0.097292  1
  Nd  Nd8  1  0.626684  0.260100  0.250000  1
  Nd  Nd9  1  0.373316  0.739900  0.750000  1
  Nd  Nd10  1  0.373316  0.760100  0.250000  1
  Nd  Nd11  1  0.626684  0.239900  0.750000  1
  Ga  Ga12  1  0.122919  0.106938  0.250000  1
  Ga  Ga13  1  0.877081  0.893062  0.750000  1
  Ga  Ga14  1  0.877081  0.606938  0.250000  1
  Ga  Ga15  1  0.122919  0.393062  0.750000  1
  Ga  Ga16  1  0.629405  0.250000  0.000000  1
  Ga  Ga17  1  0.370595  0.750000  0.000000  1
  Ga  Ga18  1  0.370595  0.750000  0.500000  1
  Ga  Ga19  1  0.629405  0.250000  0.500000  1
  Ir  Ir20  1  0.348521  0.034495  0.091138  1
  Ir  Ir21  1  0.651479  0.965505  0.908862  1
  Ir  Ir22  1  0.651479  0.965505  0.591138  1
  Ir  Ir23  1  0.651479  0.534495  0.408862  1
  Ir  Ir24  1  0.348521  0.034495  0.408862  1
  Ir  Ir25  1  0.348521  0.465505  0.591138  1
  Ir  Ir26  1  0.348521  0.465505  0.908862  1
  Ir  Ir27  1  0.651479  0.534495  0.091138  1
