# generated using pymatgen
data_BaZn2In7Ir2
_symmetry_space_group_name_H-M   'P 1'
_cell_length_a   8.95785300
_cell_length_b   9.00903623
_cell_length_c   4.04117800
_cell_angle_alpha   90.00000000
_cell_angle_beta   90.00000000
_cell_angle_gamma   119.81223700
_symmetry_Int_Tables_number   1
_chemical_formula_structural   BaZn2In7Ir2
_chemical_formula_sum   'Ba1 Zn2 In7 Ir2'
_cell_volume   282.96939554
_cell_formula_units_Z   1
loop_
 _symmetry_equiv_pos_site_id
 _symmetry_equiv_pos_as_xyz
  1  'x, y, z'
loop_
 _atom_site_type_symbol
 _atom_site_label
 _atom_site_symmetry_multiplicity
 _atom_site_fract_x
 _atom_site_fract_y
 _atom_site_fract_z
 _atom_site_occupancy
  Ba  Ba0  1  0.000000  0.000000  0.000000  1
  Zn  Zn1  1  0.000000  0.500000  0.000000  1
  Zn  Zn2  1  0.500000  0.500000  0.000000  1
  In  In3  1  0.590257  0.782142  0.500000  1
  In  In4  1  0.191886  0.782142  0.500000  1
  In  In5  1  0.204799  0.409597  0.500000  1
  In  In6  1  0.795201  0.590403  0.500000  1
  In  In7  1  0.808114  0.217858  0.500000  1
  In  In8  1  0.409743  0.217858  0.500000  1
  In  In9  1  0.500000  0.000000  0.000000  1
  Ir  Ir10  1  0.330030  0.660061  0.000000  1
  Ir  Ir11  1  0.669970  0.339939  0.000000  1
