# generated using pymatgen
data_Y2Sc3Si7(Pt2Rh)3
_symmetry_space_group_name_H-M   'P 1'
_cell_length_a   10.04571700
_cell_length_b   10.04571615
_cell_length_c   3.93031900
_cell_angle_alpha   90.00000000
_cell_angle_beta   90.00000000
_cell_angle_gamma   119.99999294
_symmetry_Int_Tables_number   1
_chemical_formula_structural   Y2Sc3Si7(Pt2Rh)3
_chemical_formula_sum   'Y2 Sc3 Si7 Pt6 Rh3'
_cell_volume   343.49490946
_cell_formula_units_Z   1
loop_
 _symmetry_equiv_pos_site_id
 _symmetry_equiv_pos_as_xyz
  1  'x, y, z'
loop_
 _atom_site_type_symbol
 _atom_site_label
 _atom_site_symmetry_multiplicity
 _atom_site_fract_x
 _atom_site_fract_y
 _atom_site_fract_z
 _atom_site_occupancy
  Y  Y0  1  0.000000  0.000000  0.000000  1
  Y  Y1  1  0.333333  0.666667  0.500000  1
  Sc  Sc2  1  0.894488  0.455313  0.500000  1
  Sc  Sc3  1  0.560826  0.105512  0.500000  1
  Sc  Sc4  1  0.544687  0.439174  0.500000  1
  Si  Si5  1  0.245309  0.197428  0.500000  1
  Si  Si6  1  0.802572  0.047882  0.500000  1
  Si  Si7  1  0.952118  0.754691  0.500000  1
  Si  Si8  1  0.560160  0.650404  0.000000  1
  Si  Si9  1  0.349596  0.909754  0.000000  1
  Si  Si10  1  0.090246  0.439840  0.000000  1
  Si  Si11  1  0.666667  0.333333  0.000000  1
  Pt  Pt12  1  0.313340  0.410639  0.000000  1
  Pt  Pt13  1  0.589361  0.902701  0.000000  1
  Pt  Pt14  1  0.097299  0.686660  0.000000  1
  Pt  Pt15  1  0.384064  0.172930  0.000000  1
  Pt  Pt16  1  0.827070  0.211134  0.000000  1
  Pt  Pt17  1  0.788866  0.615936  0.000000  1
  Rh  Rh18  1  0.221702  0.938219  0.500000  1
  Rh  Rh19  1  0.061781  0.283484  0.500000  1
  Rh  Rh20  1  0.716516  0.778298  0.500000  1
