# generated using pymatgen
data_Ho4ScSi3H
_symmetry_space_group_name_H-M   'P 1'
_cell_length_a   8.34276100
_cell_length_b   8.34276128
_cell_length_c   6.08534200
_cell_angle_alpha   90.00000000
_cell_angle_beta   90.00000000
_cell_angle_gamma   120.00000285
_symmetry_Int_Tables_number   1
_chemical_formula_structural   Ho4ScSi3H
_chemical_formula_sum   'Ho8 Sc2 Si6 H2'
_cell_volume   366.80498504
_cell_formula_units_Z   2
loop_
 _symmetry_equiv_pos_site_id
 _symmetry_equiv_pos_as_xyz
  1  'x, y, z'
loop_
 _atom_site_type_symbol
 _atom_site_label
 _atom_site_symmetry_multiplicity
 _atom_site_fract_x
 _atom_site_fract_y
 _atom_site_fract_z
 _atom_site_occupancy
  Ho  Ho0  1  0.333333  0.666667  0.500000  1
  Ho  Ho1  1  0.666667  0.333333  0.500000  1
  Ho  Ho2  1  0.748412  0.748412  0.754464  1
  Ho  Ho3  1  0.251588  0.000000  0.754464  1
  Ho  Ho4  1  0.000000  0.251588  0.754464  1
  Ho  Ho5  1  0.251588  0.251588  0.245536  1
  Ho  Ho6  1  0.748412  0.000000  0.245536  1
  Ho  Ho7  1  0.000000  0.748412  0.245536  1
  Sc  Sc8  1  0.666667  0.333333  0.000000  1
  Sc  Sc9  1  0.333333  0.666667  0.000000  1
  Si  Si10  1  0.392085  0.392085  0.764082  1
  Si  Si11  1  0.607915  0.000000  0.764082  1
  Si  Si12  1  0.000000  0.607915  0.764082  1
  Si  Si13  1  0.607915  0.607915  0.235918  1
  Si  Si14  1  0.392085  0.000000  0.235918  1
  Si  Si15  1  0.000000  0.392085  0.235918  1
  H  H16  1  0.000000  0.000000  0.500000  1
  H  H17  1  0.000000  0.000000  0.000000  1
