# generated using pymatgen
data_Yb3LuMnRu7
_symmetry_space_group_name_H-M   'P 1'
_cell_length_a   5.28522700
_cell_length_b   5.24095073
_cell_length_c   8.75002924
_cell_angle_alpha   89.92981509
_cell_angle_beta   90.00000000
_cell_angle_gamma   120.27985149
_symmetry_Int_Tables_number   1
_chemical_formula_structural   Yb3LuMnRu7
_chemical_formula_sum   'Yb3 Lu1 Mn1 Ru7'
_cell_volume   209.30606059
_cell_formula_units_Z   1
loop_
 _symmetry_equiv_pos_site_id
 _symmetry_equiv_pos_as_xyz
  1  'x, y, z'
loop_
 _atom_site_type_symbol
 _atom_site_label
 _atom_site_symmetry_multiplicity
 _atom_site_fract_x
 _atom_site_fract_y
 _atom_site_fract_z
 _atom_site_occupancy
  Yb  Yb0  1  0.330070  0.660141  0.437376  1
  Yb  Yb1  1  0.665218  0.330435  0.559994  1
  Yb  Yb2  1  0.667545  0.335090  0.934512  1
  Lu  Lu3  1  0.332218  0.664438  0.070379  1
  Mn  Mn4  1  0.169066  0.338133  0.751856  1
  Ru  Ru5  1  0.182191  0.836957  0.751245  1
  Ru  Ru6  1  0.352490  0.177539  0.247255  1
  Ru  Ru7  1  0.839847  0.679695  0.249132  1
  Ru  Ru8  1  0.654765  0.836957  0.751245  1
  Ru  Ru9  1  0.992704  0.985408  0.995877  1
  Ru  Ru10  1  0.825050  0.177539  0.247255  1
  Ru  Ru11  1  0.988835  0.977671  0.503874  1
