# generated using pymatgen
data_PuW2F11
_symmetry_space_group_name_H-M   'P 1'
_cell_length_a   8.44301698
_cell_length_b   8.44301628
_cell_length_c   8.44301600
_cell_angle_alpha   124.84891452
_cell_angle_beta   106.72064150
_cell_angle_gamma   98.09877716
_symmetry_Int_Tables_number   1
_chemical_formula_structural   PuW2F11
_chemical_formula_sum   'Pu2 W4 F22'
_cell_volume   435.89647313
_cell_formula_units_Z   2
loop_
 _symmetry_equiv_pos_site_id
 _symmetry_equiv_pos_as_xyz
  1  'x, y, z'
loop_
 _atom_site_type_symbol
 _atom_site_label
 _atom_site_symmetry_multiplicity
 _atom_site_fract_x
 _atom_site_fract_y
 _atom_site_fract_z
 _atom_site_occupancy
  Pu  Pu0  1  0.750000  0.250000  0.500000  1
  Pu  Pu1  1  0.250000  0.750000  0.500000  1
  W  W2  1  0.681265  0.639150  0.320414  1
  W  W3  1  0.318735  0.360850  0.679586  1
  W  W4  1  0.181265  0.860850  0.042115  1
  W  W5  1  0.818735  0.139150  0.957885  1
  F  F6  1  0.704352  0.891925  0.335956  1
  F  F7  1  0.295648  0.108075  0.664044  1
  F  F8  1  0.555969  0.368395  0.664044  1
  F  F9  1  0.944031  0.608075  0.812426  1
  F  F10  1  0.444031  0.631605  0.335956  1
  F  F11  1  0.055969  0.391925  0.187574  1
  F  F12  1  0.795648  0.131605  0.187574  1
  F  F13  1  0.204352  0.868395  0.812426  1
  F  F14  1  0.500000  0.500000  0.000000  1
  F  F15  1  0.000000  0.000000  0.000000  1
  F  F16  1  0.781872  0.870120  0.651991  1
  F  F17  1  0.218128  0.129880  0.348009  1
  F  F18  1  0.281872  0.629880  0.911752  1
  F  F19  1  0.718128  0.370120  0.088248  1
  F  F20  1  0.951868  0.734894  0.414360  1
  F  F21  1  0.048132  0.265106  0.585640  1
  F  F22  1  0.320533  0.537507  0.585640  1
  F  F23  1  0.179467  0.765106  0.216974  1
  F  F24  1  0.679467  0.462493  0.414360  1
  F  F25  1  0.820533  0.234894  0.783026  1
  F  F26  1  0.548132  0.962493  0.783026  1
  F  F27  1  0.451868  0.037507  0.216974  1
