# generated using pymatgen
data_Ac2BiI2
_symmetry_space_group_name_H-M   'P 1'
_cell_length_a   4.81364300
_cell_length_b   4.81364314
_cell_length_c   11.95794500
_cell_angle_alpha   90.00000000
_cell_angle_beta   90.00000000
_cell_angle_gamma   120.00000588
_symmetry_Int_Tables_number   1
_chemical_formula_structural   Ac2BiI2
_chemical_formula_sum   'Ac2 Bi1 I2'
_cell_volume   239.95783038
_cell_formula_units_Z   1
loop_
 _symmetry_equiv_pos_site_id
 _symmetry_equiv_pos_as_xyz
  1  'x, y, z'
loop_
 _atom_site_type_symbol
 _atom_site_label
 _atom_site_symmetry_multiplicity
 _atom_site_fract_x
 _atom_site_fract_y
 _atom_site_fract_z
 _atom_site_occupancy
  Ac  Ac0  1  0.333334  0.666668  0.342894  1
  Ac  Ac1  1  0.666666  0.333334  0.657120  1
  Bi  Bi2  1  0.000000  0.000000  0.500140  1
  I  I3  1  0.666666  0.333334  0.173588  1
  I  I4  1  0.333334  0.666668  0.826258  1
