# generated using pymatgen
data_FeIr8(RuO8)3
_symmetry_space_group_name_H-M   'P 1'
_cell_length_a   4.55020188
_cell_length_b   9.09986477
_cell_length_c   9.49669600
_cell_angle_alpha   90.00000000
_cell_angle_beta   90.00000000
_cell_angle_gamma   90.07141090
_symmetry_Int_Tables_number   1
_chemical_formula_structural   FeIr8(RuO8)3
_chemical_formula_sum   'Fe1 Ir8 Ru3 O24'
_cell_volume   393.22199555
_cell_formula_units_Z   1
loop_
 _symmetry_equiv_pos_site_id
 _symmetry_equiv_pos_as_xyz
  1  'x, y, z'
loop_
 _atom_site_type_symbol
 _atom_site_label
 _atom_site_symmetry_multiplicity
 _atom_site_fract_x
 _atom_site_fract_y
 _atom_site_fract_z
 _atom_site_occupancy
  Fe  Fe0  1  0.500000  0.250000  0.500000  1
  Ir  Ir1  1  0.000394  0.999366  0.333110  1
  Ir  Ir2  1  0.999606  0.500634  0.333110  1
  Ir  Ir3  1  0.500000  0.250000  0.831706  1
  Ir  Ir4  1  0.500000  0.750000  0.833012  1
  Ir  Ir5  1  0.500000  0.250000  0.168294  1
  Ir  Ir6  1  0.500000  0.750000  0.166988  1
  Ir  Ir7  1  0.000394  0.999366  0.666890  1
  Ir  Ir8  1  0.999606  0.500634  0.666890  1
  Ru  Ru9  1  0.998812  0.499598  0.000000  1
  Ru  Ru10  1  0.500000  0.750000  0.500000  1
  Ru  Ru11  1  0.001188  0.000402  0.000000  1
  O  O12  1  0.306688  0.153585  0.000000  1
  O  O13  1  0.306771  0.653080  0.000000  1
  O  O14  1  0.188177  0.405833  0.500000  1
  O  O15  1  0.193322  0.903469  0.500000  1
  O  O16  1  0.811823  0.094167  0.500000  1
  O  O17  1  0.806678  0.596531  0.500000  1
  O  O18  1  0.693312  0.346415  0.000000  1
  O  O19  1  0.693229  0.846920  0.000000  1
  O  O20  1  0.305552  0.152244  0.333268  1
  O  O21  1  0.307664  0.654025  0.334512  1
  O  O22  1  0.192642  0.404050  0.833619  1
  O  O23  1  0.191836  0.903648  0.834472  1
  O  O24  1  0.807358  0.095950  0.833619  1
  O  O25  1  0.808164  0.596352  0.834472  1
  O  O26  1  0.807358  0.095950  0.166381  1
  O  O27  1  0.808164  0.596352  0.165528  1
  O  O28  1  0.192642  0.404050  0.166381  1
  O  O29  1  0.191836  0.903648  0.165528  1
  O  O30  1  0.694448  0.347756  0.333268  1
  O  O31  1  0.692336  0.845975  0.334512  1
  O  O32  1  0.305552  0.152244  0.666732  1
  O  O33  1  0.307664  0.654025  0.665488  1
  O  O34  1  0.694448  0.347756  0.666732  1
  O  O35  1  0.692336  0.845975  0.665488  1
