# generated using pymatgen
data_Sm2GaNi7B2
_symmetry_space_group_name_H-M   'P 1'
_cell_length_a   5.12183903
_cell_length_b   5.12157462
_cell_length_c   6.89749000
_cell_angle_alpha   90.00000000
_cell_angle_beta   90.00000000
_cell_angle_gamma   120.01443513
_symmetry_Int_Tables_number   1
_chemical_formula_structural   Sm2GaNi7B2
_chemical_formula_sum   'Sm2 Ga1 Ni7 B2'
_cell_volume   156.67076029
_cell_formula_units_Z   1
loop_
 _symmetry_equiv_pos_site_id
 _symmetry_equiv_pos_as_xyz
  1  'x, y, z'
loop_
 _atom_site_type_symbol
 _atom_site_label
 _atom_site_symmetry_multiplicity
 _atom_site_fract_x
 _atom_site_fract_y
 _atom_site_fract_z
 _atom_site_occupancy
  Sm  Sm0  1  0.999945  0.999980  0.000000  1
  Sm  Sm1  1  0.999992  0.000002  0.500000  1
  Ga  Ga2  1  0.333290  0.666576  0.000000  1
  Ni  Ni3  1  0.666698  0.333414  0.000000  1
  Ni  Ni4  1  0.500393  0.000824  0.296353  1
  Ni  Ni5  1  0.500397  0.499592  0.296381  1
  Ni  Ni6  1  0.999164  0.499595  0.296378  1
  Ni  Ni7  1  0.500393  0.000824  0.703647  1
  Ni  Ni8  1  0.500397  0.499592  0.703619  1
  Ni  Ni9  1  0.999164  0.499595  0.703622  1
  B  B10  1  0.333352  0.666745  0.500000  1
  B  B11  1  0.666610  0.333260  0.500000  1
