# generated using pymatgen
data_TaTi2GaC2
_symmetry_space_group_name_H-M   'P 1'
_cell_length_a   3.13397400
_cell_length_b   3.13397391
_cell_length_c   18.31948800
_cell_angle_alpha   90.00000000
_cell_angle_beta   90.00000000
_cell_angle_gamma   120.00000090
_symmetry_Int_Tables_number   1
_chemical_formula_structural   TaTi2GaC2
_chemical_formula_sum   'Ta2 Ti4 Ga2 C4'
_cell_volume   155.82413541
_cell_formula_units_Z   2
loop_
 _symmetry_equiv_pos_site_id
 _symmetry_equiv_pos_as_xyz
  1  'x, y, z'
loop_
 _atom_site_type_symbol
 _atom_site_label
 _atom_site_symmetry_multiplicity
 _atom_site_fract_x
 _atom_site_fract_y
 _atom_site_fract_z
 _atom_site_occupancy
  Ta  Ta0  1  0.000000  0.000000  0.500000  1
  Ta  Ta1  1  0.000000  0.000000  0.000000  1
  Ti  Ti2  1  0.666667  0.333333  0.368648  1
  Ti  Ti3  1  0.333333  0.666667  0.631352  1
  Ti  Ti4  1  0.333333  0.666667  0.868648  1
  Ti  Ti5  1  0.666667  0.333333  0.131352  1
  Ga  Ga6  1  0.000000  0.000000  0.250000  1
  Ga  Ga7  1  0.000000  0.000000  0.750000  1
  C  C8  1  0.666667  0.333333  0.927012  1
  C  C9  1  0.333333  0.666667  0.072988  1
  C  C10  1  0.333333  0.666667  0.427012  1
  C  C11  1  0.666667  0.333333  0.572988  1
