# generated using pymatgen
data_CaLu(FeB)8
_symmetry_space_group_name_H-M   'P 1'
_cell_length_a   6.91613000
_cell_length_b   6.91613000
_cell_length_c   3.83941500
_cell_angle_alpha   90.00000000
_cell_angle_beta   90.00000000
_cell_angle_gamma   90.00000000
_symmetry_Int_Tables_number   1
_chemical_formula_structural   CaLu(FeB)8
_chemical_formula_sum   'Ca1 Lu1 Fe8 B8'
_cell_volume   183.65017782
_cell_formula_units_Z   1
loop_
 _symmetry_equiv_pos_site_id
 _symmetry_equiv_pos_as_xyz
  1  'x, y, z'
loop_
 _atom_site_type_symbol
 _atom_site_label
 _atom_site_symmetry_multiplicity
 _atom_site_fract_x
 _atom_site_fract_y
 _atom_site_fract_z
 _atom_site_occupancy
  Ca  Ca0  1  0.500000  0.500000  0.500000  1
  Lu  Lu1  1  0.000000  0.000000  0.000000  1
  Fe  Fe2  1  0.870879  0.381327  0.114880  1
  Fe  Fe3  1  0.129121  0.618673  0.114880  1
  Fe  Fe4  1  0.883631  0.633183  0.614742  1
  Fe  Fe5  1  0.116369  0.366817  0.614742  1
  Fe  Fe6  1  0.633183  0.116369  0.385258  1
  Fe  Fe7  1  0.366817  0.883631  0.385258  1
  Fe  Fe8  1  0.618673  0.870879  0.885120  1
  Fe  Fe9  1  0.381327  0.129121  0.885120  1
  B  B10  1  0.329820  0.808134  0.890177  1
  B  B11  1  0.670180  0.191866  0.890177  1
  B  B12  1  0.302496  0.167189  0.390019  1
  B  B13  1  0.697504  0.832811  0.390019  1
  B  B14  1  0.167189  0.697504  0.609981  1
  B  B15  1  0.832811  0.302496  0.609981  1
  B  B16  1  0.191866  0.329820  0.109823  1
  B  B17  1  0.808134  0.670180  0.109823  1
