# generated using pymatgen
data_Pr3Dy3Al17Si7Os8
_symmetry_space_group_name_H-M   'P 1'
_cell_length_a   8.74830504
_cell_length_b   8.73075852
_cell_length_c   9.57319500
_cell_angle_alpha   90.00000000
_cell_angle_beta   90.00000000
_cell_angle_gamma   120.14001846
_symmetry_Int_Tables_number   1
_chemical_formula_structural   Pr3Dy3Al17Si7Os8
_chemical_formula_sum   'Pr3 Dy3 Al17 Si7 Os8'
_cell_volume   632.33751250
_cell_formula_units_Z   1
loop_
 _symmetry_equiv_pos_site_id
 _symmetry_equiv_pos_as_xyz
  1  'x, y, z'
loop_
 _atom_site_type_symbol
 _atom_site_label
 _atom_site_symmetry_multiplicity
 _atom_site_fract_x
 _atom_site_fract_y
 _atom_site_fract_z
 _atom_site_occupancy
  Pr  Pr0  1  0.809877  0.619292  0.750000  1
  Pr  Pr1  1  0.382060  0.188236  0.750000  1
  Pr  Pr2  1  0.805500  0.189399  0.750000  1
  Dy  Dy3  1  0.192983  0.388094  0.250000  1
  Dy  Dy4  1  0.610963  0.806872  0.250000  1
  Dy  Dy5  1  0.195812  0.805101  0.250000  1
  Al  Al6  1  0.165705  0.332404  0.572052  1
  Al  Al7  1  0.834847  0.672442  0.417884  1
  Al  Al8  1  0.668969  0.833936  0.571242  1
  Al  Al9  1  0.834847  0.672442  0.082116  1
  Al  Al10  1  0.328233  0.165213  0.419091  1
  Al  Al11  1  0.165705  0.332404  0.927948  1
  Al  Al12  1  0.164848  0.833177  0.569845  1
  Al  Al13  1  0.328233  0.165213  0.080909  1
  Al  Al14  1  0.836133  0.163399  0.418768  1
  Al  Al15  1  0.668969  0.833936  0.928758  1
  Al  Al16  1  0.836133  0.163399  0.081232  1
  Al  Al17  1  0.164848  0.833177  0.930155  1
  Al  Al18  1  0.129651  0.568117  0.750000  1
  Al  Al19  1  0.564293  0.435221  0.250000  1
  Al  Al20  1  0.437866  0.568413  0.750000  1
  Al  Al21  1  0.999779  0.999199  0.250000  1
  Al  Al22  1  0.999457  0.001370  0.750000  1
  Si  Si23  1  0.333481  0.664690  0.042297  1
  Si  Si24  1  0.666162  0.335837  0.969137  1
  Si  Si25  1  0.666162  0.335837  0.530863  1
  Si  Si26  1  0.333481  0.664690  0.457703  1
  Si  Si27  1  0.564571  0.123375  0.250000  1
  Si  Si28  1  0.434424  0.869168  0.750000  1
  Si  Si29  1  0.875569  0.434872  0.250000  1
  Os  Os30  1  0.500047  0.999260  0.005813  1
  Os  Os31  1  0.999822  0.499953  0.010499  1
  Os  Os32  1  0.500047  0.999260  0.494187  1
  Os  Os33  1  0.499801  0.500889  0.003933  1
  Os  Os34  1  0.999822  0.499953  0.489501  1
  Os  Os35  1  0.499801  0.500889  0.496067  1
  Os  Os36  1  0.000548  0.000439  0.000697  1
  Os  Os37  1  0.000548  0.000439  0.499303  1
