# generated using pymatgen
data_Sc2GaB2Ru3Pt2
_symmetry_space_group_name_H-M   'P 1'
_cell_length_a   9.37073004
_cell_length_b   9.46414804
_cell_length_c   3.08461900
_cell_angle_alpha   90.00000000
_cell_angle_beta   90.00000000
_cell_angle_gamma   90.00991700
_symmetry_Int_Tables_number   1
_chemical_formula_structural   Sc2GaB2Ru3Pt2
_chemical_formula_sum   'Sc4 Ga2 B4 Ru6 Pt4'
_cell_volume   273.56244328
_cell_formula_units_Z   2
loop_
 _symmetry_equiv_pos_site_id
 _symmetry_equiv_pos_as_xyz
  1  'x, y, z'
loop_
 _atom_site_type_symbol
 _atom_site_label
 _atom_site_symmetry_multiplicity
 _atom_site_fract_x
 _atom_site_fract_y
 _atom_site_fract_z
 _atom_site_occupancy
  Sc  Sc0  1  0.673472  0.174244  0.000000  1
  Sc  Sc1  1  0.335517  0.815053  0.000000  1
  Sc  Sc2  1  0.176852  0.332757  0.000000  1
  Sc  Sc3  1  0.820441  0.670591  0.000000  1
  Ga  Ga4  1  0.998825  0.007859  0.000000  1
  Ga  Ga5  1  0.492395  0.501567  0.000000  1
  B  B6  1  0.126026  0.616498  0.000000  1
  B  B7  1  0.883349  0.373027  0.000000  1
  B  B8  1  0.613867  0.868969  0.000000  1
  B  B9  1  0.389347  0.130360  0.000000  1
  Ru  Ru10  1  0.926971  0.218269  0.500000  1
  Ru  Ru11  1  0.280803  0.574176  0.500000  1
  Ru  Ru12  1  0.574571  0.713624  0.500000  1
  Ru  Ru13  1  0.429170  0.284307  0.500000  1
  Ru  Ru14  1  0.500319  0.998414  0.500000  1
  Ru  Ru15  1  0.995444  0.504218  0.500000  1
  Pt  Pt16  1  0.216839  0.070602  0.500000  1
  Pt  Pt17  1  0.784994  0.928885  0.500000  1
  Pt  Pt18  1  0.068876  0.788075  0.500000  1
  Pt  Pt19  1  0.711922  0.428505  0.500000  1
