# generated using pymatgen
data_Er7LuSb20
_symmetry_space_group_name_H-M   'P 1'
_cell_length_a   4.20238500
_cell_length_b   13.15253870
_cell_length_c   14.57647025
_cell_angle_alpha   78.35049646
_cell_angle_beta   90.00000000
_cell_angle_gamma   90.00000000
_symmetry_Int_Tables_number   1
_chemical_formula_structural   Er7LuSb20
_chemical_formula_sum   'Er7 Lu1 Sb20'
_cell_volume   789.07522473
_cell_formula_units_Z   1
loop_
 _symmetry_equiv_pos_site_id
 _symmetry_equiv_pos_as_xyz
  1  'x, y, z'
loop_
 _atom_site_type_symbol
 _atom_site_label
 _atom_site_symmetry_multiplicity
 _atom_site_fract_x
 _atom_site_fract_y
 _atom_site_fract_z
 _atom_site_occupancy
  Er  Er0  1  0.750000  0.338791  0.144157  1
  Er  Er1  1  0.250000  0.953984  0.358577  1
  Er  Er2  1  0.250000  0.661361  0.856223  1
  Er  Er3  1  0.250000  0.669562  0.575539  1
  Er  Er4  1  0.750000  0.045864  0.641411  1
  Er  Er5  1  0.750000  0.330491  0.424185  1
  Er  Er6  1  0.250000  0.394370  0.770632  1
  Lu  Lu7  1  0.750000  0.605302  0.229500  1
  Sb  Sb8  1  0.750000  0.847229  0.829513  1
  Sb  Sb9  1  0.250000  0.860304  0.678006  1
  Sb  Sb10  1  0.250000  0.142873  0.483388  1
  Sb  Sb11  1  0.750000  0.278721  0.936877  1
  Sb  Sb12  1  0.250000  0.143015  0.778328  1
  Sb  Sb13  1  0.750000  0.571774  0.446332  1
  Sb  Sb14  1  0.750000  0.139618  0.321942  1
  Sb  Sb15  1  0.250000  0.715250  0.346225  1
  Sb  Sb16  1  0.750000  0.284396  0.653051  1
  Sb  Sb17  1  0.750000  0.856140  0.221326  1
  Sb  Sb18  1  0.250000  0.420092  0.975817  1
  Sb  Sb19  1  0.250000  0.428070  0.552707  1
  Sb  Sb20  1  0.750000  0.576532  0.733901  1
  Sb  Sb21  1  0.250000  0.425240  0.265717  1
  Sb  Sb22  1  0.750000  0.857061  0.516492  1
  Sb  Sb23  1  0.750000  0.028148  0.911828  1
  Sb  Sb24  1  0.250000  0.721081  0.064103  1
  Sb  Sb25  1  0.250000  0.971857  0.088319  1
  Sb  Sb26  1  0.250000  0.152950  0.170512  1
  Sb  Sb27  1  0.750000  0.579924  0.025394  1
