# generated using pymatgen
data_Tb2MnFeSi2C
_symmetry_space_group_name_H-M   'P 1'
_cell_length_a   3.96485250
_cell_length_b   5.70186139
_cell_length_c   5.67339660
_cell_angle_alpha   92.09814360
_cell_angle_beta   110.45213651
_cell_angle_gamma   110.34550018
_symmetry_Int_Tables_number   1
_chemical_formula_structural   Tb2MnFeSi2C
_chemical_formula_sum   'Tb2 Mn1 Fe1 Si2 C1'
_cell_volume   110.83693759
_cell_formula_units_Z   1
loop_
 _symmetry_equiv_pos_site_id
 _symmetry_equiv_pos_as_xyz
  1  'x, y, z'
loop_
 _atom_site_type_symbol
 _atom_site_label
 _atom_site_symmetry_multiplicity
 _atom_site_fract_x
 _atom_site_fract_y
 _atom_site_fract_z
 _atom_site_occupancy
  Tb  Tb0  1  0.266162  0.325782  0.206543  1
  Tb  Tb1  1  0.732924  0.673002  0.792847  1
  Mn  Mn2  1  0.105011  0.805102  0.404922  1
  Fe  Fe3  1  0.894029  0.192285  0.595775  1
  Si  Si4  1  0.558120  0.895734  0.220505  1
  Si  Si5  1  0.443855  0.108076  0.779634  1
  C  C6  1  0.999897  0.500020  0.499775  1
