# generated using pymatgen
data_CsGd3Te5
_symmetry_space_group_name_H-M   'P 1'
_cell_length_a   4.37337100
_cell_length_b   13.15214100
_cell_length_c   23.46079600
_cell_angle_alpha   90.00000000
_cell_angle_beta   90.00000000
_cell_angle_gamma   90.00000000
_symmetry_Int_Tables_number   1
_chemical_formula_structural   CsGd3Te5
_chemical_formula_sum   'Cs4 Gd12 Te20'
_cell_volume   1349.44603047
_cell_formula_units_Z   4
loop_
 _symmetry_equiv_pos_site_id
 _symmetry_equiv_pos_as_xyz
  1  'x, y, z'
loop_
 _atom_site_type_symbol
 _atom_site_label
 _atom_site_symmetry_multiplicity
 _atom_site_fract_x
 _atom_site_fract_y
 _atom_site_fract_z
 _atom_site_occupancy
  Cs  Cs0  1  0.250000  0.351946  0.090059  1
  Cs  Cs1  1  0.750000  0.648054  0.909941  1
  Cs  Cs2  1  0.750000  0.851946  0.409941  1
  Cs  Cs3  1  0.250000  0.148054  0.590059  1
  Gd  Gd4  1  0.250000  0.456324  0.698873  1
  Gd  Gd5  1  0.750000  0.543676  0.301127  1
  Gd  Gd6  1  0.750000  0.956324  0.801127  1
  Gd  Gd7  1  0.250000  0.043676  0.198873  1
  Gd  Gd8  1  0.250000  0.799303  0.673106  1
  Gd  Gd9  1  0.750000  0.200697  0.326894  1
  Gd  Gd10  1  0.750000  0.299303  0.826894  1
  Gd  Gd11  1  0.250000  0.700697  0.173106  1
  Gd  Gd12  1  0.250000  0.390884  0.444178  1
  Gd  Gd13  1  0.750000  0.609116  0.555822  1
  Gd  Gd14  1  0.750000  0.890884  0.055822  1
  Gd  Gd15  1  0.250000  0.109116  0.944178  1
  Te  Te16  1  0.250000  0.441642  0.569589  1
  Te  Te17  1  0.750000  0.558358  0.430411  1
  Te  Te18  1  0.750000  0.941642  0.930411  1
  Te  Te19  1  0.250000  0.058358  0.069589  1
  Te  Te20  1  0.250000  0.773319  0.543283  1
  Te  Te21  1  0.750000  0.226681  0.456717  1
  Te  Te22  1  0.750000  0.273319  0.956717  1
  Te  Te23  1  0.250000  0.726681  0.043283  1
  Te  Te24  1  0.250000  0.796267  0.803478  1
  Te  Te25  1  0.750000  0.203733  0.196522  1
  Te  Te26  1  0.750000  0.296267  0.696522  1
  Te  Te27  1  0.250000  0.703733  0.303478  1
  Te  Te28  1  0.250000  0.459482  0.829470  1
  Te  Te29  1  0.750000  0.540518  0.170530  1
  Te  Te30  1  0.750000  0.959482  0.670530  1
  Te  Te31  1  0.250000  0.040518  0.329470  1
  Te  Te32  1  0.250000  0.372020  0.311117  1
  Te  Te33  1  0.750000  0.627980  0.688883  1
  Te  Te34  1  0.750000  0.872020  0.188883  1
  Te  Te35  1  0.250000  0.127980  0.811117  1
