# generated using pymatgen
data_Tb2Dy2Y2Ni20P13
_symmetry_space_group_name_H-M   'P 1'
_cell_length_a   12.68681100
_cell_length_b   12.69004844
_cell_length_c   3.76498900
_cell_angle_alpha   90.00000000
_cell_angle_beta   90.00000000
_cell_angle_gamma   119.98895278
_symmetry_Int_Tables_number   1
_chemical_formula_structural   Tb2Dy2Y2Ni20P13
_chemical_formula_sum   'Tb2 Dy2 Y2 Ni20 P13'
_cell_volume   524.99894176
_cell_formula_units_Z   1
loop_
 _symmetry_equiv_pos_site_id
 _symmetry_equiv_pos_as_xyz
  1  'x, y, z'
loop_
 _atom_site_type_symbol
 _atom_site_label
 _atom_site_symmetry_multiplicity
 _atom_site_fract_x
 _atom_site_fract_y
 _atom_site_fract_z
 _atom_site_occupancy
  Tb  Tb0  1  0.811882  0.282218  0.000000  1
  Tb  Tb1  1  0.530919  0.812230  0.500000  1
  Dy  Dy2  1  0.470202  0.187972  0.000000  1
  Dy  Dy3  1  0.718032  0.529998  0.000000  1
  Y  Y4  1  0.281465  0.469239  0.500000  1
  Y  Y5  1  0.187597  0.718593  0.500000  1
  Ni  Ni6  1  0.333326  0.666666  0.000000  1
  Ni  Ni7  1  0.666457  0.333426  0.500000  1
  Ni  Ni8  1  0.195592  0.090791  0.000000  1
  Ni  Ni9  1  0.895127  0.804331  0.000000  1
  Ni  Ni10  1  0.909198  0.104650  0.000000  1
  Ni  Ni11  1  0.848516  0.927420  0.500000  1
  Ni  Ni12  1  0.078909  0.151424  0.500000  1
  Ni  Ni13  1  0.072502  0.921027  0.500000  1
  Ni  Ni14  1  0.437896  0.416272  0.000000  1
  Ni  Ni15  1  0.978456  0.562176  0.000000  1
  Ni  Ni16  1  0.583616  0.021558  0.000000  1
  Ni  Ni17  1  0.565086  0.586801  0.500000  1
  Ni  Ni18  1  0.021962  0.435081  0.500000  1
  Ni  Ni19  1  0.413128  0.978240  0.500000  1
  Ni  Ni20  1  0.078364  0.320285  0.000000  1
  Ni  Ni21  1  0.242045  0.921781  0.000000  1
  Ni  Ni22  1  0.679825  0.757955  0.000000  1
  Ni  Ni23  1  0.929001  0.682858  0.500000  1
  Ni  Ni24  1  0.753730  0.070770  0.500000  1
  Ni  Ni25  1  0.317229  0.246205  0.500000  1
  P  P26  1  0.234325  0.282186  0.000000  1
  P  P27  1  0.047870  0.765686  0.000000  1
  P  P28  1  0.717923  0.952286  0.000000  1
  P  P29  1  0.767404  0.721025  0.500000  1
  P  P30  1  0.953810  0.232456  0.500000  1
  P  P31  1  0.278974  0.046408  0.500000  1
  P  P32  1  0.476788  0.614117  0.000000  1
  P  P33  1  0.137441  0.523174  0.000000  1
  P  P34  1  0.385668  0.862616  0.000000  1
  P  P35  1  0.523709  0.386472  0.500000  1
  P  P36  1  0.862757  0.476543  0.500000  1
  P  P37  1  0.613251  0.137034  0.500000  1
  P  P38  1  0.000020  0.000031  0.000000  1
