# generated using pymatgen
data_Sr4ErNb2InO12
_symmetry_space_group_name_H-M   'P 1'
_cell_length_a   5.81209608
_cell_length_b   5.88574786
_cell_length_c   8.25434050
_cell_angle_alpha   89.88916929
_cell_angle_beta   90.16188859
_cell_angle_gamma   89.97700319
_symmetry_Int_Tables_number   1
_chemical_formula_structural   Sr4ErNb2InO12
_chemical_formula_sum   'Sr4 Er1 Nb2 In1 O12'
_cell_volume   282.36719280
_cell_formula_units_Z   1
loop_
 _symmetry_equiv_pos_site_id
 _symmetry_equiv_pos_as_xyz
  1  'x, y, z'
loop_
 _atom_site_type_symbol
 _atom_site_label
 _atom_site_symmetry_multiplicity
 _atom_site_fract_x
 _atom_site_fract_y
 _atom_site_fract_z
 _atom_site_occupancy
  Sr  Sr0  1  0.991256  0.465591  0.252613  1
  Sr  Sr1  1  0.507291  0.963043  0.253424  1
  Sr  Sr2  1  0.492709  0.036957  0.746576  1
  Sr  Sr3  1  0.008743  0.534409  0.747387  1
  Er  Er4  1  0.000000  0.000000  0.000000  1
  Nb  Nb5  1  0.500001  0.500000  0.000000  1
  Nb  Nb6  1  0.000001  0.000000  0.500000  1
  In  In7  1  0.500000  0.500000  0.500000  1
  O  O8  1  0.777563  0.698311  0.040489  1
  O  O9  1  0.695952  0.221875  0.043117  1
  O  O10  1  0.421533  0.521826  0.239888  1
  O  O11  1  0.077889  0.021733  0.262817  1
  O  O12  1  0.796703  0.725229  0.457049  1
  O  O13  1  0.725288  0.205335  0.460795  1
  O  O14  1  0.274714  0.794665  0.539205  1
  O  O15  1  0.203298  0.274771  0.542950  1
  O  O16  1  0.922111  0.978267  0.737183  1
  O  O17  1  0.578467  0.478174  0.760112  1
  O  O18  1  0.304049  0.778125  0.956882  1
  O  O19  1  0.222439  0.301689  0.959511  1
