# generated using pymatgen
data_TbY2Ga6Co7Cu2
_symmetry_space_group_name_H-M   'P 1'
_cell_length_a   4.07755500
_cell_length_b   8.74541718
_cell_length_c   8.84040875
_cell_angle_alpha   59.70453708
_cell_angle_beta   90.00000000
_cell_angle_gamma   90.00000000
_symmetry_Int_Tables_number   1
_chemical_formula_structural   TbY2Ga6Co7Cu2
_chemical_formula_sum   'Tb1 Y2 Ga6 Co7 Cu2'
_cell_volume   272.19654332
_cell_formula_units_Z   1
loop_
 _symmetry_equiv_pos_site_id
 _symmetry_equiv_pos_as_xyz
  1  'x, y, z'
loop_
 _atom_site_type_symbol
 _atom_site_label
 _atom_site_symmetry_multiplicity
 _atom_site_fract_x
 _atom_site_fract_y
 _atom_site_fract_z
 _atom_site_occupancy
  Tb  Tb0  1  0.000000  0.999871  0.999143  1
  Y  Y1  1  0.500000  0.325859  0.335860  1
  Y  Y2  1  0.500000  0.674489  0.661349  1
  Ga  Ga3  1  0.000000  0.493800  0.508516  1
  Ga  Ga4  1  0.000000  0.506027  0.002647  1
  Ga  Ga5  1  0.000000  0.999878  0.490415  1
  Ga  Ga6  1  0.500000  0.727979  0.276571  1
  Ga  Ga7  1  0.500000  0.272153  0.004172  1
  Ga  Ga8  1  0.500000  0.000022  0.723111  1
  Co  Co9  1  0.000000  0.181337  0.177713  1
  Co  Co10  1  0.000000  0.179003  0.632223  1
  Co  Co11  1  0.000000  0.632035  0.190295  1
  Co  Co12  1  0.000000  0.820942  0.811461  1
  Co  Co13  1  0.000000  0.368003  0.822298  1
  Co  Co14  1  0.000000  0.817961  0.359565  1
  Co  Co15  1  0.500000  0.000446  0.297187  1
  Cu  Cu16  1  0.500000  0.296838  0.705338  1
  Cu  Cu17  1  0.500000  0.703255  0.002235  1
