# generated using pymatgen
data_Sc22AgOs5Rh2
_symmetry_space_group_name_H-M   'P 1'
_cell_length_a   9.48357328
_cell_length_b   9.52575346
_cell_length_c   9.54807340
_cell_angle_alpha   59.92604606
_cell_angle_beta   60.06792220
_cell_angle_gamma   60.30191213
_symmetry_Int_Tables_number   1
_chemical_formula_structural   Sc22AgOs5Rh2
_chemical_formula_sum   'Sc22 Ag1 Os5 Rh2'
_cell_volume   611.26851178
_cell_formula_units_Z   1
loop_
 _symmetry_equiv_pos_site_id
 _symmetry_equiv_pos_as_xyz
  1  'x, y, z'
loop_
 _atom_site_type_symbol
 _atom_site_label
 _atom_site_symmetry_multiplicity
 _atom_site_fract_x
 _atom_site_fract_y
 _atom_site_fract_z
 _atom_site_occupancy
  Sc  Sc0  1  0.841463  0.843044  0.845249  1
  Sc  Sc1  1  0.529756  0.154751  0.156956  1
  Sc  Sc2  1  0.164580  0.143077  0.528701  1
  Sc  Sc3  1  0.163642  0.528701  0.143077  1
  Sc  Sc4  1  0.835420  0.856923  0.471299  1
  Sc  Sc5  1  0.836358  0.471299  0.856923  1
  Sc  Sc6  1  0.470244  0.845249  0.843044  1
  Sc  Sc7  1  0.158537  0.156956  0.154751  1
  Sc  Sc8  1  0.198012  0.805422  0.194578  1
  Sc  Sc9  1  0.196076  0.803924  0.803924  1
  Sc  Sc10  1  0.803924  0.196076  0.196076  1
  Sc  Sc11  1  0.802156  0.804364  0.195636  1
  Sc  Sc12  1  0.197844  0.195636  0.804364  1
  Sc  Sc13  1  0.801988  0.194578  0.805422  1
  Sc  Sc14  1  0.393703  0.376073  0.382442  1
  Sc  Sc15  1  0.152219  0.617558  0.623927  1
  Sc  Sc16  1  0.611052  0.151407  0.622112  1
  Sc  Sc17  1  0.615429  0.622112  0.151407  1
  Sc  Sc18  1  0.388948  0.848593  0.377888  1
  Sc  Sc19  1  0.384571  0.377888  0.848593  1
  Sc  Sc20  1  0.847781  0.382442  0.376073  1
  Sc  Sc21  1  0.606297  0.623927  0.617558  1
  Ag  Ag22  1  0.000000  0.500000  0.500000  1
  Os  Os23  1  0.500000  0.000000  0.500000  1
  Os  Os24  1  0.500000  0.000000  0.000000  1
  Os  Os25  1  0.000000  0.500000  0.000000  1
  Os  Os26  1  0.500000  0.500000  0.500000  1
  Os  Os27  1  0.000000  0.000000  0.000000  1
  Rh  Rh28  1  0.500000  0.500000  0.000000  1
  Rh  Rh29  1  0.000000  0.000000  0.500000  1
