# generated using pymatgen
data_Hf2USi3Ni2
_symmetry_space_group_name_H-M   'P 1'
_cell_length_a   5.23465998
_cell_length_b   5.23465871
_cell_length_c   13.26629419
_cell_angle_alpha   91.00022518
_cell_angle_beta   88.99977620
_cell_angle_gamma   135.16756920
_symmetry_Int_Tables_number   1
_chemical_formula_structural   Hf2USi3Ni2
_chemical_formula_sum   'Hf4 U2 Si6 Ni4'
_cell_volume   256.24780708
_cell_formula_units_Z   2
loop_
 _symmetry_equiv_pos_site_id
 _symmetry_equiv_pos_as_xyz
  1  'x, y, z'
loop_
 _atom_site_type_symbol
 _atom_site_label
 _atom_site_symmetry_multiplicity
 _atom_site_fract_x
 _atom_site_fract_y
 _atom_site_fract_z
 _atom_site_occupancy
  Hf  Hf0  1  0.130434  0.869566  0.245643  1
  Hf  Hf1  1  0.869566  0.130434  0.754357  1
  Hf  Hf2  1  0.420281  0.579719  0.112318  1
  Hf  Hf3  1  0.579719  0.420281  0.887682  1
  U  U4  1  0.583104  0.416896  0.617033  1
  U  U5  1  0.416896  0.583104  0.382967  1
  Si  Si6  1  0.838462  0.161538  0.239607  1
  Si  Si7  1  0.161538  0.838462  0.760393  1
  Si  Si8  1  0.883570  0.116430  0.541431  1
  Si  Si9  1  0.116430  0.883570  0.458569  1
  Si  Si10  1  0.112708  0.887292  0.040898  1
  Si  Si11  1  0.887292  0.112708  0.959102  1
  Ni  Ni12  1  0.287767  0.712233  0.912277  1
  Ni  Ni13  1  0.712233  0.287767  0.087723  1
  Ni  Ni14  1  0.713251  0.286749  0.396860  1
  Ni  Ni15  1  0.286749  0.713251  0.603140  1
