# generated using pymatgen
data_Ti6GaBS
_symmetry_space_group_name_H-M   'P 1'
_cell_length_a   6.74193300
_cell_length_b   6.74193303
_cell_length_c   3.32205400
_cell_angle_alpha   90.00000000
_cell_angle_beta   90.00000000
_cell_angle_gamma   120.00000474
_symmetry_Int_Tables_number   1
_chemical_formula_structural   Ti6GaBS
_chemical_formula_sum   'Ti6 Ga1 B1 S1'
_cell_volume   130.76941032
_cell_formula_units_Z   1
loop_
 _symmetry_equiv_pos_site_id
 _symmetry_equiv_pos_as_xyz
  1  'x, y, z'
loop_
 _atom_site_type_symbol
 _atom_site_label
 _atom_site_symmetry_multiplicity
 _atom_site_fract_x
 _atom_site_fract_y
 _atom_site_fract_z
 _atom_site_occupancy
  Ti  Ti0  1  0.001400  0.762646  0.000000  1
  Ti  Ti1  1  0.237354  0.238754  0.000000  1
  Ti  Ti2  1  0.761246  0.998600  0.000000  1
  Ti  Ti3  1  0.016373  0.403819  0.500000  1
  Ti  Ti4  1  0.596181  0.612555  0.500000  1
  Ti  Ti5  1  0.387445  0.983627  0.500000  1
  Ga  Ga6  1  0.666667  0.333333  0.000000  1
  B  B7  1  0.000000  0.000000  0.500000  1
  S  S8  1  0.333333  0.666667  0.000000  1
