# generated using pymatgen
data_Dy8Er2OsRu3
_symmetry_space_group_name_H-M   'P 1'
_cell_length_a   6.35817863
_cell_length_b   7.27760633
_cell_length_c   8.46340179
_cell_angle_alpha   96.68243665
_cell_angle_beta   112.11020656
_cell_angle_gamma   90.00403811
_symmetry_Int_Tables_number   1
_chemical_formula_structural   Dy8Er2OsRu3
_chemical_formula_sum   'Dy8 Er2 Os1 Ru3'
_cell_volume   359.94739192
_cell_formula_units_Z   1
loop_
 _symmetry_equiv_pos_site_id
 _symmetry_equiv_pos_as_xyz
  1  'x, y, z'
loop_
 _atom_site_type_symbol
 _atom_site_label
 _atom_site_symmetry_multiplicity
 _atom_site_fract_x
 _atom_site_fract_y
 _atom_site_fract_z
 _atom_site_occupancy
  Dy  Dy0  1  0.793093  0.583218  0.813902  1
  Dy  Dy1  1  0.976574  0.915712  0.184016  1
  Dy  Dy2  1  0.206852  0.415619  0.185782  1
  Dy  Dy3  1  0.022848  0.084267  0.814366  1
  Dy  Dy4  1  0.207642  0.685740  0.567357  1
  Dy  Dy5  1  0.639724  0.815561  0.434752  1
  Dy  Dy6  1  0.793692  0.314644  0.433055  1
  Dy  Dy7  1  0.359311  0.185039  0.566063  1
  Er  Er8  1  0.422723  0.750174  0.999230  1
  Er  Er9  1  0.577782  0.249854  0.999999  1
  Os  Os10  1  0.603013  0.924687  0.781729  1
  Ru  Ru11  1  0.823256  0.575731  0.219658  1
  Ru  Ru12  1  0.396336  0.075639  0.219223  1
  Ru  Ru13  1  0.177154  0.424115  0.780867  1
