# generated using pymatgen
data_SrCu5P3
_symmetry_space_group_name_H-M   'P 1'
_cell_length_a   6.41075791
_cell_length_b   6.41075816
_cell_length_c   11.86370500
_cell_angle_alpha   90.00000000
_cell_angle_beta   90.00000000
_cell_angle_gamma   145.63274770
_symmetry_Int_Tables_number   1
_chemical_formula_structural   SrCu5P3
_chemical_formula_sum   'Sr2 Cu10 P6'
_cell_volume   275.23233229
_cell_formula_units_Z   2
loop_
 _symmetry_equiv_pos_site_id
 _symmetry_equiv_pos_as_xyz
  1  'x, y, z'
loop_
 _atom_site_type_symbol
 _atom_site_label
 _atom_site_symmetry_multiplicity
 _atom_site_fract_x
 _atom_site_fract_y
 _atom_site_fract_z
 _atom_site_occupancy
  Sr  Sr0  1  0.337942  0.662058  0.250000  1
  Sr  Sr1  1  0.662058  0.337942  0.750000  1
  Cu  Cu2  1  0.053136  0.946864  0.145647  1
  Cu  Cu3  1  0.053136  0.946864  0.354353  1
  Cu  Cu4  1  0.693037  0.306963  0.434194  1
  Cu  Cu5  1  0.306963  0.693037  0.565806  1
  Cu  Cu6  1  0.306963  0.693037  0.934194  1
  Cu  Cu7  1  0.693037  0.306963  0.065806  1
  Cu  Cu8  1  0.500000  0.500000  0.500000  1
  Cu  Cu9  1  0.500000  0.500000  0.000000  1
  Cu  Cu10  1  0.946864  0.053136  0.645647  1
  Cu  Cu11  1  0.946864  0.053136  0.854353  1
  P  P12  1  0.620248  0.379752  0.250000  1
  P  P13  1  0.379752  0.620248  0.750000  1
  P  P14  1  0.119823  0.880177  0.545683  1
  P  P15  1  0.880177  0.119823  0.454317  1
  P  P16  1  0.880177  0.119823  0.045683  1
  P  P17  1  0.119823  0.880177  0.954317  1
