# generated using pymatgen
data_Y6Ho10MgCo4Hg3
_symmetry_space_group_name_H-M   'P 1'
_cell_length_a   9.47303328
_cell_length_b   9.47060542
_cell_length_c   9.47060600
_cell_angle_alpha   59.99999796
_cell_angle_beta   60.00847567
_cell_angle_gamma   60.00847401
_symmetry_Int_Tables_number   1
_chemical_formula_structural   Y6Ho10MgCo4Hg3
_chemical_formula_sum   'Y6 Ho10 Mg1 Co4 Hg3'
_cell_volume   600.87645989
_cell_formula_units_Z   1
loop_
 _symmetry_equiv_pos_site_id
 _symmetry_equiv_pos_as_xyz
  1  'x, y, z'
loop_
 _atom_site_type_symbol
 _atom_site_label
 _atom_site_symmetry_multiplicity
 _atom_site_fract_x
 _atom_site_fract_y
 _atom_site_fract_z
 _atom_site_occupancy
  Y  Y0  1  0.937188  0.562058  0.562058  1
  Y  Y1  1  0.561081  0.938114  0.938114  1
  Y  Y2  1  0.561081  0.938114  0.562690  1
  Y  Y3  1  0.937188  0.562058  0.938696  1
  Y  Y4  1  0.561081  0.562690  0.938114  1
  Y  Y5  1  0.937188  0.938696  0.562058  1
  Ho  Ho6  1  0.347567  0.345568  0.345568  1
  Ho  Ho7  1  0.347567  0.345568  0.961298  1
  Ho  Ho8  1  0.347567  0.961298  0.345568  1
  Ho  Ho9  1  0.952295  0.349235  0.349235  1
  Ho  Ho10  1  0.810817  0.188804  0.188804  1
  Ho  Ho11  1  0.184967  0.814001  0.814001  1
  Ho  Ho12  1  0.184967  0.814001  0.187030  1
  Ho  Ho13  1  0.810817  0.188804  0.811576  1
  Ho  Ho14  1  0.184967  0.187030  0.814001  1
  Ho  Ho15  1  0.810817  0.811576  0.188804  1
  Mg  Mg16  1  0.286449  0.571184  0.571184  1
  Co  Co17  1  0.139163  0.142371  0.142371  1
  Co  Co18  1  0.139163  0.142371  0.576094  1
  Co  Co19  1  0.139163  0.576094  0.142371  1
  Co  Co20  1  0.575605  0.141465  0.141465  1
  Hg  Hg21  1  0.581100  0.585165  0.585165  1
  Hg  Hg22  1  0.581100  0.585165  0.248571  1
  Hg  Hg23  1  0.581100  0.248571  0.585165  1
