# generated using pymatgen
data_Tm6Sn6Ir5Au
_symmetry_space_group_name_H-M   'P 1'
_cell_length_a   7.53060200
_cell_length_b   7.53060108
_cell_length_c   7.76867300
_cell_angle_alpha   90.00000000
_cell_angle_beta   90.00000000
_cell_angle_gamma   120.00000521
_symmetry_Int_Tables_number   1
_chemical_formula_structural   Tm6Sn6Ir5Au
_chemical_formula_sum   'Tm6 Sn6 Ir5 Au1'
_cell_volume   381.53711195
_cell_formula_units_Z   1
loop_
 _symmetry_equiv_pos_site_id
 _symmetry_equiv_pos_as_xyz
  1  'x, y, z'
loop_
 _atom_site_type_symbol
 _atom_site_label
 _atom_site_symmetry_multiplicity
 _atom_site_fract_x
 _atom_site_fract_y
 _atom_site_fract_z
 _atom_site_occupancy
  Tm  Tm0  1  0.398319  0.991659  0.244185  1
  Tm  Tm1  1  0.591719  0.603691  0.755866  1
  Tm  Tm2  1  0.593342  0.601681  0.244185  1
  Tm  Tm3  1  0.008341  0.406658  0.244185  1
  Tm  Tm4  1  0.011971  0.408281  0.755866  1
  Tm  Tm5  1  0.396309  0.988029  0.755866  1
  Sn  Sn6  1  0.254537  0.261973  0.499597  1
  Sn  Sn7  1  0.265738  0.260465  0.999631  1
  Sn  Sn8  1  0.739535  0.005273  0.999631  1
  Sn  Sn9  1  0.007437  0.745463  0.499597  1
  Sn  Sn10  1  0.738027  0.992563  0.499597  1
  Sn  Sn11  1  0.994727  0.734262  0.999631  1
  Ir  Ir12  1  0.666667  0.333333  0.997951  1
  Ir  Ir13  1  0.333333  0.666667  0.002406  1
  Ir  Ir14  1  0.333333  0.666667  0.497500  1
  Ir  Ir15  1  0.000000  0.000000  0.751636  1
  Ir  Ir16  1  0.000000  0.000000  0.247669  1
  Au  Au17  1  0.666667  0.333333  0.505003  1
