# generated using pymatgen
data_Dy17Ho3(Ir3Pt)3
_symmetry_space_group_name_H-M   'P 1'
_cell_length_a   10.96757098
_cell_length_b   10.96736057
_cell_length_c   6.34093600
_cell_angle_alpha   89.98028567
_cell_angle_beta   89.97824767
_cell_angle_gamma   90.20664077
_symmetry_Int_Tables_number   1
_chemical_formula_structural   Dy17Ho3(Ir3Pt)3
_chemical_formula_sum   'Dy17 Ho3 Ir9 Pt3'
_cell_volume   762.71636342
_cell_formula_units_Z   1
loop_
 _symmetry_equiv_pos_site_id
 _symmetry_equiv_pos_as_xyz
  1  'x, y, z'
loop_
 _atom_site_type_symbol
 _atom_site_label
 _atom_site_symmetry_multiplicity
 _atom_site_fract_x
 _atom_site_fract_y
 _atom_site_fract_z
 _atom_site_occupancy
  Dy  Dy0  1  0.293619  0.086878  0.371803  1
  Dy  Dy1  1  0.292833  0.908588  0.876897  1
  Dy  Dy2  1  0.705434  0.089985  0.873843  1
  Dy  Dy3  1  0.704526  0.909845  0.373256  1
  Dy  Dy4  1  0.585175  0.790826  0.878255  1
  Dy  Dy5  1  0.585532  0.209188  0.378264  1
  Dy  Dy6  1  0.410842  0.791064  0.378115  1
  Dy  Dy7  1  0.414193  0.209227  0.878142  1
  Dy  Dy8  1  0.209171  0.414833  0.621690  1
  Dy  Dy9  1  0.208935  0.589170  0.121925  1
  Dy  Dy10  1  0.790804  0.414462  0.121776  1
  Dy  Dy11  1  0.790776  0.585806  0.621804  1
  Dy  Dy12  1  0.913156  0.706438  0.128161  1
  Dy  Dy13  1  0.909986  0.294600  0.626207  1
  Dy  Dy14  1  0.091442  0.707115  0.623146  1
  Dy  Dy15  1  0.090120  0.295428  0.126706  1
  Dy  Dy16  1  0.001210  0.998072  0.499532  1
  Ho  Ho17  1  0.001938  0.998783  0.000460  1
  Ho  Ho18  1  0.499763  0.499899  0.000423  1
  Ho  Ho19  1  0.500098  0.500237  0.499578  1
  Ir  Ir20  1  0.152290  0.847735  0.249787  1
  Ir  Ir21  1  0.654260  0.345745  0.750009  1
  Ir  Ir22  1  0.654650  0.654277  0.249582  1
  Ir  Ir23  1  0.345726  0.345343  0.250403  1
  Ir  Ir24  1  0.346609  0.653385  0.750002  1
  Ir  Ir25  1  0.500460  0.000065  0.122407  1
  Ir  Ir26  1  0.500272  0.000294  0.623602  1
  Ir  Ir27  1  0.999707  0.499724  0.876398  1
  Ir  Ir28  1  0.999939  0.499539  0.377593  1
  Pt  Pt29  1  0.846988  0.152996  0.249764  1
  Pt  Pt30  1  0.845753  0.846183  0.750137  1
  Pt  Pt31  1  0.153794  0.154271  0.750331  1
