# generated using pymatgen
data_Ti6Sn2HgBi2
_symmetry_space_group_name_H-M   'P 1'
_cell_length_a   9.36764586
_cell_length_b   9.38865548
_cell_length_c   5.78615600
_cell_angle_alpha   90.00000000
_cell_angle_beta   90.00000000
_cell_angle_gamma   120.07422374
_symmetry_Int_Tables_number   1
_chemical_formula_structural   Ti6Sn2HgBi2
_chemical_formula_sum   'Ti12 Sn4 Hg2 Bi4'
_cell_volume   440.38176716
_cell_formula_units_Z   2
loop_
 _symmetry_equiv_pos_site_id
 _symmetry_equiv_pos_as_xyz
  1  'x, y, z'
loop_
 _atom_site_type_symbol
 _atom_site_label
 _atom_site_symmetry_multiplicity
 _atom_site_fract_x
 _atom_site_fract_y
 _atom_site_fract_z
 _atom_site_occupancy
  Ti  Ti0  1  0.844012  0.682191  0.750000  1
  Ti  Ti1  1  0.155988  0.838180  0.250000  1
  Ti  Ti2  1  0.685221  0.840315  0.250000  1
  Ti  Ti3  1  0.314779  0.155093  0.750000  1
  Ti  Ti4  1  0.843377  0.156830  0.750000  1
  Ti  Ti5  1  0.156623  0.313454  0.250000  1
  Ti  Ti6  1  0.497017  0.998685  0.502165  1
  Ti  Ti7  1  0.502983  0.501668  0.002165  1
  Ti  Ti8  1  0.000000  0.504596  0.000000  1
  Ti  Ti9  1  0.000000  0.504596  0.500000  1
  Ti  Ti10  1  0.497017  0.998685  0.997835  1
  Ti  Ti11  1  0.502983  0.501668  0.497835  1
  Sn  Sn12  1  0.196977  0.803195  0.750000  1
  Sn  Sn13  1  0.803023  0.606217  0.250000  1
  Sn  Sn14  1  0.667947  0.335179  0.750000  1
  Sn  Sn15  1  0.332053  0.667233  0.250000  1
  Hg  Hg16  1  0.000000  0.995030  0.500000  1
  Hg  Hg17  1  0.000000  0.995030  0.000000  1
  Bi  Bi18  1  0.199317  0.400020  0.750000  1
  Bi  Bi19  1  0.800683  0.200703  0.250000  1
  Bi  Bi20  1  0.398764  0.200095  0.250000  1
  Bi  Bi21  1  0.601236  0.801332  0.750000  1
