# generated using pymatgen
data_EuCrNi(Sb6Os)2
_symmetry_space_group_name_H-M   'P 1'
_cell_length_a   8.11625059
_cell_length_b   8.10442148
_cell_length_c   8.14230219
_cell_angle_alpha   109.43803919
_cell_angle_beta   109.46096385
_cell_angle_gamma   109.12354329
_symmetry_Int_Tables_number   1
_chemical_formula_structural   EuCrNi(Sb6Os)2
_chemical_formula_sum   'Eu1 Cr1 Ni1 Sb12 Os2'
_cell_volume   414.26475249
_cell_formula_units_Z   1
loop_
 _symmetry_equiv_pos_site_id
 _symmetry_equiv_pos_as_xyz
  1  'x, y, z'
loop_
 _atom_site_type_symbol
 _atom_site_label
 _atom_site_symmetry_multiplicity
 _atom_site_fract_x
 _atom_site_fract_y
 _atom_site_fract_z
 _atom_site_occupancy
  Eu  Eu0  1  0.000000  0.000000  0.000000  1
  Cr  Cr1  1  0.000000  0.500000  0.000000  1
  Ni  Ni2  1  0.500000  0.500000  0.500000  1
  Sb  Sb3  1  0.340656  0.158709  0.496443  1
  Sb  Sb4  1  0.339776  0.842880  0.181781  1
  Sb  Sb5  1  0.660224  0.157120  0.818219  1
  Sb  Sb6  1  0.818334  0.661784  0.158109  1
  Sb  Sb7  1  0.160522  0.495504  0.342385  1
  Sb  Sb8  1  0.503346  0.657885  0.840388  1
  Sb  Sb9  1  0.842179  0.182715  0.338417  1
  Sb  Sb10  1  0.659344  0.841291  0.503557  1
  Sb  Sb11  1  0.181666  0.338216  0.841891  1
  Sb  Sb12  1  0.157821  0.817285  0.661583  1
  Sb  Sb13  1  0.496654  0.342115  0.159612  1
  Sb  Sb14  1  0.839478  0.504496  0.657615  1
  Os  Os15  1  0.500000  0.000000  0.000000  1
  Os  Os16  1  0.000000  0.000000  0.500000  1
