# generated using pymatgen
data_Ac2SeF4
_symmetry_space_group_name_H-M   'P 1'
_cell_length_a   8.41294093
_cell_length_b   8.41294151
_cell_length_c   8.41294072
_cell_angle_alpha   30.00735052
_cell_angle_beta   30.00734816
_cell_angle_gamma   30.00734152
_symmetry_Int_Tables_number   1
_chemical_formula_structural   Ac2SeF4
_chemical_formula_sum   'Ac2 Se1 F4'
_cell_volume   131.91919391
_cell_formula_units_Z   1
loop_
 _symmetry_equiv_pos_site_id
 _symmetry_equiv_pos_as_xyz
  1  'x, y, z'
loop_
 _atom_site_type_symbol
 _atom_site_label
 _atom_site_symmetry_multiplicity
 _atom_site_fract_x
 _atom_site_fract_y
 _atom_site_fract_z
 _atom_site_occupancy
  Ac  Ac0  1  0.756242  0.756242  0.756242  1
  Ac  Ac1  1  0.243758  0.243758  0.243758  1
  Se  Se2  1  0.000000  0.000000  0.000000  1
  F  F3  1  0.860894  0.860894  0.860894  1
  F  F4  1  0.139106  0.139106  0.139106  1
  F  F5  1  0.569452  0.569452  0.569452  1
  F  F6  1  0.430548  0.430548  0.430548  1
