# generated using pymatgen
data_Tb3Lu5(ZnCo)2
_symmetry_space_group_name_H-M   'P 1'
_cell_length_a   9.21503576
_cell_length_b   9.21503628
_cell_length_c   9.21503600
_cell_angle_alpha   60.00000101
_cell_angle_beta   59.99999915
_cell_angle_gamma   60.00000544
_symmetry_Int_Tables_number   1
_chemical_formula_structural   Tb3Lu5(ZnCo)2
_chemical_formula_sum   'Tb6 Lu10 Zn4 Co4'
_cell_volume   553.31969808
_cell_formula_units_Z   2
loop_
 _symmetry_equiv_pos_site_id
 _symmetry_equiv_pos_as_xyz
  1  'x, y, z'
loop_
 _atom_site_type_symbol
 _atom_site_label
 _atom_site_symmetry_multiplicity
 _atom_site_fract_x
 _atom_site_fract_y
 _atom_site_fract_z
 _atom_site_occupancy
  Tb  Tb0  1  0.939737  0.560263  0.560263  1
  Tb  Tb1  1  0.560263  0.939737  0.939737  1
  Tb  Tb2  1  0.560263  0.939737  0.560263  1
  Tb  Tb3  1  0.939737  0.560263  0.939737  1
  Tb  Tb4  1  0.560263  0.560263  0.939737  1
  Tb  Tb5  1  0.939737  0.939737  0.560263  1
  Lu  Lu6  1  0.349723  0.349723  0.349723  1
  Lu  Lu7  1  0.349723  0.349723  0.950830  1
  Lu  Lu8  1  0.349723  0.950830  0.349723  1
  Lu  Lu9  1  0.950830  0.349723  0.349723  1
  Lu  Lu10  1  0.810787  0.189213  0.189213  1
  Lu  Lu11  1  0.189213  0.810787  0.810787  1
  Lu  Lu12  1  0.189213  0.810787  0.189213  1
  Lu  Lu13  1  0.810787  0.189213  0.810787  1
  Lu  Lu14  1  0.189213  0.189213  0.810787  1
  Lu  Lu15  1  0.810787  0.810787  0.189213  1
  Zn  Zn16  1  0.577093  0.577093  0.577093  1
  Zn  Zn17  1  0.577093  0.577093  0.268720  1
  Zn  Zn18  1  0.577093  0.268720  0.577093  1
  Zn  Zn19  1  0.268720  0.577093  0.577093  1
  Co  Co20  1  0.141705  0.141705  0.141705  1
  Co  Co21  1  0.141705  0.141705  0.574883  1
  Co  Co22  1  0.141705  0.574883  0.141705  1
  Co  Co23  1  0.574883  0.141705  0.141705  1
