# generated using pymatgen
data_Dy5Lu3(Ga3Pd)4
_symmetry_space_group_name_H-M   'P 1'
_cell_length_a   8.84858700
_cell_length_b   8.84858721
_cell_length_c   6.99948700
_cell_angle_alpha   90.00000000
_cell_angle_beta   90.00000000
_cell_angle_gamma   119.99865714
_symmetry_Int_Tables_number   1
_chemical_formula_structural   Dy5Lu3(Ga3Pd)4
_chemical_formula_sum   'Dy5 Lu3 Ga12 Pd4'
_cell_volume   474.62496721
_cell_formula_units_Z   1
loop_
 _symmetry_equiv_pos_site_id
 _symmetry_equiv_pos_as_xyz
  1  'x, y, z'
loop_
 _atom_site_type_symbol
 _atom_site_label
 _atom_site_symmetry_multiplicity
 _atom_site_fract_x
 _atom_site_fract_y
 _atom_site_fract_z
 _atom_site_occupancy
  Dy  Dy0  1  0.000029  0.999971  0.250000  1
  Dy  Dy1  1  0.999973  0.000027  0.750000  1
  Dy  Dy2  1  0.517770  0.035561  0.250000  1
  Dy  Dy3  1  0.517737  0.482263  0.250000  1
  Dy  Dy4  1  0.964439  0.482230  0.250000  1
  Lu  Lu5  1  0.481208  0.962363  0.750000  1
  Lu  Lu6  1  0.481270  0.518730  0.750000  1
  Lu  Lu7  1  0.037637  0.518792  0.750000  1
  Ga  Ga8  1  0.167183  0.334436  0.042647  1
  Ga  Ga9  1  0.167264  0.832736  0.457378  1
  Ga  Ga10  1  0.665564  0.832817  0.457353  1
  Ga  Ga11  1  0.665564  0.832817  0.042647  1
  Ga  Ga12  1  0.167264  0.832736  0.042622  1
  Ga  Ga13  1  0.832250  0.664415  0.952924  1
  Ga  Ga14  1  0.832134  0.167866  0.952939  1
  Ga  Ga15  1  0.335585  0.167750  0.952924  1
  Ga  Ga16  1  0.167183  0.334436  0.457353  1
  Ga  Ga17  1  0.335585  0.167750  0.547076  1
  Ga  Ga18  1  0.832250  0.664415  0.547076  1
  Ga  Ga19  1  0.832134  0.167866  0.547061  1
  Pd  Pd20  1  0.333359  0.666641  0.022740  1
  Pd  Pd21  1  0.333359  0.666641  0.477260  1
  Pd  Pd22  1  0.666629  0.333371  0.965159  1
  Pd  Pd23  1  0.666629  0.333371  0.534841  1
