# generated using pymatgen
data_Th2Al(Ga3Cu4)3
_symmetry_space_group_name_H-M   'P 1'
_cell_length_a   10.44180293
_cell_length_b   8.20105948
_cell_length_c   7.95710843
_cell_angle_alpha   79.69113362
_cell_angle_beta   50.69733252
_cell_angle_gamma   48.56659169
_symmetry_Int_Tables_number   1
_chemical_formula_structural   Th2Al(Ga3Cu4)3
_chemical_formula_sum   'Th2 Al1 Ga9 Cu12'
_cell_volume   359.83264546
_cell_formula_units_Z   1
loop_
 _symmetry_equiv_pos_site_id
 _symmetry_equiv_pos_as_xyz
  1  'x, y, z'
loop_
 _atom_site_type_symbol
 _atom_site_label
 _atom_site_symmetry_multiplicity
 _atom_site_fract_x
 _atom_site_fract_y
 _atom_site_fract_z
 _atom_site_occupancy
  Th  Th0  1  0.999873  0.999522  0.999843  1
  Th  Th1  1  0.252175  0.247532  0.248665  1
  Al  Al2  1  0.902540  0.427864  0.181702  1
  Ga  Ga3  1  0.501979  0.499235  0.499614  1
  Ga  Ga4  1  0.751711  0.748131  0.747588  1
  Ga  Ga5  1  0.758058  0.071325  0.830078  1
  Ga  Ga6  1  0.832311  0.339345  0.756117  1
  Ga  Ga7  1  0.071043  0.757506  0.341112  1
  Ga  Ga8  1  0.339114  0.832336  0.072428  1
  Ga  Ga9  1  0.492678  0.177701  0.419613  1
  Ga  Ga10  1  0.419557  0.908543  0.492823  1
  Ga  Ga11  1  0.180197  0.490690  0.909002  1
  Cu  Cu12  1  0.625537  0.123697  0.625082  1
  Cu  Cu13  1  0.624786  0.625727  0.625637  1
  Cu  Cu14  1  0.126684  0.624387  0.624079  1
  Cu  Cu15  1  0.624877  0.624915  0.124188  1
  Cu  Cu16  1  0.488595  0.434344  0.185672  1
  Cu  Cu17  1  0.186131  0.892574  0.488781  1
  Cu  Cu18  1  0.433276  0.487967  0.891379  1
  Cu  Cu19  1  0.889774  0.187735  0.432807  1
  Cu  Cu20  1  0.763433  0.813169  0.063594  1
  Cu  Cu21  1  0.064201  0.357050  0.761825  1
  Cu  Cu22  1  0.817591  0.760401  0.358406  1
  Cu  Cu23  1  0.353880  0.068304  0.819967  1
