# generated using pymatgen
data_Li4DyNi9As5P2
_symmetry_space_group_name_H-M   'P 1'
_cell_length_a   9.39286962
_cell_length_b   9.36875677
_cell_length_c   3.74179500
_cell_angle_alpha   90.00000000
_cell_angle_beta   90.00000000
_cell_angle_gamma   120.11071643
_symmetry_Int_Tables_number   1
_chemical_formula_structural   Li4DyNi9As5P2
_chemical_formula_sum   'Li4 Dy1 Ni9 As5 P2'
_cell_volume   284.84281989
_cell_formula_units_Z   1
loop_
 _symmetry_equiv_pos_site_id
 _symmetry_equiv_pos_as_xyz
  1  'x, y, z'
loop_
 _atom_site_type_symbol
 _atom_site_label
 _atom_site_symmetry_multiplicity
 _atom_site_fract_x
 _atom_site_fract_y
 _atom_site_fract_z
 _atom_site_occupancy
  Li  Li0  1  0.770065  0.552443  0.500000  1
  Li  Li1  1  0.449372  0.217639  0.500000  1
  Li  Li2  1  0.772468  0.223960  0.500000  1
  Li  Li3  1  0.999953  0.001642  0.500000  1
  Dy  Dy4  1  0.337582  0.669719  0.000000  1
  Ni  Ni5  1  0.284374  0.386025  0.500000  1
  Ni  Ni6  1  0.609342  0.886904  0.500000  1
  Ni  Ni7  1  0.112253  0.732119  0.500000  1
  Ni  Ni8  1  0.501000  0.459547  0.000000  1
  Ni  Ni9  1  0.542656  0.041025  0.000000  1
  Ni  Ni10  1  0.954042  0.504228  0.000000  1
  Ni  Ni11  1  0.711081  0.757190  0.000000  1
  Ni  Ni12  1  0.245737  0.955309  0.000000  1
  Ni  Ni13  1  0.043506  0.279749  0.000000  1
  As  As14  1  0.965729  0.759776  0.000000  1
  As  As15  1  0.246964  0.209225  0.000000  1
  As  As16  1  0.788769  0.032946  0.000000  1
  As  As17  1  0.665636  0.333545  0.000000  1
  As  As18  1  0.074940  0.454824  0.500000  1
  P  P19  1  0.543192  0.619197  0.500000  1
  P  P20  1  0.381341  0.922989  0.500000  1
