# generated using pymatgen
data_Tm12GaCo4Os
_symmetry_space_group_name_H-M   'P 1'
_cell_length_a   8.12673312
_cell_length_b   8.12673212
_cell_length_c   8.12673237
_cell_angle_alpha   111.36581224
_cell_angle_beta   110.66244558
_cell_angle_gamma   106.42842120
_symmetry_Int_Tables_number   1
_chemical_formula_structural   Tm12GaCo4Os
_chemical_formula_sum   'Tm12 Ga1 Co4 Os1'
_cell_volume   412.28283518
_cell_formula_units_Z   1
loop_
 _symmetry_equiv_pos_site_id
 _symmetry_equiv_pos_as_xyz
  1  'x, y, z'
loop_
 _atom_site_type_symbol
 _atom_site_label
 _atom_site_symmetry_multiplicity
 _atom_site_fract_x
 _atom_site_fract_y
 _atom_site_fract_z
 _atom_site_occupancy
  Tm  Tm0  1  0.577873  0.270789  0.307085  1
  Tm  Tm1  1  0.180689  0.224320  0.405008  1
  Tm  Tm2  1  0.180689  0.775680  0.956370  1
  Tm  Tm3  1  0.682361  0.486751  0.804390  1
  Tm  Tm4  1  0.682361  0.877971  0.195610  1
  Tm  Tm5  1  0.963704  0.270789  0.692915  1
  Tm  Tm6  1  0.036296  0.729211  0.307085  1
  Tm  Tm7  1  0.317639  0.122029  0.804390  1
  Tm  Tm8  1  0.317639  0.513249  0.195610  1
  Tm  Tm9  1  0.819311  0.224320  0.043630  1
  Tm  Tm10  1  0.819311  0.775680  0.594992  1
  Tm  Tm11  1  0.422127  0.729211  0.692915  1
  Ga  Ga12  1  0.500000  0.000000  0.500000  1
  Co  Co13  1  0.886741  0.886741  0.000000  1
  Co  Co14  1  0.371191  0.500000  0.871191  1
  Co  Co15  1  0.628809  0.500000  0.128809  1
  Co  Co16  1  0.113259  0.113259  0.000000  1
  Os  Os17  1  0.000000  0.500000  0.500000  1
