# generated using pymatgen
data_Dy6Ho(ErSi2)3
_symmetry_space_group_name_H-M   'P 1'
_cell_length_a   8.41561300
_cell_length_b   8.41561082
_cell_length_c   6.32559200
_cell_angle_alpha   90.00000000
_cell_angle_beta   90.00000000
_cell_angle_gamma   119.99999676
_symmetry_Int_Tables_number   1
_chemical_formula_structural   Dy6Ho(ErSi2)3
_chemical_formula_sum   'Dy6 Ho1 Er3 Si6'
_cell_volume   387.97453543
_cell_formula_units_Z   1
loop_
 _symmetry_equiv_pos_site_id
 _symmetry_equiv_pos_as_xyz
  1  'x, y, z'
loop_
 _atom_site_type_symbol
 _atom_site_label
 _atom_site_symmetry_multiplicity
 _atom_site_fract_x
 _atom_site_fract_y
 _atom_site_fract_z
 _atom_site_occupancy
  Dy  Dy0  1  0.999864  0.756069  0.750219  1
  Dy  Dy1  1  0.999864  0.243795  0.249781  1
  Dy  Dy2  1  0.756205  0.756069  0.249781  1
  Dy  Dy3  1  0.756205  0.000136  0.750219  1
  Dy  Dy4  1  0.243931  0.243795  0.750219  1
  Dy  Dy5  1  0.243931  0.000136  0.249781  1
  Ho  Ho6  1  0.333333  0.666667  0.500000  1
  Er  Er7  1  0.666667  0.333333  0.000000  1
  Er  Er8  1  0.666667  0.333333  0.500000  1
  Er  Er9  1  0.333333  0.666667  0.000000  1
  Si  Si10  1  0.394914  0.000514  0.750583  1
  Si  Si11  1  0.394914  0.394401  0.249417  1
  Si  Si12  1  0.999486  0.605086  0.249417  1
  Si  Si13  1  0.999486  0.394401  0.750583  1
  Si  Si14  1  0.605599  0.605086  0.750583  1
  Si  Si15  1  0.605599  0.000514  0.249417  1
