# generated using pymatgen
data_Yb5Pr(ErSi2)4
_symmetry_space_group_name_H-M   'P 1'
_cell_length_a   7.37420200
_cell_length_b   7.79349412
_cell_length_c   15.01146025
_cell_angle_alpha   90.02037795
_cell_angle_beta   90.00000000
_cell_angle_gamma   90.00000000
_symmetry_Int_Tables_number   1
_chemical_formula_structural   Yb5Pr(ErSi2)4
_chemical_formula_sum   'Yb10 Pr2 Er8 Si16'
_cell_volume   862.72057372
_cell_formula_units_Z   2
loop_
 _symmetry_equiv_pos_site_id
 _symmetry_equiv_pos_as_xyz
  1  'x, y, z'
loop_
 _atom_site_type_symbol
 _atom_site_label
 _atom_site_symmetry_multiplicity
 _atom_site_fract_x
 _atom_site_fract_y
 _atom_site_fract_z
 _atom_site_occupancy
  Yb  Yb0  1  0.526204  0.316648  0.596439  1
  Yb  Yb1  1  0.026204  0.183352  0.903561  1
  Yb  Yb2  1  0.027242  0.183062  0.596323  1
  Yb  Yb3  1  0.527242  0.316938  0.903677  1
  Yb  Yb4  1  0.472976  0.681461  0.403141  1
  Yb  Yb5  1  0.972976  0.818539  0.096859  1
  Yb  Yb6  1  0.352306  0.020486  0.749911  1
  Yb  Yb7  1  0.852306  0.479514  0.750089  1
  Yb  Yb8  1  0.147293  0.516176  0.250364  1
  Yb  Yb9  1  0.647293  0.983824  0.249636  1
  Pr  Pr10  1  0.972723  0.818208  0.403519  1
  Pr  Pr11  1  0.472723  0.681792  0.096481  1
  Er  Er12  1  0.315720  0.177958  0.121396  1
  Er  Er13  1  0.815720  0.322042  0.378604  1
  Er  Er14  1  0.185293  0.677431  0.878456  1
  Er  Er15  1  0.685293  0.822569  0.621544  1
  Er  Er16  1  0.314870  0.178202  0.378619  1
  Er  Er17  1  0.814870  0.321798  0.121381  1
  Er  Er18  1  0.185854  0.676445  0.621943  1
  Er  Er19  1  0.685854  0.823555  0.878057  1
  Si  Si20  1  0.855399  0.533468  0.537386  1
  Si  Si21  1  0.355399  0.966532  0.962614  1
  Si  Si22  1  0.643747  0.031361  0.461367  1
  Si  Si23  1  0.143747  0.468639  0.038633  1
  Si  Si24  1  0.142756  0.469062  0.461661  1
  Si  Si25  1  0.642756  0.030938  0.038339  1
  Si  Si26  1  0.354434  0.965506  0.537317  1
  Si  Si27  1  0.854434  0.534494  0.962683  1
  Si  Si28  1  0.978017  0.882913  0.750161  1
  Si  Si29  1  0.478017  0.617087  0.749839  1
  Si  Si30  1  0.523366  0.384271  0.250000  1
  Si  Si31  1  0.023366  0.115729  0.250000  1
  Si  Si32  1  0.248530  0.394875  0.750301  1
  Si  Si33  1  0.748530  0.105125  0.749699  1
  Si  Si34  1  0.253269  0.891831  0.249210  1
  Si  Si35  1  0.753269  0.608169  0.250790  1
