# generated using pymatgen
data_Ba2LiCd21
_symmetry_space_group_name_H-M   'P 1'
_cell_length_a   9.45322955
_cell_length_b   9.44831496
_cell_length_c   9.45322358
_cell_angle_alpha   100.43283408
_cell_angle_beta   99.83521556
_cell_angle_gamma   130.43087838
_symmetry_Int_Tables_number   1
_chemical_formula_structural   Ba2LiCd21
_chemical_formula_sum   'Ba2 Li1 Cd21'
_cell_volume   583.33642420
_cell_formula_units_Z   1
loop_
 _symmetry_equiv_pos_site_id
 _symmetry_equiv_pos_as_xyz
  1  'x, y, z'
loop_
 _atom_site_type_symbol
 _atom_site_label
 _atom_site_symmetry_multiplicity
 _atom_site_fract_x
 _atom_site_fract_y
 _atom_site_fract_z
 _atom_site_occupancy
  Ba  Ba0  1  0.747774  0.248213  0.500440  1
  Ba  Ba1  1  0.502226  0.501787  0.999560  1
  Li  Li2  1  0.125000  0.375000  0.250000  1
  Cd  Cd3  1  0.925351  0.014705  0.326749  1
  Cd  Cd4  1  0.680267  0.596165  0.674995  1
  Cd  Cd5  1  0.242814  0.734856  0.492041  1
  Cd  Cd6  1  0.007186  0.015144  0.007959  1
  Cd  Cd7  1  0.125000  0.875000  0.250000  1
  Cd  Cd8  1  0.125000  0.875000  0.750000  1
  Cd  Cd9  1  0.625000  0.875000  0.750000  1
  Cd  Cd10  1  0.921170  0.596165  0.915898  1
  Cd  Cd11  1  0.858147  0.431405  0.178612  1
  Cd  Cd12  1  0.257268  0.669465  0.828526  1
  Cd  Cd13  1  0.687956  0.014705  0.089355  1
  Cd  Cd14  1  0.409061  0.080535  0.087804  1
  Cd  Cd15  1  0.997206  0.318595  0.926740  1
  Cd  Cd16  1  0.569733  0.153835  0.825005  1
  Cd  Cd17  1  0.324649  0.735295  0.173251  1
  Cd  Cd18  1  0.328830  0.153835  0.584102  1
  Cd  Cd19  1  0.391853  0.318595  0.321388  1
  Cd  Cd20  1  0.992732  0.080535  0.671474  1
  Cd  Cd21  1  0.562044  0.735295  0.410645  1
  Cd  Cd22  1  0.840939  0.669465  0.412196  1
  Cd  Cd23  1  0.252794  0.431405  0.573260  1
