# generated using pymatgen
data_Tb3In3SnPd2
_symmetry_space_group_name_H-M   'P 1'
_cell_length_a   7.66618000
_cell_length_b   7.66617945
_cell_length_c   4.16374400
_cell_angle_alpha   90.00000000
_cell_angle_beta   90.00000000
_cell_angle_gamma   120.00000235
_symmetry_Int_Tables_number   1
_chemical_formula_structural   Tb3In3SnPd2
_chemical_formula_sum   'Tb3 In3 Sn1 Pd2'
_cell_volume   211.92033640
_cell_formula_units_Z   1
loop_
 _symmetry_equiv_pos_site_id
 _symmetry_equiv_pos_as_xyz
  1  'x, y, z'
loop_
 _atom_site_type_symbol
 _atom_site_label
 _atom_site_symmetry_multiplicity
 _atom_site_fract_x
 _atom_site_fract_y
 _atom_site_fract_z
 _atom_site_occupancy
  Tb  Tb0  1  0.585602  0.982514  0.500000  1
  Tb  Tb1  1  0.396912  0.414398  0.500000  1
  Tb  Tb2  1  0.017486  0.603088  0.500000  1
  In  In3  1  0.743458  0.757186  0.000000  1
  In  In4  1  0.242814  0.986271  0.000000  1
  In  In5  1  0.013729  0.256542  0.000000  1
  Sn  Sn6  1  0.666667  0.333333  0.000000  1
  Pd  Pd7  1  0.000000  0.000000  0.500000  1
  Pd  Pd8  1  0.333333  0.666667  0.000000  1
