# generated using pymatgen
data_Ce2DyHo(SbAu)4
_symmetry_space_group_name_H-M   'P 1'
_cell_length_a   4.59617300
_cell_length_b   4.59617312
_cell_length_c   16.67407100
_cell_angle_alpha   90.00000000
_cell_angle_beta   90.00000000
_cell_angle_gamma   119.99999197
_symmetry_Int_Tables_number   1
_chemical_formula_structural   Ce2DyHo(SbAu)4
_chemical_formula_sum   'Ce2 Dy1 Ho1 Sb4 Au4'
_cell_volume   305.04580610
_cell_formula_units_Z   1
loop_
 _symmetry_equiv_pos_site_id
 _symmetry_equiv_pos_as_xyz
  1  'x, y, z'
loop_
 _atom_site_type_symbol
 _atom_site_label
 _atom_site_symmetry_multiplicity
 _atom_site_fract_x
 _atom_site_fract_y
 _atom_site_fract_z
 _atom_site_occupancy
  Ce  Ce0  1  0.000000  0.000000  0.500065  1
  Ce  Ce1  1  0.000000  0.000000  0.999935  1
  Dy  Dy2  1  0.000000  0.000000  0.250000  1
  Ho  Ho3  1  0.000000  0.000000  0.750000  1
  Sb  Sb4  1  0.333333  0.666667  0.389167  1
  Sb  Sb5  1  0.666667  0.333333  0.610624  1
  Sb  Sb6  1  0.666667  0.333333  0.889376  1
  Sb  Sb7  1  0.333333  0.666667  0.110833  1
  Au  Au8  1  0.666667  0.333333  0.336194  1
  Au  Au9  1  0.333333  0.666667  0.663969  1
  Au  Au10  1  0.333333  0.666667  0.836031  1
  Au  Au11  1  0.666667  0.333333  0.163806  1
