# generated using pymatgen
data_SmY2Tm3(Si3Ru)8
_symmetry_space_group_name_H-M   'P 1'
_cell_length_a   10.11362146
_cell_length_b   10.11365347
_cell_length_c   8.13640244
_cell_angle_alpha   89.88106151
_cell_angle_beta   90.11933829
_cell_angle_gamma   132.55640060
_symmetry_Int_Tables_number   1
_chemical_formula_structural   SmY2Tm3(Si3Ru)8
_chemical_formula_sum   'Sm1 Y2 Tm3 Si24 Ru8'
_cell_volume   613.03436655
_cell_formula_units_Z   1
loop_
 _symmetry_equiv_pos_site_id
 _symmetry_equiv_pos_as_xyz
  1  'x, y, z'
loop_
 _atom_site_type_symbol
 _atom_site_label
 _atom_site_symmetry_multiplicity
 _atom_site_fract_x
 _atom_site_fract_y
 _atom_site_fract_z
 _atom_site_occupancy
  Sm  Sm0  1  0.497026  0.997013  0.750027  1
  Y  Y1  1  0.997667  0.497681  0.750027  1
  Y  Y2  1  0.502284  0.002299  0.249975  1
  Tm  Tm3  1  0.000048  0.999984  0.000114  1
  Tm  Tm4  1  0.499980  0.500045  0.499888  1
  Tm  Tm5  1  0.002542  0.502514  0.249958  1
  Si  Si6  1  0.293856  0.704460  0.001215  1
  Si  Si7  1  0.795360  0.206031  0.498703  1
  Si  Si8  1  0.706038  0.295338  0.001299  1
  Si  Si9  1  0.204440  0.793862  0.498779  1
  Si  Si10  1  0.831929  0.832244  0.333143  1
  Si  Si11  1  0.167920  0.167869  0.667003  1
  Si  Si12  1  0.667871  0.667914  0.833001  1
  Si  Si13  1  0.332245  0.331930  0.166860  1
  Si  Si14  1  0.621398  0.387744  0.228377  1
  Si  Si15  1  0.611569  0.377598  0.771252  1
  Si  Si16  1  0.113295  0.879267  0.729131  1
  Si  Si17  1  0.121460  0.887634  0.272247  1
  Si  Si18  1  0.379313  0.613366  0.770892  1
  Si  Si19  1  0.387558  0.621401  0.227727  1
  Si  Si20  1  0.887819  0.121452  0.271601  1
  Si  Si21  1  0.877544  0.111498  0.728772  1
  Si  Si22  1  0.843967  0.611427  0.005415  1
  Si  Si23  1  0.387089  0.153620  0.995344  1
  Si  Si24  1  0.888632  0.656392  0.503472  1
  Si  Si25  1  0.346320  0.112769  0.495166  1
  Si  Si26  1  0.156401  0.388659  0.996581  1
  Si  Si27  1  0.612742  0.846308  0.004788  1
  Si  Si28  1  0.111453  0.343980  0.494539  1
  Si  Si29  1  0.653610  0.887068  0.504709  1
  Ru  Ru30  1  0.165082  0.828116  0.002504  1
  Ru  Ru31  1  0.672016  0.334941  0.498674  1
  Ru  Ru32  1  0.834954  0.171989  0.001319  1
  Ru  Ru33  1  0.328105  0.665106  0.497494  1
  Ru  Ru34  1  0.625761  0.626385  0.127104  1
  Ru  Ru35  1  0.374039  0.374289  0.872534  1
  Ru  Ru36  1  0.874252  0.874013  0.627496  1
  Ru  Ru37  1  0.126416  0.125792  0.372876  1
