# generated using pymatgen
data_Pr9SmInSi5
_symmetry_space_group_name_H-M   'P 1'
_cell_length_a   7.80749480
_cell_length_b   7.80749503
_cell_length_c   9.25760531
_cell_angle_alpha   114.94070790
_cell_angle_beta   114.94070857
_cell_angle_gamma   90.00000086
_symmetry_Int_Tables_number   1
_chemical_formula_structural   Pr9SmInSi5
_chemical_formula_sum   'Pr9 Sm1 In1 Si5'
_cell_volume   452.99176472
_cell_formula_units_Z   1
loop_
 _symmetry_equiv_pos_site_id
 _symmetry_equiv_pos_as_xyz
  1  'x, y, z'
loop_
 _atom_site_type_symbol
 _atom_site_label
 _atom_site_symmetry_multiplicity
 _atom_site_fract_x
 _atom_site_fract_y
 _atom_site_fract_z
 _atom_site_occupancy
  Pr  Pr0  1  0.973897  0.973897  0.947794  1
  Pr  Pr1  1  0.976431  0.829449  0.279842  1
  Pr  Pr2  1  0.303411  0.450393  0.279842  1
  Pr  Pr3  1  0.829449  0.303411  0.279842  1
  Pr  Pr4  1  0.450393  0.976431  0.279842  1
  Pr  Pr5  1  0.050386  0.197662  0.720314  1
  Pr  Pr6  1  0.669929  0.522653  0.720314  1
  Pr  Pr7  1  0.197662  0.669929  0.720314  1
  Pr  Pr8  1  0.522653  0.050386  0.720314  1
  Sm  Sm9  1  0.524506  0.524506  0.049013  1
  In  In10  1  0.748843  0.748843  0.497686  1
  Si  Si11  1  0.250231  0.250231  0.500463  1
  Si  Si12  1  0.614927  0.883215  0.001105  1
  Si  Si13  1  0.386178  0.117890  0.001105  1
  Si  Si14  1  0.883215  0.386178  0.001105  1
  Si  Si15  1  0.117890  0.614927  0.001105  1
