# generated using pymatgen
data_KCd4In5Se12
_symmetry_space_group_name_H-M   'P 1'
_cell_length_a   9.39863124
_cell_length_b   9.38129743
_cell_length_c   9.43445410
_cell_angle_alpha   107.34751891
_cell_angle_beta   107.57368441
_cell_angle_gamma   107.21155687
_symmetry_Int_Tables_number   1
_chemical_formula_structural   KCd4In5Se12
_chemical_formula_sum   'K1 Cd4 In5 Se12'
_cell_volume   685.50528285
_cell_formula_units_Z   1
loop_
 _symmetry_equiv_pos_site_id
 _symmetry_equiv_pos_as_xyz
  1  'x, y, z'
loop_
 _atom_site_type_symbol
 _atom_site_label
 _atom_site_symmetry_multiplicity
 _atom_site_fract_x
 _atom_site_fract_y
 _atom_site_fract_z
 _atom_site_occupancy
  K  K0  1  0.004526  0.002319  0.996617  1
  Cd  Cd1  1  0.629945  0.705020  0.395921  1
  Cd  Cd2  1  0.401156  0.638482  0.716263  1
  Cd  Cd3  1  0.711484  0.395191  0.633810  1
  Cd  Cd4  1  0.183281  0.558945  0.018272  1
  In  In5  1  0.487714  0.341091  0.943850  1
  In  In6  1  0.942738  0.493463  0.342101  1
  In  In7  1  0.335039  0.934754  0.483316  1
  In  In8  1  0.017241  0.182933  0.558236  1
  In  In9  1  0.554863  0.017162  0.178157  1
  Se  Se10  1  0.783757  0.920066  0.287446  1
  Se  Se11  1  0.288795  0.790510  0.919354  1
  Se  Se12  1  0.918222  0.283248  0.780907  1
  Se  Se13  1  0.064906  0.703001  0.227727  1
  Se  Se14  1  0.227642  0.070965  0.699521  1
  Se  Se15  1  0.705030  0.228265  0.072543  1
  Se  Se16  1  0.372492  0.430773  0.156599  1
  Se  Se17  1  0.157235  0.373879  0.438641  1
  Se  Se18  1  0.434420  0.153870  0.370807  1
  Se  Se19  1  0.867989  0.639837  0.568696  1
  Se  Se20  1  0.565475  0.867250  0.638004  1
  Se  Se21  1  0.640692  0.563619  0.867849  1
