# generated using pymatgen
data_Tb8Dy2IrRu3
_symmetry_space_group_name_H-M   'P 1'
_cell_length_a   8.53793212
_cell_length_b   8.55222306
_cell_length_c   7.31484100
_cell_angle_alpha   83.33344421
_cell_angle_beta   83.36683191
_cell_angle_gamma   43.89462282
_symmetry_Int_Tables_number   1
_chemical_formula_structural   Tb8Dy2IrRu3
_chemical_formula_sum   'Tb8 Dy2 Ir1 Ru3'
_cell_volume   367.42412736
_cell_formula_units_Z   1
loop_
 _symmetry_equiv_pos_site_id
 _symmetry_equiv_pos_as_xyz
  1  'x, y, z'
loop_
 _atom_site_type_symbol
 _atom_site_label
 _atom_site_symmetry_multiplicity
 _atom_site_fract_x
 _atom_site_fract_y
 _atom_site_fract_z
 _atom_site_occupancy
  Tb  Tb0  1  0.207118  0.979639  0.585174  1
  Tb  Tb1  1  0.020876  0.794336  0.917577  1
  Tb  Tb2  1  0.207358  0.355971  0.314051  1
  Tb  Tb3  1  0.642073  0.792839  0.185493  1
  Tb  Tb4  1  0.791516  0.642592  0.684729  1
  Tb  Tb5  1  0.358352  0.206041  0.815639  1
  Tb  Tb6  1  0.979087  0.206518  0.084857  1
  Tb  Tb7  1  0.791775  0.023284  0.413981  1
  Dy  Dy8  1  0.577199  0.422736  0.750119  1
  Dy  Dy9  1  0.423900  0.577247  0.248671  1
  Ir  Ir10  1  0.176730  0.600801  0.575918  1
  Ru  Ru11  1  0.395504  0.825737  0.923799  1
  Ru  Ru12  1  0.826109  0.396063  0.425126  1
  Ru  Ru13  1  0.602402  0.176196  0.074866  1
