# generated using pymatgen
data_SmEr2P4Pd6Pt
_symmetry_space_group_name_H-M   'P 1'
_cell_length_a   7.92580046
_cell_length_b   7.92579979
_cell_length_c   9.44351046
_cell_angle_alpha   55.86988351
_cell_angle_beta   55.86988680
_cell_angle_gamma   29.37979980
_symmetry_Int_Tables_number   1
_chemical_formula_structural   SmEr2P4Pd6Pt
_chemical_formula_sum   'Sm1 Er2 P4 Pd6 Pt1'
_cell_volume   237.07429914
_cell_formula_units_Z   1
loop_
 _symmetry_equiv_pos_site_id
 _symmetry_equiv_pos_as_xyz
  1  'x, y, z'
loop_
 _atom_site_type_symbol
 _atom_site_label
 _atom_site_symmetry_multiplicity
 _atom_site_fract_x
 _atom_site_fract_y
 _atom_site_fract_z
 _atom_site_occupancy
  Sm  Sm0  1  0.500000  0.500000  0.500000  1
  Er  Er1  1  0.821591  0.821591  0.174323  1
  Er  Er2  1  0.178409  0.178409  0.825677  1
  P  P3  1  0.393022  0.393022  0.317334  1
  P  P4  1  0.606978  0.606978  0.682666  1
  P  P5  1  0.838682  0.838682  0.755768  1
  P  P6  1  0.161318  0.161318  0.244232  1
  Pd  Pd7  1  0.669861  0.669861  0.074000  1
  Pd  Pd8  1  0.010059  0.010059  0.212101  1
  Pd  Pd9  1  0.989941  0.989941  0.787899  1
  Pd  Pd10  1  0.195280  0.195280  0.469594  1
  Pd  Pd11  1  0.804720  0.804720  0.530406  1
  Pd  Pd12  1  0.330139  0.330139  0.926000  1
  Pt  Pt13  1  0.500000  0.500000  0.000000  1
