# generated using pymatgen
data_Ce2NiB8Rh
_symmetry_space_group_name_H-M   'P 1'
_cell_length_a   6.96144454
_cell_length_b   6.96144315
_cell_length_c   6.96144463
_cell_angle_alpha   111.32318720
_cell_angle_beta   113.43585535
_cell_angle_gamma   103.80685066
_symmetry_Int_Tables_number   1
_chemical_formula_structural   Ce2NiB8Rh
_chemical_formula_sum   'Ce4 Ni2 B16 Rh2'
_cell_volume   257.72658171
_cell_formula_units_Z   2
loop_
 _symmetry_equiv_pos_site_id
 _symmetry_equiv_pos_as_xyz
  1  'x, y, z'
loop_
 _atom_site_type_symbol
 _atom_site_label
 _atom_site_symmetry_multiplicity
 _atom_site_fract_x
 _atom_site_fract_y
 _atom_site_fract_z
 _atom_site_occupancy
  Ce  Ce0  1  0.796608  0.796608  0.000000  1
  Ce  Ce1  1  0.203392  0.203392  0.000000  1
  Ce  Ce2  1  0.752900  0.252900  0.500000  1
  Ce  Ce3  1  0.247100  0.747100  0.500000  1
  Ni  Ni4  1  0.500000  0.741947  0.241947  1
  Ni  Ni5  1  0.500000  0.258053  0.758053  1
  B  B6  1  0.271851  0.108450  0.380302  1
  B  B7  1  0.728149  0.891550  0.619698  1
  B  B8  1  0.271851  0.891550  0.163401  1
  B  B9  1  0.728149  0.108450  0.836599  1
  B  B10  1  0.110835  0.732083  0.842918  1
  B  B11  1  0.889165  0.267917  0.157082  1
  B  B12  1  0.110835  0.267917  0.378751  1
  B  B13  1  0.889165  0.732083  0.621249  1
  B  B14  1  0.113655  0.107987  0.526465  1
  B  B15  1  0.581521  0.587189  0.473535  1
  B  B16  1  0.113655  0.587189  0.005668  1
  B  B17  1  0.581521  0.107987  0.994332  1
  B  B18  1  0.886345  0.892013  0.473535  1
  B  B19  1  0.418479  0.412811  0.526465  1
  B  B20  1  0.886345  0.412811  0.994332  1
  B  B21  1  0.418479  0.892013  0.005668  1
  Rh  Rh22  1  0.277351  0.500000  0.777351  1
  Rh  Rh23  1  0.722649  0.500000  0.222649  1
