# generated using pymatgen
data_CaPr6RuI12
_symmetry_space_group_name_H-M   'P 1'
_cell_length_a   10.11249650
_cell_length_b   10.11249503
_cell_length_c   10.11249567
_cell_angle_alpha   107.06630375
_cell_angle_beta   107.06629262
_cell_angle_gamma   107.06628803
_symmetry_Int_Tables_number   1
_chemical_formula_structural   CaPr6RuI12
_chemical_formula_sum   'Ca1 Pr6 Ru1 I12'
_cell_volume   859.67094756
_cell_formula_units_Z   1
loop_
 _symmetry_equiv_pos_site_id
 _symmetry_equiv_pos_as_xyz
  1  'x, y, z'
loop_
 _atom_site_type_symbol
 _atom_site_label
 _atom_site_symmetry_multiplicity
 _atom_site_fract_x
 _atom_site_fract_y
 _atom_site_fract_z
 _atom_site_occupancy
  Ca  Ca0  1  0.500000  0.500000  0.500000  1
  Pr  Pr1  1  0.973988  0.900685  0.696079  1
  Pr  Pr2  1  0.026012  0.099315  0.303921  1
  Pr  Pr3  1  0.099315  0.303921  0.026012  1
  Pr  Pr4  1  0.303921  0.026012  0.099315  1
  Pr  Pr5  1  0.900685  0.696079  0.973988  1
  Pr  Pr6  1  0.696079  0.973988  0.900685  1
  Ru  Ru7  1  0.000000  0.000000  0.000000  1
  I  I8  1  0.538287  0.616576  0.840428  1
  I  I9  1  0.461713  0.383424  0.159572  1
  I  I10  1  0.317938  0.926380  0.773525  1
  I  I11  1  0.383424  0.159572  0.461713  1
  I  I12  1  0.926380  0.773525  0.317938  1
  I  I13  1  0.682062  0.073620  0.226475  1
  I  I14  1  0.073620  0.226475  0.682062  1
  I  I15  1  0.773525  0.317938  0.926380  1
  I  I16  1  0.226475  0.682062  0.073620  1
  I  I17  1  0.840428  0.538287  0.616576  1
  I  I18  1  0.159572  0.461713  0.383424  1
  I  I19  1  0.616576  0.840428  0.538287  1
