# generated using pymatgen
data_LiNd3In3HgRh
_symmetry_space_group_name_H-M   'P 1'
_cell_length_a   8.06125300
_cell_length_b   8.06125298
_cell_length_c   3.95228300
_cell_angle_alpha   90.00000000
_cell_angle_beta   90.00000000
_cell_angle_gamma   120.00001238
_symmetry_Int_Tables_number   1
_chemical_formula_structural   LiNd3In3HgRh
_chemical_formula_sum   'Li1 Nd3 In3 Hg1 Rh1'
_cell_volume   222.42505885
_cell_formula_units_Z   1
loop_
 _symmetry_equiv_pos_site_id
 _symmetry_equiv_pos_as_xyz
  1  'x, y, z'
loop_
 _atom_site_type_symbol
 _atom_site_label
 _atom_site_symmetry_multiplicity
 _atom_site_fract_x
 _atom_site_fract_y
 _atom_site_fract_z
 _atom_site_occupancy
  Li  Li0  1  0.000000  0.000000  0.500000  1
  Nd  Nd1  1  0.601890  0.028696  0.500000  1
  Nd  Nd2  1  0.426805  0.398110  0.500000  1
  Nd  Nd3  1  0.971304  0.573195  0.500000  1
  In  In4  1  0.253945  0.004359  0.000000  1
  In  In5  1  0.750415  0.746055  0.000000  1
  In  In6  1  0.995641  0.249585  0.000000  1
  Hg  Hg7  1  0.333333  0.666667  0.000000  1
  Rh  Rh8  1  0.666667  0.333333  0.000000  1
