# generated using pymatgen
data_Pr3Er5Cd2OsPd
_symmetry_space_group_name_H-M   'P 1'
_cell_length_a   9.74268934
_cell_length_b   9.74268989
_cell_length_c   9.80467100
_cell_angle_alpha   59.78933246
_cell_angle_beta   59.78933055
_cell_angle_gamma   59.74649544
_symmetry_Int_Tables_number   1
_chemical_formula_structural   Pr3Er5Cd2OsPd
_chemical_formula_sum   'Pr6 Er10 Cd4 Os2 Pd2'
_cell_volume   654.71433486
_cell_formula_units_Z   2
loop_
 _symmetry_equiv_pos_site_id
 _symmetry_equiv_pos_as_xyz
  1  'x, y, z'
loop_
 _atom_site_type_symbol
 _atom_site_label
 _atom_site_symmetry_multiplicity
 _atom_site_fract_x
 _atom_site_fract_y
 _atom_site_fract_z
 _atom_site_occupancy
  Pr  Pr0  1  0.940198  0.553139  0.563554  1
  Pr  Pr1  1  0.553139  0.940198  0.943109  1
  Pr  Pr2  1  0.553139  0.940198  0.563554  1
  Pr  Pr3  1  0.940198  0.553139  0.943109  1
  Pr  Pr4  1  0.560914  0.560914  0.939086  1
  Pr  Pr5  1  0.943136  0.943136  0.556864  1
  Er  Er6  1  0.348121  0.348121  0.353399  1
  Er  Er7  1  0.348121  0.348121  0.950361  1
  Er  Er8  1  0.343037  0.960844  0.348060  1
  Er  Er9  1  0.960844  0.343037  0.348060  1
  Er  Er10  1  0.819849  0.183894  0.188202  1
  Er  Er11  1  0.183894  0.819849  0.808054  1
  Er  Er12  1  0.183894  0.819849  0.188202  1
  Er  Er13  1  0.819849  0.183894  0.808054  1
  Er  Er14  1  0.184984  0.184984  0.815016  1
  Er  Er15  1  0.812059  0.812059  0.187941  1
  Cd  Cd16  1  0.578032  0.578032  0.579217  1
  Cd  Cd17  1  0.578032  0.578032  0.264720  1
  Cd  Cd18  1  0.579648  0.259952  0.580199  1
  Cd  Cd19  1  0.259952  0.579648  0.580199  1
  Os  Os20  1  0.144304  0.144304  0.137642  1
  Os  Os21  1  0.144304  0.144304  0.573749  1
  Pd  Pd22  1  0.145790  0.574563  0.139823  1
  Pd  Pd23  1  0.574563  0.145790  0.139823  1
