# generated using pymatgen
data_La3Nd5(HgRh)2
_symmetry_space_group_name_H-M   'P 1'
_cell_length_a   9.96513383
_cell_length_b   9.99747294
_cell_length_c   9.99747314
_cell_angle_alpha   59.78610779
_cell_angle_beta   60.10694644
_cell_angle_gamma   60.10694846
_symmetry_Int_Tables_number   1
_chemical_formula_structural   La3Nd5(HgRh)2
_chemical_formula_sum   'La6 Nd10 Hg4 Rh4'
_cell_volume   704.27061864
_cell_formula_units_Z   2
loop_
 _symmetry_equiv_pos_site_id
 _symmetry_equiv_pos_as_xyz
  1  'x, y, z'
loop_
 _atom_site_type_symbol
 _atom_site_label
 _atom_site_symmetry_multiplicity
 _atom_site_fract_x
 _atom_site_fract_y
 _atom_site_fract_z
 _atom_site_occupancy
  La  La0  1  0.598797  0.600669  0.600669  1
  La  La1  1  0.600669  0.598797  0.199866  1
  La  La2  1  0.600669  0.199866  0.598797  1
  La  La3  1  0.199866  0.600669  0.600669  1
  La  La4  1  0.060867  0.439133  0.439133  1
  La  La5  1  0.439133  0.060867  0.060867  1
  Nd  Nd6  1  0.441297  0.058703  0.441297  1
  Nd  Nd7  1  0.058703  0.441297  0.058703  1
  Nd  Nd8  1  0.441297  0.441297  0.058703  1
  Nd  Nd9  1  0.058703  0.058703  0.441297  1
  Nd  Nd10  1  0.186391  0.813609  0.813609  1
  Nd  Nd11  1  0.813609  0.186391  0.186391  1
  Nd  Nd12  1  0.813325  0.186675  0.813325  1
  Nd  Nd13  1  0.186675  0.813325  0.186675  1
  Nd  Nd14  1  0.813325  0.813325  0.186675  1
  Nd  Nd15  1  0.186675  0.186675  0.813325  1
  Hg  Hg16  1  0.835300  0.834050  0.834050  1
  Hg  Hg17  1  0.834050  0.835300  0.496600  1
  Hg  Hg18  1  0.834050  0.496600  0.835300  1
  Hg  Hg19  1  0.496600  0.834050  0.834050  1
  Rh  Rh20  1  0.389844  0.393143  0.393143  1
  Rh  Rh21  1  0.393143  0.389844  0.823871  1
  Rh  Rh22  1  0.393143  0.823871  0.389844  1
  Rh  Rh23  1  0.823871  0.393143  0.393143  1
