# generated using pymatgen
data_Ca3Ga2Si(PbO6)2
_symmetry_space_group_name_H-M   'P 1'
_cell_length_a   11.12216867
_cell_length_b   11.12216900
_cell_length_c   11.12216943
_cell_angle_alpha   108.93803318
_cell_angle_beta   108.93803538
_cell_angle_gamma   110.54293824
_symmetry_Int_Tables_number   1
_chemical_formula_structural   Ca3Ga2Si(PbO6)2
_chemical_formula_sum   'Ca12 Ga8 Si4 Pb8 O48'
_cell_volume   1058.84492996
_cell_formula_units_Z   4
loop_
 _symmetry_equiv_pos_site_id
 _symmetry_equiv_pos_as_xyz
  1  'x, y, z'
loop_
 _atom_site_type_symbol
 _atom_site_label
 _atom_site_symmetry_multiplicity
 _atom_site_fract_x
 _atom_site_fract_y
 _atom_site_fract_z
 _atom_site_occupancy
  Ca  Ca0  1  0.750000  0.750000  0.000000  1
  Ca  Ca1  1  0.875000  0.249307  0.874307  1
  Ca  Ca2  1  0.499307  0.125000  0.874307  1
  Ca  Ca3  1  0.250000  0.250000  0.000000  1
  Ca  Ca4  1  0.875000  0.749307  0.374307  1
  Ca  Ca5  1  0.250693  0.625000  0.125693  1
  Ca  Ca6  1  0.999307  0.125000  0.374307  1
  Ca  Ca7  1  0.000000  0.500000  0.500000  1
  Ca  Ca8  1  0.375000  0.000693  0.125693  1
  Ca  Ca9  1  0.750693  0.625000  0.625693  1
  Ca  Ca10  1  0.375000  0.500693  0.625693  1
  Ca  Ca11  1  0.500000  0.000000  0.500000  1
  Ga  Ga12  1  0.000624  0.625000  0.875624  1
  Ga  Ga13  1  0.375000  0.750624  0.875624  1
  Ga  Ga14  1  0.875000  0.499376  0.124376  1
  Ga  Ga15  1  0.749376  0.125000  0.124376  1
  Ga  Ga16  1  0.500624  0.625000  0.375624  1
  Ga  Ga17  1  0.375000  0.250624  0.375624  1
  Ga  Ga18  1  0.875000  0.999376  0.624376  1
  Ga  Ga19  1  0.249376  0.125000  0.624376  1
  Si  Si20  1  0.000000  0.000000  0.000000  1
  Si  Si21  1  0.500000  0.500000  0.000000  1
  Si  Si22  1  0.250000  0.750000  0.500000  1
  Si  Si23  1  0.750000  0.250000  0.500000  1
  Pb  Pb24  1  0.125000  0.375000  0.750000  1
  Pb  Pb25  1  0.625000  0.875000  0.250000  1
  Pb  Pb26  1  0.125000  0.875000  0.750000  1
  Pb  Pb27  1  0.625000  0.375000  0.250000  1
  Pb  Pb28  1  0.125000  0.375000  0.250000  1
  Pb  Pb29  1  0.125000  0.875000  0.250000  1
  Pb  Pb30  1  0.625000  0.875000  0.750000  1
  Pb  Pb31  1  0.625000  0.375000  0.750000  1
  O  O32  1  0.831602  0.867114  0.861870  1
  O  O33  1  0.028086  0.189095  0.781036  1
  O  O34  1  0.043020  0.476122  0.879384  1
  O  O35  1  0.810905  0.591941  0.838991  1
  O  O36  1  0.528086  0.747050  0.838991  1
  O  O37  1  0.530268  0.494756  0.861870  1
  O  O38  1  0.726122  0.346738  0.933103  1
  O  O39  1  0.908059  0.689095  0.161009  1
  O  O40  1  0.023878  0.456980  0.120616  1
  O  O41  1  0.030268  0.168398  0.035512  1
  O  O42  1  0.413635  0.793020  0.066897  1
  O  O43  1  0.252950  0.091941  0.781036  1
  O  O44  1  0.706980  0.086365  0.933103  1
  O  O45  1  0.331602  0.469732  0.964488  1
  O  O46  1  0.632886  0.668398  0.138130  1
  O  O47  1  0.505244  0.367114  0.035512  1
  O  O48  1  0.153262  0.773878  0.066897  1
  O  O49  1  0.336365  0.903262  0.879384  1
  O  O50  1  0.005244  0.969732  0.138130  1
  O  O51  1  0.841941  0.502950  0.281036  1
  O  O52  1  0.939095  0.278086  0.281036  1
  O  O53  1  0.596738  0.163635  0.120616  1
  O  O54  1  0.497050  0.778086  0.338991  1
  O  O55  1  0.132886  0.994756  0.964488  1
  O  O56  1  0.117114  0.755244  0.535512  1
  O  O57  1  0.752950  0.971914  0.161009  1
  O  O58  1  0.653262  0.586365  0.379384  1
  O  O59  1  0.310905  0.471914  0.218964  1
  O  O60  1  0.408059  0.247050  0.218964  1
  O  O61  1  0.244756  0.780268  0.361870  1
  O  O62  1  0.913635  0.846738  0.620616  1
  O  O63  1  0.096738  0.976122  0.433103  1
  O  O64  1  0.744756  0.382886  0.464488  1
  O  O65  1  0.617114  0.081602  0.361870  1
  O  O66  1  0.918398  0.280268  0.535512  1
  O  O67  1  0.543020  0.663635  0.566897  1
  O  O68  1  0.997050  0.658059  0.718964  1
  O  O69  1  0.836365  0.956980  0.433103  1
  O  O70  1  0.226122  0.293020  0.379384  1
  O  O71  1  0.219732  0.581602  0.464488  1
  O  O72  1  0.341941  0.060905  0.338991  1
  O  O73  1  0.523878  0.403262  0.566897  1
  O  O74  1  0.719732  0.255244  0.638130  1
  O  O75  1  0.721914  0.002950  0.661009  1
  O  O76  1  0.439095  0.158059  0.661009  1
  O  O77  1  0.206980  0.273878  0.620616  1
  O  O78  1  0.221914  0.560905  0.718964  1
  O  O79  1  0.418398  0.882886  0.638130  1
