# generated using pymatgen
data_Tm3Sc2Ga2Bi
_symmetry_space_group_name_H-M   'P 1'
_cell_length_a   8.52578612
_cell_length_b   8.52308380
_cell_length_c   6.22229800
_cell_angle_alpha   90.00000000
_cell_angle_beta   90.00000000
_cell_angle_gamma   119.98951050
_symmetry_Int_Tables_number   1
_chemical_formula_structural   Tm3Sc2Ga2Bi
_chemical_formula_sum   'Tm6 Sc4 Ga4 Bi2'
_cell_volume   391.61428489
_cell_formula_units_Z   2
loop_
 _symmetry_equiv_pos_site_id
 _symmetry_equiv_pos_as_xyz
  1  'x, y, z'
loop_
 _atom_site_type_symbol
 _atom_site_label
 _atom_site_symmetry_multiplicity
 _atom_site_fract_x
 _atom_site_fract_y
 _atom_site_fract_z
 _atom_site_occupancy
  Tm  Tm0  1  0.232251  0.000602  0.250000  1
  Tm  Tm1  1  0.232251  0.231648  0.750000  1
  Tm  Tm2  1  0.016877  0.763948  0.750000  1
  Tm  Tm3  1  0.016877  0.252927  0.250000  1
  Tm  Tm4  1  0.766046  0.748298  0.250000  1
  Tm  Tm5  1  0.766046  0.017747  0.750000  1
  Sc  Sc6  1  0.308327  0.654164  0.000000  1
  Sc  Sc7  1  0.673441  0.336720  0.500000  1
  Sc  Sc8  1  0.673441  0.336720  0.000000  1
  Sc  Sc9  1  0.308327  0.654164  0.500000  1
  Ga  Ga10  1  0.998474  0.402395  0.750000  1
  Ga  Ga11  1  0.998474  0.596079  0.250000  1
  Ga  Ga12  1  0.404600  0.399838  0.250000  1
  Ga  Ga13  1  0.404600  0.004762  0.750000  1
  Bi  Bi14  1  0.599986  0.993824  0.250000  1
  Bi  Bi15  1  0.599986  0.606162  0.750000  1
