# generated using pymatgen
data_AcNiPH
_symmetry_space_group_name_H-M   'P 1'
_cell_length_a   4.03882300
_cell_length_b   4.03882300
_cell_length_c   8.28995400
_cell_angle_alpha   90.00000000
_cell_angle_beta   90.00000000
_cell_angle_gamma   90.00000000
_symmetry_Int_Tables_number   1
_chemical_formula_structural   AcNiPH
_chemical_formula_sum   'Ac2 Ni2 P2 H2'
_cell_volume   135.22648590
_cell_formula_units_Z   2
loop_
 _symmetry_equiv_pos_site_id
 _symmetry_equiv_pos_as_xyz
  1  'x, y, z'
loop_
 _atom_site_type_symbol
 _atom_site_label
 _atom_site_symmetry_multiplicity
 _atom_site_fract_x
 _atom_site_fract_y
 _atom_site_fract_z
 _atom_site_occupancy
  Ac  Ac0  1  0.000000  0.500000  0.808368  1
  Ac  Ac1  1  0.500000  0.000000  0.191632  1
  Ni  Ni2  1  0.000000  0.000000  0.500000  1
  Ni  Ni3  1  0.500000  0.500000  0.500000  1
  P  P4  1  0.000000  0.500000  0.364603  1
  P  P5  1  0.500000  0.000000  0.635397  1
  H  H6  1  0.000000  0.000000  0.000000  1
  H  H7  1  0.500000  0.500000  0.000000  1
