# generated using pymatgen
data_DyTh(Ni2B)12
_symmetry_space_group_name_H-M   'P 1'
_cell_length_a   6.03339579
_cell_length_b   6.03339516
_cell_length_c   10.96887526
_cell_angle_alpha   90.06861124
_cell_angle_beta   90.06860792
_cell_angle_gamma   104.71977780
_symmetry_Int_Tables_number   1
_chemical_formula_structural   DyTh(Ni2B)12
_chemical_formula_sum   'Dy1 Th1 Ni24 B12'
_cell_volume   386.18215510
_cell_formula_units_Z   1
loop_
 _symmetry_equiv_pos_site_id
 _symmetry_equiv_pos_as_xyz
  1  'x, y, z'
loop_
 _atom_site_type_symbol
 _atom_site_label
 _atom_site_symmetry_multiplicity
 _atom_site_fract_x
 _atom_site_fract_y
 _atom_site_fract_z
 _atom_site_occupancy
  Dy  Dy0  1  0.164753  0.164753  0.995154  1
  Th  Th1  1  0.832360  0.832360  0.496431  1
  Ni  Ni2  1  0.564221  0.564221  0.919830  1
  Ni  Ni3  1  0.435398  0.435398  0.419716  1
  Ni  Ni4  1  0.781306  0.781306  0.097713  1
  Ni  Ni5  1  0.218195  0.218195  0.598639  1
  Ni  Ni6  1  0.543268  0.804770  0.734770  1
  Ni  Ni7  1  0.804770  0.543268  0.734770  1
  Ni  Ni8  1  0.456676  0.196318  0.233042  1
  Ni  Ni9  1  0.196318  0.456676  0.233042  1
  Ni  Ni10  1  0.146097  0.882043  0.756273  1
  Ni  Ni11  1  0.882043  0.146097  0.756273  1
  Ni  Ni12  1  0.853722  0.119730  0.254850  1
  Ni  Ni13  1  0.119730  0.853722  0.254850  1
  Ni  Ni14  1  0.658603  0.269443  0.568425  1
  Ni  Ni15  1  0.269443  0.658603  0.568425  1
  Ni  Ni16  1  0.340632  0.731150  0.067709  1
  Ni  Ni17  1  0.731150  0.340632  0.067709  1
  Ni  Ni18  1  0.629510  0.996043  0.937357  1
  Ni  Ni19  1  0.996043  0.629510  0.937357  1
  Ni  Ni20  1  0.370620  0.004986  0.437143  1
  Ni  Ni21  1  0.004986  0.370620  0.437143  1
  Ni  Ni22  1  0.473463  0.212387  0.776546  1
  Ni  Ni23  1  0.212387  0.473463  0.776546  1
  Ni  Ni24  1  0.526513  0.786928  0.275617  1
  Ni  Ni25  1  0.786928  0.526513  0.275617  1
  B  B26  1  0.836665  0.836665  0.838390  1
  B  B27  1  0.163790  0.163790  0.334892  1
  B  B28  1  0.488138  0.488138  0.656013  1
  B  B29  1  0.511421  0.511421  0.151871  1
  B  B30  1  0.325529  0.756368  0.885762  1
  B  B31  1  0.756368  0.325529  0.885762  1
  B  B32  1  0.674609  0.245090  0.384970  1
  B  B33  1  0.245090  0.674609  0.384970  1
  B  B34  1  0.401075  0.987719  0.623212  1
  B  B35  1  0.987719  0.401075  0.623212  1
  B  B36  1  0.598965  0.011499  0.122997  1
  B  B37  1  0.011499  0.598965  0.122997  1
