# generated using pymatgen
data_Ta3AlSiTcC
_symmetry_space_group_name_H-M   'P 1'
_cell_length_a   8.25860992
_cell_length_b   8.25860941
_cell_length_c   8.25860785
_cell_angle_alpha   60.19984646
_cell_angle_beta   60.19985037
_cell_angle_gamma   60.19984953
_symmetry_Int_Tables_number   1
_chemical_formula_structural   Ta3AlSiTcC
_chemical_formula_sum   'Ta12 Al4 Si4 Tc4 C4'
_cell_volume   400.09821982
_cell_formula_units_Z   4
loop_
 _symmetry_equiv_pos_site_id
 _symmetry_equiv_pos_as_xyz
  1  'x, y, z'
loop_
 _atom_site_type_symbol
 _atom_site_label
 _atom_site_symmetry_multiplicity
 _atom_site_fract_x
 _atom_site_fract_y
 _atom_site_fract_z
 _atom_site_occupancy
  Ta  Ta0  1  0.555856  0.944086  0.555856  1
  Ta  Ta1  1  0.310255  0.689972  0.689972  1
  Ta  Ta2  1  0.694171  0.307474  0.307474  1
  Ta  Ta3  1  0.307474  0.694171  0.307474  1
  Ta  Ta4  1  0.689972  0.689972  0.310255  1
  Ta  Ta5  1  0.307474  0.307474  0.694171  1
  Ta  Ta6  1  0.555856  0.555856  0.944086  1
  Ta  Ta7  1  0.944086  0.555856  0.555856  1
  Ta  Ta8  1  0.563089  0.940063  0.940063  1
  Ta  Ta9  1  0.940063  0.940063  0.563089  1
  Ta  Ta10  1  0.689972  0.310255  0.689972  1
  Ta  Ta11  1  0.940063  0.563089  0.940063  1
  Al  Al12  1  0.918581  0.249681  0.918581  1
  Al  Al13  1  0.918581  0.918581  0.249681  1
  Al  Al14  1  0.249681  0.918581  0.918581  1
  Al  Al15  1  0.333286  0.333286  0.333286  1
  Si  Si16  1  0.916141  0.916141  0.916141  1
  Si  Si17  1  0.990143  0.339462  0.339462  1
  Si  Si18  1  0.339462  0.990143  0.339462  1
  Si  Si19  1  0.339462  0.339462  0.990143  1
  Tc  Tc20  1  0.131831  0.131831  0.131831  1
  Tc  Tc21  1  0.622143  0.120998  0.120998  1
  Tc  Tc22  1  0.120998  0.622143  0.120998  1
  Tc  Tc23  1  0.120998  0.120998  0.622143  1
  C  C24  1  0.625884  0.625884  0.625884  1
  C  C25  1  0.124421  0.625029  0.625029  1
  C  C26  1  0.625029  0.124421  0.625029  1
  C  C27  1  0.625029  0.625029  0.124421  1
