# generated using pymatgen
data_Mg5Cr3(Co4P3)4
_symmetry_space_group_name_H-M   'P 1'
_cell_length_a   11.86471100
_cell_length_b   11.86471163
_cell_length_c   3.58324600
_cell_angle_alpha   90.00000000
_cell_angle_beta   90.00000000
_cell_angle_gamma   120.00000660
_symmetry_Int_Tables_number   1
_chemical_formula_structural   Mg5Cr3(Co4P3)4
_chemical_formula_sum   'Mg5 Cr3 Co16 P12'
_cell_volume   436.83917583
_cell_formula_units_Z   1
loop_
 _symmetry_equiv_pos_site_id
 _symmetry_equiv_pos_as_xyz
  1  'x, y, z'
loop_
 _atom_site_type_symbol
 _atom_site_label
 _atom_site_symmetry_multiplicity
 _atom_site_fract_x
 _atom_site_fract_y
 _atom_site_fract_z
 _atom_site_occupancy
  Mg  Mg0  1  0.666667  0.333333  0.000000  1
  Mg  Mg1  1  0.333333  0.666667  0.000000  1
  Mg  Mg2  1  0.818672  0.818672  0.500000  1
  Mg  Mg3  1  0.181328  0.000000  0.500000  1
  Mg  Mg4  1  0.000000  0.181328  0.500000  1
  Cr  Cr5  1  0.447700  0.447700  0.000000  1
  Cr  Cr6  1  0.552300  0.000000  0.000000  1
  Cr  Cr7  1  0.000000  0.552300  0.000000  1
  Co  Co8  1  0.871573  0.353946  0.500000  1
  Co  Co9  1  0.646054  0.517627  0.500000  1
  Co  Co10  1  0.482373  0.128427  0.500000  1
  Co  Co11  1  0.353946  0.871573  0.500000  1
  Co  Co12  1  0.517627  0.646054  0.500000  1
  Co  Co13  1  0.128427  0.482373  0.500000  1
  Co  Co14  1  0.803656  0.178399  0.000000  1
  Co  Co15  1  0.821601  0.625256  0.000000  1
  Co  Co16  1  0.374744  0.196344  0.000000  1
  Co  Co17  1  0.178399  0.803656  0.000000  1
  Co  Co18  1  0.625256  0.821601  0.000000  1
  Co  Co19  1  0.196344  0.374744  0.000000  1
  Co  Co20  1  0.282018  0.282018  0.500000  1
  Co  Co21  1  0.717982  0.000000  0.500000  1
  Co  Co22  1  0.000000  0.717982  0.500000  1
  Co  Co23  1  0.000000  0.000000  0.000000  1
  P  P24  1  0.681934  0.165186  0.500000  1
  P  P25  1  0.834814  0.516748  0.500000  1
  P  P26  1  0.483252  0.318066  0.500000  1
  P  P27  1  0.165186  0.681934  0.500000  1
  P  P28  1  0.516748  0.834814  0.500000  1
  P  P29  1  0.318066  0.483252  0.500000  1
  P  P30  1  0.177133  0.177133  0.000000  1
  P  P31  1  0.822867  0.000000  0.000000  1
  P  P32  1  0.000000  0.822867  0.000000  1
  P  P33  1  0.640285  0.640285  0.000000  1
  P  P34  1  0.359715  0.000000  0.000000  1
  P  P35  1  0.000000  0.359715  0.000000  1
