# generated using pymatgen
data_Ho4Lu8Co5Hg
_symmetry_space_group_name_H-M   'P 1'
_cell_length_a   8.11715258
_cell_length_b   8.11727362
_cell_length_c   8.11715312
_cell_angle_alpha   110.80692488
_cell_angle_beta   110.48006668
_cell_angle_gamma   107.15086704
_symmetry_Int_Tables_number   1
_chemical_formula_structural   Ho4Lu8Co5Hg
_chemical_formula_sum   'Ho4 Lu8 Co5 Hg1'
_cell_volume   411.20985423
_cell_formula_units_Z   1
loop_
 _symmetry_equiv_pos_site_id
 _symmetry_equiv_pos_as_xyz
  1  'x, y, z'
loop_
 _atom_site_type_symbol
 _atom_site_label
 _atom_site_symmetry_multiplicity
 _atom_site_fract_x
 _atom_site_fract_y
 _atom_site_fract_z
 _atom_site_occupancy
  Ho  Ho0  1  0.590106  0.783495  0.806616  1
  Ho  Ho1  1  0.409894  0.216505  0.193384  1
  Ho  Ho2  1  0.976879  0.783495  0.193389  1
  Ho  Ho3  1  0.023121  0.216505  0.806611  1
  Lu  Lu4  1  0.817761  0.713047  0.530848  1
  Lu  Lu5  1  0.182239  0.286953  0.469152  1
  Lu  Lu6  1  0.182200  0.713047  0.895287  1
  Lu  Lu7  1  0.817800  0.286953  0.104713  1
  Lu  Lu8  1  0.682967  0.378426  0.695461  1
  Lu  Lu9  1  0.317033  0.621574  0.304539  1
  Lu  Lu10  1  0.682999  0.987526  0.304527  1
  Lu  Lu11  1  0.317001  0.012474  0.695473  1
  Co  Co12  1  0.624749  0.000000  0.624749  1
  Co  Co13  1  0.375251  0.000000  0.375251  1
  Co  Co14  1  0.114509  0.614533  0.500023  1
  Co  Co15  1  0.885491  0.385467  0.499977  1
  Co  Co16  1  0.000000  0.000000  0.000000  1
  Hg  Hg17  1  0.500000  0.500000  0.000000  1
