# generated using pymatgen
data_Pa2Te5Se
_symmetry_space_group_name_H-M   'P 1'
_cell_length_a   6.14579000
_cell_length_b   10.77698773
_cell_length_c   4.15364900
_cell_angle_alpha   90.00000000
_cell_angle_beta   90.00000000
_cell_angle_gamma   106.56691061
_symmetry_Int_Tables_number   1
_chemical_formula_structural   Pa2Te5Se
_chemical_formula_sum   'Pa2 Te5 Se1'
_cell_volume   263.68857257
_cell_formula_units_Z   1
loop_
 _symmetry_equiv_pos_site_id
 _symmetry_equiv_pos_as_xyz
  1  'x, y, z'
loop_
 _atom_site_type_symbol
 _atom_site_label
 _atom_site_symmetry_multiplicity
 _atom_site_fract_x
 _atom_site_fract_y
 _atom_site_fract_z
 _atom_site_occupancy
  Pa  Pa0  1  0.668673  0.337345  0.250000  1
  Pa  Pa1  1  0.326058  0.652116  0.750000  1
  Te  Te2  1  0.844421  0.180706  0.750000  1
  Te  Te3  1  0.336286  0.180706  0.750000  1
  Te  Te4  1  0.778635  0.557270  0.750000  1
  Te  Te5  1  0.159560  0.818251  0.250000  1
  Te  Te6  1  0.658690  0.818251  0.250000  1
  Se  Se7  1  0.227677  0.455356  0.250000  1
