# generated using pymatgen
data_Ho2Tm5Sn22HgOs6
_symmetry_space_group_name_H-M   'P 1'
_cell_length_a   9.80208981
_cell_length_b   9.80208787
_cell_length_c   10.13167021
_cell_angle_alpha   89.94429918
_cell_angle_beta   90.05569898
_cell_angle_gamma   120.00287445
_symmetry_Int_Tables_number   1
_chemical_formula_structural   Ho2Tm5Sn22HgOs6
_chemical_formula_sum   'Ho2 Tm5 Sn22 Hg1 Os6'
_cell_volume   843.01653233
_cell_formula_units_Z   1
loop_
 _symmetry_equiv_pos_site_id
 _symmetry_equiv_pos_as_xyz
  1  'x, y, z'
loop_
 _atom_site_type_symbol
 _atom_site_label
 _atom_site_symmetry_multiplicity
 _atom_site_fract_x
 _atom_site_fract_y
 _atom_site_fract_z
 _atom_site_occupancy
  Ho  Ho0  1  0.000487  0.999513  0.999227  1
  Ho  Ho1  1  0.484556  0.515444  0.305289  1
  Tm  Tm2  1  0.514220  0.485780  0.695498  1
  Tm  Tm3  1  0.514499  0.028969  0.695488  1
  Tm  Tm4  1  0.971031  0.485501  0.695488  1
  Tm  Tm5  1  0.028921  0.514119  0.304693  1
  Tm  Tm6  1  0.485881  0.971079  0.304693  1
  Sn  Sn7  1  0.666577  0.333423  0.170520  1
  Sn  Sn8  1  0.666339  0.333661  0.868480  1
  Sn  Sn9  1  0.332604  0.667396  0.130518  1
  Sn  Sn10  1  0.349800  0.349656  0.000188  1
  Sn  Sn11  1  0.000199  0.650142  0.999841  1
  Sn  Sn12  1  0.650507  0.000203  0.000128  1
  Sn  Sn13  1  0.650344  0.650200  0.000188  1
  Sn  Sn14  1  0.333331  0.666669  0.829174  1
  Sn  Sn15  1  0.443507  0.221465  0.463779  1
  Sn  Sn16  1  0.221763  0.778237  0.536278  1
  Sn  Sn17  1  0.221311  0.443631  0.536698  1
  Sn  Sn18  1  0.556369  0.778689  0.536698  1
  Sn  Sn19  1  0.123865  0.876135  0.268753  1
  Sn  Sn20  1  0.778535  0.556493  0.463779  1
  Sn  Sn21  1  0.778316  0.221684  0.463933  1
  Sn  Sn22  1  0.349858  0.999801  0.999841  1
  Sn  Sn23  1  0.122953  0.245976  0.268258  1
  Sn  Sn24  1  0.754024  0.877047  0.268258  1
  Sn  Sn25  1  0.247225  0.123631  0.731009  1
  Sn  Sn26  1  0.876369  0.752775  0.731009  1
  Sn  Sn27  1  0.876460  0.123540  0.731471  1
  Sn  Sn28  1  0.999797  0.349493  0.000128  1
  Hg  Hg29  1  0.999933  0.000067  0.500323  1
  Os  Os30  1  0.169512  0.830488  0.794784  1
  Os  Os31  1  0.169561  0.339081  0.795154  1
  Os  Os32  1  0.660919  0.830439  0.795154  1
  Os  Os33  1  0.338915  0.168772  0.204985  1
  Os  Os34  1  0.831228  0.661085  0.204985  1
  Os  Os35  1  0.830282  0.169718  0.205308  1
