# generated using pymatgen
data_TbY3Re2(B8Mo)2
_symmetry_space_group_name_H-M   'P 1'
_cell_length_a   3.62454600
_cell_length_b   6.01081615
_cell_length_c   11.62816743
_cell_angle_alpha   89.93600222
_cell_angle_beta   90.00000000
_cell_angle_gamma   90.00000000
_symmetry_Int_Tables_number   1
_chemical_formula_structural   TbY3Re2(B8Mo)2
_chemical_formula_sum   'Tb1 Y3 Re2 B16 Mo2'
_cell_volume   253.33667475
_cell_formula_units_Z   1
loop_
 _symmetry_equiv_pos_site_id
 _symmetry_equiv_pos_as_xyz
  1  'x, y, z'
loop_
 _atom_site_type_symbol
 _atom_site_label
 _atom_site_symmetry_multiplicity
 _atom_site_fract_x
 _atom_site_fract_y
 _atom_site_fract_z
 _atom_site_occupancy
  Tb  Tb0  1  0.000000  0.127261  0.149507  1
  Y  Y1  1  0.000000  0.872711  0.850511  1
  Y  Y2  1  0.000000  0.626545  0.349292  1
  Y  Y3  1  0.000000  0.373418  0.650702  1
  Re  Re4  1  0.000000  0.634109  0.086666  1
  Re  Re5  1  0.000000  0.365897  0.913248  1
  B  B6  1  0.500000  0.477237  0.191204  1
  B  B7  1  0.500000  0.522749  0.808737  1
  B  B8  1  0.500000  0.975822  0.305968  1
  B  B9  1  0.500000  0.024177  0.694161  1
  B  B10  1  0.500000  0.288649  0.313585  1
  B  B11  1  0.500000  0.711265  0.686478  1
  B  B12  1  0.500000  0.784981  0.184097  1
  B  B13  1  0.500000  0.214971  0.815865  1
  B  B14  1  0.500000  0.366904  0.467696  1
  B  B15  1  0.500000  0.633112  0.532315  1
  B  B16  1  0.500000  0.862847  0.030966  1
  B  B17  1  0.500000  0.137214  0.969010  1
  B  B18  1  0.500000  0.386928  0.047083  1
  B  B19  1  0.500000  0.613273  0.952827  1
  B  B20  1  0.500000  0.885238  0.452545  1
  B  B21  1  0.500000  0.114739  0.547481  1
  Mo  Mo22  1  0.000000  0.128899  0.415409  1
  Mo  Mo23  1  0.000000  0.871055  0.584649  1
