# generated using pymatgen
data_HoEr11Co4IrPb
_symmetry_space_group_name_H-M   'P 1'
_cell_length_a   8.23194859
_cell_length_b   8.23194844
_cell_length_c   8.23081328
_cell_angle_alpha   111.10299196
_cell_angle_beta   110.64380585
_cell_angle_gamma   106.70807301
_symmetry_Int_Tables_number   1
_chemical_formula_structural   HoEr11Co4IrPb
_chemical_formula_sum   'Ho1 Er11 Co4 Ir1 Pb1'
_cell_volume   428.58018250
_cell_formula_units_Z   1
loop_
 _symmetry_equiv_pos_site_id
 _symmetry_equiv_pos_as_xyz
  1  'x, y, z'
loop_
 _atom_site_type_symbol
 _atom_site_label
 _atom_site_symmetry_multiplicity
 _atom_site_fract_x
 _atom_site_fract_y
 _atom_site_fract_z
 _atom_site_occupancy
  Ho  Ho0  1  0.183201  0.285944  0.469145  1
  Er  Er1  1  0.817065  0.714470  0.531535  1
  Er  Er2  1  0.183062  0.714636  0.897698  1
  Er  Er3  1  0.816792  0.285499  0.102292  1
  Er  Er4  1  0.313860  0.620728  0.306610  1
  Er  Er5  1  0.686530  0.379384  0.693471  1
  Er  Er6  1  0.314087  0.006941  0.693471  1
  Er  Er7  1  0.685882  0.992750  0.306610  1
  Er  Er8  1  0.411877  0.214884  0.196763  1
  Er  Er9  1  0.588873  0.785472  0.803453  1
  Er  Er10  1  0.017982  0.214580  0.803453  1
  Er  Er11  1  0.981878  0.784886  0.196763  1
  Co  Co12  1  0.111283  0.611974  0.499751  1
  Co  Co13  1  0.887777  0.388468  0.499751  1
  Co  Co14  1  0.376362  0.999673  0.376035  1
  Co  Co15  1  0.623589  0.000013  0.623600  1
  Ir  Ir16  1  0.000181  0.999393  0.999574  1
  Pb  Pb17  1  0.499719  0.500305  0.000025  1
