# generated using pymatgen
data_Yb6Np2SiPd24
_symmetry_space_group_name_H-M   'P 1'
_cell_length_a   8.27599615
_cell_length_b   8.27599629
_cell_length_c   8.27599600
_cell_angle_alpha   89.95873123
_cell_angle_beta   90.04126877
_cell_angle_gamma   90.04127079
_symmetry_Int_Tables_number   1
_chemical_formula_structural   Yb6Np2SiPd24
_chemical_formula_sum   'Yb6 Np2 Si1 Pd24'
_cell_volume   566.84001572
_cell_formula_units_Z   1
loop_
 _symmetry_equiv_pos_site_id
 _symmetry_equiv_pos_as_xyz
  1  'x, y, z'
loop_
 _atom_site_type_symbol
 _atom_site_label
 _atom_site_symmetry_multiplicity
 _atom_site_fract_x
 _atom_site_fract_y
 _atom_site_fract_z
 _atom_site_occupancy
  Yb  Yb0  1  0.251566  0.252220  0.252220  1
  Yb  Yb1  1  0.748434  0.747780  0.747780  1
  Yb  Yb2  1  0.747780  0.748434  0.252220  1
  Yb  Yb3  1  0.747780  0.252220  0.748434  1
  Yb  Yb4  1  0.252220  0.251566  0.747780  1
  Yb  Yb5  1  0.252220  0.747780  0.251566  1
  Np  Np6  1  0.256266  0.743734  0.743734  1
  Np  Np7  1  0.743734  0.256266  0.256266  1
  Si  Si8  1  0.000000  0.000000  0.000000  1
  Pd  Pd9  1  0.257052  0.502556  0.996462  1
  Pd  Pd10  1  0.742948  0.497444  0.003538  1
  Pd  Pd11  1  0.996462  0.257052  0.497444  1
  Pd  Pd12  1  0.502556  0.257052  0.003538  1
  Pd  Pd13  1  0.003538  0.742948  0.502556  1
  Pd  Pd14  1  0.497444  0.742948  0.996462  1
  Pd  Pd15  1  0.502556  0.003538  0.257052  1
  Pd  Pd16  1  0.257052  0.996462  0.502556  1
  Pd  Pd17  1  0.497444  0.996462  0.742948  1
  Pd  Pd18  1  0.742948  0.003538  0.497444  1
  Pd  Pd19  1  0.996462  0.497444  0.257052  1
  Pd  Pd20  1  0.003538  0.502556  0.742948  1
  Pd  Pd21  1  0.252100  0.501584  0.501584  1
  Pd  Pd22  1  0.747900  0.498416  0.498416  1
  Pd  Pd23  1  0.501584  0.252100  0.498416  1
  Pd  Pd24  1  0.498416  0.747900  0.501584  1
  Pd  Pd25  1  0.501584  0.498416  0.252100  1
  Pd  Pd26  1  0.498416  0.501584  0.747900  1
  Pd  Pd27  1  0.280509  0.999425  0.999425  1
  Pd  Pd28  1  0.719491  0.000575  0.000575  1
  Pd  Pd29  1  0.999425  0.280509  0.000575  1
  Pd  Pd30  1  0.000575  0.719491  0.999425  1
  Pd  Pd31  1  0.999425  0.000575  0.280509  1
  Pd  Pd32  1  0.000575  0.999425  0.719491  1
