# generated using pymatgen
data_K5Rb3Nb2Fe6(PO4)12
_symmetry_space_group_name_H-M   'P 1'
_cell_length_a   10.06044800
_cell_length_b   10.06015629
_cell_length_c   10.06192900
_cell_angle_alpha   89.60980512
_cell_angle_beta   90.00000000
_cell_angle_gamma   90.00000000
_symmetry_Int_Tables_number   1
_chemical_formula_structural   K5Rb3Nb2Fe6(PO4)12
_chemical_formula_sum   'K5 Rb3 Nb2 Fe6 P12 O48'
_cell_volume   1018.34099113
_cell_formula_units_Z   1
loop_
 _symmetry_equiv_pos_site_id
 _symmetry_equiv_pos_as_xyz
  1  'x, y, z'
loop_
 _atom_site_type_symbol
 _atom_site_label
 _atom_site_symmetry_multiplicity
 _atom_site_fract_x
 _atom_site_fract_y
 _atom_site_fract_z
 _atom_site_occupancy
  K  K0  1  0.436219  0.808759  0.072237  1
  K  K1  1  0.066652  0.675082  0.558988  1
  K  K2  1  0.796197  0.547800  0.211297  1
  K  K3  1  0.296156  0.452364  0.788827  1
  K  K4  1  0.566605  0.324910  0.440968  1
  Rb  Rb5  1  0.934655  0.188570  0.928669  1
  Rb  Rb6  1  0.207613  0.041619  0.297362  1
  Rb  Rb7  1  0.707310  0.958263  0.702488  1
  Nb  Nb8  1  0.587180  0.166002  0.088727  1
  Nb  Nb9  1  0.087446  0.834035  0.911305  1
  Fe  Fe10  1  0.354977  0.107329  0.641302  1
  Fe  Fe11  1  0.855113  0.892548  0.358573  1
  Fe  Fe12  1  0.414205  0.660896  0.415225  1
  Fe  Fe13  1  0.644699  0.604256  0.851798  1
  Fe  Fe14  1  0.145026  0.396104  0.148455  1
  Fe  Fe15  1  0.914141  0.339363  0.584372  1
  P  P16  1  0.877485  0.208115  0.275887  1
  P  P17  1  0.270977  0.128044  0.957411  1
  P  P18  1  0.042372  0.024916  0.621989  1
  P  P19  1  0.542030  0.974572  0.377030  1
  P  P20  1  0.769794  0.871188  0.043248  1
  P  P21  1  0.377629  0.792233  0.724777  1
  P  P22  1  0.125145  0.707450  0.232416  1
  P  P23  1  0.727471  0.623010  0.541016  1
  P  P24  1  0.957930  0.517534  0.875695  1
  P  P25  1  0.457638  0.483215  0.124357  1
  P  P26  1  0.227562  0.377180  0.459023  1
  P  P27  1  0.624163  0.292918  0.767071  1
  O  O28  1  0.641130  0.248115  0.918185  1
  O  O29  1  0.203239  0.225326  0.050784  1
  O  O30  1  0.741857  0.225993  0.193496  1
  O  O31  1  0.521947  0.201551  0.701922  1
  O  O32  1  0.265473  0.173959  0.812521  1
  O  O33  1  0.996870  0.166707  0.649478  1
  O  O34  1  0.417652  0.100782  0.002434  1
  O  O35  1  0.919835  0.061552  0.265126  1
  O  O36  1  0.524674  0.055336  0.240583  1
  O  O37  1  0.453521  0.049653  0.474974  1
  O  O38  1  0.188999  0.014758  0.580528  1
  O  O39  1  0.697785  0.008824  0.023888  1
  O  O40  1  0.197951  0.990880  0.976733  1
  O  O41  1  0.688562  0.984403  0.419006  1
  O  O42  1  0.953767  0.949210  0.524622  1
  O  O43  1  0.024983  0.945084  0.759062  1
  O  O44  1  0.419758  0.938863  0.734921  1
  O  O45  1  0.916755  0.896118  0.997736  1
  O  O46  1  0.496370  0.833195  0.347152  1
  O  O47  1  0.764976  0.825620  0.188203  1
  O  O48  1  0.022686  0.798720  0.297432  1
  O  O49  1  0.241666  0.774136  0.806433  1
  O  O50  1  0.700056  0.774733  0.950546  1
  O  O51  1  0.143113  0.751963  0.081299  1
  O  O52  1  0.346589  0.748385  0.583299  1
  O  O53  1  0.798527  0.728014  0.453380  1
  O  O54  1  0.260760  0.729268  0.297767  1
  O  O55  1  0.474455  0.701920  0.800706  1
  O  O56  1  0.735208  0.668510  0.688311  1
  O  O57  1  0.999880  0.669359  0.855934  1
  O  O58  1  0.581865  0.601373  0.498832  1
  O  O59  1  0.076393  0.562723  0.234960  1
  O  O60  1  0.481766  0.549141  0.258941  1
  O  O61  1  0.550276  0.547665  0.021949  1
  O  O62  1  0.812763  0.514758  0.923947  1
  O  O63  1  0.303206  0.509266  0.481207  1
  O  O64  1  0.803160  0.490978  0.518745  1
  O  O65  1  0.312558  0.485706  0.076195  1
  O  O66  1  0.051235  0.454718  0.978562  1
  O  O67  1  0.981854  0.450958  0.741343  1
  O  O68  1  0.575704  0.437772  0.765074  1
  O  O69  1  0.081917  0.399018  0.501111  1
  O  O70  1  0.499962  0.331228  0.143306  1
  O  O71  1  0.235561  0.331605  0.311830  1
  O  O72  1  0.974897  0.299242  0.201709  1
  O  O73  1  0.759560  0.271243  0.701295  1
  O  O74  1  0.298462  0.272052  0.546720  1
  O  O75  1  0.845419  0.251345  0.417301  1
