# generated using pymatgen
data_Ho16Sc4Si15Se
_symmetry_space_group_name_H-M   'P 1'
_cell_length_a   7.36126852
_cell_length_b   7.55064449
_cell_length_c   14.44208883
_cell_angle_alpha   89.65985093
_cell_angle_beta   85.90915364
_cell_angle_gamma   89.81001138
_symmetry_Int_Tables_number   1
_chemical_formula_structural   Ho16Sc4Si15Se
_chemical_formula_sum   'Ho16 Sc4 Si15 Se1'
_cell_volume   800.66216173
_cell_formula_units_Z   1
loop_
 _symmetry_equiv_pos_site_id
 _symmetry_equiv_pos_as_xyz
  1  'x, y, z'
loop_
 _atom_site_type_symbol
 _atom_site_label
 _atom_site_symmetry_multiplicity
 _atom_site_fract_x
 _atom_site_fract_y
 _atom_site_fract_z
 _atom_site_occupancy
  Ho  Ho0  1  0.015162  0.829554  0.104331  1
  Ho  Ho1  1  0.477256  0.684793  0.398373  1
  Ho  Ho2  1  0.483191  0.313932  0.897421  1
  Ho  Ho3  1  0.023151  0.182808  0.601722  1
  Ho  Ho4  1  0.993126  0.173083  0.898431  1
  Ho  Ho5  1  0.522459  0.314844  0.601370  1
  Ho  Ho6  1  0.504184  0.687697  0.103277  1
  Ho  Ho7  1  0.976413  0.815085  0.398238  1
  Ho  Ho8  1  0.639042  0.837339  0.878121  1
  Ho  Ho9  1  0.174800  0.673518  0.624368  1
  Ho  Ho10  1  0.860165  0.335297  0.120025  1
  Ho  Ho11  1  0.326380  0.175842  0.376554  1
  Ho  Ho12  1  0.359755  0.167306  0.121403  1
  Ho  Ho13  1  0.825537  0.326676  0.376426  1
  Ho  Ho14  1  0.142605  0.664831  0.880871  1
  Ho  Ho15  1  0.674525  0.823930  0.624623  1
  Sc  Sc16  1  0.672707  0.995310  0.246353  1
  Sc  Sc17  1  0.171308  0.507444  0.245478  1
  Sc  Sc18  1  0.829217  0.490660  0.747177  1
  Sc  Sc19  1  0.327521  0.005425  0.753509  1
  Si  Si20  1  0.791116  0.636684  0.250243  1
  Si  Si21  1  0.290676  0.866287  0.252068  1
  Si  Si22  1  0.708301  0.135320  0.749370  1
  Si  Si23  1  0.206605  0.362756  0.749847  1
  Si  Si24  1  0.039685  0.108675  0.251775  1
  Si  Si25  1  0.540665  0.396334  0.249825  1
  Si  Si26  1  0.460449  0.603831  0.751115  1
  Si  Si27  1  0.960580  0.892429  0.750302  1
  Si  Si28  1  0.354628  0.971811  0.543882  1
  Si  Si29  1  0.709081  0.030387  0.044103  1
  Si  Si30  1  0.147486  0.472460  0.457137  1
  Si  Si31  1  0.210727  0.473770  0.046870  1
  Si  Si32  1  0.647613  0.027517  0.456702  1
  Si  Si33  1  0.295244  0.967497  0.955268  1
  Si  Si34  1  0.853844  0.526289  0.544152  1
  Se  Se35  1  0.784794  0.522579  0.949271  1
