# generated using pymatgen
data_ScTl2Os3Pb2O13
_symmetry_space_group_name_H-M   'P 1'
_cell_length_a   7.46965984
_cell_length_b   7.53015951
_cell_length_c   7.53015712
_cell_angle_alpha   59.08786144
_cell_angle_beta   59.15254788
_cell_angle_gamma   59.15254326
_symmetry_Int_Tables_number   1
_chemical_formula_structural   ScTl2Os3Pb2O13
_chemical_formula_sum   'Sc1 Tl2 Os3 Pb2 O13'
_cell_volume   293.56553616
_cell_formula_units_Z   1
loop_
 _symmetry_equiv_pos_site_id
 _symmetry_equiv_pos_as_xyz
  1  'x, y, z'
loop_
 _atom_site_type_symbol
 _atom_site_label
 _atom_site_symmetry_multiplicity
 _atom_site_fract_x
 _atom_site_fract_y
 _atom_site_fract_z
 _atom_site_occupancy
  Sc  Sc0  1  0.499500  0.500866  0.500866  1
  Tl  Tl1  1  0.995852  0.996340  0.996340  1
  Tl  Tl2  1  0.515662  0.995627  0.995627  1
  Os  Os3  1  0.999833  0.500668  0.500668  1
  Os  Os4  1  0.500276  0.500317  0.999653  1
  Os  Os5  1  0.500276  0.999653  0.500317  1
  Pb  Pb6  1  0.001578  0.005192  0.497908  1
  Pb  Pb7  1  0.001578  0.497908  0.005192  1
  O  O8  1  0.844103  0.420472  0.420472  1
  O  O9  1  0.429430  0.810402  0.810402  1
  O  O10  1  0.416868  0.434943  0.839957  1
  O  O11  1  0.808507  0.806912  0.426682  1
  O  O12  1  0.808507  0.426682  0.806912  1
  O  O13  1  0.416868  0.839957  0.434943  1
  O  O14  1  0.158236  0.577440  0.577440  1
  O  O15  1  0.570589  0.190083  0.190083  1
  O  O16  1  0.581185  0.562449  0.162916  1
  O  O17  1  0.191143  0.192920  0.572574  1
  O  O18  1  0.191143  0.572574  0.192920  1
  O  O19  1  0.581185  0.162916  0.562449  1
  O  O20  1  0.112684  0.130680  0.130680  1
