# generated using pymatgen
data_Dy15Th(HgPt)4
_symmetry_space_group_name_H-M   'P 1'
_cell_length_a   9.65371008
_cell_length_b   9.65370953
_cell_length_c   9.65370912
_cell_angle_alpha   60.44462537
_cell_angle_beta   60.44462695
_cell_angle_gamma   60.44462798
_symmetry_Int_Tables_number   1
_chemical_formula_structural   Dy15Th(HgPt)4
_chemical_formula_sum   'Dy15 Th1 Hg4 Pt4'
_cell_volume   642.55674338
_cell_formula_units_Z   1
loop_
 _symmetry_equiv_pos_site_id
 _symmetry_equiv_pos_as_xyz
  1  'x, y, z'
loop_
 _atom_site_type_symbol
 _atom_site_label
 _atom_site_symmetry_multiplicity
 _atom_site_fract_x
 _atom_site_fract_y
 _atom_site_fract_z
 _atom_site_occupancy
  Dy  Dy0  1  0.356573  0.356573  0.931973  1
  Dy  Dy1  1  0.356573  0.931973  0.356573  1
  Dy  Dy2  1  0.931973  0.356573  0.356573  1
  Dy  Dy3  1  0.812820  0.189017  0.189017  1
  Dy  Dy4  1  0.190956  0.810521  0.810521  1
  Dy  Dy5  1  0.189017  0.812820  0.189017  1
  Dy  Dy6  1  0.810521  0.190956  0.810521  1
  Dy  Dy7  1  0.189017  0.189017  0.812820  1
  Dy  Dy8  1  0.810521  0.810521  0.190956  1
  Dy  Dy9  1  0.936808  0.566090  0.566090  1
  Dy  Dy10  1  0.563368  0.937287  0.937287  1
  Dy  Dy11  1  0.566090  0.936808  0.566090  1
  Dy  Dy12  1  0.937287  0.563367  0.937287  1
  Dy  Dy13  1  0.566090  0.566090  0.936808  1
  Dy  Dy14  1  0.937287  0.937287  0.563367  1
  Th  Th15  1  0.350384  0.350384  0.350384  1
  Hg  Hg16  1  0.585990  0.585990  0.585990  1
  Hg  Hg17  1  0.587370  0.587370  0.238676  1
  Hg  Hg18  1  0.587370  0.238676  0.587370  1
  Hg  Hg19  1  0.238676  0.587370  0.587370  1
  Pt  Pt20  1  0.145570  0.145570  0.145570  1
  Pt  Pt21  1  0.140194  0.140194  0.569353  1
  Pt  Pt22  1  0.140194  0.569353  0.140194  1
  Pt  Pt23  1  0.569353  0.140194  0.140194  1
