# generated using pymatgen
data_NaPr3Te4
_symmetry_space_group_name_H-M   'P 1'
_cell_length_a   9.06342850
_cell_length_b   9.06342831
_cell_length_c   9.11600200
_cell_angle_alpha   59.80792280
_cell_angle_beta   59.80792352
_cell_angle_gamma   59.78753917
_symmetry_Int_Tables_number   1
_chemical_formula_structural   NaPr3Te4
_chemical_formula_sum   'Na2 Pr6 Te8'
_cell_volume   527.11979189
_cell_formula_units_Z   2
loop_
 _symmetry_equiv_pos_site_id
 _symmetry_equiv_pos_as_xyz
  1  'x, y, z'
loop_
 _atom_site_type_symbol
 _atom_site_label
 _atom_site_symmetry_multiplicity
 _atom_site_fract_x
 _atom_site_fract_y
 _atom_site_fract_z
 _atom_site_occupancy
  Na  Na0  1  0.125000  0.625000  0.125000  1
  Na  Na1  1  0.625000  0.125000  0.125000  1
  Pr  Pr2  1  0.625000  0.125000  0.625000  1
  Pr  Pr3  1  0.625000  0.625000  0.625000  1
  Pr  Pr4  1  0.125000  0.625000  0.625000  1
  Pr  Pr5  1  0.625000  0.625000  0.125000  1
  Pr  Pr6  1  0.125000  0.125000  0.625000  1
  Pr  Pr7  1  0.125000  0.125000  0.125000  1
  Te  Te8  1  0.377629  0.877862  0.372255  1
  Te  Te9  1  0.872371  0.372138  0.877745  1
  Te  Te10  1  0.875073  0.875073  0.373249  1
  Te  Te11  1  0.875073  0.875073  0.876606  1
  Te  Te12  1  0.877862  0.377629  0.372255  1
  Te  Te13  1  0.374927  0.374927  0.876751  1
  Te  Te14  1  0.374927  0.374927  0.373394  1
  Te  Te15  1  0.372138  0.872371  0.877745  1
