# generated using pymatgen
data_PrTiAl4Pt3
_symmetry_space_group_name_H-M   'P 1'
_cell_length_a   4.23137500
_cell_length_b   7.35458651
_cell_length_c   20.82611038
_cell_angle_alpha   88.59075354
_cell_angle_beta   90.00000000
_cell_angle_gamma   90.00000000
_symmetry_Int_Tables_number   1
_chemical_formula_structural   PrTiAl4Pt3
_chemical_formula_sum   'Pr4 Ti4 Al16 Pt12'
_cell_volume   647.91280477
_cell_formula_units_Z   4
loop_
 _symmetry_equiv_pos_site_id
 _symmetry_equiv_pos_as_xyz
  1  'x, y, z'
loop_
 _atom_site_type_symbol
 _atom_site_label
 _atom_site_symmetry_multiplicity
 _atom_site_fract_x
 _atom_site_fract_y
 _atom_site_fract_z
 _atom_site_occupancy
  Pr  Pr0  1  0.250000  0.120283  0.643291  1
  Pr  Pr1  1  0.750000  0.882405  0.357402  1
  Pr  Pr2  1  0.250000  0.374235  0.141710  1
  Pr  Pr3  1  0.750000  0.612311  0.858898  1
  Ti  Ti4  1  0.750000  0.370976  0.382581  1
  Ti  Ti5  1  0.750000  0.888631  0.985214  1
  Ti  Ti6  1  0.750000  0.702816  0.197503  1
  Ti  Ti7  1  0.250000  0.866497  0.495045  1
  Al  Al8  1  0.250000  0.620494  0.989888  1
  Al  Al9  1  0.250000  0.310624  0.798430  1
  Al  Al10  1  0.750000  0.081231  0.211553  1
  Al  Al11  1  0.250000  0.638162  0.617399  1
  Al  Al12  1  0.250000  0.573305  0.292380  1
  Al  Al13  1  0.250000  0.188382  0.299911  1
  Al  Al14  1  0.750000  0.148544  0.882819  1
  Al  Al15  1  0.250000  0.923150  0.791711  1
  Al  Al16  1  0.750000  0.359899  0.004778  1
  Al  Al17  1  0.750000  0.618353  0.483409  1
  Al  Al18  1  0.750000  0.136296  0.507667  1
  Al  Al19  1  0.250000  0.116062  0.019627  1
  Al  Al20  1  0.250000  0.844597  0.112701  1
  Al  Al21  1  0.250000  0.386765  0.516320  1
  Al  Al22  1  0.750000  0.430359  0.708449  1
  Al  Al23  1  0.750000  0.814012  0.702042  1
  Pt  Pt24  1  0.750000  0.388700  0.260792  1
  Pt  Pt25  1  0.250000  0.885484  0.235037  1
  Pt  Pt26  1  0.250000  0.619231  0.737734  1
  Pt  Pt27  1  0.750000  0.116884  0.763859  1
  Pt  Pt28  1  0.250000  0.161081  0.427118  1
  Pt  Pt29  1  0.750000  0.421314  0.584400  1
  Pt  Pt30  1  0.750000  0.080691  0.087338  1
  Pt  Pt31  1  0.250000  0.919356  0.916462  1
  Pt  Pt32  1  0.750000  0.838085  0.574383  1
  Pt  Pt33  1  0.250000  0.331472  0.925885  1
  Pt  Pt34  1  0.750000  0.645349  0.070801  1
  Pt  Pt35  1  0.250000  0.583963  0.415466  1
