# generated using pymatgen
data_U4MnZn2Ir5
_symmetry_space_group_name_H-M   'P 1'
_cell_length_a   5.46046288
_cell_length_b   5.46046283
_cell_length_c   7.97972700
_cell_angle_alpha   90.00000000
_cell_angle_beta   90.00000000
_cell_angle_gamma   118.39912755
_symmetry_Int_Tables_number   1
_chemical_formula_structural   U4MnZn2Ir5
_chemical_formula_sum   'U4 Mn1 Zn2 Ir5'
_cell_volume   209.29542061
_cell_formula_units_Z   1
loop_
 _symmetry_equiv_pos_site_id
 _symmetry_equiv_pos_as_xyz
  1  'x, y, z'
loop_
 _atom_site_type_symbol
 _atom_site_label
 _atom_site_symmetry_multiplicity
 _atom_site_fract_x
 _atom_site_fract_y
 _atom_site_fract_z
 _atom_site_occupancy
  U  U0  1  0.660951  0.338992  0.578520  1
  U  U1  1  0.335346  0.664689  0.431341  1
  U  U2  1  0.335346  0.664689  0.068659  1
  U  U3  1  0.660951  0.338992  0.921480  1
  Mn  Mn4  1  0.829614  0.170410  0.250000  1
  Zn  Zn5  1  0.995343  0.004653  0.004057  1
  Zn  Zn6  1  0.995343  0.004653  0.495943  1
  Ir  Ir7  1  0.168863  0.337879  0.750000  1
  Ir  Ir8  1  0.662080  0.831080  0.750000  1
  Ir  Ir9  1  0.169566  0.830381  0.750000  1
  Ir  Ir10  1  0.838211  0.651655  0.250000  1
  Ir  Ir11  1  0.348387  0.161931  0.250000  1
