# generated using pymatgen
data_Ho2ZnRuPt
_symmetry_space_group_name_H-M   'P 1'
_cell_length_a   5.48140511
_cell_length_b   5.48140608
_cell_length_c   5.48140598
_cell_angle_alpha   135.62408551
_cell_angle_beta   114.89361615
_cell_angle_gamma   82.20081884
_symmetry_Int_Tables_number   1
_chemical_formula_structural   Ho2ZnRuPt
_chemical_formula_sum   'Ho2 Zn1 Ru1 Pt1'
_cell_volume   100.87574758
_cell_formula_units_Z   1
loop_
 _symmetry_equiv_pos_site_id
 _symmetry_equiv_pos_as_xyz
  1  'x, y, z'
loop_
 _atom_site_type_symbol
 _atom_site_label
 _atom_site_symmetry_multiplicity
 _atom_site_fract_x
 _atom_site_fract_y
 _atom_site_fract_z
 _atom_site_occupancy
  Ho  Ho0  1  0.699764  0.203213  0.496551  1
  Ho  Ho1  1  0.293339  0.796786  0.496551  1
  Zn  Zn2  1  0.011185  0.000000  0.011185  1
  Ru  Ru3  1  0.265056  0.499999  0.765055  1
  Pt  Pt4  1  0.730654  0.500000  0.230654  1
