# generated using pymatgen
data_Lu3Th(GaCo)4
_symmetry_space_group_name_H-M   'P 1'
_cell_length_a   4.04952200
_cell_length_b   6.64202893
_cell_length_c   7.59155600
_cell_angle_alpha   89.87853373
_cell_angle_beta   90.00000000
_cell_angle_gamma   90.00000000
_symmetry_Int_Tables_number   1
_chemical_formula_structural   Lu3Th(GaCo)4
_chemical_formula_sum   'Lu3 Th1 Ga4 Co4'
_cell_volume   204.18994370
_cell_formula_units_Z   1
loop_
 _symmetry_equiv_pos_site_id
 _symmetry_equiv_pos_as_xyz
  1  'x, y, z'
loop_
 _atom_site_type_symbol
 _atom_site_label
 _atom_site_symmetry_multiplicity
 _atom_site_fract_x
 _atom_site_fract_y
 _atom_site_fract_z
 _atom_site_occupancy
  Lu  Lu0  1  0.250000  0.527865  0.691640  1
  Lu  Lu1  1  0.250000  0.029239  0.815881  1
  Lu  Lu2  1  0.750000  0.972468  0.181035  1
  Th  Th3  1  0.750000  0.472882  0.320968  1
  Ga  Ga4  1  0.750000  0.345416  0.930353  1
  Ga  Ga5  1  0.250000  0.136038  0.440022  1
  Ga  Ga6  1  0.250000  0.662570  0.056281  1
  Ga  Ga7  1  0.750000  0.855884  0.566648  1
  Co  Co8  1  0.750000  0.231632  0.618165  1
  Co  Co9  1  0.250000  0.760061  0.378573  1
  Co  Co10  1  0.750000  0.732625  0.877921  1
  Co  Co11  1  0.250000  0.273320  0.122514  1
