# generated using pymatgen
data_Ca6VGa4Sn5O24
_symmetry_space_group_name_H-M   'P 1'
_cell_length_a   11.11057769
_cell_length_b   11.11057747
_cell_length_c   11.11057800
_cell_angle_alpha   109.53847118
_cell_angle_beta   109.53847091
_cell_angle_gamma   109.33680703
_symmetry_Int_Tables_number   1
_chemical_formula_structural   Ca6VGa4Sn5O24
_chemical_formula_sum   'Ca12 V2 Ga8 Sn10 O48'
_cell_volume   1055.81109713
_cell_formula_units_Z   2
loop_
 _symmetry_equiv_pos_site_id
 _symmetry_equiv_pos_as_xyz
  1  'x, y, z'
loop_
 _atom_site_type_symbol
 _atom_site_label
 _atom_site_symmetry_multiplicity
 _atom_site_fract_x
 _atom_site_fract_y
 _atom_site_fract_z
 _atom_site_occupancy
  Ca  Ca0  1  0.503264  0.003264  0.500000  1
  Ca  Ca1  1  0.746736  0.746736  0.000000  1
  Ca  Ca2  1  0.752158  0.375000  0.877158  1
  Ca  Ca3  1  0.497842  0.875000  0.122842  1
  Ca  Ca4  1  0.125000  0.747714  0.122714  1
  Ca  Ca5  1  0.625000  0.002286  0.877286  1
  Ca  Ca6  1  0.253264  0.253264  0.000000  1
  Ca  Ca7  1  0.996736  0.496736  0.500000  1
  Ca  Ca8  1  0.997714  0.875000  0.622714  1
  Ca  Ca9  1  0.252286  0.375000  0.377286  1
  Ca  Ca10  1  0.625000  0.502158  0.377158  1
  Ca  Ca11  1  0.125000  0.247842  0.622842  1
  V  V12  1  0.750000  0.250000  0.500000  1
  V  V13  1  0.500000  0.500000  0.000000  1
  Ga  Ga14  1  0.001128  0.375000  0.126128  1
  Ga  Ga15  1  0.248872  0.875000  0.873872  1
  Ga  Ga16  1  0.125000  0.998872  0.373872  1
  Ga  Ga17  1  0.625000  0.751128  0.626128  1
  Ga  Ga18  1  0.748229  0.875000  0.373229  1
  Ga  Ga19  1  0.501771  0.375000  0.626771  1
  Ga  Ga20  1  0.625000  0.251771  0.126771  1
  Ga  Ga21  1  0.125000  0.498229  0.873229  1
  Sn  Sn22  1  0.377862  0.127526  0.751890  1
  Sn  Sn23  1  0.375635  0.625972  0.248110  1
  Sn  Sn24  1  0.874365  0.622474  0.750336  1
  Sn  Sn25  1  0.872138  0.124028  0.249664  1
  Sn  Sn26  1  0.875972  0.125635  0.748110  1
  Sn  Sn27  1  0.872474  0.624365  0.250336  1
  Sn  Sn28  1  0.377526  0.127862  0.251890  1
  Sn  Sn29  1  0.374028  0.622138  0.749664  1
  Sn  Sn30  1  0.000000  0.000000  0.000000  1
  Sn  Sn31  1  0.250000  0.750000  0.500000  1
  O  O32  1  0.410394  0.950416  0.656440  1
  O  O33  1  0.293976  0.753955  0.343560  1
  O  O34  1  0.956024  0.799584  0.959978  1
  O  O35  1  0.839606  0.996045  0.040022  1
  O  O36  1  0.695600  0.524782  0.774530  1
  O  O37  1  0.499749  0.225218  0.670818  1
  O  O38  1  0.554400  0.828930  0.329182  1
  O  O39  1  0.750251  0.921070  0.225470  1
  O  O40  1  0.276430  0.646037  0.066054  1
  O  O41  1  0.973570  0.539624  0.869607  1
  O  O42  1  0.579984  0.210376  0.933946  1
  O  O43  1  0.670016  0.103963  0.130393  1
  O  O44  1  0.355129  0.312941  0.852989  1
  O  O45  1  0.459952  0.502139  0.147011  1
  O  O46  1  0.790048  0.437059  0.542188  1
  O  O47  1  0.894871  0.247861  0.457812  1
  O  O48  1  0.053749  0.724889  0.728362  1
  O  O49  1  0.253472  0.025111  0.828860  1
  O  O50  1  0.196251  0.424613  0.171140  1
  O  O51  1  0.996528  0.325387  0.271638  1
  O  O52  1  0.474052  0.606418  0.431343  1
  O  O53  1  0.775948  0.707291  0.632366  1
  O  O54  1  0.175075  0.042709  0.568657  1
  O  O55  1  0.074925  0.143582  0.367634  1
  O  O56  1  0.896037  0.026430  0.566054  1
  O  O57  1  0.789624  0.723570  0.369607  1
  O  O58  1  0.460376  0.329984  0.433946  1
  O  O59  1  0.353963  0.420016  0.630393  1
  O  O60  1  0.200416  0.160394  0.156440  1
  O  O61  1  0.003955  0.043976  0.843560  1
  O  O62  1  0.049584  0.706024  0.459978  1
  O  O63  1  0.246045  0.589606  0.540022  1
  O  O64  1  0.774782  0.445600  0.274530  1
  O  O65  1  0.475218  0.249749  0.170818  1
  O  O66  1  0.078930  0.304400  0.829182  1
  O  O67  1  0.171070  0.500251  0.725470  1
  O  O68  1  0.856418  0.224052  0.931343  1
  O  O69  1  0.957291  0.525948  0.132366  1
  O  O70  1  0.292709  0.925075  0.068657  1
  O  O71  1  0.393582  0.824925  0.867634  1
  O  O72  1  0.562941  0.105129  0.352989  1
  O  O73  1  0.752139  0.209952  0.647011  1
  O  O74  1  0.687059  0.540048  0.042188  1
  O  O75  1  0.497861  0.644871  0.957812  1
  O  O76  1  0.974889  0.803749  0.228362  1
  O  O77  1  0.275111  0.003472  0.328860  1
  O  O78  1  0.674613  0.946251  0.671140  1
  O  O79  1  0.575387  0.746528  0.771638  1
