# generated using pymatgen
data_Hf3Co8TcAs6
_symmetry_space_group_name_H-M   'P 1'
_cell_length_a   12.37994071
_cell_length_b   12.38006655
_cell_length_c   3.75497300
_cell_angle_alpha   90.00000000
_cell_angle_beta   90.00000000
_cell_angle_gamma   120.00034772
_symmetry_Int_Tables_number   1
_chemical_formula_structural   Hf3Co8TcAs6
_chemical_formula_sum   'Hf6 Co16 Tc2 As12'
_cell_volume   498.39935595
_cell_formula_units_Z   2
loop_
 _symmetry_equiv_pos_site_id
 _symmetry_equiv_pos_as_xyz
  1  'x, y, z'
loop_
 _atom_site_type_symbol
 _atom_site_label
 _atom_site_symmetry_multiplicity
 _atom_site_fract_x
 _atom_site_fract_y
 _atom_site_fract_z
 _atom_site_occupancy
  Hf  Hf0  1  0.822928  0.819257  0.500000  1
  Hf  Hf1  1  0.000000  0.172006  0.500000  1
  Hf  Hf2  1  0.334789  0.667070  0.000000  1
  Hf  Hf3  1  0.665211  0.332280  0.000000  1
  Hf  Hf4  1  0.000000  0.557588  0.000000  1
  Hf  Hf5  1  0.177072  0.996329  0.500000  1
  Co  Co6  1  0.623691  0.822007  0.000000  1
  Co  Co7  1  0.376309  0.198316  0.000000  1
  Co  Co8  1  0.000000  0.718171  0.500000  1
  Co  Co9  1  0.281860  0.281872  0.500000  1
  Co  Co10  1  0.872935  0.352450  0.500000  1
  Co  Co11  1  0.718140  0.000012  0.500000  1
  Co  Co12  1  0.817506  0.626692  0.000000  1
  Co  Co13  1  0.182494  0.809185  0.000000  1
  Co  Co14  1  0.357934  0.878329  0.500000  1
  Co  Co15  1  0.127065  0.479515  0.500000  1
  Co  Co16  1  0.642066  0.520395  0.500000  1
  Co  Co17  1  0.000000  0.999954  0.000000  1
  Co  Co18  1  0.515536  0.646497  0.500000  1
  Co  Co19  1  0.484464  0.130962  0.500000  1
  Co  Co20  1  0.196965  0.371496  0.000000  1
  Co  Co21  1  0.803035  0.174531  0.000000  1
  Tc  Tc22  1  0.445922  0.447821  0.000000  1
  Tc  Tc23  1  0.554078  0.001899  0.000000  1
  As  As24  1  0.000000  0.345318  0.000000  1
  As  As25  1  0.823242  0.512513  0.500000  1
  As  As26  1  0.683807  0.167032  0.500000  1
  As  As27  1  0.177826  0.174287  0.000000  1
  As  As28  1  0.641356  0.645992  0.000000  1
  As  As29  1  0.822174  0.996461  0.000000  1
  As  As30  1  0.515746  0.834390  0.500000  1
  As  As31  1  0.176758  0.689269  0.500000  1
  As  As32  1  0.358644  0.004637  0.000000  1
  As  As33  1  0.484254  0.318645  0.500000  1
  As  As34  1  0.000000  0.823594  0.000000  1
  As  As35  1  0.316193  0.483224  0.500000  1
