# generated using pymatgen
data_Y3Er3Lu4(Si5Ir2)4
_symmetry_space_group_name_H-M   'P 1'
_cell_length_a   12.59149007
_cell_length_b   12.59149050
_cell_length_c   4.23486900
_cell_angle_alpha   90.00000000
_cell_angle_beta   90.00000000
_cell_angle_gamma   90.00332631
_symmetry_Int_Tables_number   1
_chemical_formula_structural   Y3Er3Lu4(Si5Ir2)4
_chemical_formula_sum   'Y3 Er3 Lu4 Si20 Ir8'
_cell_volume   671.41996237
_cell_formula_units_Z   1
loop_
 _symmetry_equiv_pos_site_id
 _symmetry_equiv_pos_as_xyz
  1  'x, y, z'
loop_
 _atom_site_type_symbol
 _atom_site_label
 _atom_site_symmetry_multiplicity
 _atom_site_fract_x
 _atom_site_fract_y
 _atom_site_fract_z
 _atom_site_occupancy
  Y  Y0  1  0.115959  0.615959  0.500000  1
  Y  Y1  1  0.383730  0.116206  0.500000  1
  Y  Y2  1  0.616206  0.883730  0.500000  1
  Er  Er3  1  0.676347  0.176347  0.500000  1
  Er  Er4  1  0.323685  0.823685  0.500000  1
  Er  Er5  1  0.883603  0.383603  0.500000  1
  Lu  Lu6  1  0.500315  0.499879  0.000000  1
  Lu  Lu7  1  0.999879  0.000315  0.000000  1
  Lu  Lu8  1  0.175638  0.324162  0.500000  1
  Lu  Lu9  1  0.824162  0.675638  0.500000  1
  Si  Si10  1  0.566203  0.066203  0.000000  1
  Si  Si11  1  0.433820  0.933820  0.000000  1
  Si  Si12  1  0.066214  0.433854  0.000000  1
  Si  Si13  1  0.933854  0.566214  0.000000  1
  Si  Si14  1  0.663737  0.700505  0.000000  1
  Si  Si15  1  0.336414  0.299041  0.000000  1
  Si  Si16  1  0.162724  0.798888  0.000000  1
  Si  Si17  1  0.836957  0.201395  0.000000  1
  Si  Si18  1  0.298888  0.662724  0.000000  1
  Si  Si19  1  0.701395  0.336957  0.000000  1
  Si  Si20  1  0.200505  0.163737  0.000000  1
  Si  Si21  1  0.799041  0.836414  0.000000  1
  Si  Si22  1  0.654994  0.503191  0.500000  1
  Si  Si23  1  0.345535  0.496423  0.500000  1
  Si  Si24  1  0.154400  0.997069  0.500000  1
  Si  Si25  1  0.845558  0.003527  0.500000  1
  Si  Si26  1  0.497069  0.654400  0.500000  1
  Si  Si27  1  0.503527  0.345558  0.500000  1
  Si  Si28  1  0.003191  0.154994  0.500000  1
  Si  Si29  1  0.996423  0.845535  0.500000  1
  Ir  Ir30  1  0.745771  0.521635  0.000000  1
  Ir  Ir31  1  0.255167  0.477417  0.000000  1
  Ir  Ir32  1  0.243993  0.978384  0.000000  1
  Ir  Ir33  1  0.755916  0.021745  0.000000  1
  Ir  Ir34  1  0.478384  0.743993  0.000000  1
  Ir  Ir35  1  0.521745  0.255916  0.000000  1
  Ir  Ir36  1  0.021635  0.245771  0.000000  1
  Ir  Ir37  1  0.977417  0.755167  0.000000  1
