# generated using pymatgen
data_YbB2IrRu
_symmetry_space_group_name_H-M   'P 1'
_cell_length_a   6.85860246
_cell_length_b   6.00495977
_cell_length_c   5.53735308
_cell_angle_alpha   72.78566784
_cell_angle_beta   56.75321363
_cell_angle_gamma   50.46111012
_symmetry_Int_Tables_number   1
_chemical_formula_structural   YbB2IrRu
_chemical_formula_sum   'Yb2 B4 Ir2 Ru2'
_cell_volume   146.59076816
_cell_formula_units_Z   2
loop_
 _symmetry_equiv_pos_site_id
 _symmetry_equiv_pos_as_xyz
  1  'x, y, z'
loop_
 _atom_site_type_symbol
 _atom_site_label
 _atom_site_symmetry_multiplicity
 _atom_site_fract_x
 _atom_site_fract_y
 _atom_site_fract_z
 _atom_site_occupancy
  Yb  Yb0  1  0.748839  0.748839  0.751161  1
  Yb  Yb1  1  0.498839  0.498839  0.501161  1
  B  B2  1  0.066692  0.433091  0.070373  1
  B  B3  1  0.820156  0.179627  0.816909  1
  B  B4  1  0.433091  0.066692  0.429844  1
  B  B5  1  0.179627  0.820156  0.183308  1
  Ir  Ir6  1  0.866725  0.866725  0.133275  1
  Ir  Ir7  1  0.116725  0.116725  0.383275  1
  Ru  Ru8  1  0.384652  0.384652  0.115348  1
  Ru  Ru9  1  0.134652  0.134652  0.865348  1
