# generated using pymatgen
data_Hf4IrPtO
_symmetry_space_group_name_H-M   'P 1'
_cell_length_a   8.75911020
_cell_length_b   8.75911073
_cell_length_c   8.75911100
_cell_angle_alpha   60.00000276
_cell_angle_beta   60.00000074
_cell_angle_gamma   59.99999815
_symmetry_Int_Tables_number   1
_chemical_formula_structural   Hf4IrPtO
_chemical_formula_sum   'Hf16 Ir4 Pt4 O4'
_cell_volume   475.18753990
_cell_formula_units_Z   4
loop_
 _symmetry_equiv_pos_site_id
 _symmetry_equiv_pos_as_xyz
  1  'x, y, z'
loop_
 _atom_site_type_symbol
 _atom_site_label
 _atom_site_symmetry_multiplicity
 _atom_site_fract_x
 _atom_site_fract_y
 _atom_site_fract_z
 _atom_site_occupancy
  Hf  Hf0  1  0.115622  0.628126  0.628126  1
  Hf  Hf1  1  0.628126  0.115622  0.628126  1
  Hf  Hf2  1  0.628126  0.628126  0.115622  1
  Hf  Hf3  1  0.628126  0.628126  0.628126  1
  Hf  Hf4  1  0.816055  0.816055  0.183945  1
  Hf  Hf5  1  0.183945  0.183945  0.816055  1
  Hf  Hf6  1  0.816055  0.183945  0.816055  1
  Hf  Hf7  1  0.183945  0.816055  0.183945  1
  Hf  Hf8  1  0.183945  0.816055  0.816055  1
  Hf  Hf9  1  0.816055  0.183945  0.183945  1
  Hf  Hf10  1  0.436959  0.436959  0.063041  1
  Hf  Hf11  1  0.063041  0.063041  0.436959  1
  Hf  Hf12  1  0.436959  0.063041  0.436959  1
  Hf  Hf13  1  0.063041  0.436959  0.063041  1
  Hf  Hf14  1  0.063041  0.436959  0.436959  1
  Hf  Hf15  1  0.436959  0.063041  0.063041  1
  Ir  Ir16  1  0.459189  0.846937  0.846937  1
  Ir  Ir17  1  0.846937  0.459189  0.846937  1
  Ir  Ir18  1  0.846937  0.846937  0.459189  1
  Ir  Ir19  1  0.846937  0.846937  0.846937  1
  Pt  Pt20  1  0.785037  0.404988  0.404988  1
  Pt  Pt21  1  0.404988  0.785037  0.404988  1
  Pt  Pt22  1  0.404988  0.404988  0.785037  1
  Pt  Pt23  1  0.404988  0.404988  0.404988  1
  O  O24  1  0.622887  0.125705  0.125705  1
  O  O25  1  0.125705  0.622887  0.125705  1
  O  O26  1  0.125705  0.125705  0.622887  1
  O  O27  1  0.125705  0.125705  0.125705  1
