# generated using pymatgen
data_Rb2UOF5
_symmetry_space_group_name_H-M   'P 1'
_cell_length_a   8.17737500
_cell_length_b   8.17737411
_cell_length_c   7.60806300
_cell_angle_alpha   90.00000000
_cell_angle_beta   90.00000000
_cell_angle_gamma   133.21425790
_symmetry_Int_Tables_number   1
_chemical_formula_structural   Rb2UOF5
_chemical_formula_sum   'Rb4 U2 O2 F10'
_cell_volume   370.77394407
_cell_formula_units_Z   2
loop_
 _symmetry_equiv_pos_site_id
 _symmetry_equiv_pos_as_xyz
  1  'x, y, z'
loop_
 _atom_site_type_symbol
 _atom_site_label
 _atom_site_symmetry_multiplicity
 _atom_site_fract_x
 _atom_site_fract_y
 _atom_site_fract_z
 _atom_site_occupancy
  Rb  Rb0  1  0.553706  0.446294  0.750000  1
  Rb  Rb1  1  0.446294  0.553706  0.250000  1
  Rb  Rb2  1  0.225738  0.774262  0.750000  1
  Rb  Rb3  1  0.774262  0.225738  0.250000  1
  U  U4  1  0.891260  0.108740  0.750000  1
  U  U5  1  0.108740  0.891260  0.250000  1
  O  O6  1  0.016302  0.983698  0.750000  1
  O  O7  1  0.983698  0.016302  0.250000  1
  F  F8  1  0.748831  0.251169  0.750000  1
  F  F9  1  0.251169  0.748831  0.250000  1
  F  F10  1  0.631143  0.874452  0.554189  1
  F  F11  1  0.874452  0.631143  0.445811  1
  F  F12  1  0.631143  0.874452  0.945811  1
  F  F13  1  0.874452  0.631143  0.054189  1
  F  F14  1  0.368857  0.125548  0.445811  1
  F  F15  1  0.125548  0.368857  0.554189  1
  F  F16  1  0.368857  0.125548  0.054189  1
  F  F17  1  0.125548  0.368857  0.945811  1
