# generated using pymatgen
data_DyNp9O20
_symmetry_space_group_name_H-M   'P 1'
_cell_length_a   6.59921679
_cell_length_b   7.61441600
_cell_length_c   8.51345048
_cell_angle_alpha   102.90311672
_cell_angle_beta   97.43253635
_cell_angle_gamma   106.78084208
_symmetry_Int_Tables_number   1
_chemical_formula_structural   DyNp9O20
_chemical_formula_sum   'Dy1 Np9 O20'
_cell_volume   390.52876395
_cell_formula_units_Z   1
loop_
 _symmetry_equiv_pos_site_id
 _symmetry_equiv_pos_as_xyz
  1  'x, y, z'
loop_
 _atom_site_type_symbol
 _atom_site_label
 _atom_site_symmetry_multiplicity
 _atom_site_fract_x
 _atom_site_fract_y
 _atom_site_fract_z
 _atom_site_occupancy
  Dy  Dy0  1  0.000000  0.000000  0.000000  1
  Np  Np1  1  0.800791  0.601265  0.601534  1
  Np  Np2  1  0.000000  0.500000  0.000000  1
  Np  Np3  1  0.599550  0.199008  0.198818  1
  Np  Np4  1  0.800401  0.099914  0.601516  1
  Np  Np5  1  0.601700  0.700959  0.199425  1
  Np  Np6  1  0.199209  0.398735  0.398466  1
  Np  Np7  1  0.398300  0.299041  0.800575  1
  Np  Np8  1  0.199599  0.900086  0.398484  1
  Np  Np9  1  0.400450  0.800992  0.801182  1
  O  O10  1  0.849638  0.324850  0.451436  1
  O  O11  1  0.644096  0.923414  0.051315  1
  O  O12  1  0.949516  0.770731  0.152581  1
  O  O13  1  0.850810  0.825732  0.450240  1
  O  O14  1  0.448305  0.523606  0.649892  1
  O  O15  1  0.649099  0.425347  0.049577  1
  O  O16  1  0.748104  0.374275  0.750317  1
  O  O17  1  0.254535  0.126920  0.254205  1
  O  O18  1  0.448806  0.025351  0.649037  1
  O  O19  1  0.948980  0.280126  0.152263  1
  O  O20  1  0.551194  0.974649  0.350963  1
  O  O21  1  0.051020  0.719874  0.847737  1
  O  O22  1  0.251896  0.625725  0.249683  1
  O  O23  1  0.745465  0.873080  0.745795  1
  O  O24  1  0.350901  0.574653  0.950423  1
  O  O25  1  0.050484  0.229269  0.847419  1
  O  O26  1  0.551695  0.476394  0.350108  1
  O  O27  1  0.149190  0.174268  0.549760  1
  O  O28  1  0.355904  0.076586  0.948685  1
  O  O29  1  0.150362  0.675150  0.548564  1
