# generated using pymatgen
data_Pr3Dy3Y2(CdPt)2
_symmetry_space_group_name_H-M   'P 1'
_cell_length_a   9.82257260
_cell_length_b   9.83089246
_cell_length_c   9.83089152
_cell_angle_alpha   59.94401194
_cell_angle_beta   60.02798989
_cell_angle_gamma   60.02798872
_symmetry_Int_Tables_number   1
_chemical_formula_structural   Pr3Dy3Y2(CdPt)2
_chemical_formula_sum   'Pr6 Dy6 Y4 Cd4 Pt4'
_cell_volume   671.26723001
_cell_formula_units_Z   2
loop_
 _symmetry_equiv_pos_site_id
 _symmetry_equiv_pos_as_xyz
  1  'x, y, z'
loop_
 _atom_site_type_symbol
 _atom_site_label
 _atom_site_symmetry_multiplicity
 _atom_site_fract_x
 _atom_site_fract_y
 _atom_site_fract_z
 _atom_site_occupancy
  Pr  Pr0  1  0.938007  0.561993  0.561993  1
  Pr  Pr1  1  0.561993  0.938007  0.938007  1
  Pr  Pr2  1  0.561904  0.938096  0.561904  1
  Pr  Pr3  1  0.938096  0.561904  0.938096  1
  Pr  Pr4  1  0.561904  0.561904  0.938096  1
  Pr  Pr5  1  0.938096  0.938096  0.561904  1
  Dy  Dy6  1  0.349903  0.349978  0.349978  1
  Dy  Dy7  1  0.349978  0.349903  0.950141  1
  Dy  Dy8  1  0.349978  0.950141  0.349903  1
  Dy  Dy9  1  0.950141  0.349978  0.349978  1
  Dy  Dy10  1  0.811163  0.188837  0.188837  1
  Dy  Dy11  1  0.188837  0.811163  0.811163  1
  Y  Y12  1  0.188982  0.811018  0.188982  1
  Y  Y13  1  0.811018  0.188982  0.811018  1
  Y  Y14  1  0.188982  0.188982  0.811018  1
  Y  Y15  1  0.811018  0.811018  0.188982  1
  Cd  Cd16  1  0.579641  0.579445  0.579445  1
  Cd  Cd17  1  0.579445  0.579641  0.261466  1
  Cd  Cd18  1  0.579445  0.261466  0.579641  1
  Cd  Cd19  1  0.261466  0.579445  0.579445  1
  Pt  Pt20  1  0.142241  0.143002  0.143002  1
  Pt  Pt21  1  0.143002  0.142241  0.571754  1
  Pt  Pt22  1  0.143002  0.571754  0.142241  1
  Pt  Pt23  1  0.571754  0.143002  0.143002  1
