# generated using pymatgen
data_LiLa6RuBr12
_symmetry_space_group_name_H-M   'P 1'
_cell_length_a   9.94566905
_cell_length_b   9.57842712
_cell_length_c   9.75083311
_cell_angle_alpha   107.78496582
_cell_angle_beta   108.62881741
_cell_angle_gamma   108.04636526
_symmetry_Int_Tables_number   1
_chemical_formula_structural   LiLa6RuBr12
_chemical_formula_sum   'Li1 La6 Ru1 Br12'
_cell_volume   747.89259057
_cell_formula_units_Z   1
loop_
 _symmetry_equiv_pos_site_id
 _symmetry_equiv_pos_as_xyz
  1  'x, y, z'
loop_
 _atom_site_type_symbol
 _atom_site_label
 _atom_site_symmetry_multiplicity
 _atom_site_fract_x
 _atom_site_fract_y
 _atom_site_fract_z
 _atom_site_occupancy
  Li  Li0  1  0.500000  0.500000  0.500000  1
  La  La1  1  0.337751  0.132606  0.036176  1
  La  La2  1  0.032470  0.307078  0.114860  1
  La  La3  1  0.124453  0.034787  0.324561  1
  La  La4  1  0.875547  0.965213  0.675440  1
  La  La5  1  0.967530  0.692923  0.885141  1
  La  La6  1  0.662250  0.867394  0.963825  1
  Ru  Ru7  1  0.000000  0.000000  0.000000  1
  Br  Br8  1  0.686714  0.209743  0.066995  1
  Br  Br9  1  0.381121  0.472499  0.185085  1
  Br  Br10  1  0.066199  0.681342  0.210908  1
  Br  Br11  1  0.794586  0.934693  0.317355  1
  Br  Br12  1  0.465650  0.182244  0.381138  1
  Br  Br13  1  0.185491  0.385067  0.468928  1
  Br  Br14  1  0.814509  0.614934  0.531072  1
  Br  Br15  1  0.534350  0.817757  0.618862  1
  Br  Br16  1  0.205415  0.065308  0.682645  1
  Br  Br17  1  0.933801  0.318658  0.789093  1
  Br  Br18  1  0.618880  0.527501  0.814915  1
  Br  Br19  1  0.313287  0.790257  0.933005  1
