# generated using pymatgen
data_LiTm6Co16P12Ru
_symmetry_space_group_name_H-M   'P 1'
_cell_length_a   3.68855200
_cell_length_b   10.51711800
_cell_length_c   12.17018000
_cell_angle_alpha   90.00000000
_cell_angle_beta   90.00000000
_cell_angle_gamma   90.00000000
_symmetry_Int_Tables_number   1
_chemical_formula_structural   LiTm6Co16P12Ru
_chemical_formula_sum   'Li1 Tm6 Co16 P12 Ru1'
_cell_volume   472.11702155
_cell_formula_units_Z   1
loop_
 _symmetry_equiv_pos_site_id
 _symmetry_equiv_pos_as_xyz
  1  'x, y, z'
loop_
 _atom_site_type_symbol
 _atom_site_label
 _atom_site_symmetry_multiplicity
 _atom_site_fract_x
 _atom_site_fract_y
 _atom_site_fract_z
 _atom_site_occupancy
  Li  Li0  1  0.500000  0.500000  0.154131  1
  Tm  Tm1  1  0.000000  0.500000  0.523018  1
  Tm  Tm2  1  0.500000  0.000000  0.474808  1
  Tm  Tm3  1  0.500000  0.818558  0.206055  1
  Tm  Tm4  1  0.500000  0.181442  0.206055  1
  Tm  Tm5  1  0.000000  0.682154  0.793736  1
  Tm  Tm6  1  0.000000  0.317846  0.793736  1
  Co  Co7  1  0.500000  0.500000  0.703947  1
  Co  Co8  1  0.000000  0.000000  0.297052  1
  Co  Co9  1  0.000000  0.500000  0.985310  1
  Co  Co10  1  0.500000  0.000000  0.011961  1
  Co  Co11  1  0.500000  0.331169  0.994891  1
  Co  Co12  1  0.500000  0.668831  0.994891  1
  Co  Co13  1  0.000000  0.166071  0.007164  1
  Co  Co14  1  0.000000  0.833929  0.007164  1
  Co  Co15  1  0.500000  0.295991  0.432794  1
  Co  Co16  1  0.500000  0.704009  0.432794  1
  Co  Co17  1  0.000000  0.202143  0.570487  1
  Co  Co18  1  0.000000  0.797857  0.570487  1
  Co  Co19  1  0.500000  0.878974  0.707433  1
  Co  Co20  1  0.500000  0.121026  0.707433  1
  Co  Co21  1  0.000000  0.622945  0.293528  1
  Co  Co22  1  0.000000  0.377055  0.293528  1
  P  P23  1  0.500000  0.500000  0.883462  1
  P  P24  1  0.000000  0.000000  0.118706  1
  P  P25  1  0.500000  0.500000  0.347462  1
  P  P26  1  0.000000  0.000000  0.647770  1
  P  P27  1  0.500000  0.312129  0.616966  1
  P  P28  1  0.500000  0.687871  0.616966  1
  P  P29  1  0.000000  0.188561  0.384053  1
  P  P30  1  0.000000  0.811439  0.384053  1
  P  P31  1  0.500000  0.844754  0.892248  1
  P  P32  1  0.500000  0.155246  0.892248  1
  P  P33  1  0.000000  0.655734  0.107227  1
  P  P34  1  0.000000  0.344266  0.107227  1
  Ru  Ru35  1  0.000000  0.000000  0.839209  1
