# generated using pymatgen
data_Pr7Sm(SBr6)2
_symmetry_space_group_name_H-M   'P 1'
_cell_length_a   4.12745100
_cell_length_b   13.54275997
_cell_length_c   14.29066700
_cell_angle_alpha   90.46965029
_cell_angle_beta   90.00000000
_cell_angle_gamma   90.00000000
_symmetry_Int_Tables_number   1
_chemical_formula_structural   Pr7Sm(SBr6)2
_chemical_formula_sum   'Pr7 Sm1 S2 Br12'
_cell_volume   798.77969459
_cell_formula_units_Z   1
loop_
 _symmetry_equiv_pos_site_id
 _symmetry_equiv_pos_as_xyz
  1  'x, y, z'
loop_
 _atom_site_type_symbol
 _atom_site_label
 _atom_site_symmetry_multiplicity
 _atom_site_fract_x
 _atom_site_fract_y
 _atom_site_fract_z
 _atom_site_occupancy
  Pr  Pr0  1  0.500000  0.117847  0.343401  1
  Pr  Pr1  1  0.500000  0.882938  0.657215  1
  Pr  Pr2  1  0.500000  0.616929  0.155988  1
  Pr  Pr3  1  0.000000  0.116002  0.578173  1
  Pr  Pr4  1  0.000000  0.885456  0.423254  1
  Pr  Pr5  1  0.000000  0.614322  0.923375  1
  Pr  Pr6  1  0.000000  0.385516  0.076366  1
  Sm  Sm7  1  0.500000  0.382855  0.843500  1
  S  S8  1  0.500000  0.001071  0.500699  1
  S  S9  1  0.500000  0.498567  0.998011  1
  Br  Br10  1  0.500000  0.243992  0.161236  1
  Br  Br11  1  0.500000  0.754769  0.837310  1
  Br  Br12  1  0.500000  0.744198  0.337180  1
  Br  Br13  1  0.500000  0.256712  0.666129  1
  Br  Br14  1  0.000000  0.260480  0.415830  1
  Br  Br15  1  0.000000  0.740156  0.585160  1
  Br  Br16  1  0.000000  0.759290  0.086321  1
  Br  Br17  1  0.000000  0.245025  0.908050  1
  Br  Br18  1  0.000000  0.998330  0.239698  1
  Br  Br19  1  0.000000  0.002319  0.761399  1
  Br  Br20  1  0.000000  0.499682  0.260028  1
  Br  Br21  1  0.000000  0.493547  0.741677  1
