# generated using pymatgen
data_TbPr3Y2CoCl10
_symmetry_space_group_name_H-M   'P 1'
_cell_length_a   7.22665319
_cell_length_b   9.06171719
_cell_length_c   9.13950530
_cell_angle_alpha   109.48463584
_cell_angle_beta   95.79464751
_cell_angle_gamma   104.90475566
_symmetry_Int_Tables_number   1
_chemical_formula_structural   TbPr3Y2CoCl10
_chemical_formula_sum   'Tb1 Pr3 Y2 Co1 Cl10'
_cell_volume   533.66881207
_cell_formula_units_Z   1
loop_
 _symmetry_equiv_pos_site_id
 _symmetry_equiv_pos_as_xyz
  1  'x, y, z'
loop_
 _atom_site_type_symbol
 _atom_site_label
 _atom_site_symmetry_multiplicity
 _atom_site_fract_x
 _atom_site_fract_y
 _atom_site_fract_z
 _atom_site_occupancy
  Tb  Tb0  1  0.364024  0.947327  0.243600  1
  Pr  Pr1  1  0.535329  0.705105  0.904196  1
  Pr  Pr2  1  0.465285  0.296624  0.101366  1
  Pr  Pr3  1  0.638776  0.054371  0.747327  1
  Y  Y4  1  0.859621  0.134107  0.184068  1
  Y  Y5  1  0.141129  0.865344  0.814493  1
  Co  Co6  1  0.500208  0.001072  0.999921  1
  Cl  Cl7  1  0.732101  0.076046  0.436592  1
  Cl  Cl8  1  0.254150  0.918197  0.549512  1
  Cl  Cl9  1  0.960262  0.833600  0.078198  1
  Cl  Cl10  1  0.047991  0.168471  0.927253  1
  Cl  Cl11  1  0.264704  0.234072  0.344607  1
  Cl  Cl12  1  0.738239  0.753655  0.658165  1
  Cl  Cl13  1  0.589505  0.371014  0.837612  1
  Cl  Cl14  1  0.405697  0.641057  0.171638  1
  Cl  Cl15  1  0.852119  0.439984  0.275267  1
  Cl  Cl16  1  0.150860  0.559954  0.726184  1
