# generated using pymatgen
data_LiCe2SmCd3Pt2
_symmetry_space_group_name_H-M   'P 1'
_cell_length_a   7.88377104
_cell_length_b   7.88377200
_cell_length_c   3.80900300
_cell_angle_alpha   90.00000000
_cell_angle_beta   90.00000000
_cell_angle_gamma   120.24513804
_symmetry_Int_Tables_number   1
_chemical_formula_structural   LiCe2SmCd3Pt2
_chemical_formula_sum   'Li1 Ce2 Sm1 Cd3 Pt2'
_cell_volume   204.51817760
_cell_formula_units_Z   1
loop_
 _symmetry_equiv_pos_site_id
 _symmetry_equiv_pos_as_xyz
  1  'x, y, z'
loop_
 _atom_site_type_symbol
 _atom_site_label
 _atom_site_symmetry_multiplicity
 _atom_site_fract_x
 _atom_site_fract_y
 _atom_site_fract_z
 _atom_site_occupancy
  Li  Li0  1  0.999451  0.999451  0.000000  1
  Ce  Ce1  1  0.575776  0.999861  0.000000  1
  Ce  Ce2  1  0.999861  0.575776  0.000000  1
  Sm  Sm3  1  0.421682  0.421682  0.000000  1
  Cd  Cd4  1  0.753580  0.753580  0.500000  1
  Cd  Cd5  1  0.243247  0.001316  0.500000  1
  Cd  Cd6  1  0.001316  0.243247  0.500000  1
  Pt  Pt7  1  0.674211  0.330876  0.500000  1
  Pt  Pt8  1  0.330876  0.674211  0.500000  1
