# generated using pymatgen
data_Y4Ho12MgCd3Co4
_symmetry_space_group_name_H-M   'P 1'
_cell_length_a   9.48578516
_cell_length_b   9.48067678
_cell_length_c   9.50482886
_cell_angle_alpha   59.97962802
_cell_angle_beta   59.89765478
_cell_angle_gamma   59.88950487
_symmetry_Int_Tables_number   1
_chemical_formula_structural   Y4Ho12MgCd3Co4
_chemical_formula_sum   'Y4 Ho12 Mg1 Cd3 Co4'
_cell_volume   603.35758156
_cell_formula_units_Z   1
loop_
 _symmetry_equiv_pos_site_id
 _symmetry_equiv_pos_as_xyz
  1  'x, y, z'
loop_
 _atom_site_type_symbol
 _atom_site_label
 _atom_site_symmetry_multiplicity
 _atom_site_fract_x
 _atom_site_fract_y
 _atom_site_fract_z
 _atom_site_occupancy
  Y  Y0  1  0.938226  0.938706  0.560820  1
  Y  Y1  1  0.810745  0.187118  0.185933  1
  Y  Y2  1  0.939553  0.561854  0.561528  1
  Y  Y3  1  0.938466  0.562062  0.937650  1
  Ho  Ho4  1  0.812149  0.813110  0.183852  1
  Ho  Ho5  1  0.343843  0.343479  0.344363  1
  Ho  Ho6  1  0.558639  0.940941  0.938610  1
  Ho  Ho7  1  0.560528  0.939624  0.563270  1
  Ho  Ho8  1  0.186896  0.811607  0.810352  1
  Ho  Ho9  1  0.188866  0.187438  0.809176  1
  Ho  Ho10  1  0.347678  0.348405  0.960366  1
  Ho  Ho11  1  0.348009  0.964507  0.347634  1
  Ho  Ho12  1  0.810820  0.186620  0.810320  1
  Ho  Ho13  1  0.559950  0.562790  0.938845  1
  Ho  Ho14  1  0.188325  0.810856  0.185165  1
  Ho  Ho15  1  0.966076  0.347249  0.346491  1
  Mg  Mg16  1  0.574187  0.573740  0.274234  1
  Cd  Cd17  1  0.256683  0.579544  0.581226  1
  Cd  Cd18  1  0.580115  0.579859  0.580378  1
  Cd  Cd19  1  0.579737  0.255672  0.581054  1
  Co  Co20  1  0.577294  0.142409  0.139718  1
  Co  Co21  1  0.147014  0.140991  0.139140  1
  Co  Co22  1  0.143715  0.579415  0.140532  1
  Co  Co23  1  0.142492  0.142008  0.579347  1
