# generated using pymatgen
data_Lu3Sn3HgIrPt
_symmetry_space_group_name_H-M   'P 1'
_cell_length_a   7.50142700
_cell_length_b   7.50142732
_cell_length_c   4.07558500
_cell_angle_alpha   90.00000000
_cell_angle_beta   90.00000000
_cell_angle_gamma   119.99999420
_symmetry_Int_Tables_number   1
_chemical_formula_structural   Lu3Sn3HgIrPt
_chemical_formula_sum   'Lu3 Sn3 Hg1 Ir1 Pt1'
_cell_volume   198.61333557
_cell_formula_units_Z   1
loop_
 _symmetry_equiv_pos_site_id
 _symmetry_equiv_pos_as_xyz
  1  'x, y, z'
loop_
 _atom_site_type_symbol
 _atom_site_label
 _atom_site_symmetry_multiplicity
 _atom_site_fract_x
 _atom_site_fract_y
 _atom_site_fract_z
 _atom_site_occupancy
  Lu  Lu0  1  0.978287  0.385757  0.500000  1
  Lu  Lu1  1  0.614243  0.592531  0.500000  1
  Lu  Lu2  1  0.407469  0.021713  0.500000  1
  Sn  Sn3  1  0.996236  0.746504  0.000000  1
  Sn  Sn4  1  0.253496  0.249732  0.000000  1
  Sn  Sn5  1  0.750268  0.003764  0.000000  1
  Hg  Hg6  1  0.333333  0.666667  0.000000  1
  Ir  Ir7  1  0.000000  0.000000  0.500000  1
  Pt  Pt8  1  0.666667  0.333333  0.000000  1
