# generated using pymatgen
data_Tb2Er6Hf11Si16Hg
_symmetry_space_group_name_H-M   'P 1'
_cell_length_a   7.28315518
_cell_length_b   7.28228546
_cell_length_c   13.24630420
_cell_angle_alpha   89.79733561
_cell_angle_beta   90.20673044
_cell_angle_gamma   89.85033701
_symmetry_Int_Tables_number   1
_chemical_formula_structural   Tb2Er6Hf11Si16Hg
_chemical_formula_sum   'Tb2 Er6 Hf11 Si16 Hg1'
_cell_volume   702.54629322
_cell_formula_units_Z   1
loop_
 _symmetry_equiv_pos_site_id
 _symmetry_equiv_pos_as_xyz
  1  'x, y, z'
loop_
 _atom_site_type_symbol
 _atom_site_label
 _atom_site_symmetry_multiplicity
 _atom_site_fract_x
 _atom_site_fract_y
 _atom_site_fract_z
 _atom_site_occupancy
  Tb  Tb0  1  0.346401  0.996888  0.788516  1
  Tb  Tb1  1  0.656177  0.005244  0.283948  1
  Er  Er2  1  0.997549  0.347450  0.211815  1
  Er  Er3  1  0.004007  0.655481  0.715930  1
  Er  Er4  1  0.154889  0.496545  0.465169  1
  Er  Er5  1  0.499110  0.846799  0.032925  1
  Er  Er6  1  0.847065  0.498979  0.967137  1
  Er  Er7  1  0.496443  0.155182  0.534858  1
  Hf  Hf8  1  0.824903  0.824297  0.500094  1
  Hf  Hf9  1  0.322586  0.676739  0.249876  1
  Hf  Hf10  1  0.677333  0.323276  0.750067  1
  Hf  Hf11  1  0.144675  0.997819  0.375491  1
  Hf  Hf12  1  0.855951  0.001627  0.878360  1
  Hf  Hf13  1  0.504791  0.646220  0.626334  1
  Hf  Hf14  1  0.356835  0.491803  0.877323  1
  Hf  Hf15  1  0.491580  0.356771  0.122506  1
  Hf  Hf16  1  0.646289  0.504413  0.373699  1
  Hf  Hf17  1  0.998236  0.144809  0.624623  1
  Hf  Hf18  1  0.001508  0.855553  0.121367  1
  Si  Si19  1  0.357813  0.296888  0.317495  1
  Si  Si20  1  0.642335  0.702763  0.819882  1
  Si  Si21  1  0.206807  0.859098  0.569208  1
  Si  Si22  1  0.130691  0.771313  0.925835  1
  Si  Si23  1  0.773445  0.132082  0.074068  1
  Si  Si24  1  0.860186  0.207940  0.431498  1
  Si  Si25  1  0.295772  0.359778  0.682058  1
  Si  Si26  1  0.704034  0.640236  0.179792  1
  Si  Si27  1  0.297318  0.049266  0.191909  1
  Si  Si28  1  0.705273  0.950516  0.686134  1
  Si  Si29  1  0.449587  0.795678  0.436552  1
  Si  Si30  1  0.209861  0.568865  0.064914  1
  Si  Si31  1  0.570208  0.210790  0.935369  1
  Si  Si32  1  0.796521  0.450567  0.563825  1
  Si  Si33  1  0.048157  0.299671  0.807605  1
  Si  Si34  1  0.951423  0.703672  0.313578  1
  Hg  Hg35  1  0.174242  0.174980  0.000239  1
