# generated using pymatgen
data_BaLiGaAs2
_symmetry_space_group_name_H-M   'P 1'
_cell_length_a   7.42275053
_cell_length_b   7.42275106
_cell_length_c   7.42275100
_cell_angle_alpha   147.53202552
_cell_angle_beta   147.53201762
_cell_angle_gamma   46.57668455
_symmetry_Int_Tables_number   1
_chemical_formula_structural   BaLiGaAs2
_chemical_formula_sum   'Ba1 Li1 Ga1 As2'
_cell_volume   117.43534144
_cell_formula_units_Z   1
loop_
 _symmetry_equiv_pos_site_id
 _symmetry_equiv_pos_as_xyz
  1  'x, y, z'
loop_
 _atom_site_type_symbol
 _atom_site_label
 _atom_site_symmetry_multiplicity
 _atom_site_fract_x
 _atom_site_fract_y
 _atom_site_fract_z
 _atom_site_occupancy
  Ba  Ba0  1  0.000000  0.000000  0.000000  1
  Li  Li1  1  0.750000  0.250000  0.500000  1
  Ga  Ga2  1  0.250000  0.750000  0.500000  1
  As  As3  1  0.363677  0.363677  0.000000  1
  As  As4  1  0.636323  0.636323  0.000000  1
