# generated using pymatgen
data_Tm3In3PdAu2
_symmetry_space_group_name_H-M   'P 1'
_cell_length_a   7.85180600
_cell_length_b   7.85180647
_cell_length_c   3.73152700
_cell_angle_alpha   90.00000000
_cell_angle_beta   90.00000000
_cell_angle_gamma   119.99999804
_symmetry_Int_Tables_number   1
_chemical_formula_structural   Tm3In3PdAu2
_chemical_formula_sum   'Tm3 In3 Pd1 Au2'
_cell_volume   199.23075270
_cell_formula_units_Z   1
loop_
 _symmetry_equiv_pos_site_id
 _symmetry_equiv_pos_as_xyz
  1  'x, y, z'
loop_
 _atom_site_type_symbol
 _atom_site_label
 _atom_site_symmetry_multiplicity
 _atom_site_fract_x
 _atom_site_fract_y
 _atom_site_fract_z
 _atom_site_occupancy
  Tm  Tm0  1  0.402440  0.402440  0.500000  1
  Tm  Tm1  1  0.597560  0.000000  0.500000  1
  Tm  Tm2  1  0.000000  0.597560  0.500000  1
  In  In3  1  0.739221  0.739221  0.000000  1
  In  In4  1  0.260779  0.000000  0.000000  1
  In  In5  1  0.000000  0.260779  0.000000  1
  Pd  Pd6  1  0.000000  0.000000  0.500000  1
  Au  Au7  1  0.666667  0.333333  0.000000  1
  Au  Au8  1  0.333333  0.666667  0.000000  1
