# generated using pymatgen
data_TmTh3MgNi4Hg
_symmetry_space_group_name_H-M   'P 1'
_cell_length_a   7.58596179
_cell_length_b   7.56046945
_cell_length_c   3.66496500
_cell_angle_alpha   90.00000000
_cell_angle_beta   90.00000000
_cell_angle_gamma   91.18795617
_symmetry_Int_Tables_number   1
_chemical_formula_structural   TmTh3MgNi4Hg
_chemical_formula_sum   'Tm1 Th3 Mg1 Ni4 Hg1'
_cell_volume   210.15314288
_cell_formula_units_Z   1
loop_
 _symmetry_equiv_pos_site_id
 _symmetry_equiv_pos_as_xyz
  1  'x, y, z'
loop_
 _atom_site_type_symbol
 _atom_site_label
 _atom_site_symmetry_multiplicity
 _atom_site_fract_x
 _atom_site_fract_y
 _atom_site_fract_z
 _atom_site_occupancy
  Tm  Tm0  1  0.829942  0.673547  0.500000  1
  Th  Th1  1  0.672902  0.169423  0.500000  1
  Th  Th2  1  0.329740  0.825717  0.500000  1
  Th  Th3  1  0.168121  0.333150  0.500000  1
  Mg  Mg4  1  0.509463  0.503242  0.000000  1
  Ni  Ni5  1  0.127406  0.621977  0.000000  1
  Ni  Ni6  1  0.873713  0.377256  0.000000  1
  Ni  Ni7  1  0.618547  0.877384  0.000000  1
  Ni  Ni8  1  0.374845  0.128430  0.000000  1
  Hg  Hg9  1  0.995320  0.989876  0.000000  1
