# generated using pymatgen
data_Ba6Nb3Ni2SbO18
_symmetry_space_group_name_H-M   'P 1'
_cell_length_a   5.84329700
_cell_length_b   20.23966201
_cell_length_c   7.17941800
_cell_angle_alpha   89.99796281
_cell_angle_beta   89.99962832
_cell_angle_gamma   89.99985058
_symmetry_Int_Tables_number   1
_chemical_formula_structural   Ba6Nb3Ni2SbO18
_chemical_formula_sum   'Ba12 Nb6 Ni4 Sb2 O36'
_cell_volume   849.08360656
_cell_formula_units_Z   2
loop_
 _symmetry_equiv_pos_site_id
 _symmetry_equiv_pos_as_xyz
  1  'x, y, z'
loop_
 _atom_site_type_symbol
 _atom_site_label
 _atom_site_symmetry_multiplicity
 _atom_site_fract_x
 _atom_site_fract_y
 _atom_site_fract_z
 _atom_site_occupancy
  Ba  Ba0  1  0.999998  0.000043  0.995824  1
  Ba  Ba1  1  0.500001  0.250019  0.993411  1
  Ba  Ba2  1  0.999999  0.499975  0.997037  1
  Ba  Ba3  1  0.500000  0.749977  0.999250  1
  Ba  Ba4  1  0.500000  0.083008  0.344000  1
  Ba  Ba5  1  0.000000  0.333268  0.343949  1
  Ba  Ba6  1  0.499999  0.583734  0.334240  1
  Ba  Ba7  1  0.999999  0.833362  0.334333  1
  Ba  Ba8  1  0.000004  0.166556  0.666679  1
  Ba  Ba9  1  0.500000  0.415063  0.666403  1
  Ba  Ba10  1  0.000000  0.666823  0.665585  1
  Ba  Ba11  1  0.499999  0.918257  0.666045  1
  Nb  Nb12  1  0.500000  0.583203  0.820601  1
  Nb  Nb13  1  0.000000  0.833360  0.820433  1
  Nb  Nb14  1  0.999998  0.166731  0.181182  1
  Nb  Nb15  1  0.499999  0.417091  0.180605  1
  Nb  Nb16  1  0.999999  0.666667  0.178660  1
  Nb  Nb17  1  0.499999  0.916194  0.179667  1
  Ni  Ni18  1  0.500008  0.250195  0.499778  1
  Ni  Ni19  1  0.999999  0.500483  0.500949  1
  Ni  Ni20  1  0.000004  0.999587  0.499366  1
  Ni  Ni21  1  0.499999  0.749785  0.500794  1
  Sb  Sb22  1  0.500002  0.083435  0.829011  1
  Sb  Sb23  1  0.000004  0.333395  0.829056  1
  O  O24  1  0.253128  0.124523  0.998112  1
  O  O25  1  0.753795  0.374375  0.998400  1
  O  O26  1  0.250141  0.624943  0.000169  1
  O  O27  1  0.749471  0.875060  0.999882  1
  O  O28  1  0.746869  0.124522  0.998110  1
  O  O29  1  0.246205  0.374376  0.998402  1
  O  O30  1  0.749859  0.624943  0.000169  1
  O  O31  1  0.250529  0.875060  0.999883  1
  O  O32  1  0.500000  0.001522  0.998689  1
  O  O33  1  0.000000  0.251117  0.997967  1
  O  O34  1  0.499999  0.499537  0.999601  1
  O  O35  1  0.000000  0.749936  0.000301  1
  O  O36  1  0.500004  0.164738  0.672862  1
  O  O37  1  0.000000  0.415218  0.674159  1
  O  O38  1  0.500000  0.664640  0.673728  1
  O  O39  1  0.000000  0.914180  0.672361  1
  O  O40  1  0.999999  0.085822  0.323849  1
  O  O41  1  0.499997  0.335365  0.324518  1
  O  O42  1  0.000002  0.585394  0.326687  1
  O  O43  1  0.499999  0.835748  0.326155  1
  O  O44  1  0.744212  0.042125  0.673754  1
  O  O45  1  0.244559  0.292841  0.673110  1
  O  O46  1  0.743835  0.543142  0.672834  1
  O  O47  1  0.243512  0.792477  0.673528  1
  O  O48  1  0.757401  0.207095  0.324158  1
  O  O49  1  0.257437  0.457250  0.325008  1
  O  O50  1  0.756186  0.707304  0.326573  1
  O  O51  1  0.256162  0.957145  0.325601  1
  O  O52  1  0.255789  0.042126  0.673757  1
  O  O53  1  0.755459  0.292840  0.673107  1
  O  O54  1  0.256167  0.543142  0.672837  1
  O  O55  1  0.756492  0.792477  0.673529  1
  O  O56  1  0.242578  0.207098  0.324166  1
  O  O57  1  0.742559  0.457250  0.325005  1
  O  O58  1  0.243811  0.707304  0.326572  1
  O  O59  1  0.743834  0.957145  0.325599  1
