# generated using pymatgen
data_Tb4Er8Tc3Ru
_symmetry_space_group_name_H-M   'P 1'
_cell_length_a   6.28190317
_cell_length_b   7.38552218
_cell_length_c   9.09066700
_cell_angle_alpha   90.00000000
_cell_angle_beta   90.00000000
_cell_angle_gamma   89.97368666
_symmetry_Int_Tables_number   1
_chemical_formula_structural   Tb4Er8Tc3Ru
_chemical_formula_sum   'Tb4 Er8 Tc3 Ru1'
_cell_volume   421.76268056
_cell_formula_units_Z   1
loop_
 _symmetry_equiv_pos_site_id
 _symmetry_equiv_pos_as_xyz
  1  'x, y, z'
loop_
 _atom_site_type_symbol
 _atom_site_label
 _atom_site_symmetry_multiplicity
 _atom_site_fract_x
 _atom_site_fract_y
 _atom_site_fract_z
 _atom_site_occupancy
  Tb  Tb0  1  0.874056  0.540199  0.250000  1
  Tb  Tb1  1  0.625995  0.039227  0.250000  1
  Tb  Tb2  1  0.129531  0.458921  0.750000  1
  Tb  Tb3  1  0.374418  0.958341  0.750000  1
  Er  Er4  1  0.336276  0.676719  0.063108  1
  Er  Er5  1  0.161360  0.176084  0.437570  1
  Er  Er6  1  0.661550  0.324165  0.562953  1
  Er  Er7  1  0.837681  0.823690  0.937382  1
  Er  Er8  1  0.661550  0.324165  0.937047  1
  Er  Er9  1  0.837681  0.823690  0.562618  1
  Er  Er10  1  0.336276  0.676719  0.436892  1
  Er  Er11  1  0.161360  0.176084  0.062430  1
  Tc  Tc12  1  0.041483  0.884188  0.250000  1
  Tc  Tc13  1  0.460107  0.386224  0.250000  1
  Tc  Tc14  1  0.959993  0.115596  0.750000  1
  Ru  Ru15  1  0.540680  0.615988  0.750000  1
