# generated using pymatgen
data_Ho2SiP5Pd20Pb
_symmetry_space_group_name_H-M   'P 1'
_cell_length_a   8.69984254
_cell_length_b   8.68969632
_cell_length_c   8.68981360
_cell_angle_alpha   60.10662746
_cell_angle_beta   59.96033898
_cell_angle_gamma   59.95956036
_symmetry_Int_Tables_number   1
_chemical_formula_structural   Ho2SiP5Pd20Pb
_chemical_formula_sum   'Ho2 Si1 P5 Pd20 Pb1'
_cell_volume   464.61861688
_cell_formula_units_Z   1
loop_
 _symmetry_equiv_pos_site_id
 _symmetry_equiv_pos_as_xyz
  1  'x, y, z'
loop_
 _atom_site_type_symbol
 _atom_site_label
 _atom_site_symmetry_multiplicity
 _atom_site_fract_x
 _atom_site_fract_y
 _atom_site_fract_z
 _atom_site_occupancy
  Ho  Ho0  1  0.750308  0.749687  0.749682  1
  Ho  Ho1  1  0.999872  0.000122  0.000128  1
  Si  Si2  1  0.734152  0.265850  0.265857  1
  P  P3  1  0.263557  0.736433  0.736432  1
  P  P4  1  0.264420  0.735456  0.263062  1
  P  P5  1  0.737072  0.263055  0.735439  1
  P  P6  1  0.264418  0.263053  0.735456  1
  P  P7  1  0.737064  0.735440  0.263061  1
  Pd  Pd8  1  0.383434  0.384690  0.384696  1
  Pd  Pd9  1  0.615245  0.615540  0.615546  1
  Pd  Pd10  1  0.384818  0.384390  0.845955  1
  Pd  Pd11  1  0.384801  0.845994  0.384384  1
  Pd  Pd12  1  0.614973  0.617014  0.153035  1
  Pd  Pd13  1  0.614978  0.153025  0.617020  1
  Pd  Pd14  1  0.847247  0.384656  0.384666  1
  Pd  Pd15  1  0.153650  0.615548  0.615549  1
  Pd  Pd16  1  0.347060  0.997014  0.997025  1
  Pd  Pd17  1  0.658893  0.997020  0.997020  1
  Pd  Pd18  1  0.995845  0.348160  0.660145  1
  Pd  Pd19  1  0.995850  0.660133  0.348160  1
  Pd  Pd20  1  0.997000  0.348876  0.995686  1
  Pd  Pd21  1  0.658432  0.995684  0.348877  1
  Pd  Pd22  1  0.996959  0.658197  0.996133  1
  Pd  Pd23  1  0.348702  0.996123  0.658208  1
  Pd  Pd24  1  0.996999  0.995679  0.348885  1
  Pd  Pd25  1  0.996961  0.996130  0.658197  1
  Pd  Pd26  1  0.658435  0.348871  0.995687  1
  Pd  Pd27  1  0.348693  0.658202  0.996138  1
  Pb  Pb28  1  0.250159  0.249959  0.249874  1
