# generated using pymatgen
data_Ta13Mn2Nb3(NiTe8)2
_symmetry_space_group_name_H-M   'P 1'
_cell_length_a   4.84066400
_cell_length_b   10.94519501
_cell_length_c   19.28811603
_cell_angle_alpha   89.99427909
_cell_angle_beta   90.00266250
_cell_angle_gamma   89.99841134
_symmetry_Int_Tables_number   1
_chemical_formula_structural   Ta13Mn2Nb3(NiTe8)2
_chemical_formula_sum   'Ta13 Mn2 Nb3 Ni2 Te16'
_cell_volume   1021.92317868
_cell_formula_units_Z   1
loop_
 _symmetry_equiv_pos_site_id
 _symmetry_equiv_pos_as_xyz
  1  'x, y, z'
loop_
 _atom_site_type_symbol
 _atom_site_label
 _atom_site_symmetry_multiplicity
 _atom_site_fract_x
 _atom_site_fract_y
 _atom_site_fract_z
 _atom_site_occupancy
  Ta  Ta0  1  0.499201  0.936342  0.885750  1
  Ta  Ta1  1  0.501190  0.701432  0.535791  1
  Ta  Ta2  1  0.501156  0.298448  0.464077  1
  Ta  Ta3  1  0.498833  0.201792  0.964075  1
  Ta  Ta4  1  0.498776  0.798325  0.035903  1
  Ta  Ta5  1  0.996458  0.687735  0.443873  1
  Ta  Ta6  1  0.996444  0.312110  0.556012  1
  Ta  Ta7  1  0.004164  0.187836  0.055998  1
  Ta  Ta8  1  0.002562  0.812144  0.944327  1
  Ta  Ta9  1  0.997010  0.402810  0.393274  1
  Ta  Ta10  1  0.997002  0.597098  0.606620  1
  Ta  Ta11  1  0.003562  0.902802  0.106600  1
  Ta  Ta12  1  0.001966  0.097703  0.893573  1
  Mn  Mn13  1  0.250787  0.499925  0.499986  1
  Mn  Mn14  1  0.750319  0.000057  0.999756  1
  Nb  Nb15  1  0.500885  0.564304  0.384506  1
  Nb  Nb16  1  0.500797  0.435578  0.615409  1
  Nb  Nb17  1  0.499040  0.064405  0.115511  1
  Ni  Ni18  1  0.751907  0.499795  0.499990  1
  Ni  Ni19  1  0.248962  0.000006  0.999907  1
  Te  Te20  1  0.997274  0.846756  0.561977  1
  Te  Te21  1  0.997363  0.153165  0.437885  1
  Te  Te22  1  0.002245  0.347352  0.937963  1
  Te  Te23  1  0.002243  0.652855  0.062241  1
  Te  Te24  1  0.499918  0.331278  0.316962  1
  Te  Te25  1  0.499905  0.668618  0.682951  1
  Te  Te26  1  0.500661  0.831154  0.182895  1
  Te  Te27  1  0.499350  0.167917  0.816771  1
  Te  Te28  1  0.499567  0.824228  0.404604  1
  Te  Te29  1  0.499483  0.175639  0.595239  1
  Te  Te30  1  0.501071  0.324332  0.095188  1
  Te  Te31  1  0.499756  0.676168  0.904345  1
  Te  Te32  1  0.997949  0.609347  0.302485  1
  Te  Te33  1  0.997994  0.390483  0.697408  1
  Te  Te34  1  0.002063  0.109322  0.197382  1
  Te  Te35  1  0.002140  0.890738  0.802764  1
