# generated using pymatgen
data_AuF14
_symmetry_space_group_name_H-M   'P 1'
_cell_length_a   15.21251000
_cell_length_b   5.10208465
_cell_length_c   6.68889759
_cell_angle_alpha   92.15461617
_cell_angle_beta   90.00000000
_cell_angle_gamma   90.00000000
_symmetry_Int_Tables_number   1
_chemical_formula_structural   AuF14
_chemical_formula_sum   'Au2 F28'
_cell_volume   518.79518036
_cell_formula_units_Z   2
loop_
 _symmetry_equiv_pos_site_id
 _symmetry_equiv_pos_as_xyz
  1  'x, y, z'
loop_
 _atom_site_type_symbol
 _atom_site_label
 _atom_site_symmetry_multiplicity
 _atom_site_fract_x
 _atom_site_fract_y
 _atom_site_fract_z
 _atom_site_occupancy
  Au  Au0  1  0.000000  0.000000  0.000000  1
  Au  Au1  1  0.500000  0.000000  0.500000  1
  F  F2  1  0.632844  0.473243  0.955836  1
  F  F3  1  0.132844  0.526757  0.544164  1
  F  F4  1  0.367156  0.526757  0.044164  1
  F  F5  1  0.867156  0.473243  0.455836  1
  F  F6  1  0.774904  0.117109  0.039278  1
  F  F7  1  0.274904  0.882891  0.460722  1
  F  F8  1  0.225096  0.882891  0.960722  1
  F  F9  1  0.725096  0.117109  0.539278  1
  F  F10  1  0.910267  0.810197  0.849749  1
  F  F11  1  0.410267  0.189803  0.650251  1
  F  F12  1  0.089733  0.189803  0.150251  1
  F  F13  1  0.589733  0.810197  0.349749  1
  F  F14  1  0.947532  0.891512  0.247635  1
  F  F15  1  0.447532  0.108488  0.252365  1
  F  F16  1  0.052468  0.108488  0.752365  1
  F  F17  1  0.552468  0.891512  0.747635  1
  F  F18  1  0.571003  0.312796  0.054007  1
  F  F19  1  0.071003  0.687204  0.445993  1
  F  F20  1  0.428997  0.687204  0.945993  1
  F  F21  1  0.928997  0.312796  0.554007  1
  F  F22  1  0.725307  0.885640  0.069034  1
  F  F23  1  0.225307  0.114360  0.430966  1
  F  F24  1  0.274693  0.114360  0.930966  1
  F  F25  1  0.774693  0.885640  0.569034  1
  F  F26  1  0.928225  0.312631  0.007200  1
  F  F27  1  0.428225  0.687369  0.492800  1
  F  F28  1  0.071775  0.687369  0.992800  1
  F  F29  1  0.571775  0.312631  0.507200  1
