# generated using pymatgen
data_La2Pr4Ir17Rh
_symmetry_space_group_name_H-M   'P 1'
_cell_length_a   5.41029100
_cell_length_b   5.41025628
_cell_length_c   17.69606200
_cell_angle_alpha   90.00000000
_cell_angle_beta   90.00000000
_cell_angle_gamma   119.99994456
_symmetry_Int_Tables_number   1
_chemical_formula_structural   La2Pr4Ir17Rh
_chemical_formula_sum   'La2 Pr4 Ir17 Rh1'
_cell_volume   448.58626134
_cell_formula_units_Z   1
loop_
 _symmetry_equiv_pos_site_id
 _symmetry_equiv_pos_as_xyz
  1  'x, y, z'
loop_
 _atom_site_type_symbol
 _atom_site_label
 _atom_site_symmetry_multiplicity
 _atom_site_fract_x
 _atom_site_fract_y
 _atom_site_fract_z
 _atom_site_occupancy
  La  La0  1  0.333334  0.666659  0.750000  1
  La  La1  1  0.666670  0.333324  0.250000  1
  Pr  Pr2  1  0.333335  0.666675  0.541245  1
  Pr  Pr3  1  0.666666  0.333333  0.040828  1
  Pr  Pr4  1  0.666666  0.333333  0.459172  1
  Pr  Pr5  1  0.333335  0.666675  0.958755  1
  Ir  Ir6  1  0.166230  0.332462  0.128332  1
  Ir  Ir7  1  0.833247  0.666493  0.628139  1
  Ir  Ir8  1  0.667533  0.833769  0.128331  1
  Ir  Ir9  1  0.166235  0.833768  0.128330  1
  Ir  Ir10  1  0.833235  0.166757  0.628135  1
  Ir  Ir11  1  0.333511  0.166757  0.628138  1
  Ir  Ir12  1  0.833247  0.666493  0.871861  1
  Ir  Ir13  1  0.833235  0.166757  0.871865  1
  Ir  Ir14  1  0.333511  0.166757  0.871862  1
  Ir  Ir15  1  0.667533  0.833769  0.371669  1
  Ir  Ir16  1  0.166235  0.833768  0.371670  1
  Ir  Ir17  1  0.166230  0.332462  0.371668  1
  Ir  Ir18  1  0.000001  0.000000  0.250000  1
  Ir  Ir19  1  0.000007  0.999997  0.750000  1
  Ir  Ir20  1  0.333342  0.666669  0.250000  1
  Ir  Ir21  1  0.999996  0.999995  0.999514  1
  Ir  Ir22  1  0.999996  0.999995  0.500486  1
  Rh  Rh23  1  0.666671  0.333331  0.750000  1
