# generated using pymatgen
data_La8Zn7Hg(Pd3Rh)2
_symmetry_space_group_name_H-M   'P 1'
_cell_length_a   4.10792000
_cell_length_b   7.61848403
_cell_length_c   16.97521338
_cell_angle_alpha   90.87337941
_cell_angle_beta   90.00000000
_cell_angle_gamma   90.00000000
_symmetry_Int_Tables_number   1
_chemical_formula_structural   La8Zn7Hg(Pd3Rh)2
_chemical_formula_sum   'La8 Zn7 Hg1 Pd6 Rh2'
_cell_volume   531.19664417
_cell_formula_units_Z   1
loop_
 _symmetry_equiv_pos_site_id
 _symmetry_equiv_pos_as_xyz
  1  'x, y, z'
loop_
 _atom_site_type_symbol
 _atom_site_label
 _atom_site_symmetry_multiplicity
 _atom_site_fract_x
 _atom_site_fract_y
 _atom_site_fract_z
 _atom_site_occupancy
  La  La0  1  0.750000  0.327329  0.442140  1
  La  La1  1  0.250000  0.051090  0.712038  1
  La  La2  1  0.250000  0.557693  0.779929  1
  La  La3  1  0.250000  0.678126  0.561029  1
  La  La4  1  0.750000  0.827736  0.060566  1
  La  La5  1  0.250000  0.178477  0.946853  1
  La  La6  1  0.750000  0.441401  0.214247  1
  La  La7  1  0.750000  0.947597  0.283575  1
  Zn  Zn8  1  0.250000  0.120352  0.148669  1
  Zn  Zn9  1  0.250000  0.999060  0.439369  1
  Zn  Zn10  1  0.750000  0.000794  0.559418  1
  Zn  Zn11  1  0.250000  0.495584  0.063786  1
  Zn  Zn12  1  0.750000  0.385829  0.649440  1
  Zn  Zn13  1  0.750000  0.494320  0.942422  1
  Zn  Zn14  1  0.250000  0.618680  0.349337  1
  Hg  Hg15  1  0.750000  0.886292  0.847719  1
  Pd  Pd16  1  0.750000  0.269730  0.812505  1
  Pd  Pd17  1  0.250000  0.243047  0.316747  1
  Pd  Pd18  1  0.250000  0.723126  0.941097  1
  Pd  Pd19  1  0.250000  0.239514  0.565932  1
  Pd  Pd20  1  0.250000  0.743963  0.186709  1
  Pd  Pd21  1  0.750000  0.761464  0.431035  1
  Rh  Rh22  1  0.750000  0.260188  0.068577  1
  Rh  Rh23  1  0.750000  0.748608  0.676859  1
