# generated using pymatgen
data_Zr9Sn6MoN2
_symmetry_space_group_name_H-M   'P 1'
_cell_length_a   8.43585100
_cell_length_b   8.43585138
_cell_length_c   5.71858300
_cell_angle_alpha   90.00000000
_cell_angle_beta   90.00000000
_cell_angle_gamma   119.99999457
_symmetry_Int_Tables_number   1
_chemical_formula_structural   Zr9Sn6MoN2
_chemical_formula_sum   'Zr9 Sn6 Mo1 N2'
_cell_volume   352.43327426
_cell_formula_units_Z   1
loop_
 _symmetry_equiv_pos_site_id
 _symmetry_equiv_pos_as_xyz
  1  'x, y, z'
loop_
 _atom_site_type_symbol
 _atom_site_label
 _atom_site_symmetry_multiplicity
 _atom_site_fract_x
 _atom_site_fract_y
 _atom_site_fract_z
 _atom_site_occupancy
  Zr  Zr0  1  0.333333  0.666667  0.000000  1
  Zr  Zr1  1  0.333333  0.666667  0.500000  1
  Zr  Zr2  1  0.666667  0.333333  0.500000  1
  Zr  Zr3  1  0.778709  0.779006  0.749517  1
  Zr  Zr4  1  0.220994  0.999703  0.749517  1
  Zr  Zr5  1  0.000297  0.221291  0.749517  1
  Zr  Zr6  1  0.220994  0.221291  0.250483  1
  Zr  Zr7  1  0.778709  0.999703  0.250483  1
  Zr  Zr8  1  0.000297  0.779006  0.250483  1
  Sn  Sn9  1  0.409623  0.404797  0.756508  1
  Sn  Sn10  1  0.595203  0.004826  0.756508  1
  Sn  Sn11  1  0.995174  0.590377  0.756508  1
  Sn  Sn12  1  0.595203  0.590377  0.243492  1
  Sn  Sn13  1  0.409623  0.004826  0.243492  1
  Sn  Sn14  1  0.995174  0.404797  0.243492  1
  Mo  Mo15  1  0.666667  0.333333  0.000000  1
  N  N16  1  0.000000  0.000000  0.000000  1
  N  N17  1  0.000000  0.000000  0.500000  1
