# generated using pymatgen
data_Nd6Ni9B4Ir5
_symmetry_space_group_name_H-M   'P 1'
_cell_length_a   5.26021413
_cell_length_b   5.37433635
_cell_length_c   14.77671486
_cell_angle_alpha   90.11301127
_cell_angle_beta   90.05950942
_cell_angle_gamma   120.74469448
_symmetry_Int_Tables_number   1
_chemical_formula_structural   Nd6Ni9B4Ir5
_chemical_formula_sum   'Nd6 Ni9 B4 Ir5'
_cell_volume   359.02657449
_cell_formula_units_Z   1
loop_
 _symmetry_equiv_pos_site_id
 _symmetry_equiv_pos_as_xyz
  1  'x, y, z'
loop_
 _atom_site_type_symbol
 _atom_site_label
 _atom_site_symmetry_multiplicity
 _atom_site_fract_x
 _atom_site_fract_y
 _atom_site_fract_z
 _atom_site_occupancy
  Nd  Nd0  1  0.332489  0.662799  0.467619  1
  Nd  Nd1  1  0.659541  0.325386  0.971135  1
  Nd  Nd2  1  0.664277  0.328748  0.534598  1
  Nd  Nd3  1  0.330172  0.660132  0.026484  1
  Nd  Nd4  1  0.667138  0.336094  0.752969  1
  Nd  Nd5  1  0.333544  0.665192  0.247911  1
  Ni  Ni6  1  0.000005  0.003548  0.503245  1
  Ni  Ni7  1  0.667736  0.836490  0.655069  1
  Ni  Ni8  1  0.331212  0.165765  0.152465  1
  Ni  Ni9  1  0.837517  0.163745  0.151247  1
  Ni  Ni10  1  0.163615  0.328549  0.843137  1
  Ni  Ni11  1  0.163351  0.838659  0.845939  1
  Ni  Ni12  1  0.164129  0.330749  0.654773  1
  Ni  Ni13  1  0.672562  0.837419  0.844501  1
  Ni  Ni14  1  0.333597  0.165852  0.348825  1
  B  B15  1  0.666021  0.330561  0.249606  1
  B  B16  1  0.333774  0.666298  0.750573  1
  B  B17  1  0.999827  0.003357  0.749618  1
  B  B18  1  0.003295  0.000407  0.250467  1
  Ir  Ir19  1  0.836950  0.164714  0.351981  1
  Ir  Ir20  1  0.836961  0.669709  0.354741  1
  Ir  Ir21  1  0.001579  0.008496  0.995067  1
  Ir  Ir22  1  0.836488  0.671008  0.147135  1
  Ir  Ir23  1  0.164221  0.836326  0.650895  1
