# generated using pymatgen
data_Th4In2Ga3Cu
_symmetry_space_group_name_H-M   'P 1'
_cell_length_a   7.44198912
_cell_length_b   7.44198883
_cell_length_c   4.44147500
_cell_angle_alpha   90.00000000
_cell_angle_beta   90.00000000
_cell_angle_gamma   91.10557326
_symmetry_Int_Tables_number   1
_chemical_formula_structural   Th4In2Ga3Cu
_chemical_formula_sum   'Th4 In2 Ga3 Cu1'
_cell_volume   245.93730583
_cell_formula_units_Z   1
loop_
 _symmetry_equiv_pos_site_id
 _symmetry_equiv_pos_as_xyz
  1  'x, y, z'
loop_
 _atom_site_type_symbol
 _atom_site_label
 _atom_site_symmetry_multiplicity
 _atom_site_fract_x
 _atom_site_fract_y
 _atom_site_fract_z
 _atom_site_occupancy
  Th  Th0  1  0.668384  0.173806  0.500000  1
  Th  Th1  1  0.326194  0.831616  0.500000  1
  Th  Th2  1  0.177366  0.322634  0.500000  1
  Th  Th3  1  0.825296  0.674704  0.500000  1
  In  In4  1  0.496574  0.492408  0.000000  1
  In  In5  1  0.007592  0.003426  0.000000  1
  Ga  Ga6  1  0.123172  0.623176  0.000000  1
  Ga  Ga7  1  0.876824  0.376828  0.000000  1
  Ga  Ga8  1  0.620779  0.879221  0.000000  1
  Cu  Cu9  1  0.377819  0.122181  0.000000  1
