# generated using pymatgen
data_Tb9Y3Co5Hg
_symmetry_space_group_name_H-M   'P 1'
_cell_length_a   8.34355922
_cell_length_b   8.34356095
_cell_length_c   8.33315745
_cell_angle_alpha   110.66962853
_cell_angle_beta   109.82483202
_cell_angle_gamma   107.98321650
_symmetry_Int_Tables_number   1
_chemical_formula_structural   Tb9Y3Co5Hg
_chemical_formula_sum   'Tb9 Y3 Co5 Hg1'
_cell_volume   446.02623953
_cell_formula_units_Z   1
loop_
 _symmetry_equiv_pos_site_id
 _symmetry_equiv_pos_as_xyz
  1  'x, y, z'
loop_
 _atom_site_type_symbol
 _atom_site_label
 _atom_site_symmetry_multiplicity
 _atom_site_fract_x
 _atom_site_fract_y
 _atom_site_fract_z
 _atom_site_occupancy
  Tb  Tb0  1  0.817231  0.292541  0.109769  1
  Tb  Tb1  1  0.682876  0.378137  0.695410  1
  Tb  Tb2  1  0.317195  0.621771  0.304597  1
  Tb  Tb3  1  0.682825  0.987402  0.304597  1
  Tb  Tb4  1  0.317272  0.012534  0.695410  1
  Tb  Tb5  1  0.599567  0.792174  0.807512  1
  Tb  Tb6  1  0.400685  0.208157  0.192507  1
  Tb  Tb7  1  0.984350  0.791824  0.192507  1
  Tb  Tb8  1  0.015338  0.207944  0.807512  1
  Y  Y9  1  0.816385  0.708458  0.524843  1
  Y  Y10  1  0.183852  0.291653  0.475505  1
  Y  Y11  1  0.183425  0.707962  0.891389  1
  Co  Co12  1  0.622744  0.999644  0.622388  1
  Co  Co13  1  0.377483  0.000193  0.377676  1
  Co  Co14  1  0.112604  0.612899  0.499226  1
  Co  Co15  1  0.886328  0.386622  0.499226  1
  Co  Co16  1  0.000065  0.000067  0.000132  1
  Hg  Hg17  1  0.499776  0.500018  0.999794  1
