# generated using pymatgen
data_Zr5Co19(Si3P)3
_symmetry_space_group_name_H-M   'P 1'
_cell_length_a   11.96757300
_cell_length_b   11.96757341
_cell_length_c   3.63371800
_cell_angle_alpha   90.00000000
_cell_angle_beta   90.00000000
_cell_angle_gamma   119.99999611
_symmetry_Int_Tables_number   1
_chemical_formula_structural   Zr5Co19(Si3P)3
_chemical_formula_sum   'Zr5 Co19 Si9 P3'
_cell_volume   450.70674171
_cell_formula_units_Z   1
loop_
 _symmetry_equiv_pos_site_id
 _symmetry_equiv_pos_as_xyz
  1  'x, y, z'
loop_
 _atom_site_type_symbol
 _atom_site_label
 _atom_site_symmetry_multiplicity
 _atom_site_fract_x
 _atom_site_fract_y
 _atom_site_fract_z
 _atom_site_occupancy
  Zr  Zr0  1  0.333333  0.666667  0.500000  1
  Zr  Zr1  1  0.666667  0.333333  0.500000  1
  Zr  Zr2  1  0.000000  0.183188  0.000000  1
  Zr  Zr3  1  0.816812  0.816812  0.000000  1
  Zr  Zr4  1  0.183188  0.000000  0.000000  1
  Co  Co5  1  0.628394  0.824802  0.500000  1
  Co  Co6  1  0.175198  0.803590  0.500000  1
  Co  Co7  1  0.196410  0.371606  0.500000  1
  Co  Co8  1  0.371606  0.196410  0.500000  1
  Co  Co9  1  0.824802  0.628394  0.500000  1
  Co  Co10  1  0.803590  0.175198  0.500000  1
  Co  Co11  1  0.000000  0.556099  0.500000  1
  Co  Co12  1  0.443901  0.443901  0.500000  1
  Co  Co13  1  0.556099  0.000000  0.500000  1
  Co  Co14  1  0.521357  0.646220  0.000000  1
  Co  Co15  1  0.353780  0.875137  0.000000  1
  Co  Co16  1  0.124863  0.478643  0.000000  1
  Co  Co17  1  0.478643  0.124863  0.000000  1
  Co  Co18  1  0.646220  0.521357  0.000000  1
  Co  Co19  1  0.875137  0.353780  0.000000  1
  Co  Co20  1  0.000000  0.723419  0.000000  1
  Co  Co21  1  0.276581  0.276581  0.000000  1
  Co  Co22  1  0.723419  0.000000  0.000000  1
  Co  Co23  1  0.000000  0.000000  0.500000  1
  Si  Si24  1  0.000000  0.364515  0.500000  1
  Si  Si25  1  0.635485  0.635485  0.500000  1
  Si  Si26  1  0.364515  0.000000  0.500000  1
  Si  Si27  1  0.519050  0.838386  0.000000  1
  Si  Si28  1  0.161614  0.680663  0.000000  1
  Si  Si29  1  0.319337  0.480950  0.000000  1
  Si  Si30  1  0.480950  0.319337  0.000000  1
  Si  Si31  1  0.838386  0.519050  0.000000  1
  Si  Si32  1  0.680663  0.161614  0.000000  1
  P  P33  1  0.000000  0.822622  0.500000  1
  P  P34  1  0.177378  0.177378  0.500000  1
  P  P35  1  0.822622  0.000000  0.500000  1
