# generated using pymatgen
data_DyHo2Al3Ga2Pt
_symmetry_space_group_name_H-M   'P 1'
_cell_length_a   6.97108419
_cell_length_b   6.96344552
_cell_length_c   4.28937500
_cell_angle_alpha   90.00000000
_cell_angle_beta   90.00000000
_cell_angle_gamma   119.96376258
_symmetry_Int_Tables_number   1
_chemical_formula_structural   DyHo2Al3Ga2Pt
_chemical_formula_sum   'Dy1 Ho2 Al3 Ga2 Pt1'
_cell_volume   180.38799257
_cell_formula_units_Z   1
loop_
 _symmetry_equiv_pos_site_id
 _symmetry_equiv_pos_as_xyz
  1  'x, y, z'
loop_
 _atom_site_type_symbol
 _atom_site_label
 _atom_site_symmetry_multiplicity
 _atom_site_fract_x
 _atom_site_fract_y
 _atom_site_fract_z
 _atom_site_occupancy
  Dy  Dy0  1  0.000000  0.582363  0.500000  1
  Ho  Ho1  1  0.583326  0.999784  0.500000  1
  Ho  Ho2  1  0.416674  0.416458  0.500000  1
  Al  Al3  1  0.764468  0.764725  0.000000  1
  Al  Al4  1  0.000000  0.235192  0.000000  1
  Al  Al5  1  0.235532  0.000257  0.000000  1
  Ga  Ga6  1  0.334143  0.666980  0.000000  1
  Ga  Ga7  1  0.665857  0.332835  0.000000  1
  Pt  Pt8  1  0.000000  0.001408  0.500000  1
