# generated using pymatgen
data_Dy8MgCdNiRu
_symmetry_space_group_name_H-M   'P 1'
_cell_length_a   9.59916873
_cell_length_b   9.59916953
_cell_length_c   9.66905100
_cell_angle_alpha   59.75888415
_cell_angle_beta   59.75888135
_cell_angle_gamma   59.46885762
_symmetry_Int_Tables_number   1
_chemical_formula_structural   Dy8MgCdNiRu
_chemical_formula_sum   'Dy16 Mg2 Cd2 Ni2 Ru2'
_cell_volume   625.14782466
_cell_formula_units_Z   2
loop_
 _symmetry_equiv_pos_site_id
 _symmetry_equiv_pos_as_xyz
  1  'x, y, z'
loop_
 _atom_site_type_symbol
 _atom_site_label
 _atom_site_symmetry_multiplicity
 _atom_site_fract_x
 _atom_site_fract_y
 _atom_site_fract_z
 _atom_site_occupancy
  Dy  Dy0  1  0.598924  0.598924  0.593235  1
  Dy  Dy1  1  0.598924  0.598924  0.208916  1
  Dy  Dy2  1  0.599971  0.210044  0.594993  1
  Dy  Dy3  1  0.210044  0.599971  0.594993  1
  Dy  Dy4  1  0.061880  0.436369  0.438867  1
  Dy  Dy5  1  0.436369  0.061880  0.062882  1
  Dy  Dy6  1  0.436369  0.061880  0.438867  1
  Dy  Dy7  1  0.061880  0.436369  0.062882  1
  Dy  Dy8  1  0.438567  0.438567  0.061433  1
  Dy  Dy9  1  0.061934  0.061934  0.438066  1
  Dy  Dy10  1  0.188773  0.809583  0.816682  1
  Dy  Dy11  1  0.809583  0.188773  0.184962  1
  Dy  Dy12  1  0.809583  0.188773  0.816682  1
  Dy  Dy13  1  0.188773  0.809583  0.184962  1
  Dy  Dy14  1  0.816780  0.816780  0.183220  1
  Dy  Dy15  1  0.189435  0.189435  0.810565  1
  Mg  Mg16  1  0.824767  0.824767  0.832211  1
  Mg  Mg17  1  0.824767  0.824767  0.518255  1
  Cd  Cd18  1  0.830583  0.505457  0.831979  1
  Cd  Cd19  1  0.505457  0.830583  0.831979  1
  Ni  Ni20  1  0.392596  0.826097  0.390653  1
  Ni  Ni21  1  0.826097  0.392596  0.390653  1
  Ru  Ru22  1  0.393970  0.393970  0.387543  1
  Ru  Ru23  1  0.393970  0.393970  0.824516  1
