# generated using pymatgen
data_Er4Cd(Ga4Tc)5
_symmetry_space_group_name_H-M   'P 1'
_cell_length_a   9.05519400
_cell_length_b   9.05519400
_cell_length_c   6.43478800
_cell_angle_alpha   90.00000000
_cell_angle_beta   90.00000000
_cell_angle_gamma   90.00000000
_symmetry_Int_Tables_number   1
_chemical_formula_structural   Er4Cd(Ga4Tc)5
_chemical_formula_sum   'Er4 Cd1 Ga20 Tc5'
_cell_volume   527.63034119
_cell_formula_units_Z   1
loop_
 _symmetry_equiv_pos_site_id
 _symmetry_equiv_pos_as_xyz
  1  'x, y, z'
loop_
 _atom_site_type_symbol
 _atom_site_label
 _atom_site_symmetry_multiplicity
 _atom_site_fract_x
 _atom_site_fract_y
 _atom_site_fract_z
 _atom_site_occupancy
  Er  Er0  1  0.679114  0.186040  0.000000  1
  Er  Er1  1  0.320886  0.813960  0.000000  1
  Er  Er2  1  0.813960  0.679114  0.000000  1
  Er  Er3  1  0.186040  0.320886  0.000000  1
  Cd  Cd4  1  0.000000  0.000000  0.000000  1
  Ga  Ga5  1  0.934158  0.218779  0.299620  1
  Ga  Ga6  1  0.704382  0.440670  0.293417  1
  Ga  Ga7  1  0.500000  0.000000  0.287082  1
  Ga  Ga8  1  0.559330  0.704382  0.706583  1
  Ga  Ga9  1  0.295618  0.559330  0.706583  1
  Ga  Ga10  1  0.781221  0.934158  0.299620  1
  Ga  Ga11  1  0.934158  0.218779  0.700380  1
  Ga  Ga12  1  0.295618  0.559330  0.293417  1
  Ga  Ga13  1  0.065842  0.781221  0.299620  1
  Ga  Ga14  1  0.704382  0.440670  0.706583  1
  Ga  Ga15  1  0.440670  0.295618  0.706583  1
  Ga  Ga16  1  0.065842  0.781221  0.700380  1
  Ga  Ga17  1  0.218779  0.065842  0.700380  1
  Ga  Ga18  1  0.781221  0.934158  0.700380  1
  Ga  Ga19  1  0.218779  0.065842  0.299620  1
  Ga  Ga20  1  0.000000  0.500000  0.712918  1
  Ga  Ga21  1  0.000000  0.500000  0.287082  1
  Ga  Ga22  1  0.559330  0.704382  0.293417  1
  Ga  Ga23  1  0.440670  0.295618  0.293417  1
  Ga  Ga24  1  0.500000  0.000000  0.712918  1
  Tc  Tc25  1  0.680988  0.175381  0.500000  1
  Tc  Tc26  1  0.824619  0.680988  0.500000  1
  Tc  Tc27  1  0.175381  0.319012  0.500000  1
  Tc  Tc28  1  0.319012  0.824619  0.500000  1
  Tc  Tc29  1  0.500000  0.500000  0.000000  1
