# generated using pymatgen
data_Nd6Er9Th(CdIr)4
_symmetry_space_group_name_H-M   'P 1'
_cell_length_a   9.71324394
_cell_length_b   9.71324432
_cell_length_c   9.71324482
_cell_angle_alpha   60.24816158
_cell_angle_beta   60.24815917
_cell_angle_gamma   60.24816558
_symmetry_Int_Tables_number   1
_chemical_formula_structural   Nd6Er9Th(CdIr)4
_chemical_formula_sum   'Nd6 Er9 Th1 Cd4 Ir4'
_cell_volume   651.64460695
_cell_formula_units_Z   1
loop_
 _symmetry_equiv_pos_site_id
 _symmetry_equiv_pos_as_xyz
  1  'x, y, z'
loop_
 _atom_site_type_symbol
 _atom_site_label
 _atom_site_symmetry_multiplicity
 _atom_site_fract_x
 _atom_site_fract_y
 _atom_site_fract_z
 _atom_site_occupancy
  Nd  Nd0  1  0.939405  0.561245  0.561245  1
  Nd  Nd1  1  0.558298  0.942404  0.942404  1
  Nd  Nd2  1  0.561245  0.939405  0.561245  1
  Nd  Nd3  1  0.942404  0.558298  0.942404  1
  Nd  Nd4  1  0.561245  0.561245  0.939405  1
  Nd  Nd5  1  0.942404  0.942404  0.558298  1
  Er  Er6  1  0.348531  0.348531  0.955109  1
  Er  Er7  1  0.348531  0.955109  0.348531  1
  Er  Er8  1  0.955109  0.348531  0.348531  1
  Er  Er9  1  0.814192  0.186135  0.186135  1
  Er  Er10  1  0.186205  0.812675  0.812675  1
  Er  Er11  1  0.186135  0.814192  0.186135  1
  Er  Er12  1  0.812675  0.186205  0.812675  1
  Er  Er13  1  0.186135  0.186135  0.814192  1
  Er  Er14  1  0.812675  0.812675  0.186205  1
  Th  Th15  1  0.345696  0.345696  0.345696  1
  Cd  Cd16  1  0.578557  0.578557  0.578557  1
  Cd  Cd17  1  0.580197  0.580197  0.260584  1
  Cd  Cd18  1  0.580197  0.260584  0.580197  1
  Cd  Cd19  1  0.260584  0.580197  0.580197  1
  Ir  Ir20  1  0.142230  0.142230  0.142230  1
  Ir  Ir21  1  0.141030  0.141030  0.575288  1
  Ir  Ir22  1  0.141030  0.575288  0.141030  1
  Ir  Ir23  1  0.575288  0.141030  0.141030  1
