# generated using pymatgen
data_DyHoB6Ru
_symmetry_space_group_name_H-M   'P 1'
_cell_length_a   3.65296400
_cell_length_b   9.13720200
_cell_length_c   11.51388000
_cell_angle_alpha   90.00000000
_cell_angle_beta   90.00000000
_cell_angle_gamma   90.00000000
_symmetry_Int_Tables_number   1
_chemical_formula_structural   DyHoB6Ru
_chemical_formula_sum   'Dy4 Ho4 B24 Ru4'
_cell_volume   384.30878945
_cell_formula_units_Z   4
loop_
 _symmetry_equiv_pos_site_id
 _symmetry_equiv_pos_as_xyz
  1  'x, y, z'
loop_
 _atom_site_type_symbol
 _atom_site_label
 _atom_site_symmetry_multiplicity
 _atom_site_fract_x
 _atom_site_fract_y
 _atom_site_fract_z
 _atom_site_occupancy
  Dy  Dy0  1  0.000000  0.323004  0.413980  1
  Dy  Dy1  1  0.000000  0.676996  0.586020  1
  Dy  Dy2  1  0.000000  0.823004  0.086020  1
  Dy  Dy3  1  0.000000  0.176996  0.913980  1
  Ho  Ho4  1  0.000000  0.943892  0.372300  1
  Ho  Ho5  1  0.000000  0.056108  0.627700  1
  Ho  Ho6  1  0.000000  0.443892  0.127700  1
  Ho  Ho7  1  0.000000  0.556108  0.872300  1
  B  B8  1  0.500000  0.554269  0.432907  1
  B  B9  1  0.500000  0.445731  0.567093  1
  B  B10  1  0.500000  0.054269  0.067093  1
  B  B11  1  0.500000  0.945731  0.932907  1
  B  B12  1  0.500000  0.748037  0.419688  1
  B  B13  1  0.500000  0.251963  0.580312  1
  B  B14  1  0.500000  0.248037  0.080312  1
  B  B15  1  0.500000  0.751963  0.919688  1
  B  B16  1  0.500000  0.791442  0.266341  1
  B  B17  1  0.500000  0.208558  0.733659  1
  B  B18  1  0.500000  0.291442  0.233659  1
  B  B19  1  0.500000  0.708558  0.766341  1
  B  B20  1  0.500000  0.632140  0.185254  1
  B  B21  1  0.500000  0.367860  0.814746  1
  B  B22  1  0.500000  0.132140  0.314746  1
  B  B23  1  0.500000  0.867860  0.685254  1
  B  B24  1  0.500000  0.983838  0.213029  1
  B  B25  1  0.500000  0.016162  0.786971  1
  B  B26  1  0.500000  0.483838  0.286971  1
  B  B27  1  0.500000  0.516162  0.713029  1
  B  B28  1  0.500000  0.608062  0.029847  1
  B  B29  1  0.500000  0.391938  0.970153  1
  B  B30  1  0.500000  0.108062  0.470153  1
  B  B31  1  0.500000  0.891938  0.529847  1
  Ru  Ru32  1  0.000000  0.638041  0.321053  1
  Ru  Ru33  1  0.000000  0.361959  0.678947  1
  Ru  Ru34  1  0.000000  0.138041  0.178947  1
  Ru  Ru35  1  0.000000  0.861959  0.821053  1
