# generated using pymatgen
data_K4Cr3FeP4(O4F)4
_symmetry_space_group_name_H-M   'P 1'
_cell_length_a   6.43128300
_cell_length_b   10.71823100
_cell_length_c   12.95030400
_cell_angle_alpha   90.00000000
_cell_angle_beta   90.00000000
_cell_angle_gamma   90.00000000
_symmetry_Int_Tables_number   1
_chemical_formula_structural   K4Cr3FeP4(O4F)4
_chemical_formula_sum   'K8 Cr6 Fe2 P8 O32 F8'
_cell_volume   892.69005514
_cell_formula_units_Z   2
loop_
 _symmetry_equiv_pos_site_id
 _symmetry_equiv_pos_as_xyz
  1  'x, y, z'
loop_
 _atom_site_type_symbol
 _atom_site_label
 _atom_site_symmetry_multiplicity
 _atom_site_fract_x
 _atom_site_fract_y
 _atom_site_fract_z
 _atom_site_occupancy
  K  K0  1  0.201940  0.691707  0.395724  1
  K  K1  1  0.798062  0.191707  0.604274  1
  K  K2  1  0.298113  0.691472  0.895248  1
  K  K3  1  0.701880  0.191471  0.104754  1
  K  K4  1  0.776615  0.947072  0.381014  1
  K  K5  1  0.223384  0.447072  0.618985  1
  K  K6  1  0.723862  0.947668  0.880157  1
  K  K7  1  0.276136  0.447669  0.119842  1
  Cr  Cr8  1  0.501067  0.748169  0.615093  1
  Cr  Cr9  1  0.498927  0.248173  0.384908  1
  Cr  Cr10  1  0.752863  0.500201  0.253825  1
  Cr  Cr11  1  0.247133  0.000209  0.746195  1
  Cr  Cr12  1  0.748256  0.499928  0.752602  1
  Cr  Cr13  1  0.251760  0.999921  0.247401  1
  Fe  Fe14  1  0.996065  0.748831  0.111895  1
  Fe  Fe15  1  0.003939  0.248833  0.888108  1
  P  P16  1  0.670016  0.497617  0.500914  1
  P  P17  1  0.329984  0.997616  0.499086  1
  P  P18  1  0.828015  0.497771  0.000995  1
  P  P19  1  0.171985  0.997771  0.999005  1
  P  P20  1  0.501515  0.747921  0.182359  1
  P  P21  1  0.498484  0.247922  0.817640  1
  P  P22  1  0.997550  0.748065  0.681591  1
  P  P23  1  0.002450  0.248065  0.318408  1
  O  O24  1  0.033899  0.879043  0.009921  1
  O  O25  1  0.308006  0.274331  0.887250  1
  O  O26  1  0.808347  0.774456  0.611507  1
  O  O27  1  0.191653  0.274456  0.388491  1
  O  O28  1  0.310191  0.718959  0.113136  1
  O  O29  1  0.689808  0.218960  0.886862  1
  O  O30  1  0.189241  0.719005  0.612253  1
  O  O31  1  0.810758  0.219005  0.387745  1
  O  O32  1  0.514895  0.607874  0.515744  1
  O  O33  1  0.485103  0.107874  0.484255  1
  O  O34  1  0.984051  0.607373  0.015308  1
  O  O35  1  0.015946  0.107373  0.984691  1
  O  O36  1  0.532357  0.378603  0.489705  1
  O  O37  1  0.467641  0.878602  0.510294  1
  O  O38  1  0.966101  0.379043  0.990076  1
  O  O39  1  0.691993  0.774332  0.112749  1
  O  O40  1  0.810576  0.519132  0.405876  1
  O  O41  1  0.189425  0.019131  0.594125  1
  O  O42  1  0.688823  0.519283  0.905652  1
  O  O43  1  0.457101  0.860881  0.254613  1
  O  O44  1  0.807379  0.480269  0.598577  1
  O  O45  1  0.192621  0.980269  0.401423  1
  O  O46  1  0.691641  0.480269  0.098765  1
  O  O47  1  0.308359  0.980269  0.901235  1
  O  O48  1  0.040287  0.135010  0.244784  1
  O  O49  1  0.959716  0.635011  0.755215  1
  O  O50  1  0.459978  0.134774  0.744497  1
  O  O51  1  0.540020  0.634774  0.255502  1
  O  O52  1  0.956322  0.360468  0.245531  1
  O  O53  1  0.043677  0.860467  0.754469  1
  O  O54  1  0.542899  0.360882  0.745386  1
  O  O55  1  0.311177  0.019283  0.094347  1
  F  F56  1  0.028876  0.874407  0.228911  1
  F  F57  1  0.971127  0.374406  0.771085  1
  F  F58  1  0.472249  0.874424  0.727767  1
  F  F59  1  0.527753  0.374426  0.272233  1
  F  F60  1  0.479450  0.121271  0.271071  1
  F  F61  1  0.520553  0.621268  0.728928  1
  F  F62  1  0.020712  0.120741  0.770050  1
  F  F63  1  0.979288  0.620744  0.229949  1
