# generated using pymatgen
data_TmLu2Sc3MnBi2
_symmetry_space_group_name_H-M   'P 1'
_cell_length_a   7.89719000
_cell_length_b   7.89148604
_cell_length_c   4.19741700
_cell_angle_alpha   90.00000000
_cell_angle_beta   90.00000000
_cell_angle_gamma   120.02391288
_symmetry_Int_Tables_number   1
_chemical_formula_structural   TmLu2Sc3MnBi2
_chemical_formula_sum   'Tm1 Lu2 Sc3 Mn1 Bi2'
_cell_volume   226.48499231
_cell_formula_units_Z   1
loop_
 _symmetry_equiv_pos_site_id
 _symmetry_equiv_pos_as_xyz
  1  'x, y, z'
loop_
 _atom_site_type_symbol
 _atom_site_label
 _atom_site_symmetry_multiplicity
 _atom_site_fract_x
 _atom_site_fract_y
 _atom_site_fract_z
 _atom_site_occupancy
  Tm  Tm0  1  0.615307  0.000000  0.000000  1
  Lu  Lu1  1  0.999905  0.615921  0.000000  1
  Lu  Lu2  1  0.383984  0.384079  0.000000  1
  Sc  Sc3  1  0.224860  0.000000  0.500000  1
  Sc  Sc4  1  0.000409  0.225180  0.500000  1
  Sc  Sc5  1  0.775228  0.774820  0.500000  1
  Mn  Mn6  1  0.000590  0.000000  0.000000  1
  Bi  Bi7  1  0.332985  0.666253  0.500000  1
  Bi  Bi8  1  0.666733  0.333747  0.500000  1
