# generated using pymatgen
data_Tb2MnGe2RuC
_symmetry_space_group_name_H-M   'P 1'
_cell_length_a   5.84906651
_cell_length_b   5.84906696
_cell_length_c   6.93380250
_cell_angle_alpha   125.88194255
_cell_angle_beta   125.88194855
_cell_angle_gamma   40.79880973
_symmetry_Int_Tables_number   1
_chemical_formula_structural   Tb2MnGe2RuC
_chemical_formula_sum   'Tb2 Mn1 Ge2 Ru1 C1'
_cell_volume   120.95398997
_cell_formula_units_Z   1
loop_
 _symmetry_equiv_pos_site_id
 _symmetry_equiv_pos_as_xyz
  1  'x, y, z'
loop_
 _atom_site_type_symbol
 _atom_site_label
 _atom_site_symmetry_multiplicity
 _atom_site_fract_x
 _atom_site_fract_y
 _atom_site_fract_z
 _atom_site_occupancy
  Tb  Tb0  1  0.560717  0.560717  0.287912  1
  Tb  Tb1  1  0.439455  0.439455  0.709008  1
  Mn  Mn2  1  0.799881  0.799881  0.906298  1
  Ge  Ge3  1  0.847527  0.847527  0.298634  1
  Ge  Ge4  1  0.164039  0.164039  0.707154  1
  Ru  Ru5  1  0.198310  0.198310  0.095666  1
  C  C6  1  0.990071  0.990071  0.995324  1
