# generated using pymatgen
data_YErAl20(RuRh)2
_symmetry_space_group_name_H-M   'P 1'
_cell_length_a   6.84757483
_cell_length_b   6.84197012
_cell_length_c   9.15428100
_cell_angle_alpha   90.00000000
_cell_angle_beta   90.00000000
_cell_angle_gamma   97.13556853
_symmetry_Int_Tables_number   1
_chemical_formula_structural   YErAl20(RuRh)2
_chemical_formula_sum   'Y1 Er1 Al20 Ru2 Rh2'
_cell_volume   425.56460764
_cell_formula_units_Z   1
loop_
 _symmetry_equiv_pos_site_id
 _symmetry_equiv_pos_as_xyz
  1  'x, y, z'
loop_
 _atom_site_type_symbol
 _atom_site_label
 _atom_site_symmetry_multiplicity
 _atom_site_fract_x
 _atom_site_fract_y
 _atom_site_fract_z
 _atom_site_occupancy
  Y  Y0  1  0.868696  0.125727  0.750000  1
  Er  Er1  1  0.132004  0.874335  0.250000  1
  Al  Al2  1  0.620813  0.375717  0.549145  1
  Al  Al3  1  0.378682  0.624594  0.450155  1
  Al  Al4  1  0.378682  0.624594  0.049845  1
  Al  Al5  1  0.620813  0.375717  0.950855  1
  Al  Al6  1  0.224781  0.222855  0.498509  1
  Al  Al7  1  0.775459  0.776866  0.500414  1
  Al  Al8  1  0.775459  0.776866  0.999586  1
  Al  Al9  1  0.224781  0.222855  0.001491  1
  Al  Al10  1  0.844869  0.154013  0.101894  1
  Al  Al11  1  0.155808  0.845305  0.898816  1
  Al  Al12  1  0.155808  0.845305  0.601184  1
  Al  Al13  1  0.844869  0.154013  0.398106  1
  Al  Al14  1  0.856758  0.588845  0.750000  1
  Al  Al15  1  0.143756  0.412379  0.250000  1
  Al  Al16  1  0.411306  0.141317  0.750000  1
  Al  Al17  1  0.587482  0.858196  0.250000  1
  Al  Al18  1  0.224302  0.480927  0.750000  1
  Al  Al19  1  0.776409  0.519734  0.250000  1
  Al  Al20  1  0.517901  0.777783  0.750000  1
  Al  Al21  1  0.481376  0.221623  0.250000  1
  Ru  Ru22  1  0.499568  0.999863  0.000633  1
  Ru  Ru23  1  0.499568  0.999863  0.499367  1
  Rh  Rh24  1  0.000026  0.500354  0.499633  1
  Rh  Rh25  1  0.000026  0.500354  0.000367  1
