# generated using pymatgen
data_RbGa5(HgSe3)4
_symmetry_space_group_name_H-M   'P 1'
_cell_length_a   9.12474796
_cell_length_b   9.14262555
_cell_length_c   9.18844466
_cell_angle_alpha   107.08912827
_cell_angle_beta   108.09721425
_cell_angle_gamma   107.43642096
_symmetry_Int_Tables_number   1
_chemical_formula_structural   RbGa5(HgSe3)4
_chemical_formula_sum   'Rb1 Ga5 Hg4 Se12'
_cell_volume   628.68415073
_cell_formula_units_Z   1
loop_
 _symmetry_equiv_pos_site_id
 _symmetry_equiv_pos_as_xyz
  1  'x, y, z'
loop_
 _atom_site_type_symbol
 _atom_site_label
 _atom_site_symmetry_multiplicity
 _atom_site_fract_x
 _atom_site_fract_y
 _atom_site_fract_z
 _atom_site_occupancy
  Rb  Rb0  1  0.998051  0.997225  0.996272  1
  Ga  Ga1  1  0.483937  0.334231  0.941304  1
  Ga  Ga2  1  0.938453  0.488753  0.341285  1
  Ga  Ga3  1  0.329537  0.933579  0.480712  1
  Ga  Ga4  1  0.017738  0.186063  0.554901  1
  Ga  Ga5  1  0.560825  0.026785  0.187778  1
  Hg  Hg6  1  0.630493  0.707446  0.395808  1
  Hg  Hg7  1  0.400548  0.636313  0.715276  1
  Hg  Hg8  1  0.709233  0.393323  0.630605  1
  Hg  Hg9  1  0.190785  0.564058  0.019550  1
  Se  Se10  1  0.786100  0.939103  0.291352  1
  Se  Se11  1  0.305887  0.812419  0.934562  1
  Se  Se12  1  0.924886  0.270656  0.769414  1
  Se  Se13  1  0.066097  0.698046  0.243949  1
  Se  Se14  1  0.232910  0.082175  0.686071  1
  Se  Se15  1  0.696847  0.234870  0.083174  1
  Se  Se16  1  0.375869  0.414941  0.146318  1
  Se  Se17  1  0.139167  0.367865  0.433112  1
  Se  Se18  1  0.425433  0.133697  0.361472  1
  Se  Se19  1  0.883533  0.639480  0.565930  1
  Se  Se20  1  0.558407  0.879717  0.635321  1
  Se  Se21  1  0.639904  0.553896  0.880473  1
