# generated using pymatgen
data_Nd3Y3Sn6Pd5Pt
_symmetry_space_group_name_H-M   'P 1'
_cell_length_a   7.62144300
_cell_length_b   7.62144390
_cell_length_c   8.14456400
_cell_angle_alpha   90.00000000
_cell_angle_beta   90.00000000
_cell_angle_gamma   120.00000044
_symmetry_Int_Tables_number   1
_chemical_formula_structural   Nd3Y3Sn6Pd5Pt
_chemical_formula_sum   'Nd3 Y3 Sn6 Pd5 Pt1'
_cell_volume   409.70657458
_cell_formula_units_Z   1
loop_
 _symmetry_equiv_pos_site_id
 _symmetry_equiv_pos_as_xyz
  1  'x, y, z'
loop_
 _atom_site_type_symbol
 _atom_site_label
 _atom_site_symmetry_multiplicity
 _atom_site_fract_x
 _atom_site_fract_y
 _atom_site_fract_z
 _atom_site_occupancy
  Nd  Nd0  1  0.409991  0.998151  0.248995  1
  Nd  Nd1  1  0.588161  0.590009  0.248995  1
  Nd  Nd2  1  0.001849  0.411839  0.248995  1
  Y  Y3  1  0.403171  0.996941  0.750901  1
  Y  Y4  1  0.593770  0.596829  0.750901  1
  Y  Y5  1  0.003059  0.406230  0.750901  1
  Sn  Sn6  1  0.745507  0.002619  0.995435  1
  Sn  Sn7  1  0.256290  0.254768  0.504358  1
  Sn  Sn8  1  0.998477  0.743710  0.504358  1
  Sn  Sn9  1  0.997381  0.742888  0.995435  1
  Sn  Sn10  1  0.257112  0.254493  0.995435  1
  Sn  Sn11  1  0.745232  0.001523  0.504358  1
  Pd  Pd12  1  0.333333  0.666667  0.515582  1
  Pd  Pd13  1  0.666667  0.333333  0.981190  1
  Pd  Pd14  1  0.666667  0.333333  0.519093  1
  Pd  Pd15  1  0.000000  0.000000  0.249254  1
  Pd  Pd16  1  0.000000  0.000000  0.750768  1
  Pt  Pt17  1  0.333333  0.666667  0.985050  1
