# generated using pymatgen
data_Ho8Si6Ir7Rh
_symmetry_space_group_name_H-M   'P 1'
_cell_length_a   10.67819501
_cell_length_b   10.69028227
_cell_length_c   7.70584739
_cell_angle_alpha   71.76351703
_cell_angle_beta   71.75969875
_cell_angle_gamma   29.96894511
_symmetry_Int_Tables_number   1
_chemical_formula_structural   Ho8Si6Ir7Rh
_chemical_formula_sum   'Ho8 Si6 Ir7 Rh1'
_cell_volume   415.70824285
_cell_formula_units_Z   1
loop_
 _symmetry_equiv_pos_site_id
 _symmetry_equiv_pos_as_xyz
  1  'x, y, z'
loop_
 _atom_site_type_symbol
 _atom_site_label
 _atom_site_symmetry_multiplicity
 _atom_site_fract_x
 _atom_site_fract_y
 _atom_site_fract_z
 _atom_site_occupancy
  Ho  Ho0  1  0.790120  0.550465  0.598406  1
  Ho  Ho1  1  0.448289  0.210186  0.902572  1
  Ho  Ho2  1  0.210301  0.448774  0.400131  1
  Ho  Ho3  1  0.550856  0.790102  0.098382  1
  Ho  Ho4  1  0.789561  0.071651  0.171411  1
  Ho  Ho5  1  0.927272  0.211541  0.329300  1
  Ho  Ho6  1  0.210803  0.928149  0.829292  1
  Ho  Ho7  1  0.071661  0.790200  0.670116  1
  Si  Si8  1  0.957599  0.698884  0.056613  1
  Si  Si9  1  0.300978  0.043244  0.441897  1
  Si  Si10  1  0.044158  0.299852  0.942812  1
  Si  Si11  1  0.699330  0.957144  0.558046  1
  Si  Si12  1  0.605833  0.394381  0.750097  1
  Si  Si13  1  0.394224  0.605591  0.249938  1
  Ir  Ir14  1  0.589249  0.286988  0.526315  1
  Ir  Ir15  1  0.714385  0.409522  0.974444  1
  Ir  Ir16  1  0.409471  0.714267  0.474072  1
  Ir  Ir17  1  0.286992  0.589625  0.025353  1
  Ir  Ir18  1  0.632614  0.927913  0.308016  1
  Ir  Ir19  1  0.069320  0.370104  0.191930  1
  Ir  Ir20  1  0.369478  0.069946  0.692102  1
  Rh  Rh21  1  0.927506  0.631470  0.808756  1
