# generated using pymatgen
data_DyHo7Re3TcB24
_symmetry_space_group_name_H-M   'P 1'
_cell_length_a   3.67401300
_cell_length_b   9.15699107
_cell_length_c   11.53765800
_cell_angle_alpha   90.02665513
_cell_angle_beta   90.00000000
_cell_angle_gamma   90.00000000
_symmetry_Int_Tables_number   1
_chemical_formula_structural   DyHo7Re3TcB24
_chemical_formula_sum   'Dy1 Ho7 Re3 Tc1 B24'
_cell_volume   388.16028143
_cell_formula_units_Z   1
loop_
 _symmetry_equiv_pos_site_id
 _symmetry_equiv_pos_as_xyz
  1  'x, y, z'
loop_
 _atom_site_type_symbol
 _atom_site_label
 _atom_site_symmetry_multiplicity
 _atom_site_fract_x
 _atom_site_fract_y
 _atom_site_fract_z
 _atom_site_occupancy
  Dy  Dy0  1  0.000000  0.323885  0.413850  1
  Ho  Ho1  1  0.000000  0.676347  0.585906  1
  Ho  Ho2  1  0.000000  0.823744  0.086029  1
  Ho  Ho3  1  0.000000  0.176514  0.913991  1
  Ho  Ho4  1  0.000000  0.942089  0.369703  1
  Ho  Ho5  1  0.000000  0.056790  0.629792  1
  Ho  Ho6  1  0.000000  0.443726  0.130619  1
  Ho  Ho7  1  0.000000  0.556825  0.870272  1
  Re  Re8  1  0.000000  0.361356  0.679336  1
  Re  Re9  1  0.000000  0.138650  0.179224  1
  Re  Re10  1  0.000000  0.861335  0.820704  1
  Tc  Tc11  1  0.000000  0.638950  0.320640  1
  B  B12  1  0.500000  0.553561  0.432826  1
  B  B13  1  0.500000  0.446817  0.567007  1
  B  B14  1  0.500000  0.053354  0.066969  1
  B  B15  1  0.500000  0.946764  0.933002  1
  B  B16  1  0.500000  0.748906  0.418646  1
  B  B17  1  0.500000  0.250699  0.581344  1
  B  B18  1  0.500000  0.249445  0.081284  1
  B  B19  1  0.500000  0.750777  0.918766  1
  B  B20  1  0.500000  0.791935  0.265300  1
  B  B21  1  0.500000  0.207688  0.734536  1
  B  B22  1  0.500000  0.292184  0.234611  1
  B  B23  1  0.500000  0.707690  0.765429  1
  B  B24  1  0.500000  0.631142  0.185628  1
  B  B25  1  0.500000  0.369101  0.814482  1
  B  B26  1  0.500000  0.130644  0.314443  1
  B  B27  1  0.500000  0.869026  0.685455  1
  B  B28  1  0.500000  0.982125  0.211824  1
  B  B29  1  0.500000  0.017807  0.788041  1
  B  B30  1  0.500000  0.482684  0.288171  1
  B  B31  1  0.500000  0.517844  0.711966  1
  B  B32  1  0.500000  0.600286  0.028131  1
  B  B33  1  0.500000  0.399946  0.972252  1
  B  B34  1  0.500000  0.099657  0.471902  1
  B  B35  1  0.500000  0.899710  0.527916  1
