# generated using pymatgen
data_CaDy5Zr4(Si5Ir2)4
_symmetry_space_group_name_H-M   'P 1'
_cell_length_a   12.55528800
_cell_length_b   12.55528800
_cell_length_c   4.19029900
_cell_angle_alpha   90.00000000
_cell_angle_beta   90.00000000
_cell_angle_gamma   90.00000000
_symmetry_Int_Tables_number   1
_chemical_formula_structural   CaDy5Zr4(Si5Ir2)4
_chemical_formula_sum   'Ca1 Dy5 Zr4 Si20 Ir8'
_cell_volume   660.53885878
_cell_formula_units_Z   1
loop_
 _symmetry_equiv_pos_site_id
 _symmetry_equiv_pos_as_xyz
  1  'x, y, z'
loop_
 _atom_site_type_symbol
 _atom_site_label
 _atom_site_symmetry_multiplicity
 _atom_site_fract_x
 _atom_site_fract_y
 _atom_site_fract_z
 _atom_site_occupancy
  Ca  Ca0  1  0.500000  0.500000  0.000000  1
  Dy  Dy1  1  0.000000  0.000000  0.000000  1
  Dy  Dy2  1  0.884494  0.384785  0.500000  1
  Dy  Dy3  1  0.115506  0.615215  0.500000  1
  Dy  Dy4  1  0.384785  0.115506  0.500000  1
  Dy  Dy5  1  0.615215  0.884494  0.500000  1
  Zr  Zr6  1  0.673759  0.174707  0.500000  1
  Zr  Zr7  1  0.326241  0.825293  0.500000  1
  Zr  Zr8  1  0.174707  0.326241  0.500000  1
  Zr  Zr9  1  0.825293  0.673759  0.500000  1
  Si  Si10  1  0.566935  0.066658  0.000000  1
  Si  Si11  1  0.433065  0.933342  0.000000  1
  Si  Si12  1  0.066658  0.433065  0.000000  1
  Si  Si13  1  0.933342  0.566935  0.000000  1
  Si  Si14  1  0.664066  0.698268  0.000000  1
  Si  Si15  1  0.335934  0.301732  0.000000  1
  Si  Si16  1  0.165743  0.799495  0.000000  1
  Si  Si17  1  0.834257  0.200505  0.000000  1
  Si  Si18  1  0.301732  0.664066  0.000000  1
  Si  Si19  1  0.698268  0.335934  0.000000  1
  Si  Si20  1  0.200505  0.165743  0.000000  1
  Si  Si21  1  0.799495  0.834257  0.000000  1
  Si  Si22  1  0.655375  0.506941  0.500000  1
  Si  Si23  1  0.344625  0.493059  0.500000  1
  Si  Si24  1  0.157458  0.992936  0.500000  1
  Si  Si25  1  0.842542  0.007064  0.500000  1
  Si  Si26  1  0.493059  0.655375  0.500000  1
  Si  Si27  1  0.506941  0.344625  0.500000  1
  Si  Si28  1  0.007064  0.157458  0.500000  1
  Si  Si29  1  0.992936  0.842542  0.500000  1
  Ir  Ir30  1  0.746384  0.520334  0.000000  1
  Ir  Ir31  1  0.253616  0.479666  0.000000  1
  Ir  Ir32  1  0.245635  0.979580  0.000000  1
  Ir  Ir33  1  0.754365  0.020420  0.000000  1
  Ir  Ir34  1  0.479666  0.746384  0.000000  1
  Ir  Ir35  1  0.520334  0.253616  0.000000  1
  Ir  Ir36  1  0.020420  0.245635  0.000000  1
  Ir  Ir37  1  0.979580  0.754365  0.000000  1
