# generated using pymatgen
data_Ho5Lu11(Tl3Ru)2
_symmetry_space_group_name_H-M   'P 1'
_cell_length_a   10.23166222
_cell_length_b   10.23136573
_cell_length_c   6.98238900
_cell_angle_alpha   90.02589446
_cell_angle_beta   89.97205674
_cell_angle_gamma   120.07729498
_symmetry_Int_Tables_number   1
_chemical_formula_structural   Ho5Lu11(Tl3Ru)2
_chemical_formula_sum   'Ho5 Lu11 Tl6 Ru2'
_cell_volume   632.52198144
_cell_formula_units_Z   1
loop_
 _symmetry_equiv_pos_site_id
 _symmetry_equiv_pos_as_xyz
  1  'x, y, z'
loop_
 _atom_site_type_symbol
 _atom_site_label
 _atom_site_symmetry_multiplicity
 _atom_site_fract_x
 _atom_site_fract_y
 _atom_site_fract_z
 _atom_site_occupancy
  Ho  Ho0  1  0.532677  0.065385  0.523858  1
  Ho  Ho1  1  0.934658  0.467341  0.523883  1
  Ho  Ho2  1  0.532265  0.467693  0.524643  1
  Ho  Ho3  1  0.467277  0.934285  0.024049  1
  Ho  Ho4  1  0.065645  0.532708  0.024062  1
  Lu  Lu5  1  0.466599  0.533446  0.024871  1
  Lu  Lu6  1  0.177915  0.354960  0.727326  1
  Lu  Lu7  1  0.645042  0.822096  0.727298  1
  Lu  Lu8  1  0.177233  0.822767  0.726584  1
  Lu  Lu9  1  0.821940  0.645031  0.225743  1
  Lu  Lu10  1  0.354936  0.178040  0.225745  1
  Lu  Lu11  1  0.822949  0.177052  0.226299  1
  Lu  Lu12  1  0.666215  0.333805  0.904573  1
  Lu  Lu13  1  0.333780  0.666246  0.404299  1
  Lu  Lu14  1  0.000008  0.000010  0.506137  1
  Lu  Lu15  1  0.999991  0.000005  0.006117  1
  Tl  Tl16  1  0.837078  0.674497  0.772776  1
  Tl  Tl17  1  0.325513  0.162891  0.772825  1
  Tl  Tl18  1  0.837086  0.162924  0.773293  1
  Tl  Tl19  1  0.163532  0.326006  0.272710  1
  Tl  Tl20  1  0.674073  0.836476  0.272705  1
  Tl  Tl21  1  0.162799  0.837166  0.273176  1
  Ru  Ru22  1  0.666833  0.333193  0.295929  1
  Ru  Ru23  1  0.333954  0.665978  0.796778  1
