# generated using pymatgen
data_Pm4Ir3Au
_symmetry_space_group_name_H-M   'P 1'
_cell_length_a   7.47820285
_cell_length_b   5.82602066
_cell_length_c   4.38289100
_cell_angle_alpha   90.00000000
_cell_angle_beta   90.00000000
_cell_angle_gamma   90.03296397
_symmetry_Int_Tables_number   1
_chemical_formula_structural   Pm4Ir3Au
_chemical_formula_sum   'Pm4 Ir3 Au1'
_cell_volume   190.95448350
_cell_formula_units_Z   1
loop_
 _symmetry_equiv_pos_site_id
 _symmetry_equiv_pos_as_xyz
  1  'x, y, z'
loop_
 _atom_site_type_symbol
 _atom_site_label
 _atom_site_symmetry_multiplicity
 _atom_site_fract_x
 _atom_site_fract_y
 _atom_site_fract_z
 _atom_site_occupancy
  Pm  Pm0  1  0.110646  0.501915  0.000000  1
  Pm  Pm1  1  0.577828  0.742613  0.000000  1
  Pm  Pm2  1  0.240529  0.014760  0.499999  1
  Pm  Pm3  1  0.732681  0.235139  0.499999  1
  Ir  Ir4  1  0.464475  0.225167  0.000000  1
  Ir  Ir5  1  0.958463  0.027404  0.000000  1
  Ir  Ir6  1  0.375118  0.524224  0.499999  1
  Au  Au7  1  0.873592  0.728780  0.499999  1
