# generated using pymatgen
data_UNi2Pt3
_symmetry_space_group_name_H-M   'P 1'
_cell_length_a   5.06953187
_cell_length_b   5.06953292
_cell_length_c   5.06953230
_cell_angle_alpha   121.06392553
_cell_angle_beta   117.25207715
_cell_angle_gamma   91.49558150
_symmetry_Int_Tables_number   1
_chemical_formula_structural   UNi2Pt3
_chemical_formula_sum   'U1 Ni2 Pt3'
_cell_volume   93.14048170
_cell_formula_units_Z   1
loop_
 _symmetry_equiv_pos_site_id
 _symmetry_equiv_pos_as_xyz
  1  'x, y, z'
loop_
 _atom_site_type_symbol
 _atom_site_label
 _atom_site_symmetry_multiplicity
 _atom_site_fract_x
 _atom_site_fract_y
 _atom_site_fract_z
 _atom_site_occupancy
  U  U0  1  0.997791  0.997791  0.000000  1
  Ni  Ni1  1  0.622718  0.373336  0.750618  1
  Ni  Ni2  1  0.622718  0.872102  0.249382  1
  Pt  Pt3  1  0.624472  0.374313  0.250160  1
  Pt  Pt4  1  0.124152  0.374313  0.749840  1
  Pt  Pt5  1  0.258147  0.758147  0.500000  1
