# generated using pymatgen
data_H7W
_symmetry_space_group_name_H-M   'P 1'
_cell_length_a   2.88259691
_cell_length_b   2.89042930
_cell_length_c   10.38241098
_cell_angle_alpha   90.58531037
_cell_angle_beta   90.12113365
_cell_angle_gamma   60.11432135
_symmetry_Int_Tables_number   1
_chemical_formula_structural   H7W
_chemical_formula_sum   'H7 W1'
_cell_volume   74.99788944
_cell_formula_units_Z   1
loop_
 _symmetry_equiv_pos_site_id
 _symmetry_equiv_pos_as_xyz
  1  'x, y, z'
loop_
 _atom_site_type_symbol
 _atom_site_label
 _atom_site_symmetry_multiplicity
 _atom_site_fract_x
 _atom_site_fract_y
 _atom_site_fract_z
 _atom_site_occupancy
  H  H0  1  0.273189  0.712174  0.103116  1
  H  H1  1  0.221958  0.763870  0.561438  1
  H  H2  1  0.553552  0.106203  0.633088  1
  H  H3  1  0.420917  0.313883  0.341789  1
  H  H4  1  0.645389  0.121219  0.299256  1
  H  H5  1  0.152964  0.944995  0.058431  1
  H  H6  1  0.883598  0.444068  0.818583  1
  W  W7  1  0.219593  0.773659  0.723216  1
