# generated using pymatgen
data_Dy5MnCo17TcP12
_symmetry_space_group_name_H-M   'P 1'
_cell_length_a   12.02937718
_cell_length_b   12.00800735
_cell_length_c   3.68794600
_cell_angle_alpha   90.00000000
_cell_angle_beta   90.00000000
_cell_angle_gamma   119.79202783
_symmetry_Int_Tables_number   1
_chemical_formula_structural   Dy5MnCo17TcP12
_chemical_formula_sum   'Dy5 Mn1 Co17 Tc1 P12'
_cell_volume   462.31246092
_cell_formula_units_Z   1
loop_
 _symmetry_equiv_pos_site_id
 _symmetry_equiv_pos_as_xyz
  1  'x, y, z'
loop_
 _atom_site_type_symbol
 _atom_site_label
 _atom_site_symmetry_multiplicity
 _atom_site_fract_x
 _atom_site_fract_y
 _atom_site_fract_z
 _atom_site_occupancy
  Dy  Dy0  1  0.665407  0.333256  0.000000  1
  Dy  Dy1  1  0.333886  0.665754  0.000000  1
  Dy  Dy2  1  0.184989  0.184402  0.500000  1
  Dy  Dy3  1  0.813258  0.999991  0.500000  1
  Dy  Dy4  1  0.000707  0.812694  0.500000  1
  Mn  Mn5  1  0.442256  0.999291  0.000000  1
  Co  Co6  1  0.999580  0.447772  0.000000  1
  Co  Co7  1  0.823245  0.200874  0.000000  1
  Co  Co8  1  0.802749  0.624093  0.000000  1
  Co  Co9  1  0.377247  0.178660  0.000000  1
  Co  Co10  1  0.198703  0.820299  0.000000  1
  Co  Co11  1  0.625994  0.803427  0.000000  1
  Co  Co12  1  0.176957  0.378132  0.000000  1
  Co  Co13  1  0.643414  0.125379  0.500000  1
  Co  Co14  1  0.873187  0.515334  0.500000  1
  Co  Co15  1  0.482539  0.357422  0.500000  1
  Co  Co16  1  0.124465  0.640967  0.500000  1
  Co  Co17  1  0.516225  0.872226  0.500000  1
  Co  Co18  1  0.356726  0.481745  0.500000  1
  Co  Co19  1  0.718658  0.718316  0.500000  1
  Co  Co20  1  0.283685  0.999920  0.500000  1
  Co  Co21  1  0.000111  0.285404  0.500000  1
  Co  Co22  1  0.001321  0.002008  0.000000  1
  Tc  Tc23  1  0.553796  0.554158  0.000000  1
  P  P24  1  0.362293  0.363305  0.000000  1
  P  P25  1  0.635078  0.001068  0.000000  1
  P  P26  1  0.000208  0.632064  0.000000  1
  P  P27  1  0.833997  0.313868  0.500000  1
  P  P28  1  0.686178  0.520738  0.500000  1
  P  P29  1  0.479790  0.165233  0.500000  1
  P  P30  1  0.313475  0.833169  0.500000  1
  P  P31  1  0.521391  0.685971  0.500000  1
  P  P32  1  0.165041  0.479955  0.500000  1
  P  P33  1  0.822488  0.821844  0.000000  1
  P  P34  1  0.180706  0.999670  0.000000  1
  P  P35  1  0.000253  0.181592  0.000000  1
