# generated using pymatgen
data_TaNb6Ni4MoN2
_symmetry_space_group_name_H-M   'P 1'
_cell_length_a   8.23898624
_cell_length_b   8.22006733
_cell_length_c   8.22068599
_cell_angle_alpha   59.81463328
_cell_angle_beta   59.91949044
_cell_angle_gamma   59.91184077
_symmetry_Int_Tables_number   1
_chemical_formula_structural   TaNb6Ni4MoN2
_chemical_formula_sum   'Ta2 Nb12 Ni8 Mo2 N4'
_cell_volume   392.62403327
_cell_formula_units_Z   2
loop_
 _symmetry_equiv_pos_site_id
 _symmetry_equiv_pos_as_xyz
  1  'x, y, z'
loop_
 _atom_site_type_symbol
 _atom_site_label
 _atom_site_symmetry_multiplicity
 _atom_site_fract_x
 _atom_site_fract_y
 _atom_site_fract_z
 _atom_site_occupancy
  Ta  Ta0  1  0.125000  0.125000  0.625000  1
  Ta  Ta1  1  0.125000  0.625000  0.125000  1
  Nb  Nb2  1  0.316910  0.683169  0.683044  1
  Nb  Nb3  1  0.566629  0.563657  0.934824  1
  Nb  Nb4  1  0.315081  0.686594  0.315132  1
  Nb  Nb5  1  0.315045  0.315148  0.686546  1
  Nb  Nb6  1  0.686209  0.313806  0.313827  1
  Nb  Nb7  1  0.934955  0.934852  0.563454  1
  Nb  Nb8  1  0.934919  0.563406  0.934868  1
  Nb  Nb9  1  0.933090  0.566831  0.566956  1
  Nb  Nb10  1  0.563791  0.936194  0.936173  1
  Nb  Nb11  1  0.683371  0.686343  0.315176  1
  Nb  Nb12  1  0.683311  0.315171  0.686390  1
  Nb  Nb13  1  0.566689  0.934829  0.563610  1
  Ni  Ni14  1  0.009950  0.328472  0.328442  1
  Ni  Ni15  1  0.916697  0.921394  0.921399  1
  Ni  Ni16  1  0.330001  0.326208  0.014160  1
  Ni  Ni17  1  0.919999  0.923792  0.235840  1
  Ni  Ni18  1  0.240050  0.921528  0.921558  1
  Ni  Ni19  1  0.330352  0.014321  0.325834  1
  Ni  Ni20  1  0.919648  0.235679  0.924166  1
  Ni  Ni21  1  0.333303  0.328606  0.328601  1
  Mo  Mo22  1  0.125000  0.125000  0.125000  1
  Mo  Mo23  1  0.625000  0.125000  0.125000  1
  N  N24  1  0.625000  0.125000  0.625000  1
  N  N25  1  0.625000  0.625000  0.125000  1
  N  N26  1  0.125000  0.625000  0.625000  1
  N  N27  1  0.625000  0.625000  0.625000  1
