# generated using pymatgen
data_Ta2Nb8Al4Zn
_symmetry_space_group_name_H-M   'P 1'
_cell_length_a   9.96870600
_cell_length_b   9.96870600
_cell_length_c   5.20217500
_cell_angle_alpha   90.00000000
_cell_angle_beta   90.00000000
_cell_angle_gamma   90.00000000
_symmetry_Int_Tables_number   1
_chemical_formula_structural   Ta2Nb8Al4Zn
_chemical_formula_sum   'Ta4 Nb16 Al8 Zn2'
_cell_volume   516.96665728
_cell_formula_units_Z   2
loop_
 _symmetry_equiv_pos_site_id
 _symmetry_equiv_pos_as_xyz
  1  'x, y, z'
loop_
 _atom_site_type_symbol
 _atom_site_label
 _atom_site_symmetry_multiplicity
 _atom_site_fract_x
 _atom_site_fract_y
 _atom_site_fract_z
 _atom_site_occupancy
  Ta  Ta0  1  0.129384  0.464721  0.000000  1
  Ta  Ta1  1  0.964721  0.370616  0.500000  1
  Ta  Ta2  1  0.035279  0.629384  0.500000  1
  Ta  Ta3  1  0.870616  0.535279  0.000000  1
  Nb  Nb4  1  0.398093  0.396799  0.000000  1
  Nb  Nb5  1  0.896799  0.101907  0.500000  1
  Nb  Nb6  1  0.103201  0.898093  0.500000  1
  Nb  Nb7  1  0.601907  0.603201  0.000000  1
  Nb  Nb8  1  0.371431  0.965231  0.500000  1
  Nb  Nb9  1  0.628569  0.034769  0.500000  1
  Nb  Nb10  1  0.465231  0.128569  0.000000  1
  Nb  Nb11  1  0.534769  0.871431  0.000000  1
  Nb  Nb12  1  0.181258  0.183011  0.252224  1
  Nb  Nb13  1  0.683011  0.318742  0.752224  1
  Nb  Nb14  1  0.316989  0.681258  0.752224  1
  Nb  Nb15  1  0.818742  0.816989  0.252224  1
  Nb  Nb16  1  0.316989  0.681258  0.247776  1
  Nb  Nb17  1  0.683011  0.318742  0.247776  1
  Nb  Nb18  1  0.181258  0.183011  0.747776  1
  Nb  Nb19  1  0.818742  0.816989  0.747776  1
  Al  Al20  1  0.259228  0.933832  0.000000  1
  Al  Al21  1  0.433832  0.240772  0.500000  1
  Al  Al22  1  0.566168  0.759228  0.500000  1
  Al  Al23  1  0.740772  0.066168  0.000000  1
  Al  Al24  1  0.240145  0.433858  0.500000  1
  Al  Al25  1  0.759855  0.566142  0.500000  1
  Al  Al26  1  0.933858  0.259855  0.000000  1
  Al  Al27  1  0.066142  0.740145  0.000000  1
  Zn  Zn28  1  0.000000  0.000000  0.000000  1
  Zn  Zn29  1  0.500000  0.500000  0.500000  1
