# generated using pymatgen
data_CaTmSi(Ni2As)6
_symmetry_space_group_name_H-M   'P 1'
_cell_length_a   9.32472300
_cell_length_b   9.32472152
_cell_length_c   3.80716200
_cell_angle_alpha   90.00000000
_cell_angle_beta   90.00000000
_cell_angle_gamma   120.00000881
_symmetry_Int_Tables_number   1
_chemical_formula_structural   CaTmSi(Ni2As)6
_chemical_formula_sum   'Ca1 Tm1 Si1 Ni12 As6'
_cell_volume   286.68420118
_cell_formula_units_Z   1
loop_
 _symmetry_equiv_pos_site_id
 _symmetry_equiv_pos_as_xyz
  1  'x, y, z'
loop_
 _atom_site_type_symbol
 _atom_site_label
 _atom_site_symmetry_multiplicity
 _atom_site_fract_x
 _atom_site_fract_y
 _atom_site_fract_z
 _atom_site_occupancy
  Ca  Ca0  1  0.333333  0.666667  0.500000  1
  Tm  Tm1  1  0.000000  0.000000  0.000000  1
  Si  Si2  1  0.666667  0.333333  0.000000  1
  Ni  Ni3  1  0.817045  0.609836  0.000000  1
  Ni  Ni4  1  0.390164  0.207209  0.000000  1
  Ni  Ni5  1  0.792791  0.182955  0.000000  1
  Ni  Ni6  1  0.040077  0.757308  0.500000  1
  Ni  Ni7  1  0.242692  0.282769  0.500000  1
  Ni  Ni8  1  0.717231  0.959923  0.500000  1
  Ni  Ni9  1  0.104376  0.384414  0.000000  1
  Ni  Ni10  1  0.615586  0.719963  0.000000  1
  Ni  Ni11  1  0.280037  0.895624  0.000000  1
  Ni  Ni12  1  0.859153  0.420338  0.500000  1
  Ni  Ni13  1  0.579662  0.438815  0.500000  1
  Ni  Ni14  1  0.561185  0.140847  0.500000  1
  As  As15  1  0.774783  0.739156  0.500000  1
  As  As16  1  0.260844  0.035626  0.500000  1
  As  As17  1  0.964374  0.225217  0.500000  1
  As  As18  1  0.068143  0.615941  0.000000  1
  As  As19  1  0.384059  0.452202  0.000000  1
  As  As20  1  0.547798  0.931857  0.000000  1
