# generated using pymatgen
data_Hf6GaFeSn
_symmetry_space_group_name_H-M   'P 1'
_cell_length_a   3.35410700
_cell_length_b   7.90347787
_cell_length_c   7.90347900
_cell_angle_alpha   120.00000891
_cell_angle_beta   90.00000000
_cell_angle_gamma   90.00000000
_symmetry_Int_Tables_number   1
_chemical_formula_structural   Hf6GaFeSn
_chemical_formula_sum   'Hf6 Ga1 Fe1 Sn1'
_cell_volume   181.44460142
_cell_formula_units_Z   1
loop_
 _symmetry_equiv_pos_site_id
 _symmetry_equiv_pos_as_xyz
  1  'x, y, z'
loop_
 _atom_site_type_symbol
 _atom_site_label
 _atom_site_symmetry_multiplicity
 _atom_site_fract_x
 _atom_site_fract_y
 _atom_site_fract_z
 _atom_site_occupancy
  Hf  Hf0  1  0.500000  0.754576  0.756246  1
  Hf  Hf1  1  0.500000  0.001670  0.245424  1
  Hf  Hf2  1  0.500000  0.243754  0.998330  1
  Hf  Hf3  1  0.000000  0.387176  0.400674  1
  Hf  Hf4  1  0.000000  0.013498  0.612824  1
  Hf  Hf5  1  0.000000  0.599326  0.986502  1
  Ga  Ga6  1  0.500000  0.333333  0.666667  1
  Fe  Fe7  1  0.000000  0.000000  0.000000  1
  Sn  Sn8  1  0.500000  0.666667  0.333333  1
