# generated using pymatgen
data_Tm8B24IrW3
_symmetry_space_group_name_H-M   'P 1'
_cell_length_a   3.58366500
_cell_length_b   9.20598537
_cell_length_c   11.59450425
_cell_angle_alpha   89.87680367
_cell_angle_beta   90.00000000
_cell_angle_gamma   90.00000000
_symmetry_Int_Tables_number   1
_chemical_formula_structural   Tm8B24IrW3
_chemical_formula_sum   'Tm8 B24 Ir1 W3'
_cell_volume   382.51534808
_cell_formula_units_Z   1
loop_
 _symmetry_equiv_pos_site_id
 _symmetry_equiv_pos_as_xyz
  1  'x, y, z'
loop_
 _atom_site_type_symbol
 _atom_site_label
 _atom_site_symmetry_multiplicity
 _atom_site_fract_x
 _atom_site_fract_y
 _atom_site_fract_z
 _atom_site_occupancy
  Tm  Tm0  1  0.000000  0.320853  0.412510  1
  Tm  Tm1  1  0.000000  0.675605  0.582571  1
  Tm  Tm2  1  0.000000  0.819731  0.089237  1
  Tm  Tm3  1  0.000000  0.183086  0.914433  1
  Tm  Tm4  1  0.000000  0.943656  0.373285  1
  Tm  Tm5  1  0.000000  0.056316  0.628489  1
  Tm  Tm6  1  0.000000  0.445526  0.126716  1
  Tm  Tm7  1  0.000000  0.557448  0.871687  1
  B  B8  1  0.500000  0.550509  0.435153  1
  B  B9  1  0.500000  0.448545  0.565245  1
  B  B10  1  0.500000  0.050228  0.062816  1
  B  B11  1  0.500000  0.945313  0.933168  1
  B  B12  1  0.500000  0.750789  0.422720  1
  B  B13  1  0.500000  0.248002  0.578706  1
  B  B14  1  0.500000  0.252794  0.077050  1
  B  B15  1  0.500000  0.750865  0.920178  1
  B  B16  1  0.500000  0.795088  0.264535  1
  B  B17  1  0.500000  0.204018  0.737842  1
  B  B18  1  0.500000  0.294636  0.235438  1
  B  B19  1  0.500000  0.709177  0.765085  1
  B  B20  1  0.500000  0.631904  0.182563  1
  B  B21  1  0.500000  0.369347  0.818247  1
  B  B22  1  0.500000  0.130396  0.316633  1
  B  B23  1  0.500000  0.868398  0.684609  1
  B  B24  1  0.500000  0.977291  0.212711  1
  B  B25  1  0.500000  0.017395  0.788227  1
  B  B26  1  0.500000  0.477854  0.286319  1
  B  B27  1  0.500000  0.523149  0.712457  1
  B  B28  1  0.500000  0.605749  0.027278  1
  B  B29  1  0.500000  0.399407  0.971000  1
  B  B30  1  0.500000  0.102153  0.472474  1
  B  B31  1  0.500000  0.895826  0.530745  1
  Ir  Ir32  1  0.000000  0.861688  0.820821  1
  W  W33  1  0.000000  0.638510  0.320548  1
  W  W34  1  0.000000  0.360814  0.680946  1
  W  W35  1  0.000000  0.137933  0.177557  1
