# generated using pymatgen
data_Er4ScBRh7Au8
_symmetry_space_group_name_H-M   'P 1'
_cell_length_a   4.13266800
_cell_length_b   4.13266800
_cell_length_c   21.22667200
_cell_angle_alpha   90.00000000
_cell_angle_beta   90.00000000
_cell_angle_gamma   90.00000000
_symmetry_Int_Tables_number   1
_chemical_formula_structural   Er4ScBRh7Au8
_chemical_formula_sum   'Er4 Sc1 B1 Rh7 Au8'
_cell_volume   362.52915934
_cell_formula_units_Z   1
loop_
 _symmetry_equiv_pos_site_id
 _symmetry_equiv_pos_as_xyz
  1  'x, y, z'
loop_
 _atom_site_type_symbol
 _atom_site_label
 _atom_site_symmetry_multiplicity
 _atom_site_fract_x
 _atom_site_fract_y
 _atom_site_fract_z
 _atom_site_occupancy
  Er  Er0  1  0.000000  0.000000  0.904031  1
  Er  Er1  1  0.000000  0.000000  0.091511  1
  Er  Er2  1  0.000000  0.000000  0.297916  1
  Er  Er3  1  0.000000  0.000000  0.503646  1
  Sc  Sc4  1  0.000000  0.000000  0.703788  1
  B  B5  1  0.500000  0.500000  0.997642  1
  Rh  Rh6  1  0.500000  0.500000  0.897346  1
  Rh  Rh7  1  0.500000  0.500000  0.098282  1
  Rh  Rh8  1  0.500000  0.500000  0.299331  1
  Rh  Rh9  1  0.500000  0.500000  0.503146  1
  Rh  Rh10  1  0.500000  0.500000  0.702305  1
  Rh  Rh11  1  0.500000  0.000000  0.997893  1
  Rh  Rh12  1  0.000000  0.500000  0.997893  1
  Au  Au13  1  0.500000  0.000000  0.197036  1
  Au  Au14  1  0.500000  0.000000  0.400908  1
  Au  Au15  1  0.500000  0.000000  0.605949  1
  Au  Au16  1  0.500000  0.000000  0.798743  1
  Au  Au17  1  0.000000  0.500000  0.197036  1
  Au  Au18  1  0.000000  0.500000  0.400908  1
  Au  Au19  1  0.000000  0.500000  0.605949  1
  Au  Au20  1  0.000000  0.500000  0.798743  1
