# generated using pymatgen
data_Tb4Pr2IrBr10
_symmetry_space_group_name_H-M   'P 1'
_cell_length_a   7.48834276
_cell_length_b   9.42450787
_cell_length_c   9.39982750
_cell_angle_alpha   109.12367818
_cell_angle_beta   96.77243906
_cell_angle_gamma   104.67801526
_symmetry_Int_Tables_number   1
_chemical_formula_structural   Tb4Pr2IrBr10
_chemical_formula_sum   'Tb4 Pr2 Ir1 Br10'
_cell_volume   591.48418356
_cell_formula_units_Z   1
loop_
 _symmetry_equiv_pos_site_id
 _symmetry_equiv_pos_as_xyz
  1  'x, y, z'
loop_
 _atom_site_type_symbol
 _atom_site_label
 _atom_site_symmetry_multiplicity
 _atom_site_fract_x
 _atom_site_fract_y
 _atom_site_fract_z
 _atom_site_occupancy
  Tb  Tb0  1  0.638018  0.866304  0.817736  1
  Tb  Tb1  1  0.361982  0.133696  0.182264  1
  Tb  Tb2  1  0.125481  0.044223  0.750973  1
  Tb  Tb3  1  0.874519  0.955777  0.249027  1
  Pr  Pr4  1  0.971121  0.299772  0.098698  1
  Pr  Pr5  1  0.028879  0.700228  0.901302  1
  Ir  Ir6  1  0.000000  0.000000  0.000000  1
  Br  Br7  1  0.541761  0.171995  0.916011  1
  Br  Br8  1  0.458239  0.828005  0.083989  1
  Br  Br9  1  0.752478  0.917001  0.544013  1
  Br  Br10  1  0.247522  0.082999  0.455987  1
  Br  Br11  1  0.092193  0.360998  0.822126  1
  Br  Br12  1  0.907807  0.639002  0.177874  1
  Br  Br13  1  0.221522  0.750269  0.644278  1
  Br  Br14  1  0.778478  0.249731  0.355722  1
  Br  Br15  1  0.631883  0.549735  0.725442  1
  Br  Br16  1  0.368117  0.450265  0.274558  1
