# generated using pymatgen
data_Tm4MnTc4Os3
_symmetry_space_group_name_H-M   'P 1'
_cell_length_a   5.24170963
_cell_length_b   5.26630525
_cell_length_c   8.89476300
_cell_angle_alpha   90.00000000
_cell_angle_beta   90.00000000
_cell_angle_gamma   119.03820730
_symmetry_Int_Tables_number   1
_chemical_formula_structural   Tm4MnTc4Os3
_chemical_formula_sum   'Tm4 Mn1 Tc4 Os3'
_cell_volume   214.67030318
_cell_formula_units_Z   1
loop_
 _symmetry_equiv_pos_site_id
 _symmetry_equiv_pos_as_xyz
  1  'x, y, z'
loop_
 _atom_site_type_symbol
 _atom_site_label
 _atom_site_symmetry_multiplicity
 _atom_site_fract_x
 _atom_site_fract_y
 _atom_site_fract_z
 _atom_site_occupancy
  Tm  Tm0  1  0.666685  0.332905  0.561828  1
  Tm  Tm1  1  0.334263  0.670305  0.437076  1
  Tm  Tm2  1  0.334263  0.670305  0.062924  1
  Tm  Tm3  1  0.666685  0.332905  0.938172  1
  Mn  Mn4  1  0.830411  0.657956  0.250000  1
  Tc  Tc5  1  0.167495  0.336122  0.750000  1
  Tc  Tc6  1  0.172878  0.827111  0.750000  1
  Tc  Tc7  1  0.658526  0.828391  0.750000  1
  Tc  Tc8  1  0.826957  0.167349  0.250000  1
  Os  Os9  1  0.997876  0.004021  0.495051  1
  Os  Os10  1  0.997876  0.004021  0.004949  1
  Os  Os11  1  0.346084  0.168608  0.250000  1
