# generated using pymatgen
data_Li4Ca3LaSi8
_symmetry_space_group_name_H-M   'P 1'
_cell_length_a   3.83940300
_cell_length_b   7.91312465
_cell_length_c   10.66985822
_cell_angle_alpha   89.92609737
_cell_angle_beta   90.00000000
_cell_angle_gamma   90.00000000
_symmetry_Int_Tables_number   1
_chemical_formula_structural   Li4Ca3LaSi8
_chemical_formula_sum   'Li4 Ca3 La1 Si8'
_cell_volume   324.16788975
_cell_formula_units_Z   1
loop_
 _symmetry_equiv_pos_site_id
 _symmetry_equiv_pos_as_xyz
  1  'x, y, z'
loop_
 _atom_site_type_symbol
 _atom_site_label
 _atom_site_symmetry_multiplicity
 _atom_site_fract_x
 _atom_site_fract_y
 _atom_site_fract_z
 _atom_site_occupancy
  Li  Li0  1  0.250000  0.998468  0.388229  1
  Li  Li1  1  0.750000  0.000832  0.610526  1
  Li  Li2  1  0.250000  0.498441  0.111807  1
  Li  Li3  1  0.750000  0.503191  0.888288  1
  Ca  Ca4  1  0.750000  0.865881  0.135628  1
  Ca  Ca5  1  0.250000  0.634577  0.635701  1
  Ca  Ca6  1  0.750000  0.366062  0.364566  1
  La  La7  1  0.250000  0.133247  0.865003  1
  Si  Si8  1  0.750000  0.269469  0.069109  1
  Si  Si9  1  0.250000  0.730881  0.932249  1
  Si  Si10  1  0.750000  0.768228  0.432105  1
  Si  Si11  1  0.250000  0.231038  0.567149  1
  Si  Si12  1  0.750000  0.832322  0.824914  1
  Si  Si13  1  0.250000  0.166601  0.174992  1
  Si  Si14  1  0.750000  0.333894  0.674172  1
  Si  Si15  1  0.250000  0.666866  0.325561  1
