# generated using pymatgen
data_Ho7Th7(OsRh2)2
_symmetry_space_group_name_H-M   'P 1'
_cell_length_a   9.91157600
_cell_length_b   9.79957686
_cell_length_c   6.33499136
_cell_angle_alpha   89.68257313
_cell_angle_beta   90.00000000
_cell_angle_gamma   120.37879319
_symmetry_Int_Tables_number   1
_chemical_formula_structural   Ho7Th7(OsRh2)2
_chemical_formula_sum   'Ho7 Th7 Os2 Rh4'
_cell_volume   530.82010728
_cell_formula_units_Z   1
loop_
 _symmetry_equiv_pos_site_id
 _symmetry_equiv_pos_as_xyz
  1  'x, y, z'
loop_
 _atom_site_type_symbol
 _atom_site_label
 _atom_site_symmetry_multiplicity
 _atom_site_fract_x
 _atom_site_fract_y
 _atom_site_fract_z
 _atom_site_occupancy
  Ho  Ho0  1  0.872956  0.745913  0.741693  1
  Ho  Ho1  1  0.539864  0.462655  0.446918  1
  Ho  Ho2  1  0.922791  0.462655  0.446918  1
  Ho  Ho3  1  0.539900  0.079798  0.444214  1
  Ho  Ho4  1  0.461989  0.536308  0.945683  1
  Ho  Ho5  1  0.074318  0.536308  0.945683  1
  Ho  Ho6  1  0.462851  0.925704  0.947237  1
  Th  Th7  1  0.333285  0.666572  0.466569  1
  Th  Th8  1  0.666103  0.332205  0.969111  1
  Th  Th9  1  0.128113  0.873177  0.238480  1
  Th  Th10  1  0.745064  0.873177  0.238480  1
  Th  Th11  1  0.124973  0.249946  0.232639  1
  Th  Th12  1  0.868818  0.125965  0.738175  1
  Th  Th13  1  0.257147  0.125965  0.738175  1
  Os  Os14  1  0.816459  0.185811  0.192851  1
  Os  Os15  1  0.369351  0.185811  0.192851  1
  Rh  Rh16  1  0.815979  0.631959  0.198318  1
  Rh  Rh17  1  0.191306  0.813237  0.691987  1
  Rh  Rh18  1  0.621932  0.813237  0.691987  1
  Rh  Rh19  1  0.186798  0.373597  0.695569  1
