# generated using pymatgen
data_Zr6ScNb3Al12Ir7
_symmetry_space_group_name_H-M   'P 1'
_cell_length_a   8.87303877
_cell_length_b   8.87304039
_cell_length_c   8.87615708
_cell_angle_alpha   60.01145657
_cell_angle_beta   60.01145608
_cell_angle_gamma   59.99899082
_symmetry_Int_Tables_number   1
_chemical_formula_structural   Zr6ScNb3Al12Ir7
_chemical_formula_sum   'Zr6 Sc1 Nb3 Al12 Ir7'
_cell_volume   494.22725025
_cell_formula_units_Z   1
loop_
 _symmetry_equiv_pos_site_id
 _symmetry_equiv_pos_as_xyz
  1  'x, y, z'
loop_
 _atom_site_type_symbol
 _atom_site_label
 _atom_site_symmetry_multiplicity
 _atom_site_fract_x
 _atom_site_fract_y
 _atom_site_fract_z
 _atom_site_occupancy
  Zr  Zr0  1  0.686513  0.686513  0.312769  1
  Zr  Zr1  1  0.314173  0.686550  0.312729  1
  Zr  Zr2  1  0.686550  0.314173  0.312729  1
  Zr  Zr3  1  0.311217  0.311217  0.688867  1
  Zr  Zr4  1  0.688732  0.311187  0.688897  1
  Zr  Zr5  1  0.311187  0.688732  0.688897  1
  Sc  Sc6  1  0.881379  0.881379  0.355880  1
  Nb  Nb7  1  0.878479  0.362290  0.880746  1
  Nb  Nb8  1  0.362290  0.878479  0.880746  1
  Nb  Nb9  1  0.878480  0.878480  0.880747  1
  Al  Al10  1  0.122455  0.122455  0.632627  1
  Al  Al11  1  0.120900  0.634432  0.123760  1
  Al  Al12  1  0.634432  0.120900  0.123760  1
  Al  Al13  1  0.120907  0.120907  0.123757  1
  Al  Al14  1  0.660146  0.660146  0.019555  1
  Al  Al15  1  0.661470  0.018591  0.658474  1
  Al  Al16  1  0.018591  0.661470  0.658474  1
  Al  Al17  1  0.661468  0.661468  0.658471  1
  Al  Al18  1  0.337771  0.337771  0.986692  1
  Al  Al19  1  0.337752  0.987507  0.336991  1
  Al  Al20  1  0.987507  0.337752  0.336991  1
  Al  Al21  1  0.337750  0.337750  0.336988  1
  Ir  Ir22  1  0.004259  0.004259  0.987228  1
  Ir  Ir23  1  0.999516  0.999516  0.507075  1
  Ir  Ir24  1  0.493896  0.999514  0.507073  1
  Ir  Ir25  1  0.999514  0.493896  0.507073  1
  Ir  Ir26  1  0.502559  0.502559  0.997329  1
  Ir  Ir27  1  0.997556  0.502553  0.997335  1
  Ir  Ir28  1  0.502553  0.997556  0.997335  1
