# generated using pymatgen
data_Dy12In2CoNiRu2
_symmetry_space_group_name_H-M   'P 1'
_cell_length_a   8.44516982
_cell_length_b   8.44517025
_cell_length_c   8.44516973
_cell_angle_alpha   113.00363432
_cell_angle_beta   110.23653532
_cell_angle_gamma   105.26678829
_symmetry_Int_Tables_number   1
_chemical_formula_structural   Dy12In2CoNiRu2
_chemical_formula_sum   'Dy12 In2 Co1 Ni1 Ru2'
_cell_volume   461.51764788
_cell_formula_units_Z   1
loop_
 _symmetry_equiv_pos_site_id
 _symmetry_equiv_pos_as_xyz
  1  'x, y, z'
loop_
 _atom_site_type_symbol
 _atom_site_label
 _atom_site_symmetry_multiplicity
 _atom_site_fract_x
 _atom_site_fract_y
 _atom_site_fract_z
 _atom_site_occupancy
  Dy  Dy0  1  0.440839  0.239937  0.200903  1
  Dy  Dy1  1  0.560326  0.760064  0.800261  1
  Dy  Dy2  1  0.039034  0.239937  0.799097  1
  Dy  Dy3  1  0.959803  0.760064  0.199739  1
  Dy  Dy4  1  0.182590  0.283152  0.468756  1
  Dy  Dy5  1  0.814396  0.713834  0.531244  1
  Dy  Dy6  1  0.182590  0.713834  0.899438  1
  Dy  Dy7  1  0.814396  0.283152  0.100562  1
  Dy  Dy8  1  0.326155  0.639461  0.313306  1
  Dy  Dy9  1  0.677936  0.363112  0.685176  1
  Dy  Dy10  1  0.326155  0.012848  0.686694  1
  Dy  Dy11  1  0.677936  0.992761  0.314824  1
  In  In12  1  0.499329  0.499329  0.000000  1
  In  In13  1  0.000786  0.000786  0.000000  1
  Co  Co14  1  0.886283  0.386283  0.500000  1
  Ni  Ni15  1  0.114904  0.614904  0.500000  1
  Ru  Ru16  1  0.329136  0.998271  0.330865  1
  Ru  Ru17  1  0.667407  0.998271  0.669135  1
