# generated using pymatgen
data_Co3ReSiW
_symmetry_space_group_name_H-M   'P 1'
_cell_length_a   4.73569400
_cell_length_b   4.73569323
_cell_length_c   7.37535600
_cell_angle_alpha   90.00000000
_cell_angle_beta   90.00000000
_cell_angle_gamma   119.99999139
_symmetry_Int_Tables_number   1
_chemical_formula_structural   Co3ReSiW
_chemical_formula_sum   'Co6 Re2 Si2 W2'
_cell_volume   143.24545521
_cell_formula_units_Z   2
loop_
 _symmetry_equiv_pos_site_id
 _symmetry_equiv_pos_as_xyz
  1  'x, y, z'
loop_
 _atom_site_type_symbol
 _atom_site_label
 _atom_site_symmetry_multiplicity
 _atom_site_fract_x
 _atom_site_fract_y
 _atom_site_fract_z
 _atom_site_occupancy
  Co  Co0  1  0.828859  0.171141  0.249270  1
  Co  Co1  1  0.828859  0.657719  0.249270  1
  Co  Co2  1  0.342281  0.171141  0.249270  1
  Co  Co3  1  0.171141  0.828859  0.750730  1
  Co  Co4  1  0.171141  0.342281  0.750730  1
  Co  Co5  1  0.657719  0.828859  0.750730  1
  Re  Re6  1  0.333333  0.666667  0.435858  1
  Re  Re7  1  0.666667  0.333333  0.564142  1
  Si  Si8  1  0.000000  0.000000  0.500000  1
  Si  Si9  1  0.000000  0.000000  0.000000  1
  W  W10  1  0.666667  0.333333  0.929053  1
  W  W11  1  0.333333  0.666667  0.070947  1
