# generated using pymatgen
data_SrLaScRhO6
_symmetry_space_group_name_H-M   'P 1'
_cell_length_a   5.70874057
_cell_length_b   5.70043950
_cell_length_c   9.85293417
_cell_angle_alpha   54.47315202
_cell_angle_beta   89.83891767
_cell_angle_gamma   90.01754615
_symmetry_Int_Tables_number   1
_chemical_formula_structural   SrLaScRhO6
_chemical_formula_sum   'Sr2 La2 Sc2 Rh2 O12'
_cell_volume   260.94686446
_cell_formula_units_Z   2
loop_
 _symmetry_equiv_pos_site_id
 _symmetry_equiv_pos_as_xyz
  1  'x, y, z'
loop_
 _atom_site_type_symbol
 _atom_site_label
 _atom_site_symmetry_multiplicity
 _atom_site_fract_x
 _atom_site_fract_y
 _atom_site_fract_z
 _atom_site_occupancy
  Sr  Sr0  1  0.971285  0.242356  0.249288  1
  Sr  Sr1  1  0.028715  0.757644  0.750712  1
  La  La2  1  0.465142  0.755505  0.250333  1
  La  La3  1  0.534858  0.244495  0.749667  1
  Sc  Sc4  1  0.000000  0.000000  0.000000  1
  Sc  Sc5  1  0.500000  0.000000  0.500000  1
  Rh  Rh6  1  0.000000  0.500000  0.500000  1
  Rh  Rh7  1  0.500000  0.500000  0.000000  1
  O  O8  1  0.707787  0.174817  0.041018  1
  O  O9  1  0.292213  0.825183  0.958982  1
  O  O10  1  0.222444  0.810598  0.459370  1
  O  O11  1  0.777556  0.189402  0.540630  1
  O  O12  1  0.023551  0.675943  0.254029  1
  O  O13  1  0.976449  0.324057  0.745971  1
  O  O14  1  0.508394  0.336056  0.245668  1
  O  O15  1  0.491606  0.663944  0.754332  1
  O  O16  1  0.229964  0.239265  0.039738  1
  O  O17  1  0.770036  0.760735  0.960262  1
  O  O18  1  0.714720  0.746997  0.458964  1
  O  O19  1  0.285280  0.253003  0.541036  1
