# generated using pymatgen
data_Y3ErCu2(Si2Ru)2
_symmetry_space_group_name_H-M   'P 1'
_cell_length_a   4.21522900
_cell_length_b   6.96704332
_cell_length_c   7.39423728
_cell_angle_alpha   91.46991698
_cell_angle_beta   90.00000000
_cell_angle_gamma   90.00000000
_symmetry_Int_Tables_number   1
_chemical_formula_structural   Y3ErCu2(Si2Ru)2
_chemical_formula_sum   'Y3 Er1 Cu2 Si4 Ru2'
_cell_volume   217.08015912
_cell_formula_units_Z   1
loop_
 _symmetry_equiv_pos_site_id
 _symmetry_equiv_pos_as_xyz
  1  'x, y, z'
loop_
 _atom_site_type_symbol
 _atom_site_label
 _atom_site_symmetry_multiplicity
 _atom_site_fract_x
 _atom_site_fract_y
 _atom_site_fract_z
 _atom_site_occupancy
  Y  Y0  1  0.250000  0.994555  0.798096  1
  Y  Y1  1  0.750000  0.005958  0.202561  1
  Y  Y2  1  0.250000  0.494523  0.686775  1
  Er  Er3  1  0.750000  0.507404  0.309387  1
  Cu  Cu4  1  0.750000  0.832101  0.571562  1
  Cu  Cu5  1  0.250000  0.166649  0.427251  1
  Si  Si6  1  0.250000  0.299398  0.090683  1
  Si  Si7  1  0.750000  0.700103  0.911566  1
  Si  Si8  1  0.250000  0.794779  0.388645  1
  Si  Si9  1  0.750000  0.205595  0.610606  1
  Ru  Ru10  1  0.750000  0.347165  0.935573  1
  Ru  Ru11  1  0.250000  0.651772  0.067296  1
