# generated using pymatgen
data_YEr2Mg3CuSn2
_symmetry_space_group_name_H-M   'P 1'
_cell_length_a   7.45304132
_cell_length_b   7.45304112
_cell_length_c   4.42546800
_cell_angle_alpha   90.00000000
_cell_angle_beta   90.00000000
_cell_angle_gamma   120.23231368
_symmetry_Int_Tables_number   1
_chemical_formula_structural   YEr2Mg3CuSn2
_chemical_formula_sum   'Y1 Er2 Mg3 Cu1 Sn2'
_cell_volume   212.39067989
_cell_formula_units_Z   1
loop_
 _symmetry_equiv_pos_site_id
 _symmetry_equiv_pos_as_xyz
  1  'x, y, z'
loop_
 _atom_site_type_symbol
 _atom_site_label
 _atom_site_symmetry_multiplicity
 _atom_site_fract_x
 _atom_site_fract_y
 _atom_site_fract_z
 _atom_site_occupancy
  Y  Y0  1  0.406264  0.406264  0.000000  1
  Er  Er1  1  0.000506  0.595466  0.000000  1
  Er  Er2  1  0.595466  0.000506  0.000000  1
  Mg  Mg3  1  0.999573  0.233459  0.500000  1
  Mg  Mg4  1  0.766428  0.766428  0.500000  1
  Mg  Mg5  1  0.233459  0.999573  0.500000  1
  Cu  Cu6  1  0.997709  0.997709  0.000000  1
  Sn  Sn7  1  0.332483  0.668112  0.500000  1
  Sn  Sn8  1  0.668112  0.332483  0.500000  1
