# generated using pymatgen
data_Ca6LaEr(Si3Pd)4
_symmetry_space_group_name_H-M   'P 1'
_cell_length_a   8.26566600
_cell_length_b   8.26566536
_cell_length_c   8.39929100
_cell_angle_alpha   90.00000000
_cell_angle_beta   90.00000000
_cell_angle_gamma   120.00000255
_symmetry_Int_Tables_number   1
_chemical_formula_structural   Ca6LaEr(Si3Pd)4
_chemical_formula_sum   'Ca6 La1 Er1 Si12 Pd4'
_cell_volume   496.96856578
_cell_formula_units_Z   1
loop_
 _symmetry_equiv_pos_site_id
 _symmetry_equiv_pos_as_xyz
  1  'x, y, z'
loop_
 _atom_site_type_symbol
 _atom_site_label
 _atom_site_symmetry_multiplicity
 _atom_site_fract_x
 _atom_site_fract_y
 _atom_site_fract_z
 _atom_site_occupancy
  Ca  Ca0  1  0.500672  0.001347  0.250000  1
  Ca  Ca1  1  0.499191  0.998380  0.750000  1
  Ca  Ca2  1  0.998653  0.499328  0.250000  1
  Ca  Ca3  1  0.001620  0.500809  0.750000  1
  Ca  Ca4  1  0.500672  0.499328  0.250000  1
  Ca  Ca5  1  0.499191  0.500809  0.750000  1
  La  La6  1  0.000000  0.000000  0.250000  1
  Er  Er7  1  0.000000  0.000000  0.750000  1
  Si  Si8  1  0.164983  0.329965  0.995634  1
  Si  Si9  1  0.835040  0.670080  0.993878  1
  Si  Si10  1  0.670035  0.835017  0.995634  1
  Si  Si11  1  0.835040  0.670080  0.506122  1
  Si  Si12  1  0.329920  0.164960  0.993878  1
  Si  Si13  1  0.164983  0.329965  0.504366  1
  Si  Si14  1  0.164983  0.835017  0.995634  1
  Si  Si15  1  0.329920  0.164960  0.506122  1
  Si  Si16  1  0.835040  0.164960  0.993878  1
  Si  Si17  1  0.670035  0.835017  0.504366  1
  Si  Si18  1  0.835040  0.164960  0.506122  1
  Si  Si19  1  0.164983  0.835017  0.504366  1
  Pd  Pd20  1  0.333333  0.666667  0.999235  1
  Pd  Pd21  1  0.666667  0.333333  0.997088  1
  Pd  Pd22  1  0.666667  0.333333  0.502912  1
  Pd  Pd23  1  0.333333  0.666667  0.500765  1
