# generated using pymatgen
data_DySc(Zn4Rh)2
_symmetry_space_group_name_H-M   'P 1'
_cell_length_a   5.06988000
_cell_length_b   5.06988011
_cell_length_c   8.33274000
_cell_angle_alpha   90.00000000
_cell_angle_beta   90.00000000
_cell_angle_gamma   119.99999929
_symmetry_Int_Tables_number   1
_chemical_formula_structural   DySc(Zn4Rh)2
_chemical_formula_sum   'Dy1 Sc1 Zn8 Rh2'
_cell_volume   185.48715298
_cell_formula_units_Z   1
loop_
 _symmetry_equiv_pos_site_id
 _symmetry_equiv_pos_as_xyz
  1  'x, y, z'
loop_
 _atom_site_type_symbol
 _atom_site_label
 _atom_site_symmetry_multiplicity
 _atom_site_fract_x
 _atom_site_fract_y
 _atom_site_fract_z
 _atom_site_occupancy
  Dy  Dy0  1  0.666667  0.333333  0.437105  1
  Sc  Sc1  1  0.333333  0.666667  0.932101  1
  Zn  Zn2  1  0.000000  0.000000  0.998729  1
  Zn  Zn3  1  0.000000  0.000000  0.502210  1
  Zn  Zn4  1  0.170447  0.340893  0.241672  1
  Zn  Zn5  1  0.829860  0.170140  0.752339  1
  Zn  Zn6  1  0.340280  0.170140  0.752339  1
  Zn  Zn7  1  0.659107  0.829553  0.241672  1
  Zn  Zn8  1  0.170447  0.829553  0.241672  1
  Zn  Zn9  1  0.829860  0.659720  0.752339  1
  Rh  Rh10  1  0.333333  0.666667  0.580110  1
  Rh  Rh11  1  0.666667  0.333333  0.067715  1
