# generated using pymatgen
data_Dy5YTaCo17P12
_symmetry_space_group_name_H-M   'P 1'
_cell_length_a   3.69502300
_cell_length_b   10.55493400
_cell_length_c   12.24455300
_cell_angle_alpha   90.00000000
_cell_angle_beta   90.00000000
_cell_angle_gamma   90.00000000
_symmetry_Int_Tables_number   1
_chemical_formula_structural   Dy5YTaCo17P12
_chemical_formula_sum   'Dy5 Y1 Ta1 Co17 P12'
_cell_volume   477.54643075
_cell_formula_units_Z   1
loop_
 _symmetry_equiv_pos_site_id
 _symmetry_equiv_pos_as_xyz
  1  'x, y, z'
loop_
 _atom_site_type_symbol
 _atom_site_label
 _atom_site_symmetry_multiplicity
 _atom_site_fract_x
 _atom_site_fract_y
 _atom_site_fract_z
 _atom_site_occupancy
  Dy  Dy0  1  0.000000  0.500000  0.526816  1
  Dy  Dy1  1  0.500000  0.819898  0.207164  1
  Dy  Dy2  1  0.500000  0.180102  0.207164  1
  Dy  Dy3  1  0.000000  0.682822  0.796097  1
  Dy  Dy4  1  0.000000  0.317178  0.796097  1
  Y  Y5  1  0.500000  0.000000  0.477880  1
  Ta  Ta6  1  0.500000  0.500000  0.154205  1
  Co  Co7  1  0.000000  0.000000  0.838748  1
  Co  Co8  1  0.500000  0.500000  0.702036  1
  Co  Co9  1  0.000000  0.000000  0.296469  1
  Co  Co10  1  0.000000  0.500000  0.985337  1
  Co  Co11  1  0.500000  0.000000  0.014170  1
  Co  Co12  1  0.500000  0.330343  0.990133  1
  Co  Co13  1  0.500000  0.669657  0.990133  1
  Co  Co14  1  0.000000  0.163871  0.004024  1
  Co  Co15  1  0.000000  0.836129  0.004024  1
  Co  Co16  1  0.500000  0.295300  0.432504  1
  Co  Co17  1  0.500000  0.704700  0.432504  1
  Co  Co18  1  0.000000  0.202841  0.569671  1
  Co  Co19  1  0.000000  0.797159  0.569671  1
  Co  Co20  1  0.500000  0.879663  0.708407  1
  Co  Co21  1  0.500000  0.120337  0.708407  1
  Co  Co22  1  0.000000  0.622215  0.293208  1
  Co  Co23  1  0.000000  0.377785  0.293208  1
  P  P24  1  0.500000  0.500000  0.880842  1
  P  P25  1  0.000000  0.000000  0.116835  1
  P  P26  1  0.500000  0.500000  0.355979  1
  P  P27  1  0.000000  0.000000  0.656204  1
  P  P28  1  0.500000  0.309681  0.617073  1
  P  P29  1  0.500000  0.690319  0.617073  1
  P  P30  1  0.000000  0.188685  0.385601  1
  P  P31  1  0.000000  0.811315  0.385601  1
  P  P32  1  0.500000  0.851291  0.890234  1
  P  P33  1  0.500000  0.148709  0.890234  1
  P  P34  1  0.000000  0.661033  0.103125  1
  P  P35  1  0.000000  0.338967  0.103125  1
