# generated using pymatgen
data_AlAsH8
_symmetry_space_group_name_H-M   'P 1'
_cell_length_a   4.08001497
_cell_length_b   4.09520541
_cell_length_c   12.73525940
_cell_angle_alpha   95.94659804
_cell_angle_beta   78.12107230
_cell_angle_gamma   119.66443733
_symmetry_Int_Tables_number   1
_chemical_formula_structural   AlAsH8
_chemical_formula_sum   'Al1 As1 H8'
_cell_volume   180.93893126
_cell_formula_units_Z   1
loop_
 _symmetry_equiv_pos_site_id
 _symmetry_equiv_pos_as_xyz
  1  'x, y, z'
loop_
 _atom_site_type_symbol
 _atom_site_label
 _atom_site_symmetry_multiplicity
 _atom_site_fract_x
 _atom_site_fract_y
 _atom_site_fract_z
 _atom_site_occupancy
  Al  Al0  1  0.206191  0.469571  0.388771  1
  As  As1  1  0.833050  0.804481  0.451700  1
  H  H2  1  0.933606  0.315953  0.035723  1
  H  H3  1  0.291039  0.465409  0.261164  1
  H  H4  1  0.010220  0.267602  0.077072  1
  H  H5  1  0.542129  0.235255  0.759778  1
  H  H6  1  0.756993  0.804357  0.573941  1
  H  H7  1  0.997651  0.705392  0.867793  1
  H  H8  1  0.589489  0.315502  0.704915  1
  H  H9  1  0.973502  0.812953  0.917478  1
