# generated using pymatgen
data_ErTm3(B4Ir)4
_symmetry_space_group_name_H-M   'P 1'
_cell_length_a   3.55437600
_cell_length_b   5.94509652
_cell_length_c   11.53475720
_cell_angle_alpha   90.01479284
_cell_angle_beta   90.00000000
_cell_angle_gamma   90.00000000
_symmetry_Int_Tables_number   1
_chemical_formula_structural   ErTm3(B4Ir)4
_chemical_formula_sum   'Er1 Tm3 B16 Ir4'
_cell_volume   243.74219638
_cell_formula_units_Z   1
loop_
 _symmetry_equiv_pos_site_id
 _symmetry_equiv_pos_as_xyz
  1  'x, y, z'
loop_
 _atom_site_type_symbol
 _atom_site_label
 _atom_site_symmetry_multiplicity
 _atom_site_fract_x
 _atom_site_fract_y
 _atom_site_fract_z
 _atom_site_occupancy
  Er  Er0  1  0.500000  0.131884  0.148487  1
  Tm  Tm1  1  0.500000  0.868176  0.851472  1
  Tm  Tm2  1  0.500000  0.631913  0.351509  1
  Tm  Tm3  1  0.500000  0.368232  0.648493  1
  B  B4  1  0.000000  0.476197  0.193112  1
  B  B5  1  0.000000  0.524141  0.806808  1
  B  B6  1  0.000000  0.975741  0.307169  1
  B  B7  1  0.000000  0.023970  0.693155  1
  B  B8  1  0.000000  0.292499  0.312065  1
  B  B9  1  0.000000  0.707552  0.688165  1
  B  B10  1  0.000000  0.791866  0.188226  1
  B  B11  1  0.000000  0.207273  0.811848  1
  B  B12  1  0.000000  0.364616  0.470356  1
  B  B13  1  0.000000  0.635605  0.529868  1
  B  B14  1  0.000000  0.864292  0.029630  1
  B  B15  1  0.000000  0.135553  0.969924  1
  B  B16  1  0.000000  0.387342  0.046662  1
  B  B17  1  0.000000  0.613091  0.952857  1
  B  B18  1  0.000000  0.887044  0.453201  1
  B  B19  1  0.000000  0.113062  0.547097  1
  Ir  Ir20  1  0.500000  0.144674  0.403185  1
  Ir  Ir21  1  0.500000  0.855405  0.597288  1
  Ir  Ir22  1  0.500000  0.644261  0.096956  1
  Ir  Ir23  1  0.500000  0.355612  0.902468  1
