# generated using pymatgen
data_Pr2Cu9Ru
_symmetry_space_group_name_H-M   'P 1'
_cell_length_a   5.22250488
_cell_length_b   5.22250473
_cell_length_c   8.15976200
_cell_angle_alpha   90.00000000
_cell_angle_beta   90.00000000
_cell_angle_gamma   122.78730230
_symmetry_Int_Tables_number   1
_chemical_formula_structural   Pr2Cu9Ru
_chemical_formula_sum   'Pr2 Cu9 Ru1'
_cell_volume   187.09808017
_cell_formula_units_Z   1
loop_
 _symmetry_equiv_pos_site_id
 _symmetry_equiv_pos_as_xyz
  1  'x, y, z'
loop_
 _atom_site_type_symbol
 _atom_site_label
 _atom_site_symmetry_multiplicity
 _atom_site_fract_x
 _atom_site_fract_y
 _atom_site_fract_z
 _atom_site_occupancy
  Pr  Pr0  1  0.000000  0.000000  0.732951  1
  Pr  Pr1  1  0.000000  0.000000  0.267049  1
  Cu  Cu2  1  0.671271  0.328729  0.753276  1
  Cu  Cu3  1  0.671271  0.328729  0.246724  1
  Cu  Cu4  1  0.500000  0.500000  0.000000  1
  Cu  Cu5  1  0.328729  0.671271  0.753276  1
  Cu  Cu6  1  0.500000  0.000000  0.500000  1
  Cu  Cu7  1  0.000000  0.500000  0.000000  1
  Cu  Cu8  1  0.500000  0.000000  0.000000  1
  Cu  Cu9  1  0.328729  0.671271  0.246724  1
  Cu  Cu10  1  0.000000  0.500000  0.500000  1
  Ru  Ru11  1  0.500000  0.500000  0.500000  1
