# generated using pymatgen
data_Er12Fe2Co2SnPd
_symmetry_space_group_name_H-M   'P 1'
_cell_length_a   8.24150287
_cell_length_b   8.24150284
_cell_length_c   8.24150341
_cell_angle_alpha   110.55130097
_cell_angle_beta   110.44017633
_cell_angle_gamma   107.44107990
_symmetry_Int_Tables_number   1
_chemical_formula_structural   Er12Fe2Co2SnPd
_chemical_formula_sum   'Er12 Fe2 Co2 Sn1 Pd1'
_cell_volume   430.51633291
_cell_formula_units_Z   1
loop_
 _symmetry_equiv_pos_site_id
 _symmetry_equiv_pos_as_xyz
  1  'x, y, z'
loop_
 _atom_site_type_symbol
 _atom_site_label
 _atom_site_symmetry_multiplicity
 _atom_site_fract_x
 _atom_site_fract_y
 _atom_site_fract_z
 _atom_site_occupancy
  Er  Er0  1  0.311950  0.614970  0.303018  1
  Er  Er1  1  0.688050  0.385031  0.696982  1
  Er  Er2  1  0.311950  0.008932  0.696982  1
  Er  Er3  1  0.688050  0.991068  0.303018  1
  Er  Er4  1  0.416952  0.214485  0.202467  1
  Er  Er5  1  0.583048  0.785515  0.797533  1
  Er  Er6  1  0.012018  0.214485  0.797533  1
  Er  Er7  1  0.987982  0.785515  0.202467  1
  Er  Er8  1  0.186715  0.293144  0.479859  1
  Er  Er9  1  0.813285  0.706856  0.520141  1
  Er  Er10  1  0.186715  0.706856  0.893571  1
  Er  Er11  1  0.813285  0.293144  0.106429  1
  Fe  Fe12  1  0.108976  0.608976  0.500000  1
  Fe  Fe13  1  0.891025  0.391025  0.500000  1
  Co  Co14  1  0.381608  0.000000  0.381608  1
  Co  Co15  1  0.618392  0.000000  0.618392  1
  Sn  Sn16  1  0.500000  0.500000  0.000000  1
  Pd  Pd17  1  0.000000  0.000000  0.000000  1
