# generated using pymatgen
data_Pr3Nd5Ge4(BO4)8
_symmetry_space_group_name_H-M   'P 1'
_cell_length_a   13.86304405
_cell_length_b   4.52703105
_cell_length_c   9.62923362
_cell_angle_alpha   89.99736720
_cell_angle_beta   89.95878857
_cell_angle_gamma   90.01623333
_symmetry_Int_Tables_number   1
_chemical_formula_structural   Pr3Nd5Ge4(BO4)8
_chemical_formula_sum   'Pr3 Nd5 Ge4 B8 O32'
_cell_volume   604.31541043
_cell_formula_units_Z   1
loop_
 _symmetry_equiv_pos_site_id
 _symmetry_equiv_pos_as_xyz
  1  'x, y, z'
loop_
 _atom_site_type_symbol
 _atom_site_label
 _atom_site_symmetry_multiplicity
 _atom_site_fract_x
 _atom_site_fract_y
 _atom_site_fract_z
 _atom_site_occupancy
  Pr  Pr0  1  0.859763  0.043980  0.026452  1
  Pr  Pr1  1  0.640129  0.544118  0.026797  1
  Pr  Pr2  1  0.140918  0.043904  0.473474  1
  Nd  Nd3  1  0.359730  0.544852  0.473184  1
  Nd  Nd4  1  0.640685  0.455120  0.526920  1
  Nd  Nd5  1  0.858787  0.955035  0.527109  1
  Nd  Nd6  1  0.359007  0.454530  0.973123  1
  Nd  Nd7  1  0.141446  0.954355  0.972618  1
  Ge  Ge8  1  0.499497  0.079737  0.250844  1
  Ge  Ge9  1  0.000072  0.579843  0.250121  1
  Ge  Ge10  1  0.000239  0.421666  0.749672  1
  Ge  Ge11  1  0.499714  0.920640  0.749430  1
  B  B12  1  0.200409  0.466320  0.204171  1
  B  B13  1  0.299534  0.966264  0.204530  1
  B  B14  1  0.799488  0.466532  0.296336  1
  B  B15  1  0.700111  0.966542  0.296427  1
  B  B16  1  0.300109  0.033739  0.704874  1
  B  B17  1  0.200938  0.533704  0.704812  1
  B  B18  1  0.700215  0.033210  0.794415  1
  B  B19  1  0.799605  0.533274  0.794522  1
  O  O20  1  0.192922  0.459502  0.054277  1
  O  O21  1  0.307572  0.959935  0.054739  1
  O  O22  1  0.493733  0.296319  0.100913  1
  O  O23  1  0.006230  0.796779  0.100249  1
  O  O24  1  0.893528  0.353172  0.233424  1
  O  O25  1  0.605999  0.853132  0.233859  1
  O  O26  1  0.719842  0.271608  0.240255  1
  O  O27  1  0.779731  0.771701  0.240210  1
  O  O28  1  0.280040  0.271794  0.260763  1
  O  O29  1  0.219763  0.771682  0.260031  1
  O  O30  1  0.106373  0.352545  0.266753  1
  O  O31  1  0.393264  0.851714  0.267972  1
  O  O32  1  0.504937  0.298544  0.400075  1
  O  O33  1  0.994096  0.797024  0.399780  1
  O  O34  1  0.807095  0.460172  0.446060  1
  O  O35  1  0.692347  0.960305  0.446182  1
  O  O36  1  0.308578  0.039017  0.555279  1
  O  O37  1  0.193851  0.539263  0.555055  1
  O  O38  1  0.003932  0.203876  0.600160  1
  O  O39  1  0.495100  0.702504  0.599947  1
  O  O40  1  0.606284  0.147812  0.731943  1
  O  O41  1  0.893671  0.648922  0.732614  1
  O  O42  1  0.780057  0.227812  0.738365  1
  O  O43  1  0.719882  0.727682  0.738289  1
  O  O44  1  0.220055  0.228013  0.760852  1
  O  O45  1  0.280333  0.728370  0.761509  1
  O  O46  1  0.393705  0.149177  0.767591  1
  O  O47  1  0.106715  0.649534  0.766329  1
  O  O48  1  0.996571  0.204041  0.899368  1
  O  O49  1  0.503822  0.702780  0.899012  1
  O  O50  1  0.692160  0.039035  0.944070  1
  O  O51  1  0.807413  0.538879  0.944238  1
