# generated using pymatgen
data_Tm16Ag3SnRh4
_symmetry_space_group_name_H-M   'P 1'
_cell_length_a   9.47043319
_cell_length_b   9.47043449
_cell_length_c   9.40343148
_cell_angle_alpha   59.76401811
_cell_angle_beta   59.76401053
_cell_angle_gamma   60.00000039
_symmetry_Int_Tables_number   1
_chemical_formula_structural   Tm16Ag3SnRh4
_chemical_formula_sum   'Tm16 Ag3 Sn1 Rh4'
_cell_volume   594.22754286
_cell_formula_units_Z   1
loop_
 _symmetry_equiv_pos_site_id
 _symmetry_equiv_pos_as_xyz
  1  'x, y, z'
loop_
 _atom_site_type_symbol
 _atom_site_label
 _atom_site_symmetry_multiplicity
 _atom_site_fract_x
 _atom_site_fract_y
 _atom_site_fract_z
 _atom_site_occupancy
  Tm  Tm0  1  0.062735  0.062735  0.439491  1
  Tm  Tm1  1  0.435039  0.062735  0.439491  1
  Tm  Tm2  1  0.057714  0.435744  0.070799  1
  Tm  Tm3  1  0.057949  0.647387  0.647278  1
  Tm  Tm4  1  0.435744  0.435744  0.070799  1
  Tm  Tm5  1  0.647387  0.057949  0.647278  1
  Tm  Tm6  1  0.186860  0.813391  0.186359  1
  Tm  Tm7  1  0.188959  0.188959  0.811181  1
  Tm  Tm8  1  0.813391  0.813391  0.186359  1
  Tm  Tm9  1  0.435744  0.057714  0.070799  1
  Tm  Tm10  1  0.813391  0.186860  0.186359  1
  Tm  Tm11  1  0.062735  0.435039  0.439491  1
  Tm  Tm12  1  0.810900  0.188959  0.811181  1
  Tm  Tm13  1  0.188959  0.810900  0.811181  1
  Tm  Tm14  1  0.648029  0.648029  0.055914  1
  Tm  Tm15  1  0.647387  0.647387  0.647278  1
  Ag  Ag16  1  0.417944  0.417944  0.412890  1
  Ag  Ag17  1  0.751219  0.417944  0.412890  1
  Ag  Ag18  1  0.417944  0.751219  0.412890  1
  Sn  Sn19  1  0.418915  0.418915  0.743255  1
  Rh  Rh20  1  0.855847  0.855847  0.432460  1
  Rh  Rh21  1  0.857310  0.857310  0.854792  1
  Rh  Rh22  1  0.430588  0.857310  0.854792  1
  Rh  Rh23  1  0.857310  0.430588  0.854792  1
