# generated using pymatgen
data_Y2HoEr3FeBi2
_symmetry_space_group_name_H-M   'P 1'
_cell_length_a   8.28663169
_cell_length_b   8.28663066
_cell_length_c   4.17599900
_cell_angle_alpha   90.00000000
_cell_angle_beta   90.00000000
_cell_angle_gamma   120.00563672
_symmetry_Int_Tables_number   1
_chemical_formula_structural   Y2HoEr3FeBi2
_chemical_formula_sum   'Y2 Ho1 Er3 Fe1 Bi2'
_cell_volume   248.32609914
_cell_formula_units_Z   1
loop_
 _symmetry_equiv_pos_site_id
 _symmetry_equiv_pos_as_xyz
  1  'x, y, z'
loop_
 _atom_site_type_symbol
 _atom_site_label
 _atom_site_symmetry_multiplicity
 _atom_site_fract_x
 _atom_site_fract_y
 _atom_site_fract_z
 _atom_site_occupancy
  Y  Y0  1  0.607613  0.000305  0.000000  1
  Y  Y1  1  0.000305  0.607613  0.000000  1
  Ho  Ho2  1  0.389900  0.389900  0.000000  1
  Er  Er3  1  0.230230  0.000431  0.500000  1
  Er  Er4  1  0.000431  0.230230  0.500000  1
  Er  Er5  1  0.770812  0.770812  0.500000  1
  Fe  Fe6  1  0.001460  0.001460  0.000000  1
  Bi  Bi7  1  0.333444  0.665806  0.500000  1
  Bi  Bi8  1  0.665806  0.333444  0.500000  1
