# generated using pymatgen
data_Li8Ho6Tm2Sn5Sb3
_symmetry_space_group_name_H-M   'P 1'
_cell_length_a   9.37298234
_cell_length_b   9.36861114
_cell_length_c   7.12776400
_cell_angle_alpha   89.99999823
_cell_angle_beta   89.99797838
_cell_angle_gamma   119.98457415
_symmetry_Int_Tables_number   1
_chemical_formula_structural   Li8Ho6Tm2Sn5Sb3
_chemical_formula_sum   'Li8 Ho6 Tm2 Sn5 Sb3'
_cell_volume   542.13124949
_cell_formula_units_Z   1
loop_
 _symmetry_equiv_pos_site_id
 _symmetry_equiv_pos_as_xyz
  1  'x, y, z'
loop_
 _atom_site_type_symbol
 _atom_site_label
 _atom_site_symmetry_multiplicity
 _atom_site_fract_x
 _atom_site_fract_y
 _atom_site_fract_z
 _atom_site_occupancy
  Li  Li0  1  0.166742  0.333086  0.284208  1
  Li  Li1  1  0.166742  0.833658  0.284208  1
  Li  Li2  1  0.666778  0.833390  0.284369  1
  Li  Li3  1  0.832861  0.665968  0.785769  1
  Li  Li4  1  0.832861  0.166890  0.785769  1
  Li  Li5  1  0.334053  0.167025  0.785699  1
  Li  Li6  1  0.333737  0.666869  0.675484  1
  Li  Li7  1  0.666572  0.333286  0.179619  1
  Ho  Ho8  1  0.975392  0.487695  0.490706  1
  Ho  Ho9  1  0.489637  0.979367  0.995987  1
  Ho  Ho10  1  0.489637  0.510271  0.995987  1
  Ho  Ho11  1  0.020800  0.510400  0.995922  1
  Ho  Ho12  1  0.999917  0.999958  0.497516  1
  Ho  Ho13  1  0.999957  0.999979  0.004131  1
  Tm  Tm14  1  0.512394  0.024745  0.490442  1
  Tm  Tm15  1  0.512394  0.487648  0.490442  1
  Sn  Sn16  1  0.832398  0.665897  0.232740  1
  Sn  Sn17  1  0.832398  0.166500  0.232740  1
  Sn  Sn18  1  0.334259  0.167129  0.233210  1
  Sn  Sn19  1  0.333884  0.666942  0.260496  1
  Sn  Sn20  1  0.666366  0.333183  0.758587  1
  Sb  Sb21  1  0.167126  0.333717  0.732836  1
  Sb  Sb22  1  0.167126  0.833411  0.732836  1
  Sb  Sb23  1  0.665969  0.832986  0.732266  1
