# generated using pymatgen
data_Dy8In2PtRh
_symmetry_space_group_name_H-M   'P 1'
_cell_length_a   9.69812421
_cell_length_b   9.69139753
_cell_length_c   9.69139677
_cell_angle_alpha   60.03363526
_cell_angle_beta   59.97703591
_cell_angle_gamma   59.97703837
_symmetry_Int_Tables_number   1
_chemical_formula_structural   Dy8In2PtRh
_chemical_formula_sum   'Dy16 In4 Pt2 Rh2'
_cell_volume   644.02822653
_cell_formula_units_Z   2
loop_
 _symmetry_equiv_pos_site_id
 _symmetry_equiv_pos_as_xyz
  1  'x, y, z'
loop_
 _atom_site_type_symbol
 _atom_site_label
 _atom_site_symmetry_multiplicity
 _atom_site_fract_x
 _atom_site_fract_y
 _atom_site_fract_z
 _atom_site_occupancy
  Dy  Dy0  1  0.690726  0.309274  0.309274  1
  Dy  Dy1  1  0.687320  0.693038  0.309653  1
  Dy  Dy2  1  0.309989  0.693038  0.309653  1
  Dy  Dy3  1  0.938727  0.937009  0.562110  1
  Dy  Dy4  1  0.150191  0.145918  0.553700  1
  Dy  Dy5  1  0.562153  0.937009  0.562110  1
  Dy  Dy6  1  0.153402  0.149184  0.149184  1
  Dy  Dy7  1  0.309989  0.309653  0.693038  1
  Dy  Dy8  1  0.939009  0.560991  0.560991  1
  Dy  Dy9  1  0.562153  0.562110  0.937009  1
  Dy  Dy10  1  0.562953  0.937047  0.937047  1
  Dy  Dy11  1  0.938727  0.562110  0.937009  1
  Dy  Dy12  1  0.150191  0.553700  0.145918  1
  Dy  Dy13  1  0.310427  0.689573  0.689573  1
  Dy  Dy14  1  0.687320  0.309653  0.693038  1
  Dy  Dy15  1  0.548229  0.149184  0.149184  1
  In  In16  1  0.916861  0.917646  0.248632  1
  In  In17  1  0.249316  0.916971  0.916971  1
  In  In18  1  0.916861  0.248632  0.917646  1
  In  In19  1  0.916742  0.916971  0.916971  1
  Pt  Pt20  1  0.355782  0.357860  0.357860  1
  Pt  Pt21  1  0.928498  0.357860  0.357860  1
  Rh  Rh22  1  0.357217  0.358507  0.927060  1
  Rh  Rh23  1  0.357217  0.927060  0.358507  1
