# generated using pymatgen
data_Tb4Pr5Nd(Sn5Rh2)4
_symmetry_space_group_name_H-M   'P 1'
_cell_length_a   14.20223400
_cell_length_b   14.20223400
_cell_length_c   4.59320900
_cell_angle_alpha   90.00000000
_cell_angle_beta   90.00000000
_cell_angle_gamma   90.00000000
_symmetry_Int_Tables_number   1
_chemical_formula_structural   Tb4Pr5Nd(Sn5Rh2)4
_chemical_formula_sum   'Tb4 Pr5 Nd1 Sn20 Rh8'
_cell_volume   926.46610458
_cell_formula_units_Z   1
loop_
 _symmetry_equiv_pos_site_id
 _symmetry_equiv_pos_as_xyz
  1  'x, y, z'
loop_
 _atom_site_type_symbol
 _atom_site_label
 _atom_site_symmetry_multiplicity
 _atom_site_fract_x
 _atom_site_fract_y
 _atom_site_fract_z
 _atom_site_occupancy
  Tb  Tb0  1  0.677191  0.177446  0.500000  1
  Tb  Tb1  1  0.322809  0.822554  0.500000  1
  Tb  Tb2  1  0.177446  0.322809  0.500000  1
  Tb  Tb3  1  0.822554  0.677191  0.500000  1
  Pr  Pr4  1  0.000000  0.000000  0.000000  1
  Pr  Pr5  1  0.888003  0.388190  0.500000  1
  Pr  Pr6  1  0.111997  0.611810  0.500000  1
  Pr  Pr7  1  0.388190  0.111997  0.500000  1
  Pr  Pr8  1  0.611810  0.888003  0.500000  1
  Nd  Nd9  1  0.500000  0.500000  0.000000  1
  Sn  Sn10  1  0.570072  0.070364  0.000000  1
  Sn  Sn11  1  0.429928  0.929636  0.000000  1
  Sn  Sn12  1  0.070364  0.429928  0.000000  1
  Sn  Sn13  1  0.929636  0.570072  0.000000  1
  Sn  Sn14  1  0.654362  0.697974  0.000000  1
  Sn  Sn15  1  0.345638  0.302026  0.000000  1
  Sn  Sn16  1  0.154474  0.801859  0.000000  1
  Sn  Sn17  1  0.845526  0.198141  0.000000  1
  Sn  Sn18  1  0.302026  0.654362  0.000000  1
  Sn  Sn19  1  0.697974  0.345638  0.000000  1
  Sn  Sn20  1  0.198141  0.154474  0.000000  1
  Sn  Sn21  1  0.801859  0.845526  0.000000  1
  Sn  Sn22  1  0.662821  0.505443  0.500000  1
  Sn  Sn23  1  0.337179  0.494557  0.500000  1
  Sn  Sn24  1  0.163957  0.994584  0.500000  1
  Sn  Sn25  1  0.836043  0.005416  0.500000  1
  Sn  Sn26  1  0.494557  0.662821  0.500000  1
  Sn  Sn27  1  0.505443  0.337179  0.500000  1
  Sn  Sn28  1  0.005416  0.163957  0.500000  1
  Sn  Sn29  1  0.994584  0.836043  0.500000  1
  Rh  Rh30  1  0.746353  0.529077  0.000000  1
  Rh  Rh31  1  0.253647  0.470923  0.000000  1
  Rh  Rh32  1  0.247106  0.970807  0.000000  1
  Rh  Rh33  1  0.752894  0.029193  0.000000  1
  Rh  Rh34  1  0.470923  0.746353  0.000000  1
  Rh  Rh35  1  0.529077  0.253647  0.000000  1
  Rh  Rh36  1  0.029193  0.247106  0.000000  1
  Rh  Rh37  1  0.970807  0.752894  0.000000  1
