# generated using pymatgen
data_Y4Er6Bi5Sb
_symmetry_space_group_name_H-M   'P 1'
_cell_length_a   8.18480800
_cell_length_b   9.44056000
_cell_length_c   12.01983200
_cell_angle_alpha   90.00000000
_cell_angle_beta   90.00000000
_cell_angle_gamma   90.00000000
_symmetry_Int_Tables_number   1
_chemical_formula_structural   Y4Er6Bi5Sb
_chemical_formula_sum   'Y8 Er12 Bi10 Sb2'
_cell_volume   928.76245435
_cell_formula_units_Z   2
loop_
 _symmetry_equiv_pos_site_id
 _symmetry_equiv_pos_as_xyz
  1  'x, y, z'
loop_
 _atom_site_type_symbol
 _atom_site_label
 _atom_site_symmetry_multiplicity
 _atom_site_fract_x
 _atom_site_fract_y
 _atom_site_fract_z
 _atom_site_occupancy
  Y  Y0  1  0.183780  0.750000  0.718120  1
  Y  Y1  1  0.683780  0.750000  0.781880  1
  Y  Y2  1  0.813686  0.250000  0.280773  1
  Y  Y3  1  0.313686  0.250000  0.219227  1
  Y  Y4  1  0.354046  0.750000  0.212912  1
  Y  Y5  1  0.854046  0.750000  0.287088  1
  Y  Y6  1  0.646937  0.250000  0.784081  1
  Y  Y7  1  0.146937  0.250000  0.715919  1
  Er  Er8  1  0.029061  0.750000  0.988686  1
  Er  Er9  1  0.529061  0.750000  0.511314  1
  Er  Er10  1  0.975186  0.250000  0.010958  1
  Er  Er11  1  0.475186  0.250000  0.489042  1
  Er  Er12  1  0.307827  0.439814  0.940700  1
  Er  Er13  1  0.807827  0.060186  0.559300  1
  Er  Er14  1  0.690655  0.933200  0.058371  1
  Er  Er15  1  0.190655  0.566800  0.441629  1
  Er  Er16  1  0.690655  0.566800  0.058371  1
  Er  Er17  1  0.190655  0.933200  0.441629  1
  Er  Er18  1  0.307827  0.060186  0.940700  1
  Er  Er19  1  0.807827  0.439814  0.559300  1
  Bi  Bi20  1  0.433480  0.003761  0.672776  1
  Bi  Bi21  1  0.933480  0.496239  0.827224  1
  Bi  Bi22  1  0.566210  0.503949  0.327202  1
  Bi  Bi23  1  0.066210  0.996051  0.172798  1
  Bi  Bi24  1  0.566210  0.996051  0.327202  1
  Bi  Bi25  1  0.066210  0.503949  0.172798  1
  Bi  Bi26  1  0.433480  0.496239  0.672776  1
  Bi  Bi27  1  0.933480  0.003761  0.827224  1
  Bi  Bi28  1  0.592321  0.250000  0.042051  1
  Bi  Bi29  1  0.092321  0.250000  0.457949  1
  Sb  Sb30  1  0.408641  0.750000  0.959098  1
  Sb  Sb31  1  0.908641  0.750000  0.540902  1
