# generated using pymatgen
data_Tb12TcRu3
_symmetry_space_group_name_H-M   'P 1'
_cell_length_a   6.32077943
_cell_length_b   7.34987150
_cell_length_c   9.26332100
_cell_angle_alpha   90.00000000
_cell_angle_beta   90.00000000
_cell_angle_gamma   90.04214273
_symmetry_Int_Tables_number   1
_chemical_formula_structural   Tb12TcRu3
_chemical_formula_sum   'Tb12 Tc1 Ru3'
_cell_volume   430.34521429
_cell_formula_units_Z   1
loop_
 _symmetry_equiv_pos_site_id
 _symmetry_equiv_pos_as_xyz
  1  'x, y, z'
loop_
 _atom_site_type_symbol
 _atom_site_label
 _atom_site_symmetry_multiplicity
 _atom_site_fract_x
 _atom_site_fract_y
 _atom_site_fract_z
 _atom_site_occupancy
  Tb  Tb0  1  0.331542  0.675641  0.065370  1
  Tb  Tb1  1  0.168905  0.175807  0.434850  1
  Tb  Tb2  1  0.669607  0.324009  0.565259  1
  Tb  Tb3  1  0.832797  0.824792  0.936185  1
  Tb  Tb4  1  0.669607  0.324009  0.934741  1
  Tb  Tb5  1  0.832797  0.824792  0.563815  1
  Tb  Tb6  1  0.331542  0.675641  0.434630  1
  Tb  Tb7  1  0.168905  0.175807  0.065150  1
  Tb  Tb8  1  0.865506  0.540372  0.250000  1
  Tb  Tb9  1  0.630723  0.042043  0.250000  1
  Tb  Tb10  1  0.136381  0.457339  0.750000  1
  Tb  Tb11  1  0.364251  0.957855  0.750000  1
  Tc  Tc12  1  0.039711  0.886475  0.250000  1
  Ru  Ru13  1  0.459120  0.385412  0.250000  1
  Ru  Ru14  1  0.958220  0.115728  0.750000  1
  Ru  Ru15  1  0.540387  0.614278  0.750000  1
