# generated using pymatgen
data_TiAs8W3
_symmetry_space_group_name_H-M   'P 1'
_cell_length_a   4.91149342
_cell_length_b   4.91149385
_cell_length_c   13.64640702
_cell_angle_alpha   83.59349981
_cell_angle_beta   83.59349911
_cell_angle_gamma   39.79766760
_symmetry_Int_Tables_number   1
_chemical_formula_structural   TiAs8W3
_chemical_formula_sum   'Ti1 As8 W3'
_cell_volume   209.21803841
_cell_formula_units_Z   1
loop_
 _symmetry_equiv_pos_site_id
 _symmetry_equiv_pos_as_xyz
  1  'x, y, z'
loop_
 _atom_site_type_symbol
 _atom_site_label
 _atom_site_symmetry_multiplicity
 _atom_site_fract_x
 _atom_site_fract_y
 _atom_site_fract_z
 _atom_site_occupancy
  Ti  Ti0  1  0.558043  0.558043  0.597211  1
  As  As1  1  0.851450  0.851450  0.550280  1
  As  As2  1  0.348072  0.348072  0.054998  1
  As  As3  1  0.651025  0.651025  0.944221  1
  As  As4  1  0.149540  0.149540  0.447583  1
  As  As5  1  0.123178  0.123178  0.735316  1
  As  As6  1  0.618416  0.618416  0.235031  1
  As  As7  1  0.381676  0.381676  0.765214  1
  As  As8  1  0.876664  0.876664  0.266412  1
  W  W9  1  0.050384  0.050384  0.101842  1
  W  W10  1  0.948639  0.948639  0.900932  1
  W  W11  1  0.442914  0.442914  0.400959  1
