# generated using pymatgen
data_Yb5Y(OsO6)3
_symmetry_space_group_name_H-M   'P 1'
_cell_length_a   8.86546142
_cell_length_b   8.86546117
_cell_length_c   5.30666900
_cell_angle_alpha   94.31215861
_cell_angle_beta   85.68783503
_cell_angle_gamma   122.22148564
_symmetry_Int_Tables_number   1
_chemical_formula_structural   Yb5Y(OsO6)3
_chemical_formula_sum   'Yb5 Y1 Os3 O18'
_cell_volume   351.54765894
_cell_formula_units_Z   1
loop_
 _symmetry_equiv_pos_site_id
 _symmetry_equiv_pos_as_xyz
  1  'x, y, z'
loop_
 _atom_site_type_symbol
 _atom_site_label
 _atom_site_symmetry_multiplicity
 _atom_site_fract_x
 _atom_site_fract_y
 _atom_site_fract_z
 _atom_site_occupancy
  Yb  Yb0  1  0.966656  0.253175  0.577575  1
  Yb  Yb1  1  0.253175  0.966656  0.422425  1
  Yb  Yb2  1  0.432087  0.432087  0.000000  1
  Yb  Yb3  1  0.926528  0.564001  0.009609  1
  Yb  Yb4  1  0.564001  0.926528  0.990391  1
  Y  Y5  1  0.755523  0.755523  0.500000  1
  Os  Os6  1  0.652771  0.325772  0.507368  1
  Os  Os7  1  0.325772  0.652771  0.492632  1
  Os  Os8  1  0.028228  0.028228  0.000000  1
  O  O9  1  0.721424  0.249019  0.768202  1
  O  O10  1  0.727082  0.537694  0.734018  1
  O  O11  1  0.423895  0.244565  0.632092  1
  O  O12  1  0.537694  0.727082  0.265982  1
  O  O13  1  0.244565  0.423895  0.367908  1
  O  O14  1  0.249019  0.721424  0.231798  1
  O  O15  1  0.649029  0.475517  0.268266  1
  O  O16  1  0.554837  0.122374  0.299262  1
  O  O17  1  0.876397  0.398124  0.348883  1
  O  O18  1  0.042981  0.888369  0.736751  1
  O  O19  1  0.128800  0.254900  0.885015  1
  O  O20  1  0.821954  0.978298  0.796934  1
  O  O21  1  0.254900  0.128800  0.114985  1
  O  O22  1  0.978298  0.821954  0.203066  1
  O  O23  1  0.888369  0.042981  0.263249  1
  O  O24  1  0.475517  0.649029  0.731734  1
  O  O25  1  0.398124  0.876397  0.651117  1
  O  O26  1  0.122374  0.554837  0.700738  1
