# generated using pymatgen
data_YHo2Pa(ReN3)4
_symmetry_space_group_name_H-M   'P 1'
_cell_length_a   5.39443854
_cell_length_b   5.73222714
_cell_length_c   7.68321100
_cell_angle_alpha   90.00000000
_cell_angle_beta   90.00000000
_cell_angle_gamma   90.02642980
_symmetry_Int_Tables_number   1
_chemical_formula_structural   YHo2Pa(ReN3)4
_chemical_formula_sum   'Y1 Ho2 Pa1 Re4 N12'
_cell_volume   237.58135484
_cell_formula_units_Z   1
loop_
 _symmetry_equiv_pos_site_id
 _symmetry_equiv_pos_as_xyz
  1  'x, y, z'
loop_
 _atom_site_type_symbol
 _atom_site_label
 _atom_site_symmetry_multiplicity
 _atom_site_fract_x
 _atom_site_fract_y
 _atom_site_fract_z
 _atom_site_occupancy
  Y  Y0  1  0.028659  0.934397  0.250000  1
  Ho  Ho1  1  0.494529  0.574505  0.750000  1
  Ho  Ho2  1  0.008832  0.075324  0.750000  1
  Pa  Pa3  1  0.444770  0.432918  0.250000  1
  Re  Re4  1  0.519012  0.010698  0.503724  1
  Re  Re5  1  0.978443  0.509466  0.996228  1
  Re  Re6  1  0.978443  0.509466  0.503772  1
  Re  Re7  1  0.519012  0.010698  0.996276  1
  N  N8  1  0.699062  0.296005  0.545389  1
  N  N9  1  0.312237  0.687801  0.051293  1
  N  N10  1  0.200287  0.199467  0.050238  1
  N  N11  1  0.410627  0.969889  0.750000  1
  N  N12  1  0.914224  0.516031  0.250000  1
  N  N13  1  0.312237  0.687801  0.448707  1
  N  N14  1  0.803149  0.796697  0.955198  1
  N  N15  1  0.699062  0.296005  0.954611  1
  N  N16  1  0.803149  0.796697  0.544802  1
  N  N17  1  0.088450  0.475438  0.750000  1
  N  N18  1  0.200287  0.199467  0.449762  1
  N  N19  1  0.585529  0.021232  0.250000  1
