# generated using pymatgen
data_Ti20Si12N
_symmetry_space_group_name_H-M   'P 1'
_cell_length_a   12.90817800
_cell_length_b   5.13436741
_cell_length_c   7.45992206
_cell_angle_alpha   89.96501760
_cell_angle_beta   90.00000000
_cell_angle_gamma   90.00000000
_symmetry_Int_Tables_number   1
_chemical_formula_structural   Ti20Si12N
_chemical_formula_sum   'Ti20 Si12 N1'
_cell_volume   494.40869228
_cell_formula_units_Z   1
loop_
 _symmetry_equiv_pos_site_id
 _symmetry_equiv_pos_as_xyz
  1  'x, y, z'
loop_
 _atom_site_type_symbol
 _atom_site_label
 _atom_site_symmetry_multiplicity
 _atom_site_fract_x
 _atom_site_fract_y
 _atom_site_fract_z
 _atom_site_occupancy
  Ti  Ti0  1  0.331611  0.500000  0.000000  1
  Ti  Ti1  1  0.835180  0.500000  0.500000  1
  Ti  Ti2  1  0.164820  0.500000  0.500000  1
  Ti  Ti3  1  0.668389  0.500000  0.000000  1
  Ti  Ti4  1  0.167733  0.000000  0.500000  1
  Ti  Ti5  1  0.664850  0.000000  0.000000  1
  Ti  Ti6  1  0.335150  0.000000  0.000000  1
  Ti  Ti7  1  0.832267  0.000000  0.500000  1
  Ti  Ti8  1  0.500000  0.249351  0.752011  1
  Ti  Ti9  1  0.000000  0.260826  0.238721  1
  Ti  Ti10  1  0.375731  0.249911  0.376922  1
  Ti  Ti11  1  0.880569  0.260228  0.879828  1
  Ti  Ti12  1  0.119431  0.260228  0.879828  1
  Ti  Ti13  1  0.624269  0.249911  0.376922  1
  Ti  Ti14  1  0.500000  0.750649  0.247989  1
  Ti  Ti15  1  0.000000  0.739174  0.761279  1
  Ti  Ti16  1  0.119431  0.739772  0.120172  1
  Ti  Ti17  1  0.624269  0.750089  0.623078  1
  Ti  Ti18  1  0.375731  0.750089  0.623078  1
  Ti  Ti19  1  0.880569  0.739772  0.120172  1
  Si  Si20  1  0.500000  0.254459  0.109419  1
  Si  Si21  1  0.000000  0.240813  0.600900  1
  Si  Si22  1  0.199096  0.244126  0.199126  1
  Si  Si23  1  0.697568  0.250873  0.697833  1
  Si  Si24  1  0.302432  0.250873  0.697833  1
  Si  Si25  1  0.800904  0.244126  0.199126  1
  Si  Si26  1  0.500000  0.745541  0.890581  1
  Si  Si27  1  0.000000  0.759187  0.399100  1
  Si  Si28  1  0.302432  0.749127  0.302167  1
  Si  Si29  1  0.800904  0.755874  0.800874  1
  Si  Si30  1  0.199096  0.755874  0.800874  1
  Si  Si31  1  0.697568  0.749127  0.302167  1
  N  N32  1  0.000000  0.500000  0.000000  1
