# generated using pymatgen
data_Ce8Sc12Ga5Si11
_symmetry_space_group_name_H-M   'P 1'
_cell_length_a   7.28046562
_cell_length_b   7.52691872
_cell_length_c   14.40451500
_cell_angle_alpha   89.98406784
_cell_angle_beta   90.05710325
_cell_angle_gamma   90.08052922
_symmetry_Int_Tables_number   1
_chemical_formula_structural   Ce8Sc12Ga5Si11
_chemical_formula_sum   'Ce8 Sc12 Ga5 Si11'
_cell_volume   789.35862823
_cell_formula_units_Z   1
loop_
 _symmetry_equiv_pos_site_id
 _symmetry_equiv_pos_as_xyz
  1  'x, y, z'
loop_
 _atom_site_type_symbol
 _atom_site_label
 _atom_site_symmetry_multiplicity
 _atom_site_fract_x
 _atom_site_fract_y
 _atom_site_fract_z
 _atom_site_occupancy
  Ce  Ce0  1  0.011691  0.172785  0.400934  1
  Ce  Ce1  1  0.511906  0.327454  0.400702  1
  Ce  Ce2  1  0.489960  0.675700  0.899267  1
  Ce  Ce3  1  0.490261  0.675664  0.597580  1
  Ce  Ce4  1  0.989785  0.826036  0.597177  1
  Ce  Ce5  1  0.988029  0.829451  0.900837  1
  Ce  Ce6  1  0.512007  0.324519  0.100083  1
  Ce  Ce7  1  0.008426  0.173730  0.099812  1
  Sc  Sc8  1  0.328773  0.171841  0.625432  1
  Sc  Sc9  1  0.670692  0.823379  0.374724  1
  Sc  Sc10  1  0.663913  0.994732  0.752323  1
  Sc  Sc11  1  0.170261  0.676655  0.374324  1
  Sc  Sc12  1  0.825322  0.324003  0.873414  1
  Sc  Sc13  1  0.828820  0.327517  0.625727  1
  Sc  Sc14  1  0.837567  0.496107  0.252789  1
  Sc  Sc15  1  0.338393  0.003563  0.252990  1
  Sc  Sc16  1  0.333938  0.173087  0.872542  1
  Sc  Sc17  1  0.169880  0.672788  0.127573  1
  Sc  Sc18  1  0.670212  0.827325  0.126539  1
  Sc  Sc19  1  0.161383  0.502778  0.750086  1
  Ga  Ga20  1  0.157561  0.462575  0.538309  1
  Ga  Ga21  1  0.840909  0.539325  0.038695  1
  Ga  Ga22  1  0.342314  0.961568  0.038944  1
  Ga  Ga23  1  0.158155  0.460336  0.959820  1
  Ga  Ga24  1  0.657122  0.038780  0.538316  1
  Si  Si25  1  0.287072  0.876269  0.749626  1
  Si  Si26  1  0.466856  0.620288  0.250653  1
  Si  Si27  1  0.033335  0.120547  0.749368  1
  Si  Si28  1  0.532109  0.381121  0.748857  1
  Si  Si29  1  0.966520  0.880394  0.250474  1
  Si  Si30  1  0.711243  0.122646  0.250984  1
  Si  Si31  1  0.344270  0.964056  0.460020  1
  Si  Si32  1  0.844036  0.536229  0.460205  1
  Si  Si33  1  0.789327  0.623465  0.749484  1
  Si  Si34  1  0.211759  0.376791  0.250655  1
  Si  Si35  1  0.656192  0.036500  0.960739  1
