# generated using pymatgen
data_TmSc(Co3Si2)2
_symmetry_space_group_name_H-M   'P 1'
_cell_length_a   6.20134847
_cell_length_b   6.20112451
_cell_length_c   6.20117258
_cell_angle_alpha   130.56892620
_cell_angle_beta   112.45036787
_cell_angle_gamma   88.14986266
_symmetry_Int_Tables_number   1
_chemical_formula_structural   TmSc(Co3Si2)2
_chemical_formula_sum   'Tm1 Sc1 Co6 Si4'
_cell_volume   159.29045162
_cell_formula_units_Z   1
loop_
 _symmetry_equiv_pos_site_id
 _symmetry_equiv_pos_as_xyz
  1  'x, y, z'
loop_
 _atom_site_type_symbol
 _atom_site_label
 _atom_site_symmetry_multiplicity
 _atom_site_fract_x
 _atom_site_fract_y
 _atom_site_fract_z
 _atom_site_occupancy
  Tm  Tm0  1  0.750035  0.469549  0.719563  1
  Sc  Sc1  1  0.250032  0.542859  0.292896  1
  Co  Co2  1  0.994235  0.997678  0.491943  1
  Co  Co3  1  0.505767  0.997716  0.003457  1
  Co  Co4  1  0.720014  0.996315  0.720073  1
  Co  Co5  1  0.223769  0.500057  0.720077  1
  Co  Co6  1  0.276225  0.996233  0.276194  1
  Co  Co7  1  0.779978  0.499967  0.276216  1
  Si  Si8  1  0.086879  0.883542  0.796566  1
  Si  Si9  1  0.924414  0.127702  0.203114  1
  Si  Si10  1  0.575527  0.778699  0.203226  1
  Si  Si11  1  0.413125  0.209686  0.796673  1
