# generated using pymatgen
data_Ce6Al24NiIr2Ru5
_symmetry_space_group_name_H-M   'P 1'
_cell_length_a   8.90435190
_cell_length_b   8.92450812
_cell_length_c   9.52234583
_cell_angle_alpha   89.99862291
_cell_angle_beta   89.83325063
_cell_angle_gamma   120.19671723
_symmetry_Int_Tables_number   1
_chemical_formula_structural   Ce6Al24NiIr2Ru5
_chemical_formula_sum   'Ce6 Al24 Ni1 Ir2 Ru5'
_cell_volume   654.02508155
_cell_formula_units_Z   1
loop_
 _symmetry_equiv_pos_site_id
 _symmetry_equiv_pos_as_xyz
  1  'x, y, z'
loop_
 _atom_site_type_symbol
 _atom_site_label
 _atom_site_symmetry_multiplicity
 _atom_site_fract_x
 _atom_site_fract_y
 _atom_site_fract_z
 _atom_site_occupancy
  Ce  Ce0  1  0.803957  0.614430  0.748959  1
  Ce  Ce1  1  0.193142  0.808451  0.250798  1
  Ce  Ce2  1  0.612847  0.804099  0.250825  1
  Ce  Ce3  1  0.387153  0.195901  0.749175  1
  Ce  Ce4  1  0.806858  0.191549  0.749202  1
  Ce  Ce5  1  0.196043  0.385570  0.251041  1
  Al  Al6  1  0.331878  0.664764  0.480040  1
  Al  Al7  1  0.669854  0.336207  0.977194  1
  Al  Al8  1  0.668122  0.335236  0.519960  1
  Al  Al9  1  0.330146  0.663793  0.022806  1
  Al  Al10  1  0.162064  0.325703  0.578120  1
  Al  Al11  1  0.674226  0.836331  0.576954  1
  Al  Al12  1  0.160681  0.835871  0.577521  1
  Al  Al13  1  0.837701  0.162173  0.076997  1
  Al  Al14  1  0.839319  0.164129  0.422479  1
  Al  Al15  1  0.836212  0.674523  0.077221  1
  Al  Al16  1  0.326549  0.164231  0.076987  1
  Al  Al17  1  0.673451  0.835769  0.923013  1
  Al  Al18  1  0.163788  0.325477  0.922779  1
  Al  Al19  1  0.837936  0.674297  0.421880  1
  Al  Al20  1  0.000947  0.999868  0.250180  1
  Al  Al21  1  0.999053  0.000132  0.749820  1
  Al  Al22  1  0.564124  0.126156  0.249331  1
  Al  Al23  1  0.436281  0.562761  0.750795  1
  Al  Al24  1  0.120875  0.561040  0.752360  1
  Al  Al25  1  0.879125  0.438960  0.247640  1
  Al  Al26  1  0.563719  0.437239  0.249205  1
  Al  Al27  1  0.435876  0.873844  0.750669  1
  Al  Al28  1  0.162299  0.837827  0.923003  1
  Al  Al29  1  0.325774  0.163669  0.423046  1
  Ni  Ni30  1  0.000000  0.500000  0.000000  1
  Ir  Ir31  1  0.500000  0.000000  0.500000  1
  Ir  Ir32  1  0.500000  0.000000  0.000000  1
  Ru  Ru33  1  0.000000  0.000000  0.500000  1
  Ru  Ru34  1  0.000000  0.000000  0.000000  1
  Ru  Ru35  1  0.500000  0.500000  0.000000  1
  Ru  Ru36  1  0.000000  0.500000  0.500000  1
  Ru  Ru37  1  0.500000  0.500000  0.500000  1
