# generated using pymatgen
data_Dy5Pa(Al3Os)8
_symmetry_space_group_name_H-M   'P 1'
_cell_length_a   8.80317900
_cell_length_b   8.84879884
_cell_length_c   9.57093400
_cell_angle_alpha   90.00000000
_cell_angle_beta   90.00000000
_cell_angle_gamma   119.82960028
_symmetry_Int_Tables_number   1
_chemical_formula_structural   Dy5Pa(Al3Os)8
_chemical_formula_sum   'Dy5 Pa1 Al24 Os8'
_cell_volume   646.77311670
_cell_formula_units_Z   1
loop_
 _symmetry_equiv_pos_site_id
 _symmetry_equiv_pos_as_xyz
  1  'x, y, z'
loop_
 _atom_site_type_symbol
 _atom_site_label
 _atom_site_symmetry_multiplicity
 _atom_site_fract_x
 _atom_site_fract_y
 _atom_site_fract_z
 _atom_site_occupancy
  Dy  Dy0  1  0.807937  0.615874  0.750000  1
  Dy  Dy1  1  0.611202  0.803717  0.250000  1
  Dy  Dy2  1  0.387681  0.191777  0.750000  1
  Dy  Dy3  1  0.192515  0.803717  0.250000  1
  Dy  Dy4  1  0.804095  0.191777  0.750000  1
  Pa  Pa5  1  0.196817  0.393634  0.250000  1
  Al  Al6  1  0.336369  0.672738  0.018679  1
  Al  Al7  1  0.667670  0.335338  0.980126  1
  Al  Al8  1  0.667670  0.335338  0.519874  1
  Al  Al9  1  0.336369  0.672738  0.481321  1
  Al  Al10  1  0.163243  0.326487  0.577127  1
  Al  Al11  1  0.836499  0.672998  0.424980  1
  Al  Al12  1  0.672144  0.835212  0.574800  1
  Al  Al13  1  0.836499  0.672998  0.075020  1
  Al  Al14  1  0.326604  0.162345  0.423820  1
  Al  Al15  1  0.163243  0.326487  0.922873  1
  Al  Al16  1  0.163067  0.835212  0.574800  1
  Al  Al17  1  0.326604  0.162345  0.076180  1
  Al  Al18  1  0.835740  0.162345  0.423820  1
  Al  Al19  1  0.672144  0.835212  0.925200  1
  Al  Al20  1  0.835740  0.162345  0.076180  1
  Al  Al21  1  0.163067  0.835212  0.925200  1
  Al  Al22  1  0.560042  0.120085  0.250000  1
  Al  Al23  1  0.437618  0.875234  0.750000  1
  Al  Al24  1  0.872769  0.437350  0.250000  1
  Al  Al25  1  0.120678  0.559781  0.750000  1
  Al  Al26  1  0.564580  0.437350  0.250000  1
  Al  Al27  1  0.439105  0.559781  0.750000  1
  Al  Al28  1  0.001695  0.003391  0.250000  1
  Al  Al29  1  0.000403  0.000807  0.750000  1
  Os  Os30  1  0.501561  0.003121  0.998176  1
  Os  Os31  1  0.003403  0.499270  0.004959  1
  Os  Os32  1  0.501561  0.003121  0.501824  1
  Os  Os33  1  0.495867  0.499270  0.004959  1
  Os  Os34  1  0.003403  0.499270  0.495041  1
  Os  Os35  1  0.495867  0.499270  0.495041  1
  Os  Os36  1  0.999263  0.998527  0.999310  1
  Os  Os37  1  0.999263  0.998527  0.500690  1
