# generated using pymatgen
data_MnBi2Pt4AuO14
_symmetry_space_group_name_H-M   'P 1'
_cell_length_a   7.32825963
_cell_length_b   7.19056943
_cell_length_c   7.32825964
_cell_angle_alpha   59.94028946
_cell_angle_beta   60.68319886
_cell_angle_gamma   59.94028698
_symmetry_Int_Tables_number   1
_chemical_formula_structural   MnBi2Pt4AuO14
_chemical_formula_sum   'Mn1 Bi2 Pt4 Au1 O14'
_cell_volume   274.18621844
_cell_formula_units_Z   1
loop_
 _symmetry_equiv_pos_site_id
 _symmetry_equiv_pos_as_xyz
  1  'x, y, z'
loop_
 _atom_site_type_symbol
 _atom_site_label
 _atom_site_symmetry_multiplicity
 _atom_site_fract_x
 _atom_site_fract_y
 _atom_site_fract_z
 _atom_site_occupancy
  Mn  Mn0  1  0.125000  0.125000  0.125000  1
  Bi  Bi1  1  0.125000  0.125000  0.625000  1
  Bi  Bi2  1  0.625000  0.125000  0.125000  1
  Pt  Pt3  1  0.625000  0.625000  0.125000  1
  Pt  Pt4  1  0.625000  0.125000  0.625000  1
  Pt  Pt5  1  0.125000  0.625000  0.625000  1
  Pt  Pt6  1  0.625000  0.625000  0.625000  1
  Au  Au7  1  0.125000  0.625000  0.125000  1
  O  O8  1  0.233233  0.274983  0.233233  1
  O  O9  1  0.016767  0.975017  0.016767  1
  O  O10  1  0.537870  0.963523  0.537870  1
  O  O11  1  0.292351  0.714312  0.292351  1
  O  O12  1  0.547119  0.541433  0.955208  1
  O  O13  1  0.955208  0.541433  0.547119  1
  O  O14  1  0.531745  0.965040  0.960935  1
  O  O15  1  0.960935  0.965040  0.531745  1
  O  O16  1  0.957649  0.535688  0.957649  1
  O  O17  1  0.718255  0.284960  0.289065  1
  O  O18  1  0.294792  0.708567  0.702881  1
  O  O19  1  0.712130  0.286477  0.712130  1
  O  O20  1  0.289065  0.284960  0.718255  1
  O  O21  1  0.702881  0.708567  0.294792  1
