# generated using pymatgen
data_RbHoTe3O8
_symmetry_space_group_name_H-M   'P 1'
_cell_length_a   6.05378918
_cell_length_b   7.81164884
_cell_length_c   11.55977100
_cell_angle_alpha   100.83418924
_cell_angle_beta   89.28100899
_cell_angle_gamma   108.99696604
_symmetry_Int_Tables_number   1
_chemical_formula_structural   RbHoTe3O8
_chemical_formula_sum   'Rb2 Ho2 Te6 O16'
_cell_volume   506.97875330
_cell_formula_units_Z   2
loop_
 _symmetry_equiv_pos_site_id
 _symmetry_equiv_pos_as_xyz
  1  'x, y, z'
loop_
 _atom_site_type_symbol
 _atom_site_label
 _atom_site_symmetry_multiplicity
 _atom_site_fract_x
 _atom_site_fract_y
 _atom_site_fract_z
 _atom_site_occupancy
  Rb  Rb0  1  0.840405  0.119950  0.168736  1
  Rb  Rb1  1  0.159595  0.880050  0.831264  1
  Ho  Ho2  1  0.500000  0.500000  0.000000  1
  Ho  Ho3  1  0.000000  0.500000  0.500000  1
  Te  Te4  1  0.216089  0.993418  0.419044  1
  Te  Te5  1  0.783911  0.006582  0.580956  1
  Te  Te6  1  0.072688  0.685319  0.150951  1
  Te  Te7  1  0.927312  0.314681  0.849049  1
  Te  Te8  1  0.512650  0.521339  0.335488  1
  Te  Te9  1  0.487350  0.478661  0.664512  1
  O  O10  1  0.183060  0.744715  0.420130  1
  O  O11  1  0.816940  0.255285  0.579870  1
  O  O12  1  0.234664  0.936179  0.233430  1
  O  O13  1  0.765336  0.063821  0.766570  1
  O  O14  1  0.891210  0.967453  0.397582  1
  O  O15  1  0.108790  0.032547  0.602418  1
  O  O16  1  0.267520  0.684204  0.022056  1
  O  O17  1  0.732480  0.315796  0.977944  1
  O  O18  1  0.827594  0.735847  0.080288  1
  O  O19  1  0.172406  0.264153  0.919712  1
  O  O20  1  0.396510  0.432748  0.176719  1
  O  O21  1  0.603490  0.567252  0.823281  1
  O  O22  1  0.255221  0.368771  0.406528  1
  O  O23  1  0.744779  0.631229  0.593472  1
  O  O24  1  0.730320  0.395653  0.342861  1
  O  O25  1  0.269680  0.604347  0.657139  1
