# generated using pymatgen
data_Sc4Si2B4Ru3Rh7
_symmetry_space_group_name_H-M   'P 1'
_cell_length_a   9.34511553
_cell_length_b   9.32946553
_cell_length_c   3.00825200
_cell_angle_alpha   90.00000000
_cell_angle_beta   90.00000000
_cell_angle_gamma   89.96137853
_symmetry_Int_Tables_number   1
_chemical_formula_structural   Sc4Si2B4Ru3Rh7
_chemical_formula_sum   'Sc4 Si2 B4 Ru3 Rh7'
_cell_volume   262.27419014
_cell_formula_units_Z   1
loop_
 _symmetry_equiv_pos_site_id
 _symmetry_equiv_pos_as_xyz
  1  'x, y, z'
loop_
 _atom_site_type_symbol
 _atom_site_label
 _atom_site_symmetry_multiplicity
 _atom_site_fract_x
 _atom_site_fract_y
 _atom_site_fract_z
 _atom_site_occupancy
  Sc  Sc0  1  0.672211  0.173889  0.000000  1
  Sc  Sc1  1  0.173175  0.322396  0.000000  1
  Sc  Sc2  1  0.826703  0.673284  0.000000  1
  Sc  Sc3  1  0.323667  0.831575  0.000000  1
  Si  Si4  1  0.004902  0.001005  0.000000  1
  Si  Si5  1  0.500019  0.499380  0.000000  1
  B  B6  1  0.372901  0.120124  0.000000  1
  B  B7  1  0.877795  0.376782  0.000000  1
  B  B8  1  0.122720  0.622693  0.000000  1
  B  B9  1  0.623121  0.878496  0.000000  1
  Ru  Ru10  1  0.502013  0.000620  0.500000  1
  Ru  Ru11  1  0.210554  0.071567  0.500000  1
  Ru  Ru12  1  0.000014  0.499599  0.500000  1
  Rh  Rh13  1  0.925800  0.210691  0.500000  1
  Rh  Rh14  1  0.430255  0.290604  0.500000  1
  Rh  Rh15  1  0.710726  0.428939  0.500000  1
  Rh  Rh16  1  0.289825  0.572335  0.500000  1
  Rh  Rh17  1  0.572090  0.710329  0.500000  1
  Rh  Rh18  1  0.070408  0.787916  0.500000  1
  Rh  Rh19  1  0.791097  0.927772  0.500000  1
