# generated using pymatgen
data_TmZr(Ga2Pt)2
_symmetry_space_group_name_H-M   'P 1'
_cell_length_a   5.44889607
_cell_length_b   5.44889589
_cell_length_c   6.51577200
_cell_angle_alpha   90.00000000
_cell_angle_beta   90.00000000
_cell_angle_gamma   133.04254582
_symmetry_Int_Tables_number   1
_chemical_formula_structural   TmZr(Ga2Pt)2
_chemical_formula_sum   'Tm1 Zr1 Ga4 Pt2'
_cell_volume   141.38698246
_cell_formula_units_Z   1
loop_
 _symmetry_equiv_pos_site_id
 _symmetry_equiv_pos_as_xyz
  1  'x, y, z'
loop_
 _atom_site_type_symbol
 _atom_site_label
 _atom_site_symmetry_multiplicity
 _atom_site_fract_x
 _atom_site_fract_y
 _atom_site_fract_z
 _atom_site_occupancy
  Tm  Tm0  1  0.084203  0.915797  0.250000  1
  Zr  Zr1  1  0.913785  0.086215  0.750000  1
  Ga  Ga2  1  0.627899  0.372101  0.948138  1
  Ga  Ga3  1  0.374924  0.625076  0.043552  1
  Ga  Ga4  1  0.374924  0.625076  0.456448  1
  Ga  Ga5  1  0.627899  0.372101  0.551862  1
  Pt  Pt6  1  0.199883  0.800117  0.750000  1
  Pt  Pt7  1  0.796487  0.203513  0.250000  1
