# generated using pymatgen
data_DyEr11CdCo5
_symmetry_space_group_name_H-M   'P 1'
_cell_length_a   8.21279612
_cell_length_b   8.21279526
_cell_length_c   8.21259424
_cell_angle_alpha   110.65972409
_cell_angle_beta   110.49833403
_cell_angle_gamma   107.27868317
_symmetry_Int_Tables_number   1
_chemical_formula_structural   DyEr11CdCo5
_chemical_formula_sum   'Dy1 Er11 Cd1 Co5'
_cell_volume   425.95034485
_cell_formula_units_Z   1
loop_
 _symmetry_equiv_pos_site_id
 _symmetry_equiv_pos_as_xyz
  1  'x, y, z'
loop_
 _atom_site_type_symbol
 _atom_site_label
 _atom_site_symmetry_multiplicity
 _atom_site_fract_x
 _atom_site_fract_y
 _atom_site_fract_z
 _atom_site_occupancy
  Dy  Dy0  1  0.288587  0.184050  0.472637  1
  Er  Er1  1  0.711871  0.816491  0.528362  1
  Er  Er2  1  0.288087  0.815919  0.104005  1
  Er  Er3  1  0.712478  0.183472  0.895950  1
  Er  Er4  1  0.620251  0.315173  0.304639  1
  Er  Er5  1  0.379966  0.685528  0.695273  1
  Er  Er6  1  0.009746  0.315308  0.695273  1
  Er  Er7  1  0.989465  0.684387  0.304639  1
  Er  Er8  1  0.211650  0.405260  0.193047  1
  Er  Er9  1  0.789002  0.595822  0.807163  1
  Er  Er10  1  0.211341  0.018161  0.807163  1
  Er  Er11  1  0.787788  0.981398  0.193047  1
  Cd  Cd12  1  0.500078  0.500077  0.000155  1
  Co  Co13  1  0.999265  0.376881  0.376146  1
  Co  Co14  1  0.000271  0.623291  0.623562  1
  Co  Co15  1  0.387127  0.886020  0.499783  1
  Co  Co16  1  0.613763  0.112657  0.499783  1
  Co  Co17  1  0.999267  0.000107  0.999374  1
