# generated using pymatgen
data_Zr4GaGe
_symmetry_space_group_name_H-M   'P 1'
_cell_length_a   5.46216891
_cell_length_b   5.46216858
_cell_length_c   5.46216816
_cell_angle_alpha   104.40249137
_cell_angle_beta   104.40248670
_cell_angle_gamma   120.16792973
_symmetry_Int_Tables_number   1
_chemical_formula_structural   Zr4GaGe
_chemical_formula_sum   'Zr4 Ga1 Ge1'
_cell_volume   122.11977170
_cell_formula_units_Z   1
loop_
 _symmetry_equiv_pos_site_id
 _symmetry_equiv_pos_as_xyz
  1  'x, y, z'
loop_
 _atom_site_type_symbol
 _atom_site_label
 _atom_site_symmetry_multiplicity
 _atom_site_fract_x
 _atom_site_fract_y
 _atom_site_fract_z
 _atom_site_occupancy
  Zr  Zr0  1  0.345704  0.154296  0.500000  1
  Zr  Zr1  1  0.154296  0.654296  0.808590  1
  Zr  Zr2  1  0.654296  0.845704  0.500000  1
  Zr  Zr3  1  0.845704  0.345704  0.191410  1
  Ga  Ga4  1  0.750000  0.750000  0.000000  1
  Ge  Ge5  1  0.250000  0.250000  0.000000  1
