# generated using pymatgen
data_Yb3Cd(Ga4Ag)2
_symmetry_space_group_name_H-M   'P 1'
_cell_length_a   4.42133626
_cell_length_b   8.40003941
_cell_length_c   8.40003831
_cell_angle_alpha   71.03341698
_cell_angle_beta   74.74155502
_cell_angle_gamma   74.74155130
_symmetry_Int_Tables_number   1
_chemical_formula_structural   Yb3Cd(Ga4Ag)2
_chemical_formula_sum   'Yb3 Cd1 Ga8 Ag2'
_cell_volume   279.18741007
_cell_formula_units_Z   1
loop_
 _symmetry_equiv_pos_site_id
 _symmetry_equiv_pos_as_xyz
  1  'x, y, z'
loop_
 _atom_site_type_symbol
 _atom_site_label
 _atom_site_symmetry_multiplicity
 _atom_site_fract_x
 _atom_site_fract_y
 _atom_site_fract_z
 _atom_site_occupancy
  Yb  Yb0  1  0.500000  0.500000  0.500000  1
  Yb  Yb1  1  0.202429  0.797571  0.797571  1
  Yb  Yb2  1  0.797571  0.202429  0.202429  1
  Cd  Cd3  1  0.500000  0.000000  0.000000  1
  Ga  Ga4  1  0.353924  0.371528  0.920625  1
  Ga  Ga5  1  0.646076  0.628472  0.079375  1
  Ga  Ga6  1  0.353924  0.920625  0.371528  1
  Ga  Ga7  1  0.646076  0.079375  0.628472  1
  Ga  Ga8  1  0.161143  0.470051  0.207662  1
  Ga  Ga9  1  0.838857  0.529949  0.792338  1
  Ga  Ga10  1  0.161143  0.207662  0.470051  1
  Ga  Ga11  1  0.838857  0.792338  0.529949  1
  Ag  Ag12  1  0.000000  0.804365  0.195635  1
  Ag  Ag13  1  0.000000  0.195635  0.804365  1
