# generated using pymatgen
data_Yb2Si(HgPd6)2
_symmetry_space_group_name_H-M   'P 1'
_cell_length_a   9.11614700
_cell_length_b   9.11614700
_cell_length_c   7.04921700
_cell_angle_alpha   90.00000000
_cell_angle_beta   90.00000000
_cell_angle_gamma   90.00000000
_symmetry_Int_Tables_number   1
_chemical_formula_structural   Yb2Si(HgPd6)2
_chemical_formula_sum   'Yb4 Si2 Hg4 Pd24'
_cell_volume   585.81908915
_cell_formula_units_Z   2
loop_
 _symmetry_equiv_pos_site_id
 _symmetry_equiv_pos_as_xyz
  1  'x, y, z'
loop_
 _atom_site_type_symbol
 _atom_site_label
 _atom_site_symmetry_multiplicity
 _atom_site_fract_x
 _atom_site_fract_y
 _atom_site_fract_z
 _atom_site_occupancy
  Yb  Yb0  1  0.500000  0.000000  0.926580  1
  Yb  Yb1  1  0.000000  0.500000  0.073420  1
  Yb  Yb2  1  0.000000  0.000000  0.500000  1
  Yb  Yb3  1  0.500000  0.500000  0.500000  1
  Si  Si4  1  0.500000  0.000000  0.439993  1
  Si  Si5  1  0.000000  0.500000  0.560007  1
  Hg  Hg6  1  0.250000  0.750000  0.000000  1
  Hg  Hg7  1  0.250000  0.250000  0.000000  1
  Hg  Hg8  1  0.750000  0.750000  0.000000  1
  Hg  Hg9  1  0.750000  0.250000  0.000000  1
  Pd  Pd10  1  0.336938  0.836938  0.610928  1
  Pd  Pd11  1  0.336938  0.163062  0.610928  1
  Pd  Pd12  1  0.663062  0.836938  0.610928  1
  Pd  Pd13  1  0.663062  0.163062  0.610928  1
  Pd  Pd14  1  0.163062  0.663062  0.389072  1
  Pd  Pd15  1  0.163062  0.336938  0.389072  1
  Pd  Pd16  1  0.836938  0.663062  0.389072  1
  Pd  Pd17  1  0.836938  0.336938  0.389072  1
  Pd  Pd18  1  0.500000  0.769411  0.259369  1
  Pd  Pd19  1  0.500000  0.230589  0.259369  1
  Pd  Pd20  1  0.269411  0.000000  0.259369  1
  Pd  Pd21  1  0.730589  0.000000  0.259369  1
  Pd  Pd22  1  0.000000  0.730589  0.740631  1
  Pd  Pd23  1  0.000000  0.269411  0.740631  1
  Pd  Pd24  1  0.230589  0.500000  0.740631  1
  Pd  Pd25  1  0.769411  0.500000  0.740631  1
  Pd  Pd26  1  0.500000  0.350319  0.847151  1
  Pd  Pd27  1  0.500000  0.649681  0.847151  1
  Pd  Pd28  1  0.850319  0.000000  0.847151  1
  Pd  Pd29  1  0.149681  0.000000  0.847151  1
  Pd  Pd30  1  0.000000  0.149681  0.152849  1
  Pd  Pd31  1  0.000000  0.850319  0.152849  1
  Pd  Pd32  1  0.649681  0.500000  0.152849  1
  Pd  Pd33  1  0.350319  0.500000  0.152849  1
