# generated using pymatgen
data_CaAc3(CdAu)4
_symmetry_space_group_name_H-M   'P 1'
_cell_length_a   4.60813500
_cell_length_b   7.74212527
_cell_length_c   9.05990307
_cell_angle_alpha   90.75357483
_cell_angle_beta   90.00000000
_cell_angle_gamma   90.00000000
_symmetry_Int_Tables_number   1
_chemical_formula_structural   CaAc3(CdAu)4
_chemical_formula_sum   'Ca1 Ac3 Cd4 Au4'
_cell_volume   323.20001668
_cell_formula_units_Z   1
loop_
 _symmetry_equiv_pos_site_id
 _symmetry_equiv_pos_as_xyz
  1  'x, y, z'
loop_
 _atom_site_type_symbol
 _atom_site_label
 _atom_site_symmetry_multiplicity
 _atom_site_fract_x
 _atom_site_fract_y
 _atom_site_fract_z
 _atom_site_occupancy
  Ca  Ca0  1  0.250000  0.541137  0.187892  1
  Ac  Ac1  1  0.250000  0.042444  0.312081  1
  Ac  Ac2  1  0.750000  0.461388  0.818371  1
  Ac  Ac3  1  0.750000  0.959632  0.686035  1
  Cd  Cd4  1  0.750000  0.848073  0.061354  1
  Cd  Cd5  1  0.250000  0.144508  0.943847  1
  Cd  Cd6  1  0.250000  0.635901  0.551374  1
  Cd  Cd7  1  0.750000  0.366694  0.439123  1
  Au  Au8  1  0.250000  0.251639  0.624636  1
  Au  Au9  1  0.250000  0.751299  0.876950  1
  Au  Au10  1  0.750000  0.745568  0.370661  1
  Au  Au11  1  0.750000  0.251716  0.127676  1
