# generated using pymatgen
data_NaNdEuB2Pt7
_symmetry_space_group_name_H-M   'P 1'
_cell_length_a   8.25673443
_cell_length_b   8.25673386
_cell_length_c   8.25673374
_cell_angle_alpha   39.39207856
_cell_angle_beta   39.39207447
_cell_angle_gamma   39.39207717
_symmetry_Int_Tables_number   1
_chemical_formula_structural   NaNdEuB2Pt7
_chemical_formula_sum   'Na1 Nd1 Eu1 B2 Pt7'
_cell_volume   204.02864039
_cell_formula_units_Z   1
loop_
 _symmetry_equiv_pos_site_id
 _symmetry_equiv_pos_as_xyz
  1  'x, y, z'
loop_
 _atom_site_type_symbol
 _atom_site_label
 _atom_site_symmetry_multiplicity
 _atom_site_fract_x
 _atom_site_fract_y
 _atom_site_fract_z
 _atom_site_occupancy
  Na  Na0  1  0.000576  0.000576  0.000576  1
  Nd  Nd1  1  0.861572  0.861572  0.861572  1
  Eu  Eu2  1  0.137855  0.137855  0.137855  1
  B  B3  1  0.668015  0.668015  0.668015  1
  B  B4  1  0.331878  0.331878  0.331878  1
  Pt  Pt5  1  0.435541  0.933712  0.435541  1
  Pt  Pt6  1  0.435541  0.435541  0.933712  1
  Pt  Pt7  1  0.933712  0.435541  0.435541  1
  Pt  Pt8  1  0.564621  0.066154  0.564621  1
  Pt  Pt9  1  0.564621  0.564621  0.066154  1
  Pt  Pt10  1  0.066154  0.564621  0.564621  1
  Pt  Pt11  1  0.499916  0.499916  0.499916  1
