# generated using pymatgen
data_Hf9ZrSn6P
_symmetry_space_group_name_H-M   'P 1'
_cell_length_a   5.82359017
_cell_length_b   8.49553598
_cell_length_c   8.49857567
_cell_angle_alpha   120.01171235
_cell_angle_beta   89.88016171
_cell_angle_gamma   90.05996629
_symmetry_Int_Tables_number   1
_chemical_formula_structural   Hf9ZrSn6P
_chemical_formula_sum   'Hf9 Zr1 Sn6 P1'
_cell_volume   364.08781711
_cell_formula_units_Z   1
loop_
 _symmetry_equiv_pos_site_id
 _symmetry_equiv_pos_as_xyz
  1  'x, y, z'
loop_
 _atom_site_type_symbol
 _atom_site_label
 _atom_site_symmetry_multiplicity
 _atom_site_fract_x
 _atom_site_fract_y
 _atom_site_fract_z
 _atom_site_occupancy
  Hf  Hf0  1  0.500057  0.333439  0.666646  1
  Hf  Hf1  1  0.500056  0.666564  0.333208  1
  Hf  Hf2  1  0.999793  0.666471  0.333069  1
  Hf  Hf3  1  0.999794  0.333528  0.666599  1
  Hf  Hf4  1  0.756887  0.250660  0.000582  1
  Hf  Hf5  1  0.756884  0.749344  0.749919  1
  Hf  Hf6  1  0.758242  0.999997  0.250203  1
  Hf  Hf7  1  0.242839  0.749819  0.999857  1
  Hf  Hf8  1  0.242843  0.250189  0.250038  1
  Zr  Zr9  1  0.241621  0.999998  0.749761  1
  Sn  Sn10  1  0.749833  0.605634  0.000013  1
  Sn  Sn11  1  0.749833  0.394367  0.394380  1
  Sn  Sn12  1  0.749476  0.000002  0.605734  1
  Sn  Sn13  1  0.250097  0.395091  0.000377  1
  Sn  Sn14  1  0.250077  0.604896  0.605281  1
  Sn  Sn15  1  0.250450  0.000002  0.393278  1
  P  P16  1  0.501219  0.000001  0.001056  1
