# generated using pymatgen
data_Dy7TmTlCd2SnAu8
_symmetry_space_group_name_H-M   'P 1'
_cell_length_a   8.01280011
_cell_length_b   8.01280085
_cell_length_c   7.34614500
_cell_angle_alpha   89.93531628
_cell_angle_beta   90.06468372
_cell_angle_gamma   90.32987142
_symmetry_Int_Tables_number   1
_chemical_formula_structural   Dy7TmTlCd2SnAu8
_chemical_formula_sum   'Dy7 Tm1 Tl1 Cd2 Sn1 Au8'
_cell_volume   471.65061552
_cell_formula_units_Z   1
loop_
 _symmetry_equiv_pos_site_id
 _symmetry_equiv_pos_as_xyz
  1  'x, y, z'
loop_
 _atom_site_type_symbol
 _atom_site_label
 _atom_site_symmetry_multiplicity
 _atom_site_fract_x
 _atom_site_fract_y
 _atom_site_fract_z
 _atom_site_occupancy
  Dy  Dy0  1  0.840571  0.160290  0.499802  1
  Dy  Dy1  1  0.158749  0.838999  0.499813  1
  Dy  Dy2  1  0.339828  0.341302  0.000192  1
  Dy  Dy3  1  0.660784  0.659364  0.000152  1
  Dy  Dy4  1  0.317782  0.319034  0.499748  1
  Dy  Dy5  1  0.180862  0.817251  0.000289  1
  Dy  Dy6  1  0.818513  0.182039  0.000199  1
  Tm  Tm7  1  0.681649  0.680503  0.499762  1
  Tl  Tl8  1  0.500201  0.999638  0.749718  1
  Cd  Cd9  1  0.500234  0.999829  0.250589  1
  Cd  Cd10  1  0.999811  0.500231  0.749351  1
  Sn  Sn11  1  0.999564  0.500233  0.250283  1
  Au  Au12  1  0.625174  0.369343  0.273179  1
  Au  Au13  1  0.376999  0.632532  0.273350  1
  Au  Au14  1  0.124181  0.131262  0.772201  1
  Au  Au15  1  0.874464  0.867520  0.769657  1
  Au  Au16  1  0.369627  0.625195  0.727044  1
  Au  Au17  1  0.632199  0.376848  0.726888  1
  Au  Au18  1  0.867221  0.874524  0.230171  1
  Au  Au19  1  0.131586  0.124066  0.227611  1
