# generated using pymatgen
data_SnHg(PO3)6
_symmetry_space_group_name_H-M   'P 1'
_cell_length_a   6.88366200
_cell_length_b   6.88366236
_cell_length_c   10.16007600
_cell_angle_alpha   90.00000000
_cell_angle_beta   90.00000000
_cell_angle_gamma   120.00000789
_symmetry_Int_Tables_number   1
_chemical_formula_structural   SnHg(PO3)6
_chemical_formula_sum   'Sn1 Hg1 P6 O18'
_cell_volume   416.93336565
_cell_formula_units_Z   1
loop_
 _symmetry_equiv_pos_site_id
 _symmetry_equiv_pos_as_xyz
  1  'x, y, z'
loop_
 _atom_site_type_symbol
 _atom_site_label
 _atom_site_symmetry_multiplicity
 _atom_site_fract_x
 _atom_site_fract_y
 _atom_site_fract_z
 _atom_site_occupancy
  Sn  Sn0  1  0.000000  0.000000  0.000000  1
  Hg  Hg1  1  0.000000  0.000000  0.500000  1
  P  P2  1  0.725917  0.120149  0.766643  1
  P  P3  1  0.879851  0.274083  0.233357  1
  P  P4  1  0.725917  0.605768  0.233357  1
  P  P5  1  0.879851  0.605768  0.766643  1
  P  P6  1  0.394232  0.274083  0.766643  1
  P  P7  1  0.394232  0.120149  0.233357  1
  O  O8  1  0.898818  0.514330  0.211987  1
  O  O9  1  0.898818  0.384488  0.788013  1
  O  O10  1  0.485670  0.101182  0.788013  1
  O  O11  1  0.615512  0.101182  0.211987  1
  O  O12  1  0.740736  0.038942  0.634212  1
  O  O13  1  0.753369  0.002089  0.886435  1
  O  O14  1  0.485670  0.384488  0.211987  1
  O  O15  1  0.740736  0.701794  0.365788  1
  O  O16  1  0.753369  0.751281  0.113565  1
  O  O17  1  0.615512  0.514330  0.788013  1
  O  O18  1  0.961058  0.259264  0.365788  1
  O  O19  1  0.997911  0.246631  0.113565  1
  O  O20  1  0.248719  0.246631  0.886435  1
  O  O21  1  0.298206  0.259264  0.634212  1
  O  O22  1  0.997911  0.751281  0.886435  1
  O  O23  1  0.961058  0.701794  0.634212  1
  O  O24  1  0.248719  0.002089  0.113565  1
  O  O25  1  0.298206  0.038942  0.365788  1
