# generated using pymatgen
data_Na4LuUO6
_symmetry_space_group_name_H-M   'P 1'
_cell_length_a   5.78616660
_cell_length_b   5.78604295
_cell_length_c   5.92660500
_cell_angle_alpha   99.60022966
_cell_angle_beta   99.59217921
_cell_angle_gamma   119.88076283
_symmetry_Int_Tables_number   1
_chemical_formula_structural   Na4LuUO6
_chemical_formula_sum   'Na4 Lu1 U1 O6'
_cell_volume   162.23296074
_cell_formula_units_Z   1
loop_
 _symmetry_equiv_pos_site_id
 _symmetry_equiv_pos_as_xyz
  1  'x, y, z'
loop_
 _atom_site_type_symbol
 _atom_site_label
 _atom_site_symmetry_multiplicity
 _atom_site_fract_x
 _atom_site_fract_y
 _atom_site_fract_z
 _atom_site_occupancy
  Na  Na0  1  0.500002  0.499885  0.000036  1
  Na  Na1  1  0.998508  0.001542  0.499996  1
  Na  Na2  1  0.659739  0.340287  0.500003  1
  Na  Na3  1  0.341332  0.658678  0.499998  1
  Lu  Lu4  1  0.166980  0.833043  0.999986  1
  U  U5  1  0.832744  0.167219  0.000006  1
  O  O6  1  0.580336  0.941482  0.212508  1
  O  O7  1  0.934113  0.565456  0.214642  1
  O  O8  1  0.204970  0.211918  0.217393  1
  O  O9  1  0.788157  0.794990  0.782551  1
  O  O10  1  0.434512  0.065842  0.785358  1
  O  O11  1  0.058612  0.419664  0.787528  1
