# generated using pymatgen
data_Ta12Al7CuN4
_symmetry_space_group_name_H-M   'P 1'
_cell_length_a   7.03477210
_cell_length_b   7.03477145
_cell_length_c   7.03477262
_cell_angle_alpha   89.92273691
_cell_angle_beta   90.07726501
_cell_angle_gamma   90.07725699
_symmetry_Int_Tables_number   1
_chemical_formula_structural   Ta12Al7CuN4
_chemical_formula_sum   'Ta12 Al7 Cu1 N4'
_cell_volume   348.13597677
_cell_formula_units_Z   1
loop_
 _symmetry_equiv_pos_site_id
 _symmetry_equiv_pos_as_xyz
  1  'x, y, z'
loop_
 _atom_site_type_symbol
 _atom_site_label
 _atom_site_symmetry_multiplicity
 _atom_site_fract_x
 _atom_site_fract_y
 _atom_site_fract_z
 _atom_site_occupancy
  Ta  Ta0  1  0.792825  0.956544  0.373881  1
  Ta  Ta1  1  0.707708  0.044792  0.877475  1
  Ta  Ta2  1  0.204827  0.454478  0.122927  1
  Ta  Ta3  1  0.295983  0.542909  0.629686  1
  Ta  Ta4  1  0.955208  0.377475  0.792292  1
  Ta  Ta5  1  0.043456  0.873881  0.707175  1
  Ta  Ta6  1  0.457091  0.129686  0.204017  1
  Ta  Ta7  1  0.545522  0.622927  0.295173  1
  Ta  Ta8  1  0.377073  0.795173  0.954478  1
  Ta  Ta9  1  0.870314  0.704017  0.042909  1
  Ta  Ta10  1  0.126119  0.207175  0.456544  1
  Ta  Ta11  1  0.622525  0.292292  0.544792  1
  Al  Al12  1  0.320680  0.175742  0.821277  1
  Al  Al13  1  0.824258  0.321277  0.179320  1
  Al  Al14  1  0.678723  0.679320  0.675742  1
  Al  Al15  1  0.570930  0.429070  0.929070  1
  Al  Al16  1  0.418573  0.924647  0.561042  1
  Al  Al17  1  0.938958  0.581427  0.424647  1
  Al  Al18  1  0.075353  0.061042  0.081427  1
  Cu  Cu19  1  0.181371  0.818629  0.318629  1
  N  N20  1  0.874817  0.125183  0.625183  1
  N  N21  1  0.621247  0.875804  0.127757  1
  N  N22  1  0.124196  0.627757  0.878753  1
  N  N23  1  0.372243  0.378753  0.375804  1
