# generated using pymatgen
data_Li2Pr8Zn6Pt7Rh
_symmetry_space_group_name_H-M   'P 1'
_cell_length_a   4.08439200
_cell_length_b   7.44758801
_cell_length_c   16.89295802
_cell_angle_alpha   89.99492856
_cell_angle_beta   90.00000000
_cell_angle_gamma   90.00000000
_symmetry_Int_Tables_number   1
_chemical_formula_structural   Li2Pr8Zn6Pt7Rh
_chemical_formula_sum   'Li2 Pr8 Zn6 Pt7 Rh1'
_cell_volume   513.86467282
_cell_formula_units_Z   1
loop_
 _symmetry_equiv_pos_site_id
 _symmetry_equiv_pos_as_xyz
  1  'x, y, z'
loop_
 _atom_site_type_symbol
 _atom_site_label
 _atom_site_symmetry_multiplicity
 _atom_site_fract_x
 _atom_site_fract_y
 _atom_site_fract_z
 _atom_site_occupancy
  Li  Li0  1  0.250000  0.993468  0.440162  1
  Li  Li1  1  0.750000  0.506986  0.940908  1
  Pr  Pr2  1  0.750000  0.456322  0.215283  1
  Pr  Pr3  1  0.750000  0.949302  0.281645  1
  Pr  Pr4  1  0.750000  0.829268  0.063945  1
  Pr  Pr5  1  0.250000  0.048317  0.715604  1
  Pr  Pr6  1  0.250000  0.163188  0.940852  1
  Pr  Pr7  1  0.250000  0.548169  0.783702  1
  Pr  Pr8  1  0.750000  0.334177  0.439852  1
  Pr  Pr9  1  0.250000  0.669493  0.560793  1
  Zn  Zn10  1  0.750000  0.001010  0.558648  1
  Zn  Zn11  1  0.250000  0.628943  0.347824  1
  Zn  Zn12  1  0.750000  0.377446  0.650367  1
  Zn  Zn13  1  0.750000  0.872076  0.849161  1
  Zn  Zn14  1  0.250000  0.500098  0.060167  1
  Zn  Zn15  1  0.250000  0.120024  0.150569  1
  Pt  Pt16  1  0.250000  0.243946  0.564546  1
  Pt  Pt17  1  0.750000  0.255870  0.065132  1
  Pt  Pt18  1  0.250000  0.250087  0.313188  1
  Pt  Pt19  1  0.750000  0.249784  0.813946  1
  Pt  Pt20  1  0.250000  0.747246  0.936156  1
  Pt  Pt21  1  0.750000  0.750038  0.686421  1
  Pt  Pt22  1  0.750000  0.752027  0.435550  1
  Rh  Rh23  1  0.250000  0.752715  0.185575  1
