# generated using pymatgen
data_La3Pr6Nd3(Si7Br3)2
_symmetry_space_group_name_H-M   'P 1'
_cell_length_a   4.10058500
_cell_length_b   11.84454074
_cell_length_c   16.66216002
_cell_angle_alpha   90.24372380
_cell_angle_beta   90.00000000
_cell_angle_gamma   90.00000000
_symmetry_Int_Tables_number   1
_chemical_formula_structural   La3Pr6Nd3(Si7Br3)2
_chemical_formula_sum   'La3 Pr6 Nd3 Si14 Br6'
_cell_volume   809.26622714
_cell_formula_units_Z   1
loop_
 _symmetry_equiv_pos_site_id
 _symmetry_equiv_pos_as_xyz
  1  'x, y, z'
loop_
 _atom_site_type_symbol
 _atom_site_label
 _atom_site_symmetry_multiplicity
 _atom_site_fract_x
 _atom_site_fract_y
 _atom_site_fract_z
 _atom_site_occupancy
  La  La0  1  0.000000  0.935075  0.621464  1
  La  La1  1  0.500000  0.064356  0.119628  1
  La  La2  1  0.000000  0.934722  0.379845  1
  Pr  Pr3  1  0.500000  0.343266  0.499469  1
  Pr  Pr4  1  0.000000  0.657404  0.000199  1
  Pr  Pr5  1  0.500000  0.360110  0.756983  1
  Pr  Pr6  1  0.000000  0.640314  0.743394  1
  Pr  Pr7  1  0.500000  0.360568  0.241909  1
  Pr  Pr8  1  0.500000  0.067052  0.880380  1
  Nd  Nd9  1  0.000000  0.638517  0.257844  1
  Nd  Nd10  1  0.500000  0.356937  0.999379  1
  Nd  Nd11  1  0.000000  0.642027  0.500118  1
  Si  Si12  1  0.000000  0.153916  0.999427  1
  Si  Si13  1  0.500000  0.844783  0.500314  1
  Si  Si14  1  0.500000  0.566958  0.876700  1
  Si  Si15  1  0.000000  0.432857  0.623605  1
  Si  Si16  1  0.500000  0.567844  0.123582  1
  Si  Si17  1  0.000000  0.432392  0.376026  1
  Si  Si18  1  0.000000  0.254756  0.873856  1
  Si  Si19  1  0.500000  0.744530  0.625654  1
  Si  Si20  1  0.000000  0.254981  0.124500  1
  Si  Si21  1  0.500000  0.744161  0.374351  1
  Si  Si22  1  0.000000  0.458171  0.877221  1
  Si  Si23  1  0.500000  0.541533  0.622782  1
  Si  Si24  1  0.500000  0.541330  0.377239  1
  Si  Si25  1  0.000000  0.458822  0.122080  1
  Br  Br26  1  0.500000  0.111964  0.694362  1
  Br  Br27  1  0.000000  0.890572  0.808713  1
  Br  Br28  1  0.000000  0.141387  0.500938  1
  Br  Br29  1  0.500000  0.859879  0.998126  1
  Br  Br30  1  0.500000  0.113251  0.307500  1
  Br  Br31  1  0.000000  0.885563  0.192411  1
