# generated using pymatgen
data_K2TaCr3O8
_symmetry_space_group_name_H-M   'P 1'
_cell_length_a   12.81371500
_cell_length_b   5.25775833
_cell_length_c   6.08675852
_cell_angle_alpha   90.10275497
_cell_angle_beta   90.00000000
_cell_angle_gamma   90.00000000
_symmetry_Int_Tables_number   1
_chemical_formula_structural   K2TaCr3O8
_chemical_formula_sum   'K4 Ta2 Cr6 O16'
_cell_volume   410.07288569
_cell_formula_units_Z   2
loop_
 _symmetry_equiv_pos_site_id
 _symmetry_equiv_pos_as_xyz
  1  'x, y, z'
loop_
 _atom_site_type_symbol
 _atom_site_label
 _atom_site_symmetry_multiplicity
 _atom_site_fract_x
 _atom_site_fract_y
 _atom_site_fract_z
 _atom_site_occupancy
  K  K0  1  0.250000  0.652428  0.730813  1
  K  K1  1  0.750000  0.347572  0.269187  1
  K  K2  1  0.750000  0.968619  0.745388  1
  K  K3  1  0.250000  0.031381  0.254612  1
  Ta  Ta4  1  0.500000  0.500000  0.000000  1
  Ta  Ta5  1  0.000000  0.500000  0.000000  1
  Cr  Cr6  1  0.496841  0.001349  0.743888  1
  Cr  Cr7  1  0.003159  0.001349  0.743888  1
  Cr  Cr8  1  0.503159  0.998651  0.256112  1
  Cr  Cr9  1  0.996841  0.998651  0.256112  1
  Cr  Cr10  1  0.000000  0.500000  0.500000  1
  Cr  Cr11  1  0.500000  0.500000  0.500000  1
  O  O12  1  0.582080  0.173239  0.998463  1
  O  O13  1  0.920902  0.166900  0.502702  1
  O  O14  1  0.420902  0.833100  0.497298  1
  O  O15  1  0.082080  0.826761  0.001537  1
  O  O16  1  0.417920  0.826761  0.001537  1
  O  O17  1  0.079098  0.833100  0.497298  1
  O  O18  1  0.579098  0.166900  0.502702  1
  O  O19  1  0.917920  0.173239  0.998463  1
  O  O20  1  0.417532  0.339048  0.754120  1
  O  O21  1  0.082468  0.339048  0.754120  1
  O  O22  1  0.582468  0.660952  0.245880  1
  O  O23  1  0.917532  0.660952  0.245880  1
  O  O24  1  0.579788  0.666609  0.754044  1
  O  O25  1  0.920212  0.666609  0.754044  1
  O  O26  1  0.420212  0.333391  0.245956  1
  O  O27  1  0.079788  0.333391  0.245956  1
