# generated using pymatgen
data_NpSc7SiPd24
_symmetry_space_group_name_H-M   'P 1'
_cell_length_a   8.12095490
_cell_length_b   8.12095446
_cell_length_c   8.12095500
_cell_angle_alpha   89.53373822
_cell_angle_beta   89.53373825
_cell_angle_gamma   89.53374091
_symmetry_Int_Tables_number   1
_chemical_formula_structural   NpSc7SiPd24
_chemical_formula_sum   'Np1 Sc7 Si1 Pd24'
_cell_volume   535.52329566
_cell_formula_units_Z   1
loop_
 _symmetry_equiv_pos_site_id
 _symmetry_equiv_pos_as_xyz
  1  'x, y, z'
loop_
 _atom_site_type_symbol
 _atom_site_label
 _atom_site_symmetry_multiplicity
 _atom_site_fract_x
 _atom_site_fract_y
 _atom_site_fract_z
 _atom_site_occupancy
  Np  Np0  1  0.255695  0.255695  0.255695  1
  Sc  Sc1  1  0.744225  0.744225  0.744225  1
  Sc  Sc2  1  0.745526  0.745526  0.254146  1
  Sc  Sc3  1  0.745526  0.254146  0.745526  1
  Sc  Sc4  1  0.254854  0.254854  0.747125  1
  Sc  Sc5  1  0.254854  0.747125  0.254854  1
  Sc  Sc6  1  0.254146  0.745526  0.745526  1
  Sc  Sc7  1  0.747125  0.254854  0.254854  1
  Si  Si8  1  0.997877  0.997877  0.997877  1
  Pd  Pd9  1  0.257052  0.501495  0.999405  1
  Pd  Pd10  1  0.742969  0.499285  0.998963  1
  Pd  Pd11  1  0.999405  0.257052  0.501495  1
  Pd  Pd12  1  0.501495  0.257052  0.999405  1
  Pd  Pd13  1  0.998963  0.742969  0.499285  1
  Pd  Pd14  1  0.499285  0.742969  0.998963  1
  Pd  Pd15  1  0.501495  0.999405  0.257052  1
  Pd  Pd16  1  0.257052  0.999405  0.501495  1
  Pd  Pd17  1  0.499285  0.998963  0.742969  1
  Pd  Pd18  1  0.742969  0.998963  0.499285  1
  Pd  Pd19  1  0.999405  0.501495  0.257052  1
  Pd  Pd20  1  0.998963  0.499285  0.742969  1
  Pd  Pd21  1  0.253066  0.504428  0.504428  1
  Pd  Pd22  1  0.748655  0.500694  0.500694  1
  Pd  Pd23  1  0.504428  0.253066  0.504428  1
  Pd  Pd24  1  0.500694  0.748655  0.500694  1
  Pd  Pd25  1  0.504428  0.504428  0.253066  1
  Pd  Pd26  1  0.500694  0.500694  0.748655  1
  Pd  Pd27  1  0.278212  0.998586  0.998586  1
  Pd  Pd28  1  0.718827  0.997828  0.997828  1
  Pd  Pd29  1  0.998586  0.278212  0.998586  1
  Pd  Pd30  1  0.997828  0.718827  0.997828  1
  Pd  Pd31  1  0.998586  0.998586  0.278212  1
  Pd  Pd32  1  0.997828  0.997828  0.718827  1
