# generated using pymatgen
data_La7NdAl4(InRh2)4
_symmetry_space_group_name_H-M   'P 1'
_cell_length_a   4.16372400
_cell_length_b   7.68936421
_cell_length_c   16.81162003
_cell_angle_alpha   90.10475249
_cell_angle_beta   90.00000000
_cell_angle_gamma   90.00000000
_symmetry_Int_Tables_number   1
_chemical_formula_structural   La7NdAl4(InRh2)4
_chemical_formula_sum   'La7 Nd1 Al4 In4 Rh8'
_cell_volume   538.24648900
_cell_formula_units_Z   1
loop_
 _symmetry_equiv_pos_site_id
 _symmetry_equiv_pos_as_xyz
  1  'x, y, z'
loop_
 _atom_site_type_symbol
 _atom_site_label
 _atom_site_symmetry_multiplicity
 _atom_site_fract_x
 _atom_site_fract_y
 _atom_site_fract_z
 _atom_site_occupancy
  La  La0  1  0.750000  0.455810  0.214232  1
  La  La1  1  0.750000  0.956304  0.285383  1
  La  La2  1  0.250000  0.043514  0.715007  1
  La  La3  1  0.250000  0.677168  0.560032  1
  La  La4  1  0.750000  0.322944  0.441137  1
  La  La5  1  0.750000  0.822672  0.059039  1
  La  La6  1  0.250000  0.178416  0.939690  1
  Nd  Nd7  1  0.250000  0.543075  0.785642  1
  Al  Al8  1  0.250000  0.501224  0.060652  1
  Al  Al9  1  0.750000  0.499705  0.936724  1
  Al  Al10  1  0.750000  0.999272  0.561349  1
  Al  Al11  1  0.250000  0.002083  0.439264  1
  In  In12  1  0.250000  0.625492  0.349613  1
  In  In13  1  0.750000  0.376711  0.653416  1
  In  In14  1  0.750000  0.868848  0.848311  1
  In  In15  1  0.250000  0.125915  0.150190  1
  Rh  Rh16  1  0.250000  0.744049  0.177749  1
  Rh  Rh17  1  0.750000  0.253024  0.822040  1
  Rh  Rh18  1  0.750000  0.756447  0.677604  1
  Rh  Rh19  1  0.250000  0.244243  0.322018  1
  Rh  Rh20  1  0.250000  0.706473  0.937221  1
  Rh  Rh21  1  0.750000  0.294675  0.062906  1
  Rh  Rh22  1  0.750000  0.794967  0.435985  1
  Rh  Rh23  1  0.250000  0.206969  0.564793  1
