# generated using pymatgen
data_Tb9Th(Al2Ru3)2
_symmetry_space_group_name_H-M   'P 1'
_cell_length_a   8.40572258
_cell_length_b   8.37552451
_cell_length_c   8.37552439
_cell_angle_alpha   109.16216425
_cell_angle_beta   109.55335215
_cell_angle_gamma   109.55181732
_symmetry_Int_Tables_number   1
_chemical_formula_structural   Tb9Th(Al2Ru3)2
_chemical_formula_sum   'Tb9 Th1 Al4 Ru6'
_cell_volume   454.73036897
_cell_formula_units_Z   1
loop_
 _symmetry_equiv_pos_site_id
 _symmetry_equiv_pos_as_xyz
  1  'x, y, z'
loop_
 _atom_site_type_symbol
 _atom_site_label
 _atom_site_symmetry_multiplicity
 _atom_site_fract_x
 _atom_site_fract_y
 _atom_site_fract_z
 _atom_site_occupancy
  Tb  Tb0  1  0.750000  0.817333  0.067333  1
  Tb  Tb1  1  0.433258  0.251084  0.683491  1
  Tb  Tb2  1  0.680727  0.432906  0.248920  1
  Tb  Tb3  1  0.066742  0.750233  0.817826  1
  Tb  Tb4  1  0.819273  0.068193  0.752179  1
  Tb  Tb5  1  0.215636  0.213034  0.215130  1
  Tb  Tb6  1  0.503889  0.001156  0.286163  1
  Tb  Tb7  1  0.284364  0.499493  0.997398  1
  Tb  Tb8  1  0.996111  0.282274  0.497268  1
  Th  Th9  1  0.250000  0.688894  0.438894  1
  Al  Al10  1  0.594757  0.590463  0.590498  1
  Al  Al11  1  0.503407  0.006055  0.915551  1
  Al  Al12  1  0.905243  0.495740  0.995706  1
  Al  Al13  1  0.996593  0.912143  0.502648  1
  Ru  Ru14  1  0.250000  0.122989  0.872989  1
  Ru  Ru15  1  0.750000  0.376703  0.626703  1
  Ru  Ru16  1  0.876181  0.250033  0.125630  1
  Ru  Ru17  1  0.127195  0.862193  0.256825  1
  Ru  Ru18  1  0.623818  0.749448  0.373851  1
  Ru  Ru19  1  0.372805  0.629631  0.734998  1
