# generated using pymatgen
data_EuAlHSe4
_symmetry_space_group_name_H-M   'P 1'
_cell_length_a   6.39672031
_cell_length_b   6.45676479
_cell_length_c   10.11597600
_cell_angle_alpha   90.00000000
_cell_angle_beta   90.00000000
_cell_angle_gamma   120.31132867
_symmetry_Int_Tables_number   1
_chemical_formula_structural   EuAlHSe4
_chemical_formula_sum   'Eu2 Al2 H2 Se8'
_cell_volume   360.69467839
_cell_formula_units_Z   2
loop_
 _symmetry_equiv_pos_site_id
 _symmetry_equiv_pos_as_xyz
  1  'x, y, z'
loop_
 _atom_site_type_symbol
 _atom_site_label
 _atom_site_symmetry_multiplicity
 _atom_site_fract_x
 _atom_site_fract_y
 _atom_site_fract_z
 _atom_site_occupancy
  Eu  Eu0  1  0.500000  0.500000  0.727928  1
  Eu  Eu1  1  0.500000  0.500000  0.272072  1
  Al  Al2  1  0.755565  0.233024  0.000000  1
  Al  Al3  1  0.244435  0.766976  0.000000  1
  H  H4  1  0.531712  0.176293  0.500000  1
  H  H5  1  0.468288  0.823707  0.500000  1
  Se  Se6  1  0.295535  0.171614  0.500000  1
  Se  Se7  1  0.704465  0.828386  0.500000  1
  Se  Se8  1  0.816887  0.642250  0.000000  1
  Se  Se9  1  0.183113  0.357750  0.000000  1
  Se  Se10  1  0.500000  0.000000  0.817580  1
  Se  Se11  1  0.000000  0.500000  0.614766  1
  Se  Se12  1  0.500000  0.000000  0.182420  1
  Se  Se13  1  0.000000  0.500000  0.385234  1
