# generated using pymatgen
data_Ho4AlGa3Rh4
_symmetry_space_group_name_H-M   'P 1'
_cell_length_a   4.28803200
_cell_length_b   6.81318000
_cell_length_c   7.82987502
_cell_angle_alpha   89.84728310
_cell_angle_beta   90.00000000
_cell_angle_gamma   90.00000000
_symmetry_Int_Tables_number   1
_chemical_formula_structural   Ho4AlGa3Rh4
_chemical_formula_sum   'Ho4 Al1 Ga3 Rh4'
_cell_volume   228.75003401
_cell_formula_units_Z   1
loop_
 _symmetry_equiv_pos_site_id
 _symmetry_equiv_pos_as_xyz
  1  'x, y, z'
loop_
 _atom_site_type_symbol
 _atom_site_label
 _atom_site_symmetry_multiplicity
 _atom_site_fract_x
 _atom_site_fract_y
 _atom_site_fract_z
 _atom_site_occupancy
  Ho  Ho0  1  0.250000  0.535141  0.184316  1
  Ho  Ho1  1  0.750000  0.468237  0.814384  1
  Ho  Ho2  1  0.750000  0.966333  0.682658  1
  Ho  Ho3  1  0.250000  0.031702  0.318355  1
  Al  Al4  1  0.250000  0.143922  0.936455  1
  Ga  Ga5  1  0.250000  0.647855  0.564396  1
  Ga  Ga6  1  0.750000  0.351295  0.435711  1
  Ga  Ga7  1  0.750000  0.855215  0.064122  1
  Rh  Rh8  1  0.250000  0.766594  0.883866  1
  Rh  Rh9  1  0.750000  0.236151  0.112668  1
  Rh  Rh10  1  0.750000  0.734093  0.383857  1
  Rh  Rh11  1  0.250000  0.263462  0.619213  1
