# generated using pymatgen
data_YEr3(Zn5Sn)2
_symmetry_space_group_name_H-M   'P 1'
_cell_length_a   8.33413686
_cell_length_b   8.33413816
_cell_length_c   8.99175191
_cell_angle_alpha   89.95011816
_cell_angle_beta   90.04988190
_cell_angle_gamma   149.77655504
_symmetry_Int_Tables_number   1
_chemical_formula_structural   YEr3(Zn5Sn)2
_chemical_formula_sum   'Y1 Er3 Zn10 Sn2'
_cell_volume   314.38068939
_cell_formula_units_Z   1
loop_
 _symmetry_equiv_pos_site_id
 _symmetry_equiv_pos_as_xyz
  1  'x, y, z'
loop_
 _atom_site_type_symbol
 _atom_site_label
 _atom_site_symmetry_multiplicity
 _atom_site_fract_x
 _atom_site_fract_y
 _atom_site_fract_z
 _atom_site_occupancy
  Y  Y0  1  0.000000  0.000000  0.500000  1
  Er  Er1  1  0.202888  0.797112  0.249888  1
  Er  Er2  1  0.797112  0.202888  0.750112  1
  Er  Er3  1  0.000000  0.000000  0.000000  1
  Zn  Zn4  1  0.813093  0.186907  0.390901  1
  Zn  Zn5  1  0.186907  0.813093  0.609099  1
  Zn  Zn6  1  0.813290  0.186710  0.109137  1
  Zn  Zn7  1  0.186710  0.813290  0.890863  1
  Zn  Zn8  1  0.656211  0.343789  0.481141  1
  Zn  Zn9  1  0.343789  0.656211  0.518859  1
  Zn  Zn10  1  0.656073  0.343927  0.018782  1
  Zn  Zn11  1  0.343927  0.656073  0.981218  1
  Zn  Zn12  1  0.391714  0.608286  0.249969  1
  Zn  Zn13  1  0.608286  0.391714  0.750031  1
  Sn  Sn14  1  0.553597  0.446403  0.249508  1
  Sn  Sn15  1  0.446403  0.553597  0.750492  1
