# generated using pymatgen
data_Rb12CaHgSe8
_symmetry_space_group_name_H-M   'P 1'
_cell_length_a   10.99462300
_cell_length_b   10.99462340
_cell_length_c   8.43054400
_cell_angle_alpha   90.00000000
_cell_angle_beta   90.00000000
_cell_angle_gamma   120.00000180
_symmetry_Int_Tables_number   1
_chemical_formula_structural   Rb12CaHgSe8
_chemical_formula_sum   'Rb12 Ca1 Hg1 Se8'
_cell_volume   882.56545316
_cell_formula_units_Z   1
loop_
 _symmetry_equiv_pos_site_id
 _symmetry_equiv_pos_as_xyz
  1  'x, y, z'
loop_
 _atom_site_type_symbol
 _atom_site_label
 _atom_site_symmetry_multiplicity
 _atom_site_fract_x
 _atom_site_fract_y
 _atom_site_fract_z
 _atom_site_occupancy
  Rb  Rb0  1  0.146844  0.293687  0.203429  1
  Rb  Rb1  1  0.146844  0.853156  0.203429  1
  Rb  Rb2  1  0.706313  0.853156  0.203429  1
  Rb  Rb3  1  0.852101  0.704202  0.706149  1
  Rb  Rb4  1  0.852101  0.147899  0.706149  1
  Rb  Rb5  1  0.295798  0.147899  0.706149  1
  Rb  Rb6  1  0.533332  0.066664  0.376373  1
  Rb  Rb7  1  0.533332  0.466668  0.376373  1
  Rb  Rb8  1  0.933336  0.466668  0.376373  1
  Rb  Rb9  1  0.474558  0.949116  0.884396  1
  Rb  Rb10  1  0.474558  0.525442  0.884396  1
  Rb  Rb11  1  0.050884  0.525442  0.884396  1
  Ca  Ca12  1  0.333333  0.666667  0.500843  1
  Hg  Hg13  1  0.666667  0.333333  0.998054  1
  Se  Se14  1  0.333333  0.666667  0.160236  1
  Se  Se15  1  0.666667  0.333333  0.665674  1
  Se  Se16  1  0.806202  0.612403  0.100679  1
  Se  Se17  1  0.806202  0.193798  0.100679  1
  Se  Se18  1  0.387597  0.193798  0.100679  1
  Se  Se19  1  0.190108  0.380217  0.600650  1
  Se  Se20  1  0.190108  0.809892  0.600650  1
  Se  Se21  1  0.619783  0.809892  0.600650  1
