# generated using pymatgen
data_Sr11Ca(InAs3)4
_symmetry_space_group_name_H-M   'P 1'
_cell_length_a   4.47674400
_cell_length_b   13.13969374
_cell_length_c   14.23049186
_cell_angle_alpha   90.17946475
_cell_angle_beta   90.00000000
_cell_angle_gamma   90.00000000
_symmetry_Int_Tables_number   1
_chemical_formula_structural   Sr11Ca(InAs3)4
_chemical_formula_sum   'Sr11 Ca1 In4 As12'
_cell_volume   837.07675847
_cell_formula_units_Z   1
loop_
 _symmetry_equiv_pos_site_id
 _symmetry_equiv_pos_as_xyz
  1  'x, y, z'
loop_
 _atom_site_type_symbol
 _atom_site_label
 _atom_site_symmetry_multiplicity
 _atom_site_fract_x
 _atom_site_fract_y
 _atom_site_fract_z
 _atom_site_occupancy
  Sr  Sr0  1  0.750000  0.856616  0.004238  1
  Sr  Sr1  1  0.750000  0.773518  0.290270  1
  Sr  Sr2  1  0.750000  0.352250  0.494287  1
  Sr  Sr3  1  0.250000  0.645539  0.503179  1
  Sr  Sr4  1  0.250000  0.149997  0.000629  1
  Sr  Sr5  1  0.250000  0.431442  0.892322  1
  Sr  Sr6  1  0.250000  0.932440  0.606249  1
  Sr  Sr7  1  0.750000  0.563329  0.108629  1
  Sr  Sr8  1  0.250000  0.226922  0.709405  1
  Sr  Sr9  1  0.250000  0.727289  0.791501  1
  Sr  Sr10  1  0.750000  0.068840  0.390238  1
  Ca  Ca11  1  0.750000  0.274006  0.211603  1
  In  In12  1  0.250000  0.441680  0.298783  1
  In  In13  1  0.750000  0.056990  0.799751  1
  In  In14  1  0.750000  0.555622  0.700478  1
  In  In15  1  0.250000  0.946043  0.200768  1
  As  As16  1  0.250000  0.954049  0.858670  1
  As  As17  1  0.750000  0.546725  0.356136  1
  As  As18  1  0.250000  0.249792  0.368323  1
  As  As19  1  0.750000  0.249288  0.874589  1
  As  As20  1  0.250000  0.390309  0.114338  1
  As  As21  1  0.250000  0.900305  0.387128  1
  As  As22  1  0.250000  0.752528  0.124698  1
  As  As23  1  0.750000  0.600249  0.888226  1
  As  As24  1  0.750000  0.747975  0.625814  1
  As  As25  1  0.250000  0.452187  0.640862  1
  As  As26  1  0.750000  0.100713  0.611833  1
  As  As27  1  0.750000  0.053358  0.147054  1
