# generated using pymatgen
data_Sr4Mn5Cd3(PO4)8
_symmetry_space_group_name_H-M   'P 1'
_cell_length_a   9.02985586
_cell_length_b   9.31122606
_cell_length_c   9.28765015
_cell_angle_alpha   69.11527360
_cell_angle_beta   89.24876846
_cell_angle_gamma   90.23786976
_symmetry_Int_Tables_number   1
_chemical_formula_structural   Sr4Mn5Cd3(PO4)8
_chemical_formula_sum   'Sr4 Mn5 Cd3 P8 O32'
_cell_volume   729.49607533
_cell_formula_units_Z   1
loop_
 _symmetry_equiv_pos_site_id
 _symmetry_equiv_pos_as_xyz
  1  'x, y, z'
loop_
 _atom_site_type_symbol
 _atom_site_label
 _atom_site_symmetry_multiplicity
 _atom_site_fract_x
 _atom_site_fract_y
 _atom_site_fract_z
 _atom_site_occupancy
  Sr  Sr0  1  0.256087  0.790812  0.198407  1
  Sr  Sr1  1  0.745143  0.205976  0.805610  1
  Sr  Sr2  1  0.247729  0.388631  0.609276  1
  Sr  Sr3  1  0.747724  0.608629  0.390746  1
  Mn  Mn4  1  0.758785  0.376617  0.120769  1
  Mn  Mn5  1  0.613078  0.752008  0.980544  1
  Mn  Mn6  1  0.391569  0.249707  0.018178  1
  Mn  Mn7  1  0.716730  0.893824  0.609462  1
  Mn  Mn8  1  0.281892  0.107588  0.388585  1
  Cd  Cd9  1  0.073975  0.991701  0.754425  1
  Cd  Cd10  1  0.921373  0.011177  0.246594  1
  Cd  Cd11  1  0.246441  0.627426  0.875989  1
  P  P12  1  0.070775  0.779098  0.528851  1
  P  P13  1  0.926471  0.224242  0.467607  1
  P  P14  1  0.063176  0.255258  0.945139  1
  P  P15  1  0.933559  0.742224  0.058414  1
  P  P16  1  0.429075  0.466347  0.227267  1
  P  P17  1  0.578307  0.530349  0.774604  1
  P  P18  1  0.422354  0.043715  0.766822  1
  P  P19  1  0.576571  0.957524  0.232173  1
  O  O20  1  0.111785  0.625763  0.517180  1
  O  O21  1  0.890364  0.376717  0.483686  1
  O  O22  1  0.901077  0.813277  0.502113  1
  O  O23  1  0.096069  0.187638  0.493036  1
  O  O24  1  0.111529  0.788241  0.687810  1
  O  O25  1  0.880899  0.220435  0.307665  1
  O  O26  1  0.841677  0.091233  0.598899  1
  O  O27  1  0.156185  0.910861  0.397537  1
  O  O28  1  0.088649  0.685268  0.035356  1
  O  O29  1  0.912667  0.318738  0.973216  1
  O  O30  1  0.115287  0.114479  0.083144  1
  O  O31  1  0.879134  0.880264  0.918270  1
  O  O32  1  0.042953  0.212225  0.798192  1
  O  O33  1  0.945399  0.786746  0.204747  1
  O  O34  1  0.192520  0.375880  0.905393  1
  O  O35  1  0.810313  0.614970  0.093920  1
  O  O36  1  0.351818  0.519003  0.348466  1
  O  O37  1  0.661291  0.476820  0.657490  1
  O  O38  1  0.413683  0.558519  0.729628  1
  O  O39  1  0.593981  0.431079  0.265379  1
  O  O40  1  0.650763  0.679261  0.784666  1
  O  O41  1  0.348724  0.322526  0.213600  1
  O  O42  1  0.417276  0.604264  0.066777  1
  O  O43  1  0.590687  0.397633  0.938490  1
  O  O44  1  0.380728  0.105475  0.594932  1
  O  O45  1  0.616606  0.896446  0.404404  1
  O  O46  1  0.579309  0.967189  0.787774  1
  O  O47  1  0.418907  0.032803  0.210443  1
  O  O48  1  0.306281  0.925730  0.869008  1
  O  O49  1  0.691458  0.076834  0.129971  1
  O  O50  1  0.565682  0.815655  0.179778  1
  O  O51  1  0.435486  0.185175  0.819569  1
