# generated using pymatgen
data_YbYCo5B4
_symmetry_space_group_name_H-M   'P 1'
_cell_length_a   7.02594470
_cell_length_b   5.88462555
_cell_length_c   5.25183800
_cell_angle_alpha   78.00412719
_cell_angle_beta   55.01141853
_cell_angle_gamma   46.98447392
_symmetry_Int_Tables_number   1
_chemical_formula_structural   YbYCo5B4
_chemical_formula_sum   'Yb1 Y1 Co5 B4'
_cell_volume   123.82820629
_cell_formula_units_Z   1
loop_
 _symmetry_equiv_pos_site_id
 _symmetry_equiv_pos_as_xyz
  1  'x, y, z'
loop_
 _atom_site_type_symbol
 _atom_site_label
 _atom_site_symmetry_multiplicity
 _atom_site_fract_x
 _atom_site_fract_y
 _atom_site_fract_z
 _atom_site_occupancy
  Yb  Yb0  1  0.144370  0.144369  0.855631  1
  Y  Y1  1  0.856898  0.856896  0.143103  1
  Co  Co2  1  0.500508  0.500510  0.999491  1
  Co  Co3  1  0.249114  0.249116  0.250885  1
  Co  Co4  1  0.000509  0.000509  0.499492  1
  Co  Co5  1  0.500103  0.500101  0.499898  1
  Co  Co6  1  0.749115  0.749116  0.750885  1
  B  B7  1  0.470123  0.788962  0.211037  1
  B  B8  1  0.210618  0.529680  0.470319  1
  B  B9  1  0.788964  0.470121  0.529878  1
  B  B10  1  0.529681  0.210617  0.789383  1
