# generated using pymatgen
data_Tb5Sn3Ir
_symmetry_space_group_name_H-M   'P 1'
_cell_length_a   7.36356800
_cell_length_b   8.41018000
_cell_length_c   15.55160900
_cell_angle_alpha   90.00000000
_cell_angle_beta   90.00000000
_cell_angle_gamma   90.00000000
_symmetry_Int_Tables_number   1
_chemical_formula_structural   Tb5Sn3Ir
_chemical_formula_sum   'Tb20 Sn12 Ir4'
_cell_volume   963.09454126
_cell_formula_units_Z   4
loop_
 _symmetry_equiv_pos_site_id
 _symmetry_equiv_pos_as_xyz
  1  'x, y, z'
loop_
 _atom_site_type_symbol
 _atom_site_label
 _atom_site_symmetry_multiplicity
 _atom_site_fract_x
 _atom_site_fract_y
 _atom_site_fract_z
 _atom_site_occupancy
  Tb  Tb0  1  0.333393  0.834626  0.865166  1
  Tb  Tb1  1  0.833393  0.665374  0.634834  1
  Tb  Tb2  1  0.666607  0.165374  0.365166  1
  Tb  Tb3  1  0.166607  0.334626  0.134834  1
  Tb  Tb4  1  0.666607  0.165374  0.134834  1
  Tb  Tb5  1  0.166607  0.334626  0.365166  1
  Tb  Tb6  1  0.333393  0.834626  0.634834  1
  Tb  Tb7  1  0.833393  0.665374  0.865166  1
  Tb  Tb8  1  0.509251  0.308653  0.905332  1
  Tb  Tb9  1  0.009251  0.191347  0.594668  1
  Tb  Tb10  1  0.490749  0.691347  0.405332  1
  Tb  Tb11  1  0.990749  0.808653  0.094668  1
  Tb  Tb12  1  0.490749  0.691347  0.094668  1
  Tb  Tb13  1  0.990749  0.808653  0.405332  1
  Tb  Tb14  1  0.509251  0.308653  0.594668  1
  Tb  Tb15  1  0.009251  0.191347  0.905332  1
  Tb  Tb16  1  0.201573  0.506192  0.750000  1
  Tb  Tb17  1  0.701573  0.993808  0.750000  1
  Tb  Tb18  1  0.798427  0.493808  0.250000  1
  Tb  Tb19  1  0.298427  0.006192  0.250000  1
  Sn  Sn20  1  0.309396  0.035497  0.037629  1
  Sn  Sn21  1  0.809396  0.464503  0.462371  1
  Sn  Sn22  1  0.690604  0.964503  0.537629  1
  Sn  Sn23  1  0.190604  0.535497  0.962371  1
  Sn  Sn24  1  0.690604  0.964503  0.962371  1
  Sn  Sn25  1  0.190604  0.535497  0.537629  1
  Sn  Sn26  1  0.309396  0.035497  0.462371  1
  Sn  Sn27  1  0.809396  0.464503  0.037629  1
  Sn  Sn28  1  0.292320  0.142890  0.750000  1
  Sn  Sn29  1  0.792320  0.357110  0.750000  1
  Sn  Sn30  1  0.707680  0.857110  0.250000  1
  Sn  Sn31  1  0.207680  0.642890  0.250000  1
  Ir  Ir32  1  0.541942  0.623249  0.750000  1
  Ir  Ir33  1  0.041942  0.876751  0.750000  1
  Ir  Ir34  1  0.458058  0.376751  0.250000  1
  Ir  Ir35  1  0.958058  0.123249  0.250000  1
