# generated using pymatgen
data_Cr2As3
_symmetry_space_group_name_H-M   'P 1'
_cell_length_a   6.64343087
_cell_length_b   6.64343049
_cell_length_c   9.31773475
_cell_angle_alpha   56.66844771
_cell_angle_beta   56.66845098
_cell_angle_gamma   27.06482820
_symmetry_Int_Tables_number   1
_chemical_formula_structural   Cr2As3
_chemical_formula_sum   'Cr4 As6'
_cell_volume   154.36336152
_cell_formula_units_Z   2
loop_
 _symmetry_equiv_pos_site_id
 _symmetry_equiv_pos_as_xyz
  1  'x, y, z'
loop_
 _atom_site_type_symbol
 _atom_site_label
 _atom_site_symmetry_multiplicity
 _atom_site_fract_x
 _atom_site_fract_y
 _atom_site_fract_z
 _atom_site_occupancy
  Cr  Cr0  1  0.351083  0.351083  0.865214  1
  Cr  Cr1  1  0.648917  0.648917  0.134786  1
  Cr  Cr2  1  0.246879  0.246879  0.629231  1
  Cr  Cr3  1  0.753121  0.753121  0.370769  1
  As  As4  1  0.109134  0.109134  0.365966  1
  As  As5  1  0.890866  0.890866  0.634034  1
  As  As6  1  0.413138  0.413138  0.317654  1
  As  As7  1  0.586862  0.586862  0.682346  1
  As  As8  1  0.868753  0.868753  0.049123  1
  As  As9  1  0.131247  0.131247  0.950877  1
