# generated using pymatgen
data_Tb3ErTm4Ga3Co
_symmetry_space_group_name_H-M   'P 1'
_cell_length_a   9.91143710
_cell_length_b   9.91140766
_cell_length_c   6.95088701
_cell_angle_alpha   90.00469273
_cell_angle_beta   89.99561048
_cell_angle_gamma   120.01606744
_symmetry_Int_Tables_number   1
_chemical_formula_structural   Tb3ErTm4Ga3Co
_chemical_formula_sum   'Tb6 Er2 Tm8 Ga6 Co2'
_cell_volume   591.25181813
_cell_formula_units_Z   2
loop_
 _symmetry_equiv_pos_site_id
 _symmetry_equiv_pos_as_xyz
  1  'x, y, z'
loop_
 _atom_site_type_symbol
 _atom_site_label
 _atom_site_symmetry_multiplicity
 _atom_site_fract_x
 _atom_site_fract_y
 _atom_site_fract_z
 _atom_site_occupancy
  Tb  Tb0  1  0.536444  0.463563  0.791534  1
  Tb  Tb1  1  0.463902  0.927808  0.291751  1
  Tb  Tb2  1  0.072195  0.536093  0.291744  1
  Tb  Tb3  1  0.463807  0.536194  0.291667  1
  Tb  Tb4  1  0.999987  0.000021  0.769113  1
  Tb  Tb5  1  0.000041  0.999966  0.269118  1
  Er  Er6  1  0.536701  0.073165  0.791786  1
  Er  Er7  1  0.926846  0.463293  0.791770  1
  Tm  Tm8  1  0.826649  0.652980  0.487701  1
  Tm  Tm9  1  0.347018  0.173346  0.487703  1
  Tm  Tm10  1  0.826318  0.173672  0.487941  1
  Tm  Tm11  1  0.173194  0.346917  0.987225  1
  Tm  Tm12  1  0.653087  0.826807  0.987225  1
  Tm  Tm13  1  0.173508  0.826493  0.986994  1
  Tm  Tm14  1  0.666831  0.333170  0.174082  1
  Tm  Tm15  1  0.333195  0.666800  0.674656  1
  Ga  Ga16  1  0.836374  0.672399  0.042855  1
  Ga  Ga17  1  0.327603  0.163629  0.042849  1
  Ga  Ga18  1  0.836097  0.163906  0.042569  1
  Ga  Ga19  1  0.163674  0.327429  0.543115  1
  Ga  Ga20  1  0.672563  0.836316  0.543107  1
  Ga  Ga21  1  0.163723  0.836274  0.543282  1
  Co  Co22  1  0.666910  0.333093  0.553509  1
  Co  Co23  1  0.333334  0.666666  0.052783  1
