# generated using pymatgen
data_DyLu(TaB4)2
_symmetry_space_group_name_H-M   'P 1'
_cell_length_a   3.13866500
_cell_length_b   3.13866608
_cell_length_c   14.34877400
_cell_angle_alpha   90.00000000
_cell_angle_beta   90.00000000
_cell_angle_gamma   120.00002028
_symmetry_Int_Tables_number   1
_chemical_formula_structural   DyLu(TaB4)2
_chemical_formula_sum   'Dy1 Lu1 Ta2 B8'
_cell_volume   122.41521962
_cell_formula_units_Z   1
loop_
 _symmetry_equiv_pos_site_id
 _symmetry_equiv_pos_as_xyz
  1  'x, y, z'
loop_
 _atom_site_type_symbol
 _atom_site_label
 _atom_site_symmetry_multiplicity
 _atom_site_fract_x
 _atom_site_fract_y
 _atom_site_fract_z
 _atom_site_occupancy
  Dy  Dy0  1  0.000000  0.000000  0.000000  1
  Lu  Lu1  1  0.000000  0.000000  0.500000  1
  Ta  Ta2  1  0.000000  0.000000  0.746830  1
  Ta  Ta3  1  0.000000  0.000000  0.253170  1
  B  B4  1  0.666667  0.333333  0.862210  1
  B  B5  1  0.666667  0.333333  0.630978  1
  B  B6  1  0.666667  0.333333  0.369022  1
  B  B7  1  0.666667  0.333333  0.137790  1
  B  B8  1  0.333333  0.666667  0.862210  1
  B  B9  1  0.333333  0.666667  0.630978  1
  B  B10  1  0.333333  0.666667  0.369022  1
  B  B11  1  0.333333  0.666667  0.137790  1
