# generated using pymatgen
data_Nd2Sm2Y2OsI10
_symmetry_space_group_name_H-M   'P 1'
_cell_length_a   7.87911241
_cell_length_b   9.91455805
_cell_length_c   9.93940597
_cell_angle_alpha   107.09288538
_cell_angle_beta   96.33263126
_cell_angle_gamma   104.68025394
_symmetry_Int_Tables_number   1
_chemical_formula_structural   Nd2Sm2Y2OsI10
_chemical_formula_sum   'Nd2 Sm2 Y2 Os1 I10'
_cell_volume   703.43923023
_cell_formula_units_Z   1
loop_
 _symmetry_equiv_pos_site_id
 _symmetry_equiv_pos_as_xyz
  1  'x, y, z'
loop_
 _atom_site_type_symbol
 _atom_site_label
 _atom_site_symmetry_multiplicity
 _atom_site_fract_x
 _atom_site_fract_y
 _atom_site_fract_z
 _atom_site_occupancy
  Nd  Nd0  1  0.117441  0.043115  0.759682  1
  Nd  Nd1  1  0.882559  0.956885  0.240318  1
  Sm  Sm2  1  0.967584  0.280235  0.082858  1
  Sm  Sm3  1  0.032416  0.719765  0.917142  1
  Y  Y4  1  0.351351  0.126051  0.167819  1
  Y  Y5  1  0.648649  0.873949  0.832181  1
  Os  Os6  1  0.000000  0.000000  0.000000  1
  I  I7  1  0.348871  0.444262  0.269912  1
  I  I8  1  0.651129  0.555738  0.730088  1
  I  I9  1  0.263103  0.088169  0.455141  1
  I  I10  1  0.736897  0.911831  0.544859  1
  I  I11  1  0.086099  0.372320  0.820393  1
  I  I12  1  0.913901  0.627680  0.179607  1
  I  I13  1  0.452410  0.818703  0.088731  1
  I  I14  1  0.547590  0.181297  0.911269  1
  I  I15  1  0.774523  0.258017  0.344686  1
  I  I16  1  0.225477  0.741983  0.655314  1
