# generated using pymatgen
data_Er3GaSi2IrRh5
_symmetry_space_group_name_H-M   'P 1'
_cell_length_a   5.55110800
_cell_length_b   5.57050110
_cell_length_c   15.23551231
_cell_angle_alpha   89.92527021
_cell_angle_beta   90.00000000
_cell_angle_gamma   119.88489128
_symmetry_Int_Tables_number   1
_chemical_formula_structural   Er3GaSi2IrRh5
_chemical_formula_sum   'Er6 Ga2 Si4 Ir2 Rh10'
_cell_volume   408.47334280
_cell_formula_units_Z   2
loop_
 _symmetry_equiv_pos_site_id
 _symmetry_equiv_pos_as_xyz
  1  'x, y, z'
loop_
 _atom_site_type_symbol
 _atom_site_label
 _atom_site_symmetry_multiplicity
 _atom_site_fract_x
 _atom_site_fract_y
 _atom_site_fract_z
 _atom_site_occupancy
  Er  Er0  1  0.333170  0.666341  0.537797  1
  Er  Er1  1  0.666830  0.333659  0.462203  1
  Er  Er2  1  0.667684  0.335368  0.037992  1
  Er  Er3  1  0.332316  0.664632  0.962008  1
  Er  Er4  1  0.333359  0.666719  0.750441  1
  Er  Er5  1  0.666641  0.333281  0.249559  1
  Ga  Ga6  1  0.000000  0.000000  0.000000  1
  Ga  Ga7  1  0.000000  0.000000  0.500000  1
  Si  Si8  1  0.000186  0.000372  0.250259  1
  Si  Si9  1  0.999814  0.999628  0.749741  1
  Si  Si10  1  0.333106  0.666213  0.250532  1
  Si  Si11  1  0.666894  0.333787  0.749468  1
  Ir  Ir12  1  0.168126  0.336252  0.132722  1
  Ir  Ir13  1  0.831874  0.663748  0.867278  1
  Rh  Rh14  1  0.664138  0.832165  0.133354  1
  Rh  Rh15  1  0.832263  0.664527  0.632416  1
  Rh  Rh16  1  0.335862  0.167835  0.866646  1
  Rh  Rh17  1  0.167737  0.335473  0.367584  1
  Rh  Rh18  1  0.168027  0.832165  0.133354  1
  Rh  Rh19  1  0.335640  0.167739  0.633182  1
  Rh  Rh20  1  0.831973  0.167835  0.866646  1
  Rh  Rh21  1  0.664360  0.832261  0.366818  1
  Rh  Rh22  1  0.832099  0.167739  0.633182  1
  Rh  Rh23  1  0.167901  0.832261  0.366818  1
