# generated using pymatgen
data_LiLa6Cd22Ge
_symmetry_space_group_name_H-M   'P 1'
_cell_length_a   10.18581787
_cell_length_b   10.18581661
_cell_length_c   10.18581800
_cell_angle_alpha   59.99999548
_cell_angle_beta   59.99999959
_cell_angle_gamma   59.99999749
_symmetry_Int_Tables_number   1
_chemical_formula_structural   LiLa6Cd22Ge
_chemical_formula_sum   'Li1 La6 Cd22 Ge1'
_cell_volume   747.26157126
_cell_formula_units_Z   1
loop_
 _symmetry_equiv_pos_site_id
 _symmetry_equiv_pos_as_xyz
  1  'x, y, z'
loop_
 _atom_site_type_symbol
 _atom_site_label
 _atom_site_symmetry_multiplicity
 _atom_site_fract_x
 _atom_site_fract_y
 _atom_site_fract_z
 _atom_site_occupancy
  Li  Li0  1  0.000000  0.000000  0.000000  1
  La  La1  1  0.709589  0.290411  0.290411  1
  La  La2  1  0.290411  0.709589  0.709589  1
  La  La3  1  0.290411  0.709589  0.290411  1
  La  La4  1  0.709589  0.290411  0.709589  1
  La  La5  1  0.290411  0.290411  0.709589  1
  La  La6  1  0.709589  0.709589  0.290411  1
  Cd  Cd7  1  0.118162  0.118162  0.118162  1
  Cd  Cd8  1  0.881838  0.881838  0.881838  1
  Cd  Cd9  1  0.118162  0.118162  0.645516  1
  Cd  Cd10  1  0.118162  0.645516  0.118162  1
  Cd  Cd11  1  0.881838  0.881838  0.354484  1
  Cd  Cd12  1  0.881838  0.354484  0.881838  1
  Cd  Cd13  1  0.645516  0.118162  0.118162  1
  Cd  Cd14  1  0.354484  0.881838  0.881838  1
  Cd  Cd15  1  0.500000  0.000000  0.000000  1
  Cd  Cd16  1  0.000000  0.500000  0.500000  1
  Cd  Cd17  1  0.000000  0.500000  0.000000  1
  Cd  Cd18  1  0.500000  0.000000  0.500000  1
  Cd  Cd19  1  0.000000  0.000000  0.500000  1
  Cd  Cd20  1  0.500000  0.500000  0.000000  1
  Cd  Cd21  1  0.332217  0.332217  0.332217  1
  Cd  Cd22  1  0.667783  0.667783  0.667783  1
  Cd  Cd23  1  0.332217  0.332217  0.003348  1
  Cd  Cd24  1  0.332217  0.003348  0.332217  1
  Cd  Cd25  1  0.667783  0.667783  0.996652  1
  Cd  Cd26  1  0.667783  0.996652  0.667783  1
  Cd  Cd27  1  0.003348  0.332217  0.332217  1
  Cd  Cd28  1  0.996652  0.667783  0.667783  1
  Ge  Ge29  1  0.500000  0.500000  0.500000  1
