# generated using pymatgen
data_Tb5(SnPb)2
_symmetry_space_group_name_H-M   'P 1'
_cell_length_a   8.77133700
_cell_length_b   8.77133624
_cell_length_c   8.19929300
_cell_angle_alpha   90.00000000
_cell_angle_beta   90.00000000
_cell_angle_gamma   124.60152829
_symmetry_Int_Tables_number   1
_chemical_formula_structural   Tb5(SnPb)2
_chemical_formula_sum   'Tb10 Sn4 Pb4'
_cell_volume   519.24432842
_cell_formula_units_Z   2
loop_
 _symmetry_equiv_pos_site_id
 _symmetry_equiv_pos_as_xyz
  1  'x, y, z'
loop_
 _atom_site_type_symbol
 _atom_site_label
 _atom_site_symmetry_multiplicity
 _atom_site_fract_x
 _atom_site_fract_y
 _atom_site_fract_z
 _atom_site_occupancy
  Tb  Tb0  1  0.034927  0.305191  0.331677  1
  Tb  Tb1  1  0.965073  0.694809  0.668323  1
  Tb  Tb2  1  0.465073  0.194809  0.831677  1
  Tb  Tb3  1  0.805191  0.534927  0.168323  1
  Tb  Tb4  1  0.534927  0.805191  0.168323  1
  Tb  Tb5  1  0.194809  0.465073  0.831677  1
  Tb  Tb6  1  0.694809  0.965073  0.668323  1
  Tb  Tb7  1  0.305191  0.034927  0.331677  1
  Tb  Tb8  1  0.000000  0.000000  0.000000  1
  Tb  Tb9  1  0.500000  0.500000  0.500000  1
  Sn  Sn10  1  0.366584  0.366584  0.134881  1
  Sn  Sn11  1  0.633416  0.633416  0.865119  1
  Sn  Sn12  1  0.133416  0.133416  0.634881  1
  Sn  Sn13  1  0.866584  0.866584  0.365119  1
  Pb  Pb14  1  0.792655  0.207345  0.000000  1
  Pb  Pb15  1  0.207345  0.792655  0.000000  1
  Pb  Pb16  1  0.707345  0.292655  0.500000  1
  Pb  Pb17  1  0.292655  0.707345  0.500000  1
