# generated using pymatgen
data_Mg5Cd(BIr2)3
_symmetry_space_group_name_H-M   'P 1'
_cell_length_a   13.76946800
_cell_length_b   13.76946755
_cell_length_c   10.54544600
_cell_angle_alpha   90.00000000
_cell_angle_beta   90.00000000
_cell_angle_gamma   167.75260833
_symmetry_Int_Tables_number   1
_chemical_formula_structural   Mg5Cd(BIr2)3
_chemical_formula_sum   'Mg10 Cd2 B6 Ir12'
_cell_volume   424.13867141
_cell_formula_units_Z   2
loop_
 _symmetry_equiv_pos_site_id
 _symmetry_equiv_pos_as_xyz
  1  'x, y, z'
loop_
 _atom_site_type_symbol
 _atom_site_label
 _atom_site_symmetry_multiplicity
 _atom_site_fract_x
 _atom_site_fract_y
 _atom_site_fract_z
 _atom_site_occupancy
  Mg  Mg0  1  0.088800  0.911200  0.111735  1
  Mg  Mg1  1  0.911200  0.088800  0.888265  1
  Mg  Mg2  1  0.911200  0.088800  0.611735  1
  Mg  Mg3  1  0.088800  0.911200  0.388265  1
  Mg  Mg4  1  0.235027  0.764973  0.610835  1
  Mg  Mg5  1  0.764973  0.235027  0.389165  1
  Mg  Mg6  1  0.000000  0.000000  0.000000  1
  Mg  Mg7  1  0.000000  0.000000  0.500000  1
  Mg  Mg8  1  0.235027  0.764973  0.889165  1
  Mg  Mg9  1  0.764973  0.235027  0.110835  1
  Cd  Cd10  1  0.817811  0.182189  0.750000  1
  Cd  Cd11  1  0.182189  0.817811  0.250000  1
  B  B12  1  0.137254  0.862746  0.608867  1
  B  B13  1  0.862746  0.137254  0.391133  1
  B  B14  1  0.862746  0.137254  0.108867  1
  B  B15  1  0.137254  0.862746  0.891133  1
  B  B16  1  0.958839  0.041161  0.250000  1
  B  B17  1  0.041161  0.958839  0.750000  1
  Ir  Ir18  1  0.332511  0.667489  0.517204  1
  Ir  Ir19  1  0.667489  0.332511  0.482796  1
  Ir  Ir20  1  0.667489  0.332511  0.017204  1
  Ir  Ir21  1  0.332511  0.667489  0.982796  1
  Ir  Ir22  1  0.515336  0.484664  0.250000  1
  Ir  Ir23  1  0.484664  0.515336  0.750000  1
  Ir  Ir24  1  0.331169  0.668831  0.250000  1
  Ir  Ir25  1  0.668831  0.331169  0.750000  1
  Ir  Ir26  1  0.575957  0.424043  0.614614  1
  Ir  Ir27  1  0.424043  0.575957  0.385386  1
  Ir  Ir28  1  0.424043  0.575957  0.114614  1
  Ir  Ir29  1  0.575957  0.424043  0.885386  1
