# generated using pymatgen
data_Zr4TiSi(GeMo)3
_symmetry_space_group_name_H-M   'P 1'
_cell_length_a   3.58129500
_cell_length_b   7.04447708
_cell_length_c   8.39196902
_cell_angle_alpha   89.93318146
_cell_angle_beta   90.00000000
_cell_angle_gamma   90.00000000
_symmetry_Int_Tables_number   1
_chemical_formula_structural   Zr4TiSi(GeMo)3
_chemical_formula_sum   'Zr4 Ti1 Si1 Ge3 Mo3'
_cell_volume   211.71539225
_cell_formula_units_Z   1
loop_
 _symmetry_equiv_pos_site_id
 _symmetry_equiv_pos_as_xyz
  1  'x, y, z'
loop_
 _atom_site_type_symbol
 _atom_site_label
 _atom_site_symmetry_multiplicity
 _atom_site_fract_x
 _atom_site_fract_y
 _atom_site_fract_z
 _atom_site_occupancy
  Zr  Zr0  1  0.250000  0.050692  0.334157  1
  Zr  Zr1  1  0.250000  0.549189  0.162577  1
  Zr  Zr2  1  0.750000  0.948745  0.668715  1
  Zr  Zr3  1  0.750000  0.463610  0.830549  1
  Ti  Ti4  1  0.250000  0.119766  0.939967  1
  Si  Si5  1  0.250000  0.754860  0.862572  1
  Ge  Ge6  1  0.250000  0.251602  0.641211  1
  Ge  Ge7  1  0.750000  0.747238  0.361836  1
  Ge  Ge8  1  0.750000  0.246574  0.137624  1
  Mo  Mo9  1  0.250000  0.627950  0.563479  1
  Mo  Mo10  1  0.750000  0.866474  0.056873  1
  Mo  Mo11  1  0.750000  0.373298  0.440441  1
