# generated using pymatgen
data_YV(PRh)2
_symmetry_space_group_name_H-M   'P 1'
_cell_length_a   3.88302200
_cell_length_b   10.94065162
_cell_length_c   13.08313982
_cell_angle_alpha   89.93855775
_cell_angle_beta   90.00000000
_cell_angle_gamma   90.00000000
_symmetry_Int_Tables_number   1
_chemical_formula_structural   YV(PRh)2
_chemical_formula_sum   'Y6 V6 P12 Rh12'
_cell_volume   555.80797437
_cell_formula_units_Z   6
loop_
 _symmetry_equiv_pos_site_id
 _symmetry_equiv_pos_as_xyz
  1  'x, y, z'
loop_
 _atom_site_type_symbol
 _atom_site_label
 _atom_site_symmetry_multiplicity
 _atom_site_fract_x
 _atom_site_fract_y
 _atom_site_fract_z
 _atom_site_occupancy
  Y  Y0  1  0.000000  0.500434  0.517327  1
  Y  Y1  1  0.500000  0.999294  0.483564  1
  Y  Y2  1  0.500000  0.822460  0.201826  1
  Y  Y3  1  0.500000  0.182502  0.205305  1
  Y  Y4  1  0.000000  0.679914  0.791031  1
  Y  Y5  1  0.000000  0.317319  0.786970  1
  V  V6  1  0.500000  0.503248  0.164768  1
  V  V7  1  0.000000  0.001378  0.843845  1
  V  V8  1  0.000000  0.491623  0.985263  1
  V  V9  1  0.500000  0.344395  0.999596  1
  V  V10  1  0.500000  0.646298  0.999475  1
  V  V11  1  0.000000  0.187228  0.000532  1
  P  P12  1  0.500000  0.498005  0.868390  1
  P  P13  1  0.000000  0.008958  0.114013  1
  P  P14  1  0.500000  0.500564  0.348221  1
  P  P15  1  0.000000  0.998882  0.657645  1
  P  P16  1  0.500000  0.310148  0.614526  1
  P  P17  1  0.500000  0.689379  0.615560  1
  P  P18  1  0.000000  0.182918  0.383416  1
  P  P19  1  0.000000  0.816405  0.383664  1
  P  P20  1  0.500000  0.839014  0.892165  1
  P  P21  1  0.500000  0.160503  0.887665  1
  P  P22  1  0.000000  0.646913  0.115853  1
  P  P23  1  0.000000  0.349494  0.121100  1
  Rh  Rh24  1  0.500000  0.499731  0.691212  1
  Rh  Rh25  1  0.000000  0.999129  0.295070  1
  Rh  Rh26  1  0.500000  0.003488  0.010172  1
  Rh  Rh27  1  0.000000  0.821985  0.004896  1
  Rh  Rh28  1  0.500000  0.290217  0.433284  1
  Rh  Rh29  1  0.500000  0.708851  0.432900  1
  Rh  Rh30  1  0.000000  0.201254  0.567080  1
  Rh  Rh31  1  0.000000  0.796870  0.568659  1
  Rh  Rh32  1  0.500000  0.873558  0.712995  1
  Rh  Rh33  1  0.500000  0.123549  0.709723  1
  Rh  Rh34  1  0.000000  0.627981  0.294308  1
  Rh  Rh35  1  0.000000  0.376110  0.297981  1
