# generated using pymatgen
data_Lu2Hg6(PCl3)3
_symmetry_space_group_name_H-M   'P 1'
_cell_length_a   10.52892423
_cell_length_b   10.86241300
_cell_length_c   11.01233900
_cell_angle_alpha   90.00000000
_cell_angle_beta   116.42906739
_cell_angle_gamma   90.00000000
_symmetry_Int_Tables_number   1
_chemical_formula_structural   Lu2Hg6(PCl3)3
_chemical_formula_sum   'Lu4 Hg12 P6 Cl18'
_cell_volume   1127.84318302
_cell_formula_units_Z   2
loop_
 _symmetry_equiv_pos_site_id
 _symmetry_equiv_pos_as_xyz
  1  'x, y, z'
loop_
 _atom_site_type_symbol
 _atom_site_label
 _atom_site_symmetry_multiplicity
 _atom_site_fract_x
 _atom_site_fract_y
 _atom_site_fract_z
 _atom_site_occupancy
  Lu  Lu0  1  0.360035  0.623207  0.088313  1
  Lu  Lu1  1  0.694085  0.755378  0.331871  1
  Lu  Lu2  1  0.305915  0.255377  0.668128  1
  Lu  Lu3  1  0.639965  0.123207  0.911687  1
  Hg  Hg4  1  0.828037  0.518108  0.006011  1
  Hg  Hg5  1  0.133227  0.278042  0.222639  1
  Hg  Hg6  1  0.514182  0.189204  0.325407  1
  Hg  Hg7  1  0.854988  0.358655  0.349612  1
  Hg  Hg8  1  0.117298  0.616858  0.369329  1
  Hg  Hg9  1  0.277977  0.943039  0.377552  1
  Hg  Hg10  1  0.722021  0.443040  0.622448  1
  Hg  Hg11  1  0.882704  0.116859  0.630672  1
  Hg  Hg12  1  0.145012  0.858656  0.650389  1
  Hg  Hg13  1  0.485818  0.689204  0.674593  1
  Hg  Hg14  1  0.866774  0.778043  0.777360  1
  Hg  Hg15  1  0.171964  0.018108  0.993990  1
  P  P16  1  0.277268  0.101906  0.221709  1
  P  P17  1  0.982022  0.443860  0.231752  1
  P  P18  1  0.739147  0.279436  0.480143  1
  P  P19  1  0.260854  0.779437  0.519857  1
  P  P20  1  0.017978  0.943859  0.768248  1
  P  P21  1  0.722732  0.601906  0.778292  1
  Cl  Cl22  1  0.134955  0.713297  0.085638  1
  Cl  Cl23  1  0.308023  0.399558  0.097235  1
  Cl  Cl24  1  0.469877  0.849325  0.127515  1
  Cl  Cl25  1  0.633312  0.575465  0.149950  1
  Cl  Cl26  1  0.701432  0.143740  0.158596  1
  Cl  Cl27  1  0.884362  0.847519  0.287785  1
  Cl  Cl28  1  0.489039  0.626107  0.361032  1
  Cl  Cl29  1  0.117806  0.125597  0.479336  1
  Cl  Cl30  1  0.656404  0.910526  0.484719  1
  Cl  Cl31  1  0.343598  0.410526  0.515282  1
  Cl  Cl32  1  0.882194  0.625598  0.520663  1
  Cl  Cl33  1  0.510960  0.126107  0.638968  1
  Cl  Cl34  1  0.115638  0.347519  0.712215  1
  Cl  Cl35  1  0.298568  0.643741  0.841403  1
  Cl  Cl36  1  0.366688  0.075465  0.850051  1
  Cl  Cl37  1  0.530124  0.349326  0.872486  1
  Cl  Cl38  1  0.691976  0.899558  0.902764  1
  Cl  Cl39  1  0.865044  0.213297  0.914361  1
