# generated using pymatgen
data_Sr5(GaAs3)2
_symmetry_space_group_name_H-M   'P 1'
_cell_length_a   4.32111800
_cell_length_b   12.08567400
_cell_length_c   13.87644200
_cell_angle_alpha   90.00000000
_cell_angle_beta   90.00000000
_cell_angle_gamma   90.00000000
_symmetry_Int_Tables_number   1
_chemical_formula_structural   Sr5(GaAs3)2
_chemical_formula_sum   'Sr10 Ga4 As12'
_cell_volume   724.67808202
_cell_formula_units_Z   2
loop_
 _symmetry_equiv_pos_site_id
 _symmetry_equiv_pos_as_xyz
  1  'x, y, z'
loop_
 _atom_site_type_symbol
 _atom_site_label
 _atom_site_symmetry_multiplicity
 _atom_site_fract_x
 _atom_site_fract_y
 _atom_site_fract_z
 _atom_site_occupancy
  Sr  Sr0  1  0.500000  0.088159  0.753617  1
  Sr  Sr1  1  0.500000  0.588159  0.746383  1
  Sr  Sr2  1  0.500000  0.327670  0.517088  1
  Sr  Sr3  1  0.500000  0.672330  0.482912  1
  Sr  Sr4  1  0.500000  0.827670  0.982912  1
  Sr  Sr5  1  0.500000  0.911841  0.246383  1
  Sr  Sr6  1  0.500000  0.172330  0.017088  1
  Sr  Sr7  1  0.500000  0.500000  0.000000  1
  Sr  Sr8  1  0.500000  0.000000  0.500000  1
  Sr  Sr9  1  0.500000  0.411841  0.253617  1
  Ga  Ga10  1  0.000000  0.825583  0.788556  1
  Ga  Ga11  1  0.000000  0.174417  0.211444  1
  Ga  Ga12  1  0.000000  0.674417  0.288556  1
  Ga  Ga13  1  0.000000  0.325583  0.711444  1
  As  As14  1  0.500000  0.839597  0.686438  1
  As  As15  1  0.000000  0.486912  0.409006  1
  As  As16  1  0.500000  0.160403  0.313562  1
  As  As17  1  0.000000  0.013088  0.909006  1
  As  As18  1  0.000000  0.840276  0.399837  1
  As  As19  1  0.000000  0.986912  0.090994  1
  As  As20  1  0.000000  0.340276  0.100163  1
  As  As21  1  0.000000  0.513088  0.590994  1
  As  As22  1  0.000000  0.159724  0.600163  1
  As  As23  1  0.000000  0.659724  0.899837  1
  As  As24  1  0.500000  0.660403  0.186438  1
  As  As25  1  0.500000  0.339597  0.813562  1
