# generated using pymatgen
data_TiBe8ReTc2
_symmetry_space_group_name_H-M   'P 1'
_cell_length_a   4.38433400
_cell_length_b   4.38433396
_cell_length_c   7.22435500
_cell_angle_alpha   90.00000000
_cell_angle_beta   90.00000000
_cell_angle_gamma   120.00001539
_symmetry_Int_Tables_number   1
_chemical_formula_structural   TiBe8ReTc2
_chemical_formula_sum   'Ti1 Be8 Re1 Tc2'
_cell_volume   120.26434827
_cell_formula_units_Z   1
loop_
 _symmetry_equiv_pos_site_id
 _symmetry_equiv_pos_as_xyz
  1  'x, y, z'
loop_
 _atom_site_type_symbol
 _atom_site_label
 _atom_site_symmetry_multiplicity
 _atom_site_fract_x
 _atom_site_fract_y
 _atom_site_fract_z
 _atom_site_occupancy
  Ti  Ti0  1  0.333333  0.666667  0.064643  1
  Be  Be1  1  0.000000  0.000000  0.998615  1
  Be  Be2  1  0.000000  0.000000  0.499465  1
  Be  Be3  1  0.830347  0.660695  0.252691  1
  Be  Be4  1  0.168697  0.831303  0.748290  1
  Be  Be5  1  0.662607  0.831303  0.748290  1
  Be  Be6  1  0.339305  0.169653  0.252691  1
  Be  Be7  1  0.830347  0.169653  0.252691  1
  Be  Be8  1  0.168697  0.337393  0.748290  1
  Re  Re9  1  0.333333  0.666667  0.438666  1
  Tc  Tc10  1  0.666667  0.333333  0.563255  1
  Tc  Tc11  1  0.666667  0.333333  0.932412  1
