# generated using pymatgen
data_Dy4Ho3Tm3Ir4
_symmetry_space_group_name_H-M   'P 1'
_cell_length_a   6.44873818
_cell_length_b   7.18269274
_cell_length_c   8.47532466
_cell_angle_alpha   96.54737941
_cell_angle_beta   112.40119944
_cell_angle_gamma   90.03531451
_symmetry_Int_Tables_number   1
_chemical_formula_structural   Dy4Ho3Tm3Ir4
_chemical_formula_sum   'Dy4 Ho3 Tm3 Ir4'
_cell_volume   360.16450949
_cell_formula_units_Z   1
loop_
 _symmetry_equiv_pos_site_id
 _symmetry_equiv_pos_as_xyz
  1  'x, y, z'
loop_
 _atom_site_type_symbol
 _atom_site_label
 _atom_site_symmetry_multiplicity
 _atom_site_fract_x
 _atom_site_fract_y
 _atom_site_fract_z
 _atom_site_occupancy
  Dy  Dy0  1  0.970719  0.919272  0.183458  1
  Dy  Dy1  1  0.787644  0.580780  0.816199  1
  Dy  Dy2  1  0.028883  0.081009  0.816383  1
  Dy  Dy3  1  0.212834  0.418732  0.183707  1
  Ho  Ho4  1  0.652586  0.817024  0.440760  1
  Ho  Ho5  1  0.211232  0.682396  0.558796  1
  Ho  Ho6  1  0.347441  0.183210  0.559084  1
  Tm  Tm7  1  0.788180  0.317526  0.440508  1
  Tm  Tm8  1  0.428086  0.750210  0.000102  1
  Tm  Tm9  1  0.572281  0.249977  0.000482  1
  Ir  Ir10  1  0.822661  0.572537  0.219282  1
  Ir  Ir11  1  0.603608  0.926820  0.781554  1
  Ir  Ir12  1  0.176397  0.426688  0.780454  1
  Ir  Ir13  1  0.397451  0.073818  0.219230  1
