# generated using pymatgen
data_La2Dy3Tl4
_symmetry_space_group_name_H-M   'P 1'
_cell_length_a   8.18887100
_cell_length_b   8.37216100
_cell_length_c   16.30700100
_cell_angle_alpha   90.00000000
_cell_angle_beta   90.00000000
_cell_angle_gamma   90.00000000
_symmetry_Int_Tables_number   1
_chemical_formula_structural   La2Dy3Tl4
_chemical_formula_sum   'La8 Dy12 Tl16'
_cell_volume   1117.98428503
_cell_formula_units_Z   4
loop_
 _symmetry_equiv_pos_site_id
 _symmetry_equiv_pos_as_xyz
  1  'x, y, z'
loop_
 _atom_site_type_symbol
 _atom_site_label
 _atom_site_symmetry_multiplicity
 _atom_site_fract_x
 _atom_site_fract_y
 _atom_site_fract_z
 _atom_site_occupancy
  La  La0  1  0.005609  0.181520  0.096401  1
  La  La1  1  0.505609  0.318480  0.403599  1
  La  La2  1  0.494391  0.681520  0.903599  1
  La  La3  1  0.994391  0.818480  0.596401  1
  La  La4  1  0.994391  0.818480  0.903599  1
  La  La5  1  0.494391  0.681520  0.596401  1
  La  La6  1  0.505609  0.318480  0.096401  1
  La  La7  1  0.005609  0.181520  0.403599  1
  Dy  Dy8  1  0.846504  0.665986  0.124835  1
  Dy  Dy9  1  0.346504  0.834014  0.375165  1
  Dy  Dy10  1  0.653496  0.165986  0.875165  1
  Dy  Dy11  1  0.153496  0.334014  0.624835  1
  Dy  Dy12  1  0.153496  0.334014  0.875165  1
  Dy  Dy13  1  0.653496  0.165986  0.624835  1
  Dy  Dy14  1  0.346504  0.834014  0.124835  1
  Dy  Dy15  1  0.846504  0.665986  0.375165  1
  Dy  Dy16  1  0.683847  0.999463  0.250000  1
  Dy  Dy17  1  0.183847  0.500537  0.250000  1
  Dy  Dy18  1  0.816153  0.499463  0.750000  1
  Dy  Dy19  1  0.316153  0.000537  0.750000  1
  Tl  Tl20  1  0.045755  0.876929  0.250000  1
  Tl  Tl21  1  0.545755  0.623071  0.250000  1
  Tl  Tl22  1  0.454245  0.376929  0.750000  1
  Tl  Tl23  1  0.954245  0.123071  0.750000  1
  Tl  Tl24  1  0.808499  0.363841  0.250000  1
  Tl  Tl25  1  0.308499  0.136159  0.250000  1
  Tl  Tl26  1  0.691501  0.863841  0.750000  1
  Tl  Tl27  1  0.191501  0.636159  0.750000  1
  Tl  Tl28  1  0.819113  0.460650  0.962257  1
  Tl  Tl29  1  0.319113  0.039350  0.537743  1
  Tl  Tl30  1  0.680887  0.960650  0.037743  1
  Tl  Tl31  1  0.180887  0.539350  0.462257  1
  Tl  Tl32  1  0.180887  0.539350  0.037743  1
  Tl  Tl33  1  0.680887  0.960650  0.462257  1
  Tl  Tl34  1  0.319113  0.039350  0.962257  1
  Tl  Tl35  1  0.819113  0.460650  0.537743  1
