# generated using pymatgen
data_Y2Zn14Rh3
_symmetry_space_group_name_H-M   'P 1'
_cell_length_a   6.80763389
_cell_length_b   6.80763482
_cell_length_c   6.80763369
_cell_angle_alpha   82.15431877
_cell_angle_beta   82.15431700
_cell_angle_gamma   82.15432503
_symmetry_Int_Tables_number   1
_chemical_formula_structural   Y2Zn14Rh3
_chemical_formula_sum   'Y2 Zn14 Rh3'
_cell_volume   307.37198999
_cell_formula_units_Z   1
loop_
 _symmetry_equiv_pos_site_id
 _symmetry_equiv_pos_as_xyz
  1  'x, y, z'
loop_
 _atom_site_type_symbol
 _atom_site_label
 _atom_site_symmetry_multiplicity
 _atom_site_fract_x
 _atom_site_fract_y
 _atom_site_fract_z
 _atom_site_occupancy
  Y  Y0  1  0.672006  0.672006  0.672006  1
  Y  Y1  1  0.327994  0.327994  0.327994  1
  Zn  Zn2  1  0.351623  0.351623  0.840677  1
  Zn  Zn3  1  0.840677  0.351623  0.351623  1
  Zn  Zn4  1  0.100473  0.100473  0.100473  1
  Zn  Zn5  1  0.899527  0.899527  0.899527  1
  Zn  Zn6  1  0.295650  0.704350  0.000000  1
  Zn  Zn7  1  0.704350  0.000000  0.295650  1
  Zn  Zn8  1  0.000000  0.295650  0.704350  1
  Zn  Zn9  1  0.704350  0.295650  0.000000  1
  Zn  Zn10  1  0.295650  0.000000  0.704350  1
  Zn  Zn11  1  0.000000  0.704350  0.295650  1
  Zn  Zn12  1  0.159323  0.648377  0.648377  1
  Zn  Zn13  1  0.648377  0.648377  0.159323  1
  Zn  Zn14  1  0.648377  0.159323  0.648377  1
  Zn  Zn15  1  0.351623  0.840677  0.351623  1
  Rh  Rh16  1  0.000000  0.000000  0.500000  1
  Rh  Rh17  1  0.000000  0.500000  0.000000  1
  Rh  Rh18  1  0.500000  0.000000  0.000000  1
