# generated using pymatgen
data_MnI13
_symmetry_space_group_name_H-M   'P 1'
_cell_length_a   12.04066877
_cell_length_b   11.74521622
_cell_length_c   15.38122709
_cell_angle_alpha   122.95879017
_cell_angle_beta   86.38092065
_cell_angle_gamma   107.84676907
_symmetry_Int_Tables_number   1
_chemical_formula_structural   MnI13
_chemical_formula_sum   'Mn2 I26'
_cell_volume   1722.63535639
_cell_formula_units_Z   2
loop_
 _symmetry_equiv_pos_site_id
 _symmetry_equiv_pos_as_xyz
  1  'x, y, z'
loop_
 _atom_site_type_symbol
 _atom_site_label
 _atom_site_symmetry_multiplicity
 _atom_site_fract_x
 _atom_site_fract_y
 _atom_site_fract_z
 _atom_site_occupancy
  Mn  Mn0  1  0.339172  0.857602  0.934382  1
  Mn  Mn1  1  0.660828  0.142398  0.065618  1
  I  I2  1  0.375878  0.660734  0.973924  1
  I  I3  1  0.624122  0.339266  0.026076  1
  I  I4  1  0.564627  0.789922  0.390660  1
  I  I5  1  0.435373  0.210078  0.609340  1
  I  I6  1  0.740141  0.702422  0.022735  1
  I  I7  1  0.259859  0.297578  0.977265  1
  I  I8  1  0.710556  0.965907  0.163792  1
  I  I9  1  0.289444  0.034093  0.836208  1
  I  I10  1  0.439082  0.109406  0.119307  1
  I  I11  1  0.560918  0.890594  0.880693  1
  I  I12  1  0.242570  0.671454  0.729936  1
  I  I13  1  0.757430  0.328546  0.270064  1
  I  I14  1  0.128798  0.838116  0.995296  1
  I  I15  1  0.871202  0.161884  0.004704  1
  I  I16  1  0.112174  0.094558  0.215135  1
  I  I17  1  0.887826  0.905442  0.784865  1
  I  I18  1  0.272779  0.922746  0.460489  1
  I  I19  1  0.727221  0.077254  0.539511  1
  I  I20  1  0.336759  0.430496  0.657178  1
  I  I21  1  0.663241  0.569504  0.342822  1
  I  I22  1  0.867618  0.375202  0.692885  1
  I  I23  1  0.132382  0.624798  0.307115  1
  I  I24  1  0.942267  0.699217  0.596892  1
  I  I25  1  0.057733  0.300783  0.403108  1
  I  I26  1  0.247388  0.629399  0.129626  1
  I  I27  1  0.752612  0.370601  0.870374  1
