# generated using pymatgen
data_SmYFe6(CoB4)2
_symmetry_space_group_name_H-M   'P 1'
_cell_length_a   6.99449714
_cell_length_b   6.97935893
_cell_length_c   3.80886400
_cell_angle_alpha   90.00000000
_cell_angle_beta   90.00000000
_cell_angle_gamma   90.33304530
_symmetry_Int_Tables_number   1
_chemical_formula_structural   SmYFe6(CoB4)2
_chemical_formula_sum   'Sm1 Y1 Fe6 Co2 B8'
_cell_volume   185.93457680
_cell_formula_units_Z   1
loop_
 _symmetry_equiv_pos_site_id
 _symmetry_equiv_pos_as_xyz
  1  'x, y, z'
loop_
 _atom_site_type_symbol
 _atom_site_label
 _atom_site_symmetry_multiplicity
 _atom_site_fract_x
 _atom_site_fract_y
 _atom_site_fract_z
 _atom_site_occupancy
  Sm  Sm0  1  0.500000  0.500000  0.501607  1
  Y  Y1  1  0.000000  0.000000  0.002318  1
  Fe  Fe2  1  0.385756  0.131256  0.892921  1
  Fe  Fe3  1  0.614244  0.868744  0.892921  1
  Fe  Fe4  1  0.365917  0.885842  0.393233  1
  Fe  Fe5  1  0.634083  0.114158  0.393233  1
  Fe  Fe6  1  0.114045  0.366410  0.606777  1
  Fe  Fe7  1  0.885955  0.633590  0.606777  1
  Co  Co8  1  0.135165  0.614585  0.107895  1
  Co  Co9  1  0.864835  0.385415  0.107895  1
  B  B10  1  0.797934  0.668474  0.103598  1
  B  B11  1  0.202066  0.331526  0.103598  1
  B  B12  1  0.837716  0.295414  0.604925  1
  B  B13  1  0.162284  0.704586  0.604925  1
  B  B14  1  0.703159  0.835527  0.394404  1
  B  B15  1  0.296841  0.164473  0.394404  1
  B  B16  1  0.666981  0.195887  0.894284  1
  B  B17  1  0.333019  0.804113  0.894284  1
