# generated using pymatgen
data_Sc10Co7Si20Os
_symmetry_space_group_name_H-M   'P 1'
_cell_length_a   12.14091065
_cell_length_b   12.07699474
_cell_length_c   3.95225400
_cell_angle_alpha   90.00000000
_cell_angle_beta   90.00000000
_cell_angle_gamma   90.07641871
_symmetry_Int_Tables_number   1
_chemical_formula_structural   Sc10Co7Si20Os
_chemical_formula_sum   'Sc10 Co7 Si20 Os1'
_cell_volume   579.50154923
_cell_formula_units_Z   1
loop_
 _symmetry_equiv_pos_site_id
 _symmetry_equiv_pos_as_xyz
  1  'x, y, z'
loop_
 _atom_site_type_symbol
 _atom_site_label
 _atom_site_symmetry_multiplicity
 _atom_site_fract_x
 _atom_site_fract_y
 _atom_site_fract_z
 _atom_site_occupancy
  Sc  Sc0  1  0.000593  0.000183  0.000000  1
  Sc  Sc1  1  0.499562  0.506274  0.000000  1
  Sc  Sc2  1  0.679774  0.174119  0.500000  1
  Sc  Sc3  1  0.170512  0.324122  0.500000  1
  Sc  Sc4  1  0.823970  0.676375  0.500000  1
  Sc  Sc5  1  0.324603  0.821852  0.500000  1
  Sc  Sc6  1  0.888360  0.389234  0.500000  1
  Sc  Sc7  1  0.382964  0.109686  0.500000  1
  Sc  Sc8  1  0.614739  0.885569  0.500000  1
  Sc  Sc9  1  0.110473  0.611838  0.500000  1
  Co  Co10  1  0.250260  0.476706  0.000000  1
  Co  Co11  1  0.746955  0.526389  0.000000  1
  Co  Co12  1  0.475405  0.745498  0.000000  1
  Co  Co13  1  0.977553  0.754620  0.000000  1
  Co  Co14  1  0.023101  0.245264  0.000000  1
  Co  Co15  1  0.757004  0.022285  0.000000  1
  Co  Co16  1  0.246392  0.976433  0.000000  1
  Si  Si17  1  0.572999  0.060523  0.000000  1
  Si  Si18  1  0.066024  0.431769  0.000000  1
  Si  Si19  1  0.931183  0.569839  0.000000  1
  Si  Si20  1  0.430990  0.929821  0.000000  1
  Si  Si21  1  0.193732  0.156033  0.000000  1
  Si  Si22  1  0.157332  0.802069  0.000000  1
  Si  Si23  1  0.844835  0.196912  0.000000  1
  Si  Si24  1  0.804067  0.842408  0.000000  1
  Si  Si25  1  0.301113  0.656006  0.000000  1
  Si  Si26  1  0.704120  0.344946  0.000000  1
  Si  Si27  1  0.657409  0.698337  0.000000  1
  Si  Si28  1  0.332221  0.301489  0.000000  1
  Si  Si29  1  0.999837  0.164320  0.500000  1
  Si  Si30  1  0.163089  0.993476  0.500000  1
  Si  Si31  1  0.838148  0.998921  0.500000  1
  Si  Si32  1  0.998256  0.836303  0.500000  1
  Si  Si33  1  0.502318  0.667379  0.500000  1
  Si  Si34  1  0.510683  0.353200  0.500000  1
  Si  Si35  1  0.665319  0.502706  0.500000  1
  Si  Si36  1  0.333129  0.494723  0.500000  1
  Os  Os37  1  0.520976  0.252378  0.000000  1
