# generated using pymatgen
data_Na20AlV2InAs12
_symmetry_space_group_name_H-M   'P 1'
_cell_length_a   7.51545802
_cell_length_b   8.38271756
_cell_length_c   15.90401897
_cell_angle_alpha   59.08284124
_cell_angle_beta   90.31701269
_cell_angle_gamma   89.95342374
_symmetry_Int_Tables_number   1
_chemical_formula_structural   Na20AlV2InAs12
_chemical_formula_sum   'Na20 Al1 V2 In1 As12'
_cell_volume   859.56526087
_cell_formula_units_Z   1
loop_
 _symmetry_equiv_pos_site_id
 _symmetry_equiv_pos_as_xyz
  1  'x, y, z'
loop_
 _atom_site_type_symbol
 _atom_site_label
 _atom_site_symmetry_multiplicity
 _atom_site_fract_x
 _atom_site_fract_y
 _atom_site_fract_z
 _atom_site_occupancy
  Na  Na0  1  0.737826  0.939731  0.243182  1
  Na  Na1  1  0.260484  0.940986  0.745561  1
  Na  Na2  1  0.771048  0.052962  0.758339  1
  Na  Na3  1  0.231109  0.054869  0.256314  1
  Na  Na4  1  0.263417  0.249302  0.419904  1
  Na  Na5  1  0.734152  0.240708  0.921193  1
  Na  Na6  1  0.217326  0.754733  0.580389  1
  Na  Na7  1  0.782872  0.755181  0.079194  1
  Na  Na8  1  0.091756  0.341078  0.586255  1
  Na  Na9  1  0.910642  0.346659  0.080186  1
  Na  Na10  1  0.408825  0.652174  0.419266  1
  Na  Na11  1  0.592676  0.654686  0.919273  1
  Na  Na12  1  0.592762  0.336020  0.242432  1
  Na  Na13  1  0.406025  0.335170  0.743316  1
  Na  Na14  1  0.907668  0.661568  0.761469  1
  Na  Na15  1  0.095960  0.670899  0.256297  1
  Na  Na16  1  0.771097  0.416455  0.410229  1
  Na  Na17  1  0.229218  0.414578  0.911024  1
  Na  Na18  1  0.740645  0.582578  0.589503  1
  Na  Na19  1  0.259970  0.587178  0.088011  1
  Al  Al20  1  0.113707  0.012842  0.917449  1
  V  V21  1  0.613039  0.988767  0.579532  1
  V  V22  1  0.384903  0.989924  0.077638  1
  In  In23  1  0.890228  0.013751  0.415544  1
  As  As24  1  0.987516  0.337623  0.260925  1
  As  As25  1  0.017301  0.317209  0.772739  1
  As  As26  1  0.522421  0.703129  0.720337  1
  As  As27  1  0.478812  0.704732  0.218862  1
  As  As28  1  0.935313  0.019906  0.582697  1
  As  As29  1  0.063772  0.022719  0.072988  1
  As  As30  1  0.527384  0.978191  0.434597  1
  As  As31  1  0.454847  0.978380  0.932942  1
  As  As32  1  0.007998  0.707029  0.422281  1
  As  As33  1  0.996972  0.727728  0.921169  1
  As  As34  1  0.492585  0.255060  0.580191  1
  As  As35  1  0.507724  0.255488  0.078769  1
