# generated using pymatgen
data_Tm20Ir3(Pd2Ru)3
_symmetry_space_group_name_H-M   'P 1'
_cell_length_a   10.80188038
_cell_length_b   10.79934406
_cell_length_c   6.34491200
_cell_angle_alpha   90.00520999
_cell_angle_beta   89.93771759
_cell_angle_gamma   89.99716723
_symmetry_Int_Tables_number   1
_chemical_formula_structural   Tm20Ir3(Pd2Ru)3
_chemical_formula_sum   'Tm20 Ir3 Pd6 Ru3'
_cell_volume   740.15399139
_cell_formula_units_Z   1
loop_
 _symmetry_equiv_pos_site_id
 _symmetry_equiv_pos_as_xyz
  1  'x, y, z'
loop_
 _atom_site_type_symbol
 _atom_site_label
 _atom_site_symmetry_multiplicity
 _atom_site_fract_x
 _atom_site_fract_y
 _atom_site_fract_z
 _atom_site_occupancy
  Tm  Tm0  1  0.296218  0.088296  0.368344  1
  Tm  Tm1  1  0.296490  0.911901  0.868579  1
  Tm  Tm2  1  0.700495  0.083038  0.864615  1
  Tm  Tm3  1  0.700767  0.916582  0.364612  1
  Tm  Tm4  1  0.578333  0.793033  0.865440  1
  Tm  Tm5  1  0.578275  0.206977  0.365652  1
  Tm  Tm6  1  0.412151  0.795341  0.374420  1
  Tm  Tm7  1  0.412342  0.204512  0.874254  1
  Tm  Tm8  1  0.211414  0.417238  0.630051  1
  Tm  Tm9  1  0.210695  0.583205  0.128433  1
  Tm  Tm10  1  0.798090  0.414224  0.130509  1
  Tm  Tm11  1  0.797504  0.585275  0.633181  1
  Tm  Tm12  1  0.916925  0.703471  0.133029  1
  Tm  Tm13  1  0.917359  0.295857  0.636606  1
  Tm  Tm14  1  0.092059  0.704201  0.635376  1
  Tm  Tm15  1  0.092498  0.296616  0.132677  1
  Tm  Tm16  1  0.998301  0.998987  0.498793  1
  Tm  Tm17  1  0.998309  0.001190  0.998447  1
  Tm  Tm18  1  0.496623  0.498219  0.998389  1
  Tm  Tm19  1  0.496604  0.501892  0.498757  1
  Ir  Ir20  1  0.347258  0.345574  0.249858  1
  Ir  Ir21  1  0.346872  0.654619  0.750133  1
  Ir  Ir22  1  0.000494  0.499772  0.382226  1
  Pd  Pd23  1  0.844674  0.154651  0.250430  1
  Pd  Pd24  1  0.844409  0.845267  0.750585  1
  Pd  Pd25  1  0.152961  0.154073  0.748509  1
  Pd  Pd26  1  0.152453  0.846032  0.248055  1
  Pd  Pd27  1  0.655220  0.345922  0.749086  1
  Pd  Pd28  1  0.654998  0.653869  0.248677  1
  Ru  Ru29  1  0.499419  0.999972  0.121710  1
  Ru  Ru30  1  0.499418  0.999967  0.621171  1
  Ru  Ru31  1  0.000374  0.500226  0.879394  1
