# generated using pymatgen
data_Er2ThCo2
_symmetry_space_group_name_H-M   'P 1'
_cell_length_a   5.99192894
_cell_length_b   5.99193005
_cell_length_c   5.99192875
_cell_angle_alpha   143.56693042
_cell_angle_beta   118.23790103
_cell_angle_gamma   73.87791846
_symmetry_Int_Tables_number   1
_chemical_formula_structural   Er2ThCo2
_chemical_formula_sum   'Er2 Th1 Co2'
_cell_volume   110.35542700
_cell_formula_units_Z   1
loop_
 _symmetry_equiv_pos_site_id
 _symmetry_equiv_pos_as_xyz
  1  'x, y, z'
loop_
 _atom_site_type_symbol
 _atom_site_label
 _atom_site_symmetry_multiplicity
 _atom_site_fract_x
 _atom_site_fract_y
 _atom_site_fract_z
 _atom_site_occupancy
  Er  Er0  1  0.687734  0.187734  0.500000  1
  Er  Er1  1  0.312266  0.812265  0.500000  1
  Th  Th2  1  0.000000  0.000000  0.000000  1
  Co  Co3  1  0.696557  0.500000  0.196558  1
  Co  Co4  1  0.303442  0.500000  0.803442  1
