# generated using pymatgen
data_Ac3ScSb5
_symmetry_space_group_name_H-M   'P 1'
_cell_length_a   9.89712600
_cell_length_b   9.89712553
_cell_length_c   6.61402100
_cell_angle_alpha   90.00000000
_cell_angle_beta   90.00000000
_cell_angle_gamma   120.00000156
_symmetry_Int_Tables_number   1
_chemical_formula_structural   Ac3ScSb5
_chemical_formula_sum   'Ac6 Sc2 Sb10'
_cell_volume   561.06654346
_cell_formula_units_Z   2
loop_
 _symmetry_equiv_pos_site_id
 _symmetry_equiv_pos_as_xyz
  1  'x, y, z'
loop_
 _atom_site_type_symbol
 _atom_site_label
 _atom_site_symmetry_multiplicity
 _atom_site_fract_x
 _atom_site_fract_y
 _atom_site_fract_z
 _atom_site_occupancy
  Ac  Ac0  1  0.381785  0.000000  0.750000  1
  Ac  Ac1  1  0.381785  0.381785  0.250000  1
  Ac  Ac2  1  0.000000  0.618215  0.250000  1
  Ac  Ac3  1  0.000000  0.381785  0.750000  1
  Ac  Ac4  1  0.618215  0.618215  0.750000  1
  Ac  Ac5  1  0.618215  0.000000  0.250000  1
  Sc  Sc6  1  0.000000  0.000000  0.000000  1
  Sc  Sc7  1  0.000000  0.000000  0.500000  1
  Sb  Sb8  1  0.666667  0.333333  0.500000  1
  Sb  Sb9  1  0.333333  0.666667  0.000000  1
  Sb  Sb10  1  0.748043  0.000000  0.750000  1
  Sb  Sb11  1  0.748043  0.748043  0.250000  1
  Sb  Sb12  1  0.333333  0.666667  0.500000  1
  Sb  Sb13  1  0.666667  0.333333  0.000000  1
  Sb  Sb14  1  0.251957  0.000000  0.250000  1
  Sb  Sb15  1  0.251957  0.251957  0.750000  1
  Sb  Sb16  1  0.000000  0.748043  0.750000  1
  Sb  Sb17  1  0.000000  0.251957  0.250000  1
