# generated using pymatgen
data_Er15Tm(ScIr3)4
_symmetry_space_group_name_H-M   'P 1'
_cell_length_a   10.69522402
_cell_length_b   10.69465801
_cell_length_c   6.23413701
_cell_angle_alpha   90.00345284
_cell_angle_beta   89.99482080
_cell_angle_gamma   89.99582140
_symmetry_Int_Tables_number   1
_chemical_formula_structural   Er15Tm(ScIr3)4
_chemical_formula_sum   'Er15 Tm1 Sc4 Ir12'
_cell_volume   713.07157725
_cell_formula_units_Z   1
loop_
 _symmetry_equiv_pos_site_id
 _symmetry_equiv_pos_as_xyz
  1  'x, y, z'
loop_
 _atom_site_type_symbol
 _atom_site_label
 _atom_site_symmetry_multiplicity
 _atom_site_fract_x
 _atom_site_fract_y
 _atom_site_fract_z
 _atom_site_occupancy
  Er  Er0  1  0.288368  0.086227  0.376537  1
  Er  Er1  1  0.288421  0.913834  0.876579  1
  Er  Er2  1  0.711594  0.086170  0.876601  1
  Er  Er3  1  0.711597  0.913838  0.376605  1
  Er  Er4  1  0.586154  0.788401  0.876592  1
  Er  Er5  1  0.586164  0.211588  0.376609  1
  Er  Er6  1  0.413847  0.788411  0.376621  1
  Er  Er7  1  0.413825  0.211597  0.876614  1
  Er  Er8  1  0.211557  0.413793  0.623393  1
  Er  Er9  1  0.211549  0.586082  0.123398  1
  Er  Er10  1  0.788480  0.413814  0.123395  1
  Er  Er11  1  0.788421  0.586159  0.623397  1
  Er  Er12  1  0.913839  0.711569  0.123400  1
  Er  Er13  1  0.913884  0.288403  0.623378  1
  Er  Er14  1  0.086151  0.711569  0.623392  1
  Tm  Tm15  1  0.086093  0.288539  0.123301  1
  Sc  Sc16  1  0.000005  0.000028  0.499980  1
  Sc  Sc17  1  0.000036  0.000091  0.000035  1
  Sc  Sc18  1  0.499997  0.499993  0.000027  1
  Sc  Sc19  1  0.500005  0.499995  0.500008  1
  Ir  Ir20  1  0.851469  0.148750  0.249915  1
  Ir  Ir21  1  0.851307  0.851340  0.750007  1
  Ir  Ir22  1  0.148602  0.148788  0.750314  1
  Ir  Ir23  1  0.148683  0.851338  0.249995  1
  Ir  Ir24  1  0.648669  0.351335  0.750002  1
  Ir  Ir25  1  0.648665  0.648688  0.249998  1
  Ir  Ir26  1  0.351158  0.351290  0.249912  1
  Ir  Ir27  1  0.351330  0.648673  0.750010  1
  Ir  Ir28  1  0.499981  0.999996  0.122694  1
  Ir  Ir29  1  0.500019  0.999993  0.622693  1
  Ir  Ir30  1  0.000066  0.499846  0.877448  1
  Ir  Ir31  1  0.000065  0.499861  0.377150  1
