# generated using pymatgen
data_Nd7YGaPd24
_symmetry_space_group_name_H-M   'P 1'
_cell_length_a   8.48620531
_cell_length_b   8.48620531
_cell_length_c   8.48620531
_cell_angle_alpha   90.04505578
_cell_angle_beta   90.04505578
_cell_angle_gamma   89.95494422
_symmetry_Int_Tables_number   1
_chemical_formula_structural   Nd7YGaPd24
_chemical_formula_sum   'Nd7 Y1 Ga1 Pd24'
_cell_volume   611.13928453
_cell_formula_units_Z   1
loop_
 _symmetry_equiv_pos_site_id
 _symmetry_equiv_pos_as_xyz
  1  'x, y, z'
loop_
 _atom_site_type_symbol
 _atom_site_label
 _atom_site_symmetry_multiplicity
 _atom_site_fract_x
 _atom_site_fract_y
 _atom_site_fract_z
 _atom_site_occupancy
  Nd  Nd0  1  0.251746  0.747888  0.252112  1
  Nd  Nd1  1  0.747888  0.251746  0.252112  1
  Nd  Nd2  1  0.747888  0.747888  0.748254  1
  Nd  Nd3  1  0.748029  0.748029  0.251971  1
  Nd  Nd4  1  0.748508  0.252673  0.747327  1
  Nd  Nd5  1  0.252673  0.748508  0.747327  1
  Nd  Nd6  1  0.252673  0.252673  0.251492  1
  Y  Y7  1  0.251806  0.251806  0.748194  1
  Ga  Ga8  1  0.998895  0.998895  0.001105  1
  Pd  Pd9  1  0.497536  0.497536  0.747535  1
  Pd  Pd10  1  0.497536  0.252465  0.502464  1
  Pd  Pd11  1  0.252465  0.497536  0.502464  1
  Pd  Pd12  1  0.500146  0.500146  0.252274  1
  Pd  Pd13  1  0.500146  0.747726  0.499854  1
  Pd  Pd14  1  0.747726  0.500146  0.499854  1
  Pd  Pd15  1  0.002292  0.002292  0.708749  1
  Pd  Pd16  1  0.002292  0.291251  0.997708  1
  Pd  Pd17  1  0.291251  0.002292  0.997708  1
  Pd  Pd18  1  0.999868  0.999868  0.293775  1
  Pd  Pd19  1  0.999868  0.706225  0.000132  1
  Pd  Pd20  1  0.706225  0.999868  0.000132  1
  Pd  Pd21  1  0.003584  0.498521  0.739978  1
  Pd  Pd22  1  0.498521  0.260022  0.996416  1
  Pd  Pd23  1  0.260022  0.003584  0.501479  1
  Pd  Pd24  1  0.003584  0.260022  0.501479  1
  Pd  Pd25  1  0.498521  0.003584  0.739978  1
  Pd  Pd26  1  0.260022  0.498521  0.996416  1
  Pd  Pd27  1  0.999467  0.499567  0.259890  1
  Pd  Pd28  1  0.499567  0.740110  0.000533  1
  Pd  Pd29  1  0.999467  0.740110  0.500433  1
  Pd  Pd30  1  0.499567  0.999467  0.259890  1
  Pd  Pd31  1  0.740110  0.999467  0.500433  1
  Pd  Pd32  1  0.740110  0.499567  0.000533  1
