# generated using pymatgen
data_CaCoAs3Rh4
_symmetry_space_group_name_H-M   'P 1'
_cell_length_a   3.93628900
_cell_length_b   11.24762400
_cell_length_c   12.92781100
_cell_angle_alpha   90.00000000
_cell_angle_beta   90.00000000
_cell_angle_gamma   90.00000000
_symmetry_Int_Tables_number   1
_chemical_formula_structural   CaCoAs3Rh4
_chemical_formula_sum   'Ca4 Co4 As12 Rh16'
_cell_volume   572.36459369
_cell_formula_units_Z   4
loop_
 _symmetry_equiv_pos_site_id
 _symmetry_equiv_pos_as_xyz
  1  'x, y, z'
loop_
 _atom_site_type_symbol
 _atom_site_label
 _atom_site_symmetry_multiplicity
 _atom_site_fract_x
 _atom_site_fract_y
 _atom_site_fract_z
 _atom_site_occupancy
  Ca  Ca0  1  0.250000  0.585008  0.707443  1
  Ca  Ca1  1  0.250000  0.914992  0.207443  1
  Ca  Ca2  1  0.750000  0.414992  0.292557  1
  Ca  Ca3  1  0.750000  0.085008  0.792557  1
  Co  Co4  1  0.250000  0.465745  0.933828  1
  Co  Co5  1  0.250000  0.034255  0.433828  1
  Co  Co6  1  0.750000  0.534255  0.066172  1
  Co  Co7  1  0.750000  0.965745  0.566172  1
  As  As8  1  0.250000  0.422202  0.106520  1
  As  As9  1  0.250000  0.077798  0.606520  1
  As  As10  1  0.750000  0.577798  0.893480  1
  As  As11  1  0.750000  0.922202  0.393480  1
  As  As12  1  0.250000  0.271807  0.873270  1
  As  As13  1  0.250000  0.228193  0.373270  1
  As  As14  1  0.750000  0.728193  0.126730  1
  As  As15  1  0.750000  0.771807  0.626730  1
  As  As16  1  0.250000  0.600221  0.388705  1
  As  As17  1  0.250000  0.899779  0.888705  1
  As  As18  1  0.750000  0.399779  0.611295  1
  As  As19  1  0.750000  0.100221  0.111295  1
  Rh  Rh20  1  0.250000  0.713117  0.987958  1
  Rh  Rh21  1  0.250000  0.786883  0.487958  1
  Rh  Rh22  1  0.750000  0.286883  0.012042  1
  Rh  Rh23  1  0.750000  0.213117  0.512042  1
  Rh  Rh24  1  0.250000  0.408066  0.483992  1
  Rh  Rh25  1  0.250000  0.091934  0.983992  1
  Rh  Rh26  1  0.750000  0.591934  0.516008  1
  Rh  Rh27  1  0.750000  0.908066  0.016008  1
  Rh  Rh28  1  0.250000  0.223488  0.177920  1
  Rh  Rh29  1  0.250000  0.276512  0.677920  1
  Rh  Rh30  1  0.750000  0.776512  0.822080  1
  Rh  Rh31  1  0.750000  0.723488  0.322080  1
  Rh  Rh32  1  0.250000  0.885814  0.697614  1
  Rh  Rh33  1  0.250000  0.614186  0.197614  1
  Rh  Rh34  1  0.750000  0.114186  0.302386  1
  Rh  Rh35  1  0.750000  0.385814  0.802386  1
