# generated using pymatgen
data_La7(DyIn4)5
_symmetry_space_group_name_H-M   'P 1'
_cell_length_a   6.77239812
_cell_length_b   10.63076830
_cell_length_c   12.53995453
_cell_angle_alpha   90.27861739
_cell_angle_beta   90.09015094
_cell_angle_gamma   90.15745397
_symmetry_Int_Tables_number   1
_chemical_formula_structural   La7(DyIn4)5
_chemical_formula_sum   'La7 Dy5 In20'
_cell_volume   902.80877930
_cell_formula_units_Z   1
loop_
 _symmetry_equiv_pos_site_id
 _symmetry_equiv_pos_as_xyz
  1  'x, y, z'
loop_
 _atom_site_type_symbol
 _atom_site_label
 _atom_site_symmetry_multiplicity
 _atom_site_fract_x
 _atom_site_fract_y
 _atom_site_fract_z
 _atom_site_occupancy
  La  La0  1  0.886276  0.488619  0.144219  1
  La  La1  1  0.614428  0.013266  0.645843  1
  La  La2  1  0.112967  0.988014  0.853375  1
  La  La3  1  0.387483  0.512154  0.356780  1
  La  La4  1  0.111354  0.511299  0.855924  1
  La  La5  1  0.388723  0.988671  0.356560  1
  La  La6  1  0.885662  0.009794  0.144793  1
  Dy  Dy7  1  0.350950  0.749055  0.061915  1
  Dy  Dy8  1  0.152039  0.753865  0.562230  1
  Dy  Dy9  1  0.648388  0.247562  0.937765  1
  Dy  Dy10  1  0.851894  0.251434  0.439206  1
  Dy  Dy11  1  0.613157  0.486929  0.643100  1
  In  In12  1  0.618748  0.746495  0.509671  1
  In  In13  1  0.879604  0.748133  0.001802  1
  In  In14  1  0.387134  0.252396  0.496824  1
  In  In15  1  0.115936  0.248919  0.996225  1
  In  In16  1  0.657054  0.749116  0.244303  1
  In  In17  1  0.840370  0.744311  0.739910  1
  In  In18  1  0.343564  0.254355  0.755074  1
  In  In19  1  0.155989  0.250101  0.256317  1
  In  In20  1  0.104271  0.749861  0.285062  1
  In  In21  1  0.395855  0.747725  0.783853  1
  In  In22  1  0.891704  0.257081  0.714428  1
  In  In23  1  0.604408  0.250058  0.215587  1
  In  In24  1  0.873713  0.546297  0.408065  1
  In  In25  1  0.626722  0.951716  0.906422  1
  In  In26  1  0.127633  0.051325  0.593912  1
  In  In27  1  0.373229  0.452602  0.093102  1
  In  In28  1  0.132738  0.457462  0.595304  1
  In  In29  1  0.371524  0.046135  0.094211  1
  In  In30  1  0.872864  0.953079  0.407401  1
  In  In31  1  0.623621  0.542173  0.900814  1
