# generated using pymatgen
data_Dy3ScHg5
_symmetry_space_group_name_H-M   'P 1'
_cell_length_a   8.17927906
_cell_length_b   8.17927917
_cell_length_c   8.17927700
_cell_angle_alpha   66.57777516
_cell_angle_beta   66.57778244
_cell_angle_gamma   66.57776372
_symmetry_Int_Tables_number   1
_chemical_formula_structural   Dy3ScHg5
_chemical_formula_sum   'Dy6 Sc2 Hg10'
_cell_volume   441.70508055
_cell_formula_units_Z   2
loop_
 _symmetry_equiv_pos_site_id
 _symmetry_equiv_pos_as_xyz
  1  'x, y, z'
loop_
 _atom_site_type_symbol
 _atom_site_label
 _atom_site_symmetry_multiplicity
 _atom_site_fract_x
 _atom_site_fract_y
 _atom_site_fract_z
 _atom_site_occupancy
  Dy  Dy0  1  0.890316  0.187736  0.619301  1
  Dy  Dy1  1  0.619301  0.890316  0.187736  1
  Dy  Dy2  1  0.187736  0.619301  0.890316  1
  Dy  Dy3  1  0.109684  0.812264  0.380699  1
  Dy  Dy4  1  0.380699  0.109684  0.812264  1
  Dy  Dy5  1  0.812264  0.380699  0.109684  1
  Sc  Sc6  1  0.659114  0.659114  0.659114  1
  Sc  Sc7  1  0.340886  0.340886  0.340886  1
  Hg  Hg8  1  0.000000  0.000000  0.000000  1
  Hg  Hg9  1  0.500000  0.500000  0.500000  1
  Hg  Hg10  1  0.810176  0.810176  0.810176  1
  Hg  Hg11  1  0.189824  0.189824  0.189824  1
  Hg  Hg12  1  0.940928  0.557171  0.313448  1
  Hg  Hg13  1  0.313448  0.940928  0.557171  1
  Hg  Hg14  1  0.557171  0.313448  0.940928  1
  Hg  Hg15  1  0.059072  0.442829  0.686552  1
  Hg  Hg16  1  0.686552  0.059072  0.442829  1
  Hg  Hg17  1  0.442829  0.686552  0.059072  1
