# generated using pymatgen
data_Dy8Y4Co4CuBi
_symmetry_space_group_name_H-M   'P 1'
_cell_length_a   8.36115128
_cell_length_b   8.36113077
_cell_length_c   8.36115071
_cell_angle_alpha   111.24306443
_cell_angle_beta   109.89798547
_cell_angle_gamma   107.29730415
_symmetry_Int_Tables_number   1
_chemical_formula_structural   Dy8Y4Co4CuBi
_chemical_formula_sum   'Dy8 Y4 Co4 Cu1 Bi1'
_cell_volume   449.41279056
_cell_formula_units_Z   1
loop_
 _symmetry_equiv_pos_site_id
 _symmetry_equiv_pos_as_xyz
  1  'x, y, z'
loop_
 _atom_site_type_symbol
 _atom_site_label
 _atom_site_symmetry_multiplicity
 _atom_site_fract_x
 _atom_site_fract_y
 _atom_site_fract_z
 _atom_site_occupancy
  Dy  Dy0  1  0.686928  0.378660  0.691732  1
  Dy  Dy1  1  0.313072  0.621340  0.308268  1
  Dy  Dy2  1  0.686928  0.995196  0.308268  1
  Dy  Dy3  1  0.313072  0.004804  0.691732  1
  Dy  Dy4  1  0.588079  0.789507  0.798571  1
  Dy  Dy5  1  0.411921  0.210493  0.201429  1
  Dy  Dy6  1  0.990936  0.789507  0.201428  1
  Dy  Dy7  1  0.009064  0.210493  0.798572  1
  Y  Y8  1  0.816028  0.710616  0.526644  1
  Y  Y9  1  0.183972  0.289384  0.473356  1
  Y  Y10  1  0.183972  0.710616  0.894588  1
  Y  Y11  1  0.816028  0.289384  0.105412  1
  Co  Co12  1  0.622765  0.000000  0.622765  1
  Co  Co13  1  0.377235  0.000000  0.377235  1
  Co  Co14  1  0.112567  0.612568  0.500001  1
  Co  Co15  1  0.887433  0.387432  0.499999  1
  Cu  Cu16  1  0.000000  0.000000  0.000000  1
  Bi  Bi17  1  0.500000  0.500000  0.000000  1
