# generated using pymatgen
data_Li6Bi5Rh12Pb
_symmetry_space_group_name_H-M   'P 1'
_cell_length_a   4.46811601
_cell_length_b   6.34953200
_cell_length_c   13.53750903
_cell_angle_alpha   90.00000000
_cell_angle_beta   89.99248008
_cell_angle_gamma   90.00000000
_symmetry_Int_Tables_number   1
_chemical_formula_structural   Li6Bi5Rh12Pb
_chemical_formula_sum   'Li6 Bi5 Rh12 Pb1'
_cell_volume   384.06515993
_cell_formula_units_Z   1
loop_
 _symmetry_equiv_pos_site_id
 _symmetry_equiv_pos_as_xyz
  1  'x, y, z'
loop_
 _atom_site_type_symbol
 _atom_site_label
 _atom_site_symmetry_multiplicity
 _atom_site_fract_x
 _atom_site_fract_y
 _atom_site_fract_z
 _atom_site_occupancy
  Li  Li0  1  0.999995  0.000000  0.999020  1
  Li  Li1  1  0.499815  0.500000  0.166547  1
  Li  Li2  1  0.999806  0.000000  0.333284  1
  Li  Li3  1  0.500009  0.500000  0.500165  1
  Li  Li4  1  0.000184  0.000000  0.667601  1
  Li  Li5  1  0.500179  0.500000  0.833277  1
  Bi  Bi6  1  0.999993  0.500000  0.999288  1
  Bi  Bi7  1  0.499777  0.000000  0.166328  1
  Bi  Bi8  1  0.999800  0.500000  0.333312  1
  Bi  Bi9  1  0.499994  0.000000  0.500338  1
  Bi  Bi10  1  0.000210  0.500000  0.667448  1
  Rh  Rh11  1  0.499989  0.250976  0.001334  1
  Rh  Rh12  1  0.499989  0.749023  0.001334  1
  Rh  Rh13  1  0.999809  0.251018  0.167039  1
  Rh  Rh14  1  0.999809  0.748981  0.167039  1
  Rh  Rh15  1  0.499798  0.249623  0.333351  1
  Rh  Rh16  1  0.499798  0.750377  0.333351  1
  Rh  Rh17  1  0.999989  0.251047  0.499621  1
  Rh  Rh18  1  0.999989  0.748952  0.499621  1
  Rh  Rh19  1  0.500194  0.250950  0.665347  1
  Rh  Rh20  1  0.500194  0.749050  0.665347  1
  Rh  Rh21  1  0.000206  0.252998  0.833348  1
  Rh  Rh22  1  0.000206  0.747001  0.833348  1
  Pb  Pb23  1  0.500270  0.000000  0.833314  1
