# generated using pymatgen
data_Sr11TmSb9
_symmetry_space_group_name_H-M   'P 1'
_cell_length_a   12.71774088
_cell_length_b   12.71774101
_cell_length_c   12.71774100
_cell_angle_alpha   120.90199182
_cell_angle_beta   117.15435050
_cell_angle_gamma   91.72141047
_symmetry_Int_Tables_number   1
_chemical_formula_structural   Sr11TmSb9
_chemical_formula_sum   'Sr22 Tm2 Sb18'
_cell_volume   1473.24724802
_cell_formula_units_Z   2
loop_
 _symmetry_equiv_pos_site_id
 _symmetry_equiv_pos_as_xyz
  1  'x, y, z'
loop_
 _atom_site_type_symbol
 _atom_site_label
 _atom_site_symmetry_multiplicity
 _atom_site_fract_x
 _atom_site_fract_y
 _atom_site_fract_z
 _atom_site_occupancy
  Sr  Sr0  1  0.327509  0.327509  0.000000  1
  Sr  Sr1  1  0.817458  0.832387  0.653158  1
  Sr  Sr2  1  0.439916  0.069119  0.184468  1
  Sr  Sr3  1  0.827509  0.827509  0.000000  1
  Sr  Sr4  1  0.689465  0.947546  0.376902  1
  Sr  Sr5  1  0.426953  0.687670  0.371700  1
  Sr  Sr6  1  0.317458  0.664300  0.985071  1
  Sr  Sr7  1  0.815970  0.187670  0.260718  1
  Sr  Sr8  1  0.618652  0.419912  0.356658  1
  Sr  Sr9  1  0.884650  0.255448  0.815532  1
  Sr  Sr10  1  0.118652  0.761994  0.198740  1
  Sr  Sr11  1  0.189465  0.812562  0.741918  1
  Sr  Sr12  1  0.926953  0.555252  0.739282  1
  Sr  Sr13  1  0.384650  0.569119  0.629204  1
  Sr  Sr14  1  0.063253  0.261994  0.643342  1
  Sr  Sr15  1  0.563253  0.919912  0.801260  1
  Sr  Sr16  1  0.939916  0.755448  0.370796  1
  Sr  Sr17  1  0.679229  0.332387  0.014929  1
  Sr  Sr18  1  0.570645  0.312562  0.623098  1
  Sr  Sr19  1  0.179229  0.164300  0.346842  1
  Sr  Sr20  1  0.070645  0.447546  0.258082  1
  Sr  Sr21  1  0.315970  0.055252  0.628300  1
  Tm  Tm22  1  0.603848  0.603848  0.000000  1
  Tm  Tm23  1  0.103848  0.103848  0.000000  1
  Sb  Sb24  1  0.645007  0.645490  0.654278  1
  Sb  Sb25  1  0.398046  0.968104  0.360448  1
  Sb  Sb26  1  0.991210  0.990729  0.345722  1
  Sb  Sb27  1  0.617260  0.627515  0.249311  1
  Sb  Sb28  1  0.045140  0.037958  0.711192  1
  Sb  Sb29  1  0.250504  0.750504  0.500000  1
  Sb  Sb30  1  0.545140  0.833947  0.007181  1
  Sb  Sb31  1  0.750504  0.250504  0.500000  1
  Sb  Sb32  1  0.878204  0.127515  0.010255  1
  Sb  Sb33  1  0.491210  0.145490  0.000483  1
  Sb  Sb34  1  0.145007  0.490729  0.999517  1
  Sb  Sb35  1  0.378204  0.367949  0.750689  1
  Sb  Sb36  1  0.326766  0.333947  0.288808  1
  Sb  Sb37  1  0.898046  0.537599  0.429943  1
  Sb  Sb38  1  0.107656  0.468104  0.570057  1
  Sb  Sb39  1  0.826766  0.537958  0.992819  1
  Sb  Sb40  1  0.607656  0.037599  0.639552  1
  Sb  Sb41  1  0.117260  0.867949  0.989745  1
