# generated using pymatgen
data_Y3TmAl4(IrPt)2
_symmetry_space_group_name_H-M   'P 1'
_cell_length_a   4.37557200
_cell_length_b   6.82023239
_cell_length_c   7.84437033
_cell_angle_alpha   90.22681131
_cell_angle_beta   90.00000000
_cell_angle_gamma   90.00000000
_symmetry_Int_Tables_number   1
_chemical_formula_structural   Y3TmAl4(IrPt)2
_chemical_formula_sum   'Y3 Tm1 Al4 Ir2 Pt2'
_cell_volume   234.09314321
_cell_formula_units_Z   1
loop_
 _symmetry_equiv_pos_site_id
 _symmetry_equiv_pos_as_xyz
  1  'x, y, z'
loop_
 _atom_site_type_symbol
 _atom_site_label
 _atom_site_symmetry_multiplicity
 _atom_site_fract_x
 _atom_site_fract_y
 _atom_site_fract_z
 _atom_site_occupancy
  Y  Y0  1  0.250000  0.030003  0.678669  1
  Y  Y1  1  0.250000  0.530858  0.820627  1
  Y  Y2  1  0.750000  0.474774  0.183473  1
  Tm  Tm3  1  0.750000  0.974154  0.317670  1
  Al  Al4  1  0.250000  0.141152  0.065652  1
  Al  Al5  1  0.250000  0.641983  0.434962  1
  Al  Al6  1  0.750000  0.855645  0.939841  1
  Al  Al7  1  0.750000  0.354739  0.560378  1
  Ir  Ir8  1  0.250000  0.266467  0.382023  1
  Ir  Ir9  1  0.250000  0.771188  0.119098  1
  Pt  Pt10  1  0.750000  0.730091  0.616502  1
  Pt  Pt11  1  0.750000  0.228946  0.881105  1
