# generated using pymatgen
data_Ir(Se2Br)3
_symmetry_space_group_name_H-M   'P 1'
_cell_length_a   9.05393651
_cell_length_b   9.05393676
_cell_length_c   9.05393718
_cell_angle_alpha   109.10062956
_cell_angle_beta   109.10062707
_cell_angle_gamma   109.10062711
_symmetry_Int_Tables_number   1
_chemical_formula_structural   Ir(Se2Br)3
_chemical_formula_sum   'Ir2 Se12 Br6'
_cell_volume   579.04105210
_cell_formula_units_Z   2
loop_
 _symmetry_equiv_pos_site_id
 _symmetry_equiv_pos_as_xyz
  1  'x, y, z'
loop_
 _atom_site_type_symbol
 _atom_site_label
 _atom_site_symmetry_multiplicity
 _atom_site_fract_x
 _atom_site_fract_y
 _atom_site_fract_z
 _atom_site_occupancy
  Ir  Ir0  1  0.250000  0.250000  0.250000  1
  Ir  Ir1  1  0.750000  0.750000  0.750000  1
  Se  Se2  1  0.930448  0.160829  0.171899  1
  Se  Se3  1  0.171899  0.930448  0.160829  1
  Se  Se4  1  0.160829  0.171899  0.930448  1
  Se  Se5  1  0.671899  0.660829  0.430448  1
  Se  Se6  1  0.430448  0.671899  0.660829  1
  Se  Se7  1  0.660829  0.430448  0.671899  1
  Se  Se8  1  0.069552  0.839171  0.828101  1
  Se  Se9  1  0.828101  0.069552  0.839171  1
  Se  Se10  1  0.839171  0.828101  0.069552  1
  Se  Se11  1  0.328101  0.339171  0.569552  1
  Se  Se12  1  0.569552  0.328101  0.339171  1
  Se  Se13  1  0.339171  0.569552  0.328101  1
  Br  Br14  1  0.994640  0.505360  0.250000  1
  Br  Br15  1  0.250000  0.994640  0.505360  1
  Br  Br16  1  0.505360  0.250000  0.994640  1
  Br  Br17  1  0.750000  0.005360  0.494640  1
  Br  Br18  1  0.494640  0.750000  0.005360  1
  Br  Br19  1  0.005360  0.494640  0.750000  1
