# generated using pymatgen
data_Nd3ErIr2(RhO7)2
_symmetry_space_group_name_H-M   'P 1'
_cell_length_a   7.36730256
_cell_length_b   7.36457479
_cell_length_c   7.32720290
_cell_angle_alpha   59.86437836
_cell_angle_beta   59.81879322
_cell_angle_gamma   59.98774461
_symmetry_Int_Tables_number   1
_chemical_formula_structural   Nd3ErIr2(RhO7)2
_chemical_formula_sum   'Nd3 Er1 Ir2 Rh2 O14'
_cell_volume   280.41108006
_cell_formula_units_Z   1
loop_
 _symmetry_equiv_pos_site_id
 _symmetry_equiv_pos_as_xyz
  1  'x, y, z'
loop_
 _atom_site_type_symbol
 _atom_site_label
 _atom_site_symmetry_multiplicity
 _atom_site_fract_x
 _atom_site_fract_y
 _atom_site_fract_z
 _atom_site_occupancy
  Nd  Nd0  1  0.625000  0.125000  0.125000  1
  Nd  Nd1  1  0.125000  0.625000  0.125000  1
  Nd  Nd2  1  0.125000  0.125000  0.125000  1
  Er  Er3  1  0.125000  0.125000  0.625000  1
  Ir  Ir4  1  0.125000  0.625000  0.625000  1
  Ir  Ir5  1  0.625000  0.625000  0.625000  1
  Rh  Rh6  1  0.625000  0.125000  0.625000  1
  Rh  Rh7  1  0.625000  0.625000  0.125000  1
  O  O8  1  0.711312  0.705699  0.294862  1
  O  O9  1  0.288862  0.294551  0.696804  1
  O  O10  1  0.719784  0.294551  0.696804  1
  O  O11  1  0.288127  0.705699  0.294862  1
  O  O12  1  0.294615  0.714000  0.696772  1
  O  O13  1  0.712158  0.287495  0.288190  1
  O  O14  1  0.538688  0.544301  0.955138  1
  O  O15  1  0.961138  0.955449  0.553196  1
  O  O16  1  0.530216  0.955449  0.553196  1
  O  O17  1  0.961873  0.544301  0.955138  1
  O  O18  1  0.955385  0.536000  0.553228  1
  O  O19  1  0.537842  0.962505  0.961810  1
  O  O20  1  0.244414  0.246714  0.264457  1
  O  O21  1  0.005586  0.003286  0.985543  1
