# generated using pymatgen
data_Cs2Li2GeSe4
_symmetry_space_group_name_H-M   'P 1'
_cell_length_a   13.36662498
_cell_length_b   13.36662585
_cell_length_c   6.23852100
_cell_angle_alpha   83.34446566
_cell_angle_beta   83.34446954
_cell_angle_gamma   144.39048476
_symmetry_Int_Tables_number   1
_chemical_formula_structural   Cs2Li2GeSe4
_chemical_formula_sum   'Cs4 Li4 Ge2 Se8'
_cell_volume   600.56693336
_cell_formula_units_Z   2
loop_
 _symmetry_equiv_pos_site_id
 _symmetry_equiv_pos_as_xyz
  1  'x, y, z'
loop_
 _atom_site_type_symbol
 _atom_site_label
 _atom_site_symmetry_multiplicity
 _atom_site_fract_x
 _atom_site_fract_y
 _atom_site_fract_z
 _atom_site_occupancy
  Cs  Cs0  1  0.798727  0.201273  0.750000  1
  Cs  Cs1  1  0.063874  0.936126  0.750000  1
  Cs  Cs2  1  0.201273  0.798727  0.250000  1
  Cs  Cs3  1  0.936126  0.063874  0.250000  1
  Li  Li4  1  0.625885  0.374115  0.250000  1
  Li  Li5  1  0.505201  0.494799  0.250000  1
  Li  Li6  1  0.494799  0.505201  0.750000  1
  Li  Li7  1  0.374115  0.625885  0.750000  1
  Ge  Ge8  1  0.379545  0.620455  0.250000  1
  Ge  Ge9  1  0.620455  0.379545  0.750000  1
  Se  Se10  1  0.512879  0.858149  0.374920  1
  Se  Se11  1  0.742625  0.616348  0.433741  1
  Se  Se12  1  0.257375  0.383652  0.566259  1
  Se  Se13  1  0.487121  0.141851  0.625080  1
  Se  Se14  1  0.383652  0.257375  0.066259  1
  Se  Se15  1  0.141851  0.487121  0.125080  1
  Se  Se16  1  0.858149  0.512879  0.874920  1
  Se  Se17  1  0.616348  0.742625  0.933741  1
