# generated using pymatgen
data_Mg3Al(Ni3B)2
_symmetry_space_group_name_H-M   'P 1'
_cell_length_a   5.04113633
_cell_length_b   5.04113801
_cell_length_c   7.25964493
_cell_angle_alpha   110.16493891
_cell_angle_beta   110.16494535
_cell_angle_gamma   60.04464943
_symmetry_Int_Tables_number   1
_chemical_formula_structural   Mg3Al(Ni3B)2
_chemical_formula_sum   'Mg3 Al1 Ni6 B2'
_cell_volume   146.62932235
_cell_formula_units_Z   1
loop_
 _symmetry_equiv_pos_site_id
 _symmetry_equiv_pos_as_xyz
  1  'x, y, z'
loop_
 _atom_site_type_symbol
 _atom_site_label
 _atom_site_symmetry_multiplicity
 _atom_site_fract_x
 _atom_site_fract_y
 _atom_site_fract_z
 _atom_site_occupancy
  Mg  Mg0  1  0.356574  0.356574  0.068963  1
  Mg  Mg1  1  0.500000  0.500000  0.500001  1
  Mg  Mg2  1  0.643426  0.643426  0.931037  1
  Al  Al3  1  0.000000  0.000000  0.000000  1
  Ni  Ni4  1  0.931654  0.931654  0.296427  1
  Ni  Ni5  1  0.931336  0.433639  0.296096  1
  Ni  Ni6  1  0.433639  0.931336  0.296096  1
  Ni  Ni7  1  0.566360  0.068663  0.703904  1
  Ni  Ni8  1  0.068663  0.566360  0.703904  1
  Ni  Ni9  1  0.068345  0.068345  0.703573  1
  B  B10  1  0.833014  0.833014  0.501136  1
  B  B11  1  0.166985  0.166985  0.498864  1
