# generated using pymatgen
data_Tm8Hg3BiAu8
_symmetry_space_group_name_H-M   'P 1'
_cell_length_a   8.00280100
_cell_length_b   8.00280100
_cell_length_c   7.24077300
_cell_angle_alpha   90.00000000
_cell_angle_beta   90.00000000
_cell_angle_gamma   90.00000000
_symmetry_Int_Tables_number   1
_chemical_formula_structural   Tm8Hg3BiAu8
_chemical_formula_sum   'Tm8 Hg3 Bi1 Au8'
_cell_volume   463.73403129
_cell_formula_units_Z   1
loop_
 _symmetry_equiv_pos_site_id
 _symmetry_equiv_pos_as_xyz
  1  'x, y, z'
loop_
 _atom_site_type_symbol
 _atom_site_label
 _atom_site_symmetry_multiplicity
 _atom_site_fract_x
 _atom_site_fract_y
 _atom_site_fract_z
 _atom_site_occupancy
  Tm  Tm0  1  0.838820  0.155187  0.501499  1
  Tm  Tm1  1  0.161180  0.844813  0.501499  1
  Tm  Tm2  1  0.344813  0.338820  0.998501  1
  Tm  Tm3  1  0.655187  0.661180  0.998501  1
  Tm  Tm4  1  0.678504  0.686209  0.501155  1
  Tm  Tm5  1  0.321496  0.313791  0.501155  1
  Tm  Tm6  1  0.186209  0.821496  0.998845  1
  Tm  Tm7  1  0.813791  0.178504  0.998845  1
  Hg  Hg8  1  0.500000  0.000000  0.250000  1
  Hg  Hg9  1  0.000000  0.500000  0.750000  1
  Hg  Hg10  1  0.500000  0.000000  0.750000  1
  Bi  Bi11  1  0.000000  0.500000  0.250000  1
  Au  Au12  1  0.623976  0.370128  0.274621  1
  Au  Au13  1  0.376024  0.629872  0.274621  1
  Au  Au14  1  0.126948  0.128593  0.773378  1
  Au  Au15  1  0.873052  0.871407  0.773378  1
  Au  Au16  1  0.371407  0.626948  0.726622  1
  Au  Au17  1  0.628593  0.373052  0.726622  1
  Au  Au18  1  0.870128  0.876024  0.225379  1
  Au  Au19  1  0.129872  0.123976  0.225379  1
