# generated using pymatgen
data_Sr10MgTaRu3O20
_symmetry_space_group_name_H-M   'P 1'
_cell_length_a   8.92896868
_cell_length_b   8.92896780
_cell_length_c   8.96365626
_cell_angle_alpha   120.37777049
_cell_angle_beta   120.77727740
_cell_angle_gamma   88.77642463
_symmetry_Int_Tables_number   1
_chemical_formula_structural   Sr10MgTaRu3O20
_chemical_formula_sum   'Sr10 Mg1 Ta1 Ru3 O20'
_cell_volume   501.79007919
_cell_formula_units_Z   1
loop_
 _symmetry_equiv_pos_site_id
 _symmetry_equiv_pos_as_xyz
  1  'x, y, z'
loop_
 _atom_site_type_symbol
 _atom_site_label
 _atom_site_symmetry_multiplicity
 _atom_site_fract_x
 _atom_site_fract_y
 _atom_site_fract_z
 _atom_site_occupancy
  Sr  Sr0  1  0.765046  0.146571  0.202834  1
  Sr  Sr1  1  0.350140  0.358867  0.999893  1
  Sr  Sr2  1  0.953907  0.565899  0.809423  1
  Sr  Sr3  1  0.563748  0.753169  0.610171  1
  Sr  Sr4  1  0.141925  0.948174  0.379646  1
  Sr  Sr5  1  0.641026  0.649753  0.999893  1
  Sr  Sr6  1  0.243523  0.855516  0.809423  1
  Sr  Sr7  1  0.857003  0.046422  0.610171  1
  Sr  Sr8  1  0.431472  0.237720  0.379646  1
  Sr  Sr9  1  0.056263  0.437789  0.202834  1
  Mg  Mg10  1  0.000180  0.000676  0.000855  1
  Ta  Ta11  1  0.600344  0.197999  0.798344  1
  Ru  Ru12  1  0.197249  0.403589  0.600837  1
  Ru  Ru13  1  0.800838  0.602426  0.403265  1
  Ru  Ru14  1  0.400783  0.797210  0.197992  1
  O  O15  1  0.563708  0.962113  0.201976  1
  O  O16  1  0.169050  0.166554  0.999327  1
  O  O17  1  0.756652  0.359772  0.799183  1
  O  O18  1  0.359631  0.559119  0.597897  1
  O  O19  1  0.958164  0.759016  0.399425  1
  O  O20  1  0.832773  0.830277  0.999327  1
  O  O21  1  0.439411  0.042531  0.799183  1
  O  O22  1  0.038777  0.238265  0.597897  1
  O  O23  1  0.640410  0.441262  0.399425  1
  O  O24  1  0.239862  0.638268  0.201976  1
  O  O25  1  0.698116  0.398297  0.096413  1
  O  O26  1  0.299156  0.602108  0.901264  1
  O  O27  1  0.898931  0.795382  0.694313  1
  O  O28  1  0.499884  0.001004  0.500888  1
  O  O29  1  0.102046  0.204919  0.306965  1
  O  O30  1  0.996377  0.500417  0.496795  1
  O  O31  1  0.604437  0.699691  0.304129  1
  O  O32  1  0.207117  0.897551  0.104668  1
  O  O33  1  0.795734  0.100617  0.896351  1
  O  O34  1  0.396314  0.301059  0.697372  1
