# generated using pymatgen
data_Tm10TlHg7Pt4
_symmetry_space_group_name_H-M   'P 1'
_cell_length_a   3.58318500
_cell_length_b   7.90841186
_cell_length_c   18.11894300
_cell_angle_alpha   90.11473781
_cell_angle_beta   90.00000000
_cell_angle_gamma   90.00000000
_symmetry_Int_Tables_number   1
_chemical_formula_structural   Tm10TlHg7Pt4
_chemical_formula_sum   'Tm10 Tl1 Hg7 Pt4'
_cell_volume   513.44094362
_cell_formula_units_Z   1
loop_
 _symmetry_equiv_pos_site_id
 _symmetry_equiv_pos_as_xyz
  1  'x, y, z'
loop_
 _atom_site_type_symbol
 _atom_site_label
 _atom_site_symmetry_multiplicity
 _atom_site_fract_x
 _atom_site_fract_y
 _atom_site_fract_z
 _atom_site_occupancy
  Tm  Tm0  1  0.000000  0.108566  0.415666  1
  Tm  Tm1  1  0.000000  0.887182  0.586160  1
  Tm  Tm2  1  0.000000  0.386812  0.914075  1
  Tm  Tm3  1  0.000000  0.612183  0.085378  1
  Tm  Tm4  1  0.000000  0.237924  0.214649  1
  Tm  Tm5  1  0.000000  0.760415  0.784101  1
  Tm  Tm6  1  0.000000  0.259222  0.716373  1
  Tm  Tm7  1  0.000000  0.746580  0.281249  1
  Tm  Tm8  1  0.000000  0.001123  0.999893  1
  Tm  Tm9  1  0.000000  0.498069  0.502160  1
  Tl  Tl10  1  0.500000  0.423045  0.353907  1
  Hg  Hg11  1  0.500000  0.578698  0.645634  1
  Hg  Hg12  1  0.500000  0.078181  0.854925  1
  Hg  Hg13  1  0.500000  0.922294  0.144664  1
  Hg  Hg14  1  0.500000  0.287972  0.062177  1
  Hg  Hg15  1  0.500000  0.712615  0.938245  1
  Hg  Hg16  1  0.500000  0.210850  0.562217  1
  Hg  Hg17  1  0.500000  0.785301  0.437508  1
  Pt  Pt18  1  0.500000  0.030292  0.303423  1
  Pt  Pt19  1  0.500000  0.972516  0.697482  1
  Pt  Pt20  1  0.500000  0.472161  0.803122  1
  Pt  Pt21  1  0.500000  0.527997  0.196995  1
