# generated using pymatgen
data_Sc4MnFe4Si2Os
_symmetry_space_group_name_H-M   'P 1'
_cell_length_a   5.02235353
_cell_length_b   5.02059725
_cell_length_c   7.97173500
_cell_angle_alpha   90.00000000
_cell_angle_beta   90.00000000
_cell_angle_gamma   119.33177128
_symmetry_Int_Tables_number   1
_chemical_formula_structural   Sc4MnFe4Si2Os
_chemical_formula_sum   'Sc4 Mn1 Fe4 Si2 Os1'
_cell_volume   175.23920360
_cell_formula_units_Z   1
loop_
 _symmetry_equiv_pos_site_id
 _symmetry_equiv_pos_as_xyz
  1  'x, y, z'
loop_
 _atom_site_type_symbol
 _atom_site_label
 _atom_site_symmetry_multiplicity
 _atom_site_fract_x
 _atom_site_fract_y
 _atom_site_fract_z
 _atom_site_occupancy
  Sc  Sc0  1  0.666220  0.331991  0.066125  1
  Sc  Sc1  1  0.333871  0.668417  0.939248  1
  Sc  Sc2  1  0.333871  0.668417  0.560752  1
  Sc  Sc3  1  0.666220  0.331991  0.433875  1
  Mn  Mn4  1  0.832061  0.173839  0.750000  1
  Fe  Fe5  1  0.338069  0.168869  0.750000  1
  Fe  Fe6  1  0.172745  0.343832  0.250000  1
  Fe  Fe7  1  0.171943  0.828109  0.250000  1
  Fe  Fe8  1  0.654331  0.826397  0.250000  1
  Si  Si9  1  0.001190  0.003972  0.494455  1
  Si  Si10  1  0.001190  0.003972  0.005545  1
  Os  Os11  1  0.828287  0.650193  0.750000  1
