# generated using pymatgen
data_Ho8Si11
_symmetry_space_group_name_H-M   'P 1'
_cell_length_a   4.22477723
_cell_length_b   7.63532221
_cell_length_c   12.66949963
_cell_angle_alpha   107.53732359
_cell_angle_beta   99.59775598
_cell_angle_gamma   90.00000614
_symmetry_Int_Tables_number   1
_chemical_formula_structural   Ho8Si11
_chemical_formula_sum   'Ho8 Si11'
_cell_volume   383.68774642
_cell_formula_units_Z   1
loop_
 _symmetry_equiv_pos_site_id
 _symmetry_equiv_pos_as_xyz
  1  'x, y, z'
loop_
 _atom_site_type_symbol
 _atom_site_label
 _atom_site_symmetry_multiplicity
 _atom_site_fract_x
 _atom_site_fract_y
 _atom_site_fract_z
 _atom_site_occupancy
  Ho  Ho0  1  0.568312  0.568311  0.136623  1
  Ho  Ho1  1  0.572938  0.072938  0.145874  1
  Ho  Ho2  1  0.701294  0.451754  0.402586  1
  Ho  Ho3  1  0.701294  0.950833  0.402586  1
  Ho  Ho4  1  0.297438  0.297438  0.594876  1
  Ho  Ho5  1  0.300678  0.800677  0.601355  1
  Ho  Ho6  1  0.428982  0.186820  0.857963  1
  Ho  Ho7  1  0.428982  0.671143  0.857963  1
  Si  Si8  1  0.011679  0.201131  0.023359  1
  Si  Si9  1  0.011679  0.822227  0.023359  1
  Si  Si10  1  0.112066  0.365765  0.224131  1
  Si  Si11  1  0.112066  0.858364  0.224131  1
  Si  Si12  1  0.174071  0.174071  0.348142  1
  Si  Si13  1  0.177351  0.677350  0.354702  1
  Si  Si14  1  0.825657  0.069612  0.651315  1
  Si  Si15  1  0.825657  0.581704  0.651315  1
  Si  Si16  1  0.884320  0.384319  0.768640  1
  Si  Si17  1  0.895300  0.895299  0.790600  1
  Si  Si18  1  0.983440  0.483440  0.966878  1
