# generated using pymatgen
data_Sr2TiMn(PO4)4
_symmetry_space_group_name_H-M   'P 1'
_cell_length_a   5.19865888
_cell_length_b   8.17777936
_cell_length_c   8.72167228
_cell_angle_alpha   115.13118109
_cell_angle_beta   107.51491086
_cell_angle_gamma   90.17409821
_symmetry_Int_Tables_number   1
_chemical_formula_structural   Sr2TiMn(PO4)4
_chemical_formula_sum   'Sr2 Ti1 Mn1 P4 O16'
_cell_volume   316.42796131
_cell_formula_units_Z   1
loop_
 _symmetry_equiv_pos_site_id
 _symmetry_equiv_pos_as_xyz
  1  'x, y, z'
loop_
 _atom_site_type_symbol
 _atom_site_label
 _atom_site_symmetry_multiplicity
 _atom_site_fract_x
 _atom_site_fract_y
 _atom_site_fract_z
 _atom_site_occupancy
  Sr  Sr0  1  0.813109  0.250759  0.999256  1
  Sr  Sr1  1  0.186889  0.749240  0.000744  1
  Ti  Ti2  1  0.500000  0.000000  0.500000  1
  Mn  Mn3  1  0.000000  0.500000  0.500000  1
  P  P4  1  0.881574  0.751142  0.287798  1
  P  P5  1  0.404542  0.262899  0.289720  1
  P  P6  1  0.118425  0.248857  0.712201  1
  P  P7  1  0.595457  0.737101  0.710280  1
  O  O8  1  0.830161  0.597353  0.100519  1
  O  O9  1  0.268719  0.112996  0.098926  1
  O  O10  1  0.625715  0.851721  0.292017  1
  O  O11  1  0.671240  0.358564  0.293900  1
  O  O12  1  0.126484  0.894017  0.328731  1
  O  O13  1  0.201474  0.404981  0.330987  1
  O  O14  1  0.951407  0.698189  0.444303  1
  O  O15  1  0.483063  0.193721  0.433585  1
  O  O16  1  0.516938  0.806280  0.566414  1
  O  O17  1  0.048592  0.301811  0.555697  1
  O  O18  1  0.798526  0.595019  0.669014  1
  O  O19  1  0.873516  0.105983  0.671270  1
  O  O20  1  0.328760  0.641437  0.706101  1
  O  O21  1  0.374285  0.148280  0.707984  1
  O  O22  1  0.731280  0.887003  0.901075  1
  O  O23  1  0.169840  0.402647  0.899481  1
