# generated using pymatgen
data_YbU(MoO4)4
_symmetry_space_group_name_H-M   'P 1'
_cell_length_a   6.74864201
_cell_length_b   8.36001084
_cell_length_c   11.64756800
_cell_angle_alpha   90.38870225
_cell_angle_beta   90.00286961
_cell_angle_gamma   89.96615825
_symmetry_Int_Tables_number   1
_chemical_formula_structural   YbU(MoO4)4
_chemical_formula_sum   'Yb2 U2 Mo8 O32'
_cell_volume   657.12564403
_cell_formula_units_Z   2
loop_
 _symmetry_equiv_pos_site_id
 _symmetry_equiv_pos_as_xyz
  1  'x, y, z'
loop_
 _atom_site_type_symbol
 _atom_site_label
 _atom_site_symmetry_multiplicity
 _atom_site_fract_x
 _atom_site_fract_y
 _atom_site_fract_z
 _atom_site_occupancy
  Yb  Yb0  1  0.702026  0.249927  0.250039  1
  Yb  Yb1  1  0.297974  0.750073  0.749961  1
  U  U2  1  0.301413  0.250042  0.750120  1
  U  U3  1  0.698587  0.749958  0.249880  1
  Mo  Mo4  1  0.167071  0.793861  0.092474  1
  Mo  Mo5  1  0.832929  0.206139  0.907526  1
  Mo  Mo6  1  0.170033  0.293853  0.096603  1
  Mo  Mo7  1  0.167164  0.705970  0.407434  1
  Mo  Mo8  1  0.832836  0.294030  0.592566  1
  Mo  Mo9  1  0.829967  0.706147  0.903397  1
  Mo  Mo10  1  0.170018  0.205947  0.403562  1
  Mo  Mo11  1  0.829982  0.794053  0.596438  1
  O  O12  1  0.849759  0.747536  0.432728  1
  O  O13  1  0.846867  0.002681  0.596677  1
  O  O14  1  0.849757  0.752395  0.067151  1
  O  O15  1  0.579194  0.740558  0.874122  1
  O  O16  1  0.420806  0.259442  0.125879  1
  O  O17  1  0.849847  0.248109  0.064039  1
  O  O18  1  0.156005  0.002344  0.097457  1
  O  O19  1  0.150243  0.247605  0.932849  1
  O  O20  1  0.062248  0.249927  0.250061  1
  O  O21  1  0.153133  0.997319  0.403323  1
  O  O22  1  0.579146  0.760229  0.625738  1
  O  O23  1  0.057416  0.749916  0.249952  1
  O  O24  1  0.846449  0.497477  0.903151  1
  O  O25  1  0.578150  0.256486  0.629271  1
  O  O26  1  0.942584  0.250084  0.750048  1
  O  O27  1  0.843995  0.997656  0.902543  1
  O  O28  1  0.937752  0.750073  0.749939  1
  O  O29  1  0.150153  0.751891  0.935961  1
  O  O30  1  0.301598  0.469581  0.752378  1
  O  O31  1  0.698438  0.969423  0.252024  1
  O  O32  1  0.849811  0.252199  0.436042  1
  O  O33  1  0.150189  0.747801  0.563958  1
  O  O34  1  0.153551  0.502523  0.096849  1
  O  O35  1  0.421850  0.743514  0.370729  1
  O  O36  1  0.150241  0.252464  0.567272  1
  O  O37  1  0.301562  0.030577  0.747976  1
  O  O38  1  0.156462  0.497466  0.402436  1
  O  O39  1  0.421862  0.756410  0.129136  1
  O  O40  1  0.578138  0.243590  0.870864  1
  O  O41  1  0.843538  0.502534  0.597564  1
  O  O42  1  0.698402  0.530419  0.247622  1
  O  O43  1  0.420854  0.239771  0.374262  1
