# generated using pymatgen
data_La2Fe3Re14C3
_symmetry_space_group_name_H-M   'P 1'
_cell_length_a   6.98468194
_cell_length_b   6.98468164
_cell_length_c   6.98468300
_cell_angle_alpha   82.79559081
_cell_angle_beta   82.79557458
_cell_angle_gamma   82.79557572
_symmetry_Int_Tables_number   1
_chemical_formula_structural   La2Fe3Re14C3
_chemical_formula_sum   'La2 Fe3 Re14 C3'
_cell_volume   333.30505631
_cell_formula_units_Z   1
loop_
 _symmetry_equiv_pos_site_id
 _symmetry_equiv_pos_as_xyz
  1  'x, y, z'
loop_
 _atom_site_type_symbol
 _atom_site_label
 _atom_site_symmetry_multiplicity
 _atom_site_fract_x
 _atom_site_fract_y
 _atom_site_fract_z
 _atom_site_occupancy
  La  La0  1  0.647258  0.647258  0.647258  1
  La  La1  1  0.352742  0.352742  0.352742  1
  Fe  Fe2  1  0.000000  0.000000  0.500000  1
  Fe  Fe3  1  0.500000  0.000000  0.000000  1
  Fe  Fe4  1  0.000000  0.500000  0.000000  1
  Re  Re5  1  0.722677  0.277323  0.000000  1
  Re  Re6  1  0.000000  0.722677  0.277323  1
  Re  Re7  1  0.277323  0.000000  0.722677  1
  Re  Re8  1  0.000000  0.277323  0.722677  1
  Re  Re9  1  0.722677  0.000000  0.277323  1
  Re  Re10  1  0.277323  0.722677  0.000000  1
  Re  Re11  1  0.344393  0.344393  0.865786  1
  Re  Re12  1  0.865786  0.344393  0.344393  1
  Re  Re13  1  0.344393  0.865786  0.344393  1
  Re  Re14  1  0.655607  0.655607  0.134214  1
  Re  Re15  1  0.134214  0.655607  0.655607  1
  Re  Re16  1  0.655607  0.134214  0.655607  1
  Re  Re17  1  0.899527  0.899527  0.899527  1
  Re  Re18  1  0.100473  0.100473  0.100473  1
  C  C19  1  0.500000  0.500000  0.000000  1
  C  C20  1  0.000000  0.500000  0.500000  1
  C  C21  1  0.500000  0.000000  0.500000  1
