# generated using pymatgen
data_Ca4TaGa4Sb3O20
_symmetry_space_group_name_H-M   'P 1'
_cell_length_a   9.19554170
_cell_length_b   6.77388243
_cell_length_c   7.75229183
_cell_angle_alpha   61.24143933
_cell_angle_beta   89.91668212
_cell_angle_gamma   90.34076148
_symmetry_Int_Tables_number   1
_chemical_formula_structural   Ca4TaGa4Sb3O20
_chemical_formula_sum   'Ca4 Ta1 Ga4 Sb3 O20'
_cell_volume   423.31221224
_cell_formula_units_Z   1
loop_
 _symmetry_equiv_pos_site_id
 _symmetry_equiv_pos_as_xyz
  1  'x, y, z'
loop_
 _atom_site_type_symbol
 _atom_site_label
 _atom_site_symmetry_multiplicity
 _atom_site_fract_x
 _atom_site_fract_y
 _atom_site_fract_z
 _atom_site_occupancy
  Ca  Ca0  1  0.663982  0.708207  0.282425  1
  Ca  Ca1  1  0.833438  0.710096  0.781992  1
  Ca  Ca2  1  0.336018  0.291793  0.717575  1
  Ca  Ca3  1  0.166562  0.289904  0.218008  1
  Ta  Ta4  1  0.500000  0.500000  0.000000  1
  Ga  Ga5  1  0.185843  0.761803  0.746512  1
  Ga  Ga6  1  0.687241  0.233501  0.752962  1
  Ga  Ga7  1  0.312759  0.766499  0.247038  1
  Ga  Ga8  1  0.814157  0.238197  0.253488  1
  Sb  Sb9  1  0.500000  0.000000  0.500000  1
  Sb  Sb10  1  0.000000  0.500000  0.500000  1
  Sb  Sb11  1  0.000000  0.000000  0.000000  1
  O  O12  1  0.802702  0.985535  0.892127  1
  O  O13  1  0.559750  0.244390  0.561456  1
  O  O14  1  0.918898  0.756219  0.254414  1
  O  O15  1  0.440250  0.755610  0.438544  1
  O  O16  1  0.696803  0.988153  0.389772  1
  O  O17  1  0.201218  0.505991  0.393410  1
  O  O18  1  0.423592  0.241406  0.245795  1
  O  O19  1  0.699912  0.490884  0.108412  1
  O  O20  1  0.798782  0.494009  0.606590  1
  O  O21  1  0.553320  0.284705  0.904607  1
  O  O22  1  0.952610  0.276657  0.408939  1
  O  O23  1  0.058738  0.756618  0.937348  1
  O  O24  1  0.941262  0.243382  0.062652  1
  O  O25  1  0.576408  0.758594  0.754205  1
  O  O26  1  0.047390  0.723343  0.591061  1
  O  O27  1  0.446680  0.715295  0.095393  1
  O  O28  1  0.300088  0.509116  0.891588  1
  O  O29  1  0.303197  0.011847  0.610228  1
  O  O30  1  0.081102  0.243781  0.745586  1
  O  O31  1  0.197298  0.014465  0.107873  1
