# generated using pymatgen
data_Eu2B4Ir3Rh2
_symmetry_space_group_name_H-M   'P 1'
_cell_length_a   7.58384371
_cell_length_b   6.31763236
_cell_length_c   5.74865364
_cell_angle_alpha   77.72326068
_cell_angle_beta   54.48746454
_cell_angle_gamma   47.78928258
_symmetry_Int_Tables_number   1
_chemical_formula_structural   Eu2B4Ir3Rh2
_chemical_formula_sum   'Eu2 B4 Ir3 Rh2'
_cell_volume   158.68605107
_cell_formula_units_Z   1
loop_
 _symmetry_equiv_pos_site_id
 _symmetry_equiv_pos_as_xyz
  1  'x, y, z'
loop_
 _atom_site_type_symbol
 _atom_site_label
 _atom_site_symmetry_multiplicity
 _atom_site_fract_x
 _atom_site_fract_y
 _atom_site_fract_z
 _atom_site_occupancy
  Eu  Eu0  1  0.857998  0.857998  0.142002  1
  Eu  Eu1  1  0.142002  0.142002  0.857998  1
  B  B2  1  0.209750  0.527433  0.472567  1
  B  B3  1  0.790250  0.472567  0.527433  1
  B  B4  1  0.527433  0.209750  0.790250  1
  B  B5  1  0.472567  0.790250  0.209750  1
  Ir  Ir6  1  0.750000  0.750000  0.750000  1
  Ir  Ir7  1  0.250000  0.250000  0.250000  1
  Ir  Ir8  1  0.500000  0.500000  0.500000  1
  Rh  Rh9  1  0.500000  0.500000  0.000000  1
  Rh  Rh10  1  0.000000  0.000000  0.500000  1
