# generated using pymatgen
data_Nd4Ga3Pd4Au
_symmetry_space_group_name_H-M   'P 1'
_cell_length_a   4.56121100
_cell_length_b   7.17058967
_cell_length_c   7.90030904
_cell_angle_alpha   90.68947265
_cell_angle_beta   90.00000000
_cell_angle_gamma   90.00000000
_symmetry_Int_Tables_number   1
_chemical_formula_structural   Nd4Ga3Pd4Au
_chemical_formula_sum   'Nd4 Ga3 Pd4 Au1'
_cell_volume   258.37332197
_cell_formula_units_Z   1
loop_
 _symmetry_equiv_pos_site_id
 _symmetry_equiv_pos_as_xyz
  1  'x, y, z'
loop_
 _atom_site_type_symbol
 _atom_site_label
 _atom_site_symmetry_multiplicity
 _atom_site_fract_x
 _atom_site_fract_y
 _atom_site_fract_z
 _atom_site_occupancy
  Nd  Nd0  1  0.250000  0.013036  0.701627  1
  Nd  Nd1  1  0.250000  0.517723  0.805207  1
  Nd  Nd2  1  0.750000  0.981163  0.301222  1
  Nd  Nd3  1  0.750000  0.475527  0.193366  1
  Ga  Ga4  1  0.250000  0.677199  0.424663  1
  Ga  Ga5  1  0.750000  0.824134  0.925910  1
  Ga  Ga6  1  0.750000  0.332935  0.570156  1
  Pd  Pd7  1  0.250000  0.298357  0.423440  1
  Pd  Pd8  1  0.250000  0.770934  0.099188  1
  Pd  Pd9  1  0.750000  0.714242  0.596449  1
  Pd  Pd10  1  0.750000  0.213010  0.876346  1
  Au  Au11  1  0.250000  0.181741  0.082426  1
