# generated using pymatgen
data_Er2Hf3Si7Pt9
_symmetry_space_group_name_H-M   'P 1'
_cell_length_a   10.02141700
_cell_length_b   10.02141701
_cell_length_c   3.99990300
_cell_angle_alpha   90.00000000
_cell_angle_beta   90.00000000
_cell_angle_gamma   119.99999668
_symmetry_Int_Tables_number   1
_chemical_formula_structural   Er2Hf3Si7Pt9
_chemical_formula_sum   'Er2 Hf3 Si7 Pt9'
_cell_volume   347.88713914
_cell_formula_units_Z   1
loop_
 _symmetry_equiv_pos_site_id
 _symmetry_equiv_pos_as_xyz
  1  'x, y, z'
loop_
 _atom_site_type_symbol
 _atom_site_label
 _atom_site_symmetry_multiplicity
 _atom_site_fract_x
 _atom_site_fract_y
 _atom_site_fract_z
 _atom_site_occupancy
  Er  Er0  1  0.000000  0.000000  0.000000  1
  Er  Er1  1  0.333333  0.666667  0.500000  1
  Hf  Hf2  1  0.892726  0.456545  0.500000  1
  Hf  Hf3  1  0.563820  0.107274  0.500000  1
  Hf  Hf4  1  0.543455  0.436180  0.500000  1
  Si  Si5  1  0.245990  0.195773  0.500000  1
  Si  Si6  1  0.804227  0.050219  0.500000  1
  Si  Si7  1  0.949781  0.754010  0.500000  1
  Si  Si8  1  0.557477  0.647571  0.000000  1
  Si  Si9  1  0.352429  0.909907  0.000000  1
  Si  Si10  1  0.090093  0.442523  0.000000  1
  Si  Si11  1  0.666667  0.333333  0.000000  1
  Pt  Pt12  1  0.218259  0.936854  0.500000  1
  Pt  Pt13  1  0.063146  0.281406  0.500000  1
  Pt  Pt14  1  0.718594  0.781741  0.500000  1
  Pt  Pt15  1  0.315107  0.414807  0.000000  1
  Pt  Pt16  1  0.585193  0.900300  0.000000  1
  Pt  Pt17  1  0.099700  0.684893  0.000000  1
  Pt  Pt18  1  0.386818  0.174964  0.000000  1
  Pt  Pt19  1  0.825036  0.211855  0.000000  1
  Pt  Pt20  1  0.788145  0.613182  0.000000  1
