# generated using pymatgen
data_Dy9Tm(SnBi2)2
_symmetry_space_group_name_H-M   'P 1'
_cell_length_a   9.12429462
_cell_length_b   9.08541744
_cell_length_c   6.42773032
_cell_angle_alpha   89.96399249
_cell_angle_beta   90.01792726
_cell_angle_gamma   119.85915865
_symmetry_Int_Tables_number   1
_chemical_formula_structural   Dy9Tm(SnBi2)2
_chemical_formula_sum   'Dy9 Tm1 Sn2 Bi4'
_cell_volume   462.11172400
_cell_formula_units_Z   1
loop_
 _symmetry_equiv_pos_site_id
 _symmetry_equiv_pos_as_xyz
  1  'x, y, z'
loop_
 _atom_site_type_symbol
 _atom_site_label
 _atom_site_symmetry_multiplicity
 _atom_site_fract_x
 _atom_site_fract_y
 _atom_site_fract_z
 _atom_site_occupancy
  Dy  Dy0  1  0.994395  0.758284  0.749788  1
  Dy  Dy1  1  0.994395  0.236111  0.250212  1
  Dy  Dy2  1  0.756548  0.761452  0.250182  1
  Dy  Dy3  1  0.756548  0.995097  0.749818  1
  Dy  Dy4  1  0.245185  0.245081  0.750027  1
  Dy  Dy5  1  0.245185  0.000104  0.249973  1
  Dy  Dy6  1  0.664768  0.332383  0.000000  1
  Dy  Dy7  1  0.665059  0.332529  0.500000  1
  Dy  Dy8  1  0.340057  0.670029  0.000000  1
  Tm  Tm9  1  0.341156  0.670578  0.500000  1
  Sn  Sn10  1  0.607958  0.606842  0.748972  1
  Sn  Sn11  1  0.607958  0.001117  0.251028  1
  Bi  Bi12  1  0.388576  0.998003  0.749066  1
  Bi  Bi13  1  0.388576  0.390574  0.250934  1
  Bi  Bi14  1  0.001818  0.609546  0.250975  1
  Bi  Bi15  1  0.001818  0.392270  0.749025  1
