# generated using pymatgen
data_Sm(DyTe2)2
_symmetry_space_group_name_H-M   'P 1'
_cell_length_a   4.36284900
_cell_length_b   7.53791894
_cell_length_c   7.58881679
_cell_angle_alpha   71.48244345
_cell_angle_beta   90.00000000
_cell_angle_gamma   90.00000000
_symmetry_Int_Tables_number   1
_chemical_formula_structural   Sm(DyTe2)2
_chemical_formula_sum   'Sm1 Dy2 Te4'
_cell_volume   236.65067508
_cell_formula_units_Z   1
loop_
 _symmetry_equiv_pos_site_id
 _symmetry_equiv_pos_as_xyz
  1  'x, y, z'
loop_
 _atom_site_type_symbol
 _atom_site_label
 _atom_site_symmetry_multiplicity
 _atom_site_fract_x
 _atom_site_fract_y
 _atom_site_fract_z
 _atom_site_occupancy
  Sm  Sm0  1  0.000000  0.500000  0.500000  1
  Dy  Dy1  1  0.000000  0.000000  0.000000  1
  Dy  Dy2  1  0.500000  0.500000  0.000000  1
  Te  Te3  1  0.500000  0.760112  0.251189  1
  Te  Te4  1  0.000000  0.249797  0.245530  1
  Te  Te5  1  0.500000  0.239888  0.748811  1
  Te  Te6  1  0.000000  0.750203  0.754470  1
