# generated using pymatgen
data_La4Pr4ZnPd24
_symmetry_space_group_name_H-M   'P 1'
_cell_length_a   8.54592781
_cell_length_b   8.54571141
_cell_length_c   8.54571141
_cell_angle_alpha   89.99810384
_cell_angle_beta   90.03535332
_cell_angle_gamma   90.03535332
_symmetry_Int_Tables_number   1
_chemical_formula_structural   La4Pr4ZnPd24
_chemical_formula_sum   'La4 Pr4 Zn1 Pd24'
_cell_volume   624.10189223
_cell_formula_units_Z   1
loop_
 _symmetry_equiv_pos_site_id
 _symmetry_equiv_pos_as_xyz
  1  'x, y, z'
loop_
 _atom_site_type_symbol
 _atom_site_label
 _atom_site_symmetry_multiplicity
 _atom_site_fract_x
 _atom_site_fract_y
 _atom_site_fract_z
 _atom_site_occupancy
  La  La0  1  0.250627  0.250649  0.749426  1
  La  La1  1  0.250627  0.749426  0.250649  1
  La  La2  1  0.250705  0.749283  0.749283  1
  La  La3  1  0.749301  0.250750  0.250750  1
  Pr  Pr4  1  0.250311  0.250263  0.250263  1
  Pr  Pr5  1  0.749690  0.749740  0.749740  1
  Pr  Pr6  1  0.749629  0.749593  0.250360  1
  Pr  Pr7  1  0.749629  0.250360  0.749593  1
  Zn  Zn8  1  0.999793  0.999952  0.999952  1
  Pd  Pd9  1  0.262149  0.499865  0.000152  1
  Pd  Pd10  1  0.737815  0.500201  0.999812  1
  Pd  Pd11  1  0.000143  0.262148  0.500006  1
  Pd  Pd12  1  0.499847  0.262145  0.999990  1
  Pd  Pd13  1  0.999804  0.737828  0.500047  1
  Pd  Pd14  1  0.500180  0.737829  0.999974  1
  Pd  Pd15  1  0.499847  0.999990  0.262145  1
  Pd  Pd16  1  0.262149  0.000152  0.499865  1
  Pd  Pd17  1  0.500180  0.999974  0.737829  1
  Pd  Pd18  1  0.737815  0.999812  0.500201  1
  Pd  Pd19  1  0.000143  0.500006  0.262148  1
  Pd  Pd20  1  0.999804  0.500047  0.737828  1
  Pd  Pd21  1  0.253819  0.499849  0.499849  1
  Pd  Pd22  1  0.746187  0.500182  0.500182  1
  Pd  Pd23  1  0.499851  0.253815  0.500020  1
  Pd  Pd24  1  0.500185  0.746185  0.500012  1
  Pd  Pd25  1  0.499851  0.500020  0.253815  1
  Pd  Pd26  1  0.500185  0.500012  0.746185  1
  Pd  Pd27  1  0.297744  0.000187  0.000187  1
  Pd  Pd28  1  0.702192  0.999780  0.999780  1
  Pd  Pd29  1  0.000152  0.297754  0.999989  1
  Pd  Pd30  1  0.999746  0.702228  0.999986  1
  Pd  Pd31  1  0.000152  0.999989  0.297754  1
  Pd  Pd32  1  0.999746  0.999986  0.702228  1
