# generated using pymatgen
data_CuP(OF)2
_symmetry_space_group_name_H-M   'P 1'
_cell_length_a   6.17935600
_cell_length_b   8.44192800
_cell_length_c   8.24194500
_cell_angle_alpha   90.00000000
_cell_angle_beta   90.00000000
_cell_angle_gamma   90.00000000
_symmetry_Int_Tables_number   1
_chemical_formula_structural   CuP(OF)2
_chemical_formula_sum   'Cu4 P4 O8 F8'
_cell_volume   429.94665258
_cell_formula_units_Z   4
loop_
 _symmetry_equiv_pos_site_id
 _symmetry_equiv_pos_as_xyz
  1  'x, y, z'
loop_
 _atom_site_type_symbol
 _atom_site_label
 _atom_site_symmetry_multiplicity
 _atom_site_fract_x
 _atom_site_fract_y
 _atom_site_fract_z
 _atom_site_occupancy
  Cu  Cu0  1  0.250000  0.212178  0.961472  1
  Cu  Cu1  1  0.750000  0.712178  0.538528  1
  Cu  Cu2  1  0.250000  0.287822  0.461472  1
  Cu  Cu3  1  0.750000  0.787822  0.038528  1
  P  P4  1  0.250000  0.798256  0.540611  1
  P  P5  1  0.750000  0.201744  0.459389  1
  P  P6  1  0.750000  0.298255  0.959389  1
  P  P7  1  0.250000  0.701744  0.040611  1
  O  O8  1  0.045908  0.704696  0.538509  1
  O  O9  1  0.954092  0.295304  0.461491  1
  O  O10  1  0.545908  0.295304  0.461491  1
  O  O11  1  0.454092  0.704696  0.538509  1
  O  O12  1  0.454092  0.795304  0.038509  1
  O  O13  1  0.954092  0.204696  0.961491  1
  O  O14  1  0.045908  0.795304  0.038509  1
  O  O15  1  0.545908  0.204696  0.961491  1
  F  F16  1  0.750000  0.421993  0.102298  1
  F  F17  1  0.750000  0.082863  0.312760  1
  F  F18  1  0.750000  0.417137  0.812760  1
  F  F19  1  0.750000  0.078007  0.602298  1
  F  F20  1  0.250000  0.917137  0.687240  1
  F  F21  1  0.250000  0.582863  0.187240  1
  F  F22  1  0.250000  0.921993  0.397702  1
  F  F23  1  0.250000  0.578007  0.897702  1
