# generated using pymatgen
data_Tb2YGa6(NiRh2)3
_symmetry_space_group_name_H-M   'P 1'
_cell_length_a   9.46825700
_cell_length_b   9.46825700
_cell_length_c   3.87776500
_cell_angle_alpha   90.00000000
_cell_angle_beta   90.00000000
_cell_angle_gamma   120.00222797
_symmetry_Int_Tables_number   1
_chemical_formula_structural   Tb2YGa6(NiRh2)3
_chemical_formula_sum   'Tb2 Y1 Ga6 Ni3 Rh6'
_cell_volume   301.05264196
_cell_formula_units_Z   1
loop_
 _symmetry_equiv_pos_site_id
 _symmetry_equiv_pos_as_xyz
  1  'x, y, z'
loop_
 _atom_site_type_symbol
 _atom_site_label
 _atom_site_symmetry_multiplicity
 _atom_site_fract_x
 _atom_site_fract_y
 _atom_site_fract_z
 _atom_site_occupancy
  Tb  Tb0  1  0.000000  0.000000  0.000000  1
  Tb  Tb1  1  0.333335  0.666665  0.500000  1
  Y  Y2  1  0.666659  0.333341  0.500000  1
  Ga  Ga3  1  0.332483  0.332157  0.500000  1
  Ga  Ga4  1  0.667852  0.000325  0.500000  1
  Ga  Ga5  1  0.667843  0.667517  0.500000  1
  Ga  Ga6  1  0.999675  0.332148  0.500000  1
  Ga  Ga7  1  0.999672  0.667526  0.500000  1
  Ga  Ga8  1  0.332474  0.000328  0.500000  1
  Ni  Ni9  1  0.500095  0.000191  0.000000  1
  Ni  Ni10  1  0.999809  0.499905  0.000000  1
  Ni  Ni11  1  0.500101  0.499899  0.000000  1
  Rh  Rh12  1  0.181184  0.362356  0.000000  1
  Rh  Rh13  1  0.818976  0.637957  0.000000  1
  Rh  Rh14  1  0.181199  0.818801  0.000000  1
  Rh  Rh15  1  0.637644  0.818816  0.000000  1
  Rh  Rh16  1  0.362043  0.181024  0.000000  1
  Rh  Rh17  1  0.818958  0.181042  0.000000  1
