# generated using pymatgen
data_Ce12ZnFe6Si5
_symmetry_space_group_name_H-M   'P 1'
_cell_length_a   7.45460233
_cell_length_b   7.45851535
_cell_length_c   9.54507000
_cell_angle_alpha   89.97798359
_cell_angle_beta   90.01704746
_cell_angle_gamma   119.99363144
_symmetry_Int_Tables_number   1
_chemical_formula_structural   Ce12ZnFe6Si5
_chemical_formula_sum   'Ce12 Zn1 Fe6 Si5'
_cell_volume   459.63643670
_cell_formula_units_Z   1
loop_
 _symmetry_equiv_pos_site_id
 _symmetry_equiv_pos_as_xyz
  1  'x, y, z'
loop_
 _atom_site_type_symbol
 _atom_site_label
 _atom_site_symmetry_multiplicity
 _atom_site_fract_x
 _atom_site_fract_y
 _atom_site_fract_z
 _atom_site_occupancy
  Ce  Ce0  1  0.999704  0.577140  0.500827  1
  Ce  Ce1  1  0.578153  0.999900  0.500460  1
  Ce  Ce2  1  0.422837  0.423040  0.500864  1
  Ce  Ce3  1  0.999970  0.425377  0.999261  1
  Ce  Ce4  1  0.425394  0.999949  0.999522  1
  Ce  Ce5  1  0.574844  0.574806  0.999320  1
  Ce  Ce6  1  0.999894  0.742458  0.177589  1
  Ce  Ce7  1  0.742187  0.999968  0.177506  1
  Ce  Ce8  1  0.257598  0.257664  0.177553  1
  Ce  Ce9  1  0.999952  0.255989  0.673142  1
  Ce  Ce10  1  0.255451  0.999921  0.673312  1
  Ce  Ce11  1  0.743927  0.743885  0.673169  1
  Zn  Zn12  1  0.999882  0.000006  0.921293  1
  Fe  Fe13  1  0.999990  0.349389  0.343243  1
  Fe  Fe14  1  0.349342  0.999967  0.343080  1
  Fe  Fe15  1  0.650476  0.650462  0.343243  1
  Fe  Fe16  1  0.999836  0.638218  0.839799  1
  Fe  Fe17  1  0.638488  0.999954  0.839779  1
  Fe  Fe18  1  0.361771  0.361890  0.839868  1
  Si  Si19  1  0.666704  0.333289  0.274002  1
  Si  Si20  1  0.333339  0.666638  0.274000  1
  Si  Si21  1  0.333349  0.666500  0.769419  1
  Si  Si22  1  0.666901  0.333558  0.769418  1
  Si  Si23  1  0.000013  0.000035  0.419585  1
