# generated using pymatgen
data_Tb8Er8Cd4Ru3Pt
_symmetry_space_group_name_H-M   'P 1'
_cell_length_a   9.59490449
_cell_length_b   9.62729620
_cell_length_c   9.66481300
_cell_angle_alpha   59.87101044
_cell_angle_beta   59.75869029
_cell_angle_gamma   59.74043040
_symmetry_Int_Tables_number   1
_chemical_formula_structural   Tb8Er8Cd4Ru3Pt
_chemical_formula_sum   'Tb8 Er8 Cd4 Ru3 Pt1'
_cell_volume   628.27113780
_cell_formula_units_Z   1
loop_
 _symmetry_equiv_pos_site_id
 _symmetry_equiv_pos_as_xyz
  1  'x, y, z'
loop_
 _atom_site_type_symbol
 _atom_site_label
 _atom_site_symmetry_multiplicity
 _atom_site_fract_x
 _atom_site_fract_y
 _atom_site_fract_z
 _atom_site_occupancy
  Tb  Tb0  1  0.187611  0.187504  0.812442  1
  Tb  Tb1  1  0.815792  0.806067  0.189071  1
  Tb  Tb2  1  0.937882  0.560808  0.561305  1
  Tb  Tb3  1  0.557535  0.938783  0.938914  1
  Tb  Tb4  1  0.557535  0.938783  0.564768  1
  Tb  Tb5  1  0.937882  0.560808  0.940005  1
  Tb  Tb6  1  0.557172  0.564902  0.938963  1
  Tb  Tb7  1  0.938298  0.939895  0.560904  1
  Er  Er8  1  0.345364  0.350600  0.348779  1
  Er  Er9  1  0.345364  0.350600  0.955258  1
  Er  Er10  1  0.344859  0.956470  0.349336  1
  Er  Er11  1  0.963071  0.344824  0.346052  1
  Er  Er12  1  0.814400  0.188815  0.189976  1
  Er  Er13  1  0.187705  0.811276  0.811741  1
  Er  Er14  1  0.187705  0.811276  0.189277  1
  Er  Er15  1  0.814400  0.188815  0.806810  1
  Cd  Cd16  1  0.580286  0.579859  0.580529  1
  Cd  Cd17  1  0.580286  0.579859  0.259326  1
  Cd  Cd18  1  0.580861  0.258830  0.580154  1
  Cd  Cd19  1  0.257108  0.581068  0.580911  1
  Ru  Ru20  1  0.144630  0.139380  0.138477  1
  Ru  Ru21  1  0.144630  0.139380  0.577514  1
  Ru  Ru22  1  0.145609  0.576997  0.138697  1
  Pt  Pt23  1  0.574013  0.144402  0.140793  1
