# generated using pymatgen
data_Mn6Si6Tc11Os
_symmetry_space_group_name_H-M   'P 1'
_cell_length_a   4.19240400
_cell_length_b   5.97279900
_cell_length_c   12.61842900
_cell_angle_alpha   90.00019582
_cell_angle_beta   89.99803069
_cell_angle_gamma   89.99997674
_symmetry_Int_Tables_number   1
_chemical_formula_structural   Mn6Si6Tc11Os
_chemical_formula_sum   'Mn6 Si6 Tc11 Os1'
_cell_volume   315.97033806
_cell_formula_units_Z   1
loop_
 _symmetry_equiv_pos_site_id
 _symmetry_equiv_pos_as_xyz
  1  'x, y, z'
loop_
 _atom_site_type_symbol
 _atom_site_label
 _atom_site_symmetry_multiplicity
 _atom_site_fract_x
 _atom_site_fract_y
 _atom_site_fract_z
 _atom_site_occupancy
  Mn  Mn0  1  0.999999  0.501393  0.000001  1
  Mn  Mn1  1  0.499713  0.999339  0.167477  1
  Mn  Mn2  1  0.999712  0.499974  0.333508  1
  Mn  Mn3  1  0.500000  0.999977  0.499999  1
  Mn  Mn4  1  0.000287  0.499978  0.666483  1
  Mn  Mn5  1  0.500287  0.999343  0.832524  1
  Si  Si6  1  0.000000  0.000452  0.000003  1
  Si  Si7  1  0.499695  0.499739  0.166243  1
  Si  Si8  1  0.999685  0.000236  0.332992  1
  Si  Si9  1  0.500000  0.499785  0.499999  1
  Si  Si10  1  0.000317  0.000240  0.667003  1
  Si  Si11  1  0.500306  0.499736  0.833759  1
  Tc  Tc12  1  0.500000  0.748995  0.999993  1
  Tc  Tc13  1  0.999723  0.249596  0.165966  1
  Tc  Tc14  1  0.999718  0.750490  0.166413  1
  Tc  Tc15  1  0.499708  0.250936  0.332986  1
  Tc  Tc16  1  0.499709  0.749861  0.333191  1
  Tc  Tc17  1  0.000000  0.248953  0.499995  1
  Tc  Tc18  1  0.000000  0.750501  0.499997  1
  Tc  Tc19  1  0.500288  0.250919  0.667020  1
  Tc  Tc20  1  0.500291  0.749882  0.666817  1
  Tc  Tc21  1  0.000278  0.249572  0.834038  1
  Tc  Tc22  1  0.000285  0.750514  0.833591  1
  Os  Os23  1  0.500000  0.249587  0.000000  1
