# generated using pymatgen
data_Tb3Th(CuAs2)4
_symmetry_space_group_name_H-M   'P 1'
_cell_length_a   3.96119800
_cell_length_b   3.96117554
_cell_length_c   19.77687263
_cell_angle_alpha   89.93784474
_cell_angle_beta   90.00000000
_cell_angle_gamma   90.00000000
_symmetry_Int_Tables_number   1
_chemical_formula_structural   Tb3Th(CuAs2)4
_chemical_formula_sum   'Tb3 Th1 Cu4 As8'
_cell_volume   310.31873824
_cell_formula_units_Z   1
loop_
 _symmetry_equiv_pos_site_id
 _symmetry_equiv_pos_as_xyz
  1  'x, y, z'
loop_
 _atom_site_type_symbol
 _atom_site_label
 _atom_site_symmetry_multiplicity
 _atom_site_fract_x
 _atom_site_fract_y
 _atom_site_fract_z
 _atom_site_occupancy
  Tb  Tb0  1  0.750000  0.741463  0.383859  1
  Tb  Tb1  1  0.250000  0.258835  0.619841  1
  Tb  Tb2  1  0.750000  0.757440  0.878841  1
  Th  Th3  1  0.250000  0.243221  0.115529  1
  Cu  Cu4  1  0.750000  0.239500  0.252975  1
  Cu  Cu5  1  0.250000  0.738918  0.252953  1
  Cu  Cu6  1  0.750000  0.261311  0.749547  1
  Cu  Cu7  1  0.250000  0.761359  0.749520  1
  As  As8  1  0.250000  0.747282  0.996491  1
  As  As9  1  0.750000  0.741958  0.171995  1
  As  As10  1  0.250000  0.239915  0.331174  1
  As  As11  1  0.750000  0.244385  0.500993  1
  As  As12  1  0.250000  0.754897  0.501048  1
  As  As13  1  0.750000  0.759811  0.670018  1
  As  As14  1  0.250000  0.258964  0.828697  1
  As  As15  1  0.750000  0.250742  0.996521  1
