# generated using pymatgen
data_Yb3PaNi13C4
_symmetry_space_group_name_H-M   'P 1'
_cell_length_a   8.32642860
_cell_length_b   8.32642882
_cell_length_c   3.84903100
_cell_angle_alpha   90.00000000
_cell_angle_beta   90.00000000
_cell_angle_gamma   90.74065161
_symmetry_Int_Tables_number   1
_chemical_formula_structural   Yb3PaNi13C4
_chemical_formula_sum   'Yb3 Pa1 Ni13 C4'
_cell_volume   266.82877236
_cell_formula_units_Z   1
loop_
 _symmetry_equiv_pos_site_id
 _symmetry_equiv_pos_as_xyz
  1  'x, y, z'
loop_
 _atom_site_type_symbol
 _atom_site_label
 _atom_site_symmetry_multiplicity
 _atom_site_fract_x
 _atom_site_fract_y
 _atom_site_fract_z
 _atom_site_occupancy
  Yb  Yb0  1  0.190281  0.809719  0.500000  1
  Yb  Yb1  1  0.347326  0.352288  0.500000  1
  Yb  Yb2  1  0.647712  0.652674  0.500000  1
  Pa  Pa3  1  0.822524  0.177476  0.500000  1
  Ni  Ni4  1  0.996207  0.003793  0.000000  1
  Ni  Ni5  1  0.217984  0.573022  0.000000  1
  Ni  Ni6  1  0.786615  0.423629  0.000000  1
  Ni  Ni7  1  0.426978  0.782016  0.000000  1
  Ni  Ni8  1  0.576371  0.213385  0.000000  1
  Ni  Ni9  1  0.994177  0.493459  0.500000  1
  Ni  Ni10  1  0.506541  0.005823  0.500000  1
  Ni  Ni11  1  0.069932  0.293608  0.000000  1
  Ni  Ni12  1  0.921688  0.711073  0.000000  1
  Ni  Ni13  1  0.706392  0.930068  0.000000  1
  Ni  Ni14  1  0.288927  0.078312  0.000000  1
  Ni  Ni15  1  0.126371  0.123768  0.500000  1
  Ni  Ni16  1  0.876232  0.873629  0.500000  1
  C  C17  1  0.002334  0.507466  0.000000  1
  C  C18  1  0.492534  0.997666  0.000000  1
  C  C19  1  0.445208  0.554792  0.000000  1
  C  C20  1  0.557666  0.442334  0.000000  1
