# generated using pymatgen
data_Ho9LuIn8(PtRh)2
_symmetry_space_group_name_H-M   'P 1'
_cell_length_a   3.60209100
_cell_length_b   8.10454573
_cell_length_c   18.20307315
_cell_angle_alpha   90.12543166
_cell_angle_beta   90.00000000
_cell_angle_gamma   90.00000000
_symmetry_Int_Tables_number   1
_chemical_formula_structural   Ho9LuIn8(PtRh)2
_chemical_formula_sum   'Ho9 Lu1 In8 Pt2 Rh2'
_cell_volume   531.40670608
_cell_formula_units_Z   1
loop_
 _symmetry_equiv_pos_site_id
 _symmetry_equiv_pos_as_xyz
  1  'x, y, z'
loop_
 _atom_site_type_symbol
 _atom_site_label
 _atom_site_symmetry_multiplicity
 _atom_site_fract_x
 _atom_site_fract_y
 _atom_site_fract_z
 _atom_site_occupancy
  Ho  Ho0  1  0.000000  0.884322  0.587634  1
  Ho  Ho1  1  0.000000  0.382904  0.914388  1
  Ho  Ho2  1  0.000000  0.617083  0.085649  1
  Ho  Ho3  1  0.000000  0.238708  0.221396  1
  Ho  Ho4  1  0.000000  0.761051  0.778784  1
  Ho  Ho5  1  0.000000  0.250984  0.720140  1
  Ho  Ho6  1  0.000000  0.749267  0.279979  1
  Ho  Ho7  1  0.000000  0.000002  0.000004  1
  Ho  Ho8  1  0.000000  0.499796  0.499949  1
  Lu  Lu9  1  0.000000  0.115059  0.411486  1
  In  In10  1  0.500000  0.422352  0.351230  1
  In  In11  1  0.500000  0.576800  0.648946  1
  In  In12  1  0.500000  0.074059  0.850097  1
  In  In13  1  0.500000  0.926008  0.149977  1
  In  In14  1  0.500000  0.292027  0.066508  1
  In  In15  1  0.500000  0.707944  0.933491  1
  In  In16  1  0.500000  0.206174  0.567244  1
  In  In17  1  0.500000  0.794697  0.432417  1
  Pt  Pt18  1  0.500000  0.476527  0.803304  1
  Pt  Pt19  1  0.500000  0.523458  0.196691  1
  Rh  Rh20  1  0.500000  0.023574  0.305059  1
  Rh  Rh21  1  0.500000  0.977205  0.695626  1
