# generated using pymatgen
data_KLa(GaS2)4
_symmetry_space_group_name_H-M   'P 1'
_cell_length_a   11.94285526
_cell_length_b   11.94285532
_cell_length_c   11.90966800
_cell_angle_alpha   105.35590946
_cell_angle_beta   105.35590954
_cell_angle_gamma   118.15402661
_symmetry_Int_Tables_number   1
_chemical_formula_structural   KLa(GaS2)4
_chemical_formula_sum   'K4 La4 Ga16 S32'
_cell_volume   1283.53773316
_cell_formula_units_Z   4
loop_
 _symmetry_equiv_pos_site_id
 _symmetry_equiv_pos_as_xyz
  1  'x, y, z'
loop_
 _atom_site_type_symbol
 _atom_site_label
 _atom_site_symmetry_multiplicity
 _atom_site_fract_x
 _atom_site_fract_y
 _atom_site_fract_z
 _atom_site_occupancy
  K  K0  1  0.378275  0.621725  0.750000  1
  K  K1  1  0.128275  0.871725  0.250000  1
  K  K2  1  0.621725  0.378275  0.250000  1
  K  K3  1  0.871725  0.128275  0.750000  1
  La  La4  1  0.375000  0.625000  0.250000  1
  La  La5  1  0.625000  0.375000  0.750000  1
  La  La6  1  0.875000  0.125000  0.250000  1
  La  La7  1  0.125000  0.875000  0.750000  1
  Ga  Ga8  1  0.358923  0.360730  0.391002  1
  Ga  Ga9  1  0.969728  0.467921  0.108998  1
  Ga  Ga10  1  0.639270  0.641077  0.108998  1
  Ga  Ga11  1  0.532079  0.030272  0.391002  1
  Ga  Ga12  1  0.641077  0.639270  0.608998  1
  Ga  Ga13  1  0.030272  0.532079  0.891002  1
  Ga  Ga14  1  0.360730  0.358923  0.891002  1
  Ga  Ga15  1  0.467921  0.969728  0.608998  1
  Ga  Ga16  1  0.867479  0.862430  0.978028  1
  Ga  Ga17  1  0.884402  0.389450  0.521972  1
  Ga  Ga18  1  0.137570  0.132521  0.521972  1
  Ga  Ga19  1  0.610550  0.115598  0.978028  1
  Ga  Ga20  1  0.132521  0.137570  0.021972  1
  Ga  Ga21  1  0.115598  0.610550  0.478028  1
  Ga  Ga22  1  0.862430  0.867479  0.478028  1
  Ga  Ga23  1  0.389450  0.884402  0.021972  1
  S  S24  1  0.906660  0.574958  0.994109  1
  S  S25  1  0.587448  0.419151  0.994109  1
  S  S26  1  0.425042  0.093340  0.505891  1
  S  S27  1  0.580849  0.412552  0.505891  1
  S  S28  1  0.093340  0.425042  0.005891  1
  S  S29  1  0.419151  0.587448  0.494109  1
  S  S30  1  0.574958  0.906660  0.494109  1
  S  S31  1  0.412552  0.580849  0.005891  1
  S  S32  1  0.074764  0.407044  0.493271  1
  S  S33  1  0.913773  0.081493  0.006729  1
  S  S34  1  0.592956  0.925236  0.006729  1
  S  S35  1  0.918507  0.086227  0.493271  1
  S  S36  1  0.925236  0.592956  0.506729  1
  S  S37  1  0.086227  0.918507  0.993271  1
  S  S38  1  0.407044  0.074764  0.993271  1
  S  S39  1  0.081493  0.913773  0.506729  1
  S  S40  1  0.843073  0.846163  0.160580  1
  S  S41  1  0.685582  0.182491  0.339420  1
  S  S42  1  0.153837  0.156927  0.339420  1
  S  S43  1  0.817509  0.314418  0.160580  1
  S  S44  1  0.666432  0.655470  0.812821  1
  S  S45  1  0.842649  0.353612  0.687179  1
  S  S46  1  0.344530  0.333568  0.687179  1
  S  S47  1  0.646388  0.157351  0.812821  1
  S  S48  1  0.333568  0.344530  0.187179  1
  S  S49  1  0.157351  0.646388  0.312821  1
  S  S50  1  0.655470  0.666432  0.312821  1
  S  S51  1  0.353612  0.842649  0.187179  1
  S  S52  1  0.182491  0.685582  0.839420  1
  S  S53  1  0.846163  0.843073  0.660580  1
  S  S54  1  0.314418  0.817509  0.660580  1
  S  S55  1  0.156927  0.153837  0.839420  1
