# generated using pymatgen
data_Ca4Si3Pt4
_symmetry_space_group_name_H-M   'P 1'
_cell_length_a   5.77348875
_cell_length_b   7.83455240
_cell_length_c   10.78403628
_cell_angle_alpha   108.87296252
_cell_angle_beta   105.52665247
_cell_angle_gamma   89.99999773
_symmetry_Int_Tables_number   1
_chemical_formula_structural   Ca4Si3Pt4
_chemical_formula_sum   'Ca8 Si6 Pt8'
_cell_volume   442.71184350
_cell_formula_units_Z   2
loop_
 _symmetry_equiv_pos_site_id
 _symmetry_equiv_pos_as_xyz
  1  'x, y, z'
loop_
 _atom_site_type_symbol
 _atom_site_label
 _atom_site_symmetry_multiplicity
 _atom_site_fract_x
 _atom_site_fract_y
 _atom_site_fract_z
 _atom_site_occupancy
  Ca  Ca0  1  0.202248  0.674071  0.136077  1
  Ca  Ca1  1  0.933828  0.174072  0.136077  1
  Ca  Ca2  1  0.792695  0.909471  0.339969  1
  Ca  Ca3  1  0.547274  0.409471  0.339969  1
  Ca  Ca4  1  0.452727  0.590529  0.660031  1
  Ca  Ca5  1  0.207305  0.090529  0.660031  1
  Ca  Ca6  1  0.066172  0.825928  0.863923  1
  Ca  Ca7  1  0.797751  0.325928  0.863923  1
  Si  Si8  1  0.403157  0.250000  0.000000  1
  Si  Si9  1  0.596844  0.750000  0.000000  1
  Si  Si10  1  0.036337  0.572217  0.346568  1
  Si  Si11  1  0.310231  0.072217  0.346568  1
  Si  Si12  1  0.689767  0.927783  0.653431  1
  Si  Si13  1  0.963663  0.427783  0.653432  1
  Pt  Pt14  1  0.707560  0.529567  0.124310  1
  Pt  Pt15  1  0.416749  0.029567  0.124310  1
  Pt  Pt16  1  0.352540  0.821034  0.437861  1
  Pt  Pt17  1  0.085320  0.321034  0.437861  1
  Pt  Pt18  1  0.914678  0.678966  0.562139  1
  Pt  Pt19  1  0.647460  0.178966  0.562139  1
  Pt  Pt20  1  0.583251  0.970433  0.875690  1
  Pt  Pt21  1  0.292439  0.470433  0.875690  1
