# generated using pymatgen
data_Y6Zn21Cu2C
_symmetry_space_group_name_H-M   'P 1'
_cell_length_a   8.87988950
_cell_length_b   8.87988869
_cell_length_c   8.90264200
_cell_angle_alpha   59.91519470
_cell_angle_beta   59.91519772
_cell_angle_gamma   60.01576495
_symmetry_Int_Tables_number   1
_chemical_formula_structural   Y6Zn21Cu2C
_chemical_formula_sum   'Y6 Zn21 Cu2 C1'
_cell_volume   495.80705853
_cell_formula_units_Z   1
loop_
 _symmetry_equiv_pos_site_id
 _symmetry_equiv_pos_as_xyz
  1  'x, y, z'
loop_
 _atom_site_type_symbol
 _atom_site_label
 _atom_site_symmetry_multiplicity
 _atom_site_fract_x
 _atom_site_fract_y
 _atom_site_fract_z
 _atom_site_occupancy
  Y  Y0  1  0.696387  0.303613  0.304594  1
  Y  Y1  1  0.303613  0.696387  0.695406  1
  Y  Y2  1  0.303613  0.696387  0.304594  1
  Y  Y3  1  0.696387  0.303613  0.695406  1
  Y  Y4  1  0.302274  0.302274  0.697726  1
  Y  Y5  1  0.697726  0.697726  0.302274  1
  Zn  Zn6  1  0.119823  0.119823  0.118783  1
  Zn  Zn7  1  0.880177  0.880177  0.881217  1
  Zn  Zn8  1  0.119823  0.119823  0.641571  1
  Zn  Zn9  1  0.126645  0.640606  0.116376  1
  Zn  Zn10  1  0.880177  0.880177  0.358429  1
  Zn  Zn11  1  0.873355  0.359394  0.883624  1
  Zn  Zn12  1  0.640606  0.126645  0.116376  1
  Zn  Zn13  1  0.359394  0.873355  0.883624  1
  Zn  Zn14  1  0.500000  0.000000  0.000000  1
  Zn  Zn15  1  0.000000  0.500000  0.500000  1
  Zn  Zn16  1  0.000000  0.500000  0.000000  1
  Zn  Zn17  1  0.500000  0.000000  0.500000  1
  Zn  Zn18  1  0.000000  0.000000  0.500000  1
  Zn  Zn19  1  0.329619  0.329619  0.323541  1
  Zn  Zn20  1  0.670381  0.670381  0.676459  1
  Zn  Zn21  1  0.329619  0.329619  0.017221  1
  Zn  Zn22  1  0.327695  0.017136  0.327585  1
  Zn  Zn23  1  0.670381  0.670381  0.982779  1
  Zn  Zn24  1  0.672305  0.982864  0.672415  1
  Zn  Zn25  1  0.017136  0.327695  0.327585  1
  Zn  Zn26  1  0.982864  0.672305  0.672415  1
  Cu  Cu27  1  0.500000  0.500000  0.000000  1
  Cu  Cu28  1  0.000000  0.000000  0.000000  1
  C  C29  1  0.500000  0.500000  0.500000  1
