# generated using pymatgen
data_Cs2Np(RhSe2)3
_symmetry_space_group_name_H-M   'P 1'
_cell_length_a   11.77298246
_cell_length_b   9.76768831
_cell_length_c   9.47515500
_cell_angle_alpha   75.42399604
_cell_angle_beta   53.41433539
_cell_angle_gamma   51.16166153
_symmetry_Int_Tables_number   1
_chemical_formula_structural   Cs2Np(RhSe2)3
_chemical_formula_sum   'Cs4 Np2 Rh6 Se12'
_cell_volume   668.36560721
_cell_formula_units_Z   2
loop_
 _symmetry_equiv_pos_site_id
 _symmetry_equiv_pos_as_xyz
  1  'x, y, z'
loop_
 _atom_site_type_symbol
 _atom_site_label
 _atom_site_symmetry_multiplicity
 _atom_site_fract_x
 _atom_site_fract_y
 _atom_site_fract_z
 _atom_site_occupancy
  Cs  Cs0  1  0.250000  0.249999  0.250000  1
  Cs  Cs1  1  0.750000  0.750000  0.750000  1
  Cs  Cs2  1  0.309030  0.690970  0.309031  1
  Cs  Cs3  1  0.690970  0.309031  0.690970  1
  Np  Np4  1  0.171483  0.171484  0.828517  1
  Np  Np5  1  0.828516  0.828517  0.171484  1
  Rh  Rh6  1  0.858071  0.141929  0.141929  1
  Rh  Rh7  1  0.141930  0.858071  0.858070  1
  Rh  Rh8  1  0.850598  0.491917  0.149402  1
  Rh  Rh9  1  0.491917  0.850598  0.508083  1
  Rh  Rh10  1  0.508083  0.149402  0.491917  1
  Rh  Rh11  1  0.149403  0.508083  0.850597  1
  Se  Se12  1  0.023397  0.177873  0.190747  1
  Se  Se13  1  0.177874  0.023396  0.607983  1
  Se  Se14  1  0.607983  0.190747  0.177874  1
  Se  Se15  1  0.190747  0.607982  0.023396  1
  Se  Se16  1  0.976603  0.822126  0.809253  1
  Se  Se17  1  0.822126  0.976604  0.392017  1
  Se  Se18  1  0.392017  0.809253  0.822126  1
  Se  Se19  1  0.809253  0.392017  0.976604  1
  Se  Se20  1  0.405402  0.194416  0.805584  1
  Se  Se21  1  0.194416  0.405402  0.594598  1
  Se  Se22  1  0.594598  0.805585  0.194416  1
  Se  Se23  1  0.805584  0.594599  0.405402  1
