# generated using pymatgen
data_Tb4Dy(FeO6)2
_symmetry_space_group_name_H-M   'P 1'
_cell_length_a   6.80046604
_cell_length_b   6.80046525
_cell_length_c   7.30918003
_cell_angle_alpha   74.37506410
_cell_angle_beta   74.37506665
_cell_angle_gamma   51.12363816
_symmetry_Int_Tables_number   1
_chemical_formula_structural   Tb4Dy(FeO6)2
_chemical_formula_sum   'Tb4 Dy1 Fe2 O12'
_cell_volume   251.14917222
_cell_formula_units_Z   1
loop_
 _symmetry_equiv_pos_site_id
 _symmetry_equiv_pos_as_xyz
  1  'x, y, z'
loop_
 _atom_site_type_symbol
 _atom_site_label
 _atom_site_symmetry_multiplicity
 _atom_site_fract_x
 _atom_site_fract_y
 _atom_site_fract_z
 _atom_site_occupancy
  Tb  Tb0  1  0.694963  0.694963  0.641383  1
  Tb  Tb1  1  0.307081  0.307081  0.832570  1
  Tb  Tb2  1  0.692904  0.692904  0.167434  1
  Tb  Tb3  1  0.000064  0.000064  0.499895  1
  Dy  Dy4  1  0.305052  0.305052  0.358461  1
  Fe  Fe5  1  0.756917  0.242976  0.000126  1
  Fe  Fe6  1  0.242976  0.756917  0.000126  1
  O  O7  1  0.898503  0.420539  0.921650  1
  O  O8  1  0.420539  0.898503  0.921650  1
  O  O9  1  0.101799  0.579008  0.078960  1
  O  O10  1  0.579008  0.101799  0.078960  1
  O  O11  1  0.096957  0.595239  0.576697  1
  O  O12  1  0.595239  0.096957  0.576697  1
  O  O13  1  0.904637  0.403831  0.422459  1
  O  O14  1  0.403831  0.904637  0.422459  1
  O  O15  1  0.001318  0.001318  0.818630  1
  O  O16  1  0.998645  0.998645  0.181343  1
  O  O17  1  0.499835  0.499835  0.818374  1
  O  O18  1  0.499733  0.499733  0.182125  1
