# generated using pymatgen
data_TbHo9Cd3In5Pd4
_symmetry_space_group_name_H-M   'P 1'
_cell_length_a   3.59813300
_cell_length_b   8.10458804
_cell_length_c   18.32945101
_cell_angle_alpha   89.99678386
_cell_angle_beta   90.00000000
_cell_angle_gamma   90.00000000
_symmetry_Int_Tables_number   1
_chemical_formula_structural   TbHo9Cd3In5Pd4
_chemical_formula_sum   'Tb1 Ho9 Cd3 In5 Pd4'
_cell_volume   534.51218916
_cell_formula_units_Z   1
loop_
 _symmetry_equiv_pos_site_id
 _symmetry_equiv_pos_as_xyz
  1  'x, y, z'
loop_
 _atom_site_type_symbol
 _atom_site_label
 _atom_site_symmetry_multiplicity
 _atom_site_fract_x
 _atom_site_fract_y
 _atom_site_fract_z
 _atom_site_occupancy
  Tb  Tb0  1  0.000000  0.500396  0.499438  1
  Ho  Ho1  1  0.000000  0.999700  0.999927  1
  Ho  Ho2  1  0.000000  0.742054  0.281055  1
  Ho  Ho3  1  0.000000  0.260248  0.720155  1
  Ho  Ho4  1  0.000000  0.757132  0.781033  1
  Ho  Ho5  1  0.000000  0.241706  0.219109  1
  Ho  Ho6  1  0.000000  0.612074  0.083711  1
  Ho  Ho7  1  0.000000  0.387859  0.916915  1
  Ho  Ho8  1  0.000000  0.885042  0.583720  1
  Ho  Ho9  1  0.000000  0.112750  0.415900  1
  Cd  Cd10  1  0.500000  0.712070  0.931312  1
  Cd  Cd11  1  0.500000  0.287955  0.068675  1
  Cd  Cd12  1  0.500000  0.787760  0.431255  1
  In  In13  1  0.500000  0.210302  0.568541  1
  In  In14  1  0.500000  0.579973  0.648853  1
  In  In15  1  0.500000  0.422773  0.351242  1
  In  In16  1  0.500000  0.922651  0.147537  1
  In  In17  1  0.500000  0.077665  0.851913  1
  Pd  Pd18  1  0.500000  0.523992  0.196583  1
  Pd  Pd19  1  0.500000  0.475457  0.803396  1
  Pd  Pd20  1  0.500000  0.976172  0.696372  1
  Pd  Pd21  1  0.500000  0.024269  0.303356  1
