# generated using pymatgen
data_Ti8Al15Pt5Rh2
_symmetry_space_group_name_H-M   'P 1'
_cell_length_a   8.68890367
_cell_length_b   8.68890340
_cell_length_c   8.68890396
_cell_angle_alpha   120.03283475
_cell_angle_beta   119.71915436
_cell_angle_gamma   90.21513889
_symmetry_Int_Tables_number   1
_chemical_formula_structural   Ti8Al15Pt5Rh2
_chemical_formula_sum   'Ti8 Al15 Pt5 Rh2'
_cell_volume   464.71406140
_cell_formula_units_Z   1
loop_
 _symmetry_equiv_pos_site_id
 _symmetry_equiv_pos_as_xyz
  1  'x, y, z'
loop_
 _atom_site_type_symbol
 _atom_site_label
 _atom_site_symmetry_multiplicity
 _atom_site_fract_x
 _atom_site_fract_y
 _atom_site_fract_z
 _atom_site_occupancy
  Ti  Ti0  1  0.788234  0.290785  0.076966  1
  Ti  Ti1  1  0.213819  0.290785  0.502552  1
  Ti  Ti2  1  0.211292  0.711292  0.500000  1
  Ti  Ti3  1  0.213819  0.711267  0.923034  1
  Ti  Ti4  1  0.788234  0.711267  0.497448  1
  Ti  Ti5  1  0.785505  0.285505  0.500000  1
  Ti  Ti6  1  0.380127  0.120863  0.740736  1
  Ti  Ti7  1  0.380127  0.639390  0.259264  1
  Al  Al8  1  0.998453  0.498453  0.500000  1
  Al  Al9  1  0.154472  0.342275  0.187802  1
  Al  Al10  1  0.154472  0.966670  0.812198  1
  Al  Al11  1  0.155018  0.343666  0.811351  1
  Al  Al12  1  0.532313  0.343666  0.188649  1
  Al  Al13  1  0.847332  0.657860  0.810530  1
  Al  Al14  1  0.847332  0.036802  0.189470  1
  Al  Al15  1  0.845102  0.655838  0.189264  1
  Al  Al16  1  0.466574  0.655838  0.810736  1
  Al  Al17  1  0.374052  0.117507  0.256544  1
  Al  Al18  1  0.860964  0.117507  0.743456  1
  Al  Al19  1  0.620999  0.879464  0.258465  1
  Al  Al20  1  0.620999  0.362534  0.741535  1
  Al  Al21  1  0.625983  0.881135  0.744848  1
  Al  Al22  1  0.136286  0.881135  0.255152  1
  Pt  Pt23  1  0.998523  0.999434  0.499089  1
  Pt  Pt24  1  0.500345  0.999434  0.000911  1
  Pt  Pt25  1  0.500769  0.500769  0.000000  1
  Pt  Pt26  1  0.500345  0.499433  0.500911  1
  Pt  Pt27  1  0.998523  0.499433  0.999089  1
  Rh  Rh28  1  0.000997  0.000997  0.000000  1
  Rh  Rh29  1  0.498987  0.998987  0.500000  1
