# generated using pymatgen
data_LiTb3Tl(InPd)2
_symmetry_space_group_name_H-M   'P 1'
_cell_length_a   7.88105363
_cell_length_b   7.88105474
_cell_length_c   3.74387000
_cell_angle_alpha   90.00000000
_cell_angle_beta   90.00000000
_cell_angle_gamma   119.95409782
_symmetry_Int_Tables_number   1
_chemical_formula_structural   LiTb3Tl(InPd)2
_chemical_formula_sum   'Li1 Tb3 Tl1 In2 Pd2'
_cell_volume   201.47479021
_cell_formula_units_Z   1
loop_
 _symmetry_equiv_pos_site_id
 _symmetry_equiv_pos_as_xyz
  1  'x, y, z'
loop_
 _atom_site_type_symbol
 _atom_site_label
 _atom_site_symmetry_multiplicity
 _atom_site_fract_x
 _atom_site_fract_y
 _atom_site_fract_z
 _atom_site_occupancy
  Li  Li0  1  0.999870  0.999870  0.500000  1
  Tb  Tb1  1  0.585820  0.000623  0.500000  1
  Tb  Tb2  1  0.413945  0.413945  0.500000  1
  Tb  Tb3  1  0.000623  0.585820  0.500000  1
  Tl  Tl4  1  0.744367  0.744367  0.000000  1
  In  In5  1  0.257885  0.000831  0.000000  1
  In  In6  1  0.000831  0.257885  0.000000  1
  Pd  Pd7  1  0.666076  0.330584  0.000000  1
  Pd  Pd8  1  0.330584  0.666076  0.000000  1
