# generated using pymatgen
data_Ho4Al13Ga5Ir5Pt
_symmetry_space_group_name_H-M   'P 1'
_cell_length_a   7.54252742
_cell_length_b   7.54352792
_cell_length_c   9.53853293
_cell_angle_alpha   89.98337259
_cell_angle_beta   89.96684248
_cell_angle_gamma   119.70403655
_symmetry_Int_Tables_number   1
_chemical_formula_structural   Ho4Al13Ga5Ir5Pt
_chemical_formula_sum   'Ho4 Al13 Ga5 Ir5 Pt1'
_cell_volume   471.40148113
_cell_formula_units_Z   1
loop_
 _symmetry_equiv_pos_site_id
 _symmetry_equiv_pos_as_xyz
  1  'x, y, z'
loop_
 _atom_site_type_symbol
 _atom_site_label
 _atom_site_symmetry_multiplicity
 _atom_site_fract_x
 _atom_site_fract_y
 _atom_site_fract_z
 _atom_site_occupancy
  Ho  Ho0  1  0.995389  0.670075  0.250662  1
  Ho  Ho1  1  0.000374  0.326376  0.749426  1
  Ho  Ho2  1  0.670360  0.996633  0.250584  1
  Ho  Ho3  1  0.330535  0.005780  0.749367  1
  Al  Al4  1  0.005079  0.334767  0.074896  1
  Al  Al5  1  0.002805  0.668765  0.925010  1
  Al  Al6  1  0.000274  0.665279  0.573315  1
  Al  Al7  1  0.334929  0.000976  0.427235  1
  Al  Al8  1  0.001733  0.334497  0.426548  1
  Al  Al9  1  0.665019  0.998591  0.573807  1
  Al  Al10  1  0.664978  0.995302  0.924757  1
  Al  Al11  1  0.331502  0.998484  0.074429  1
  Al  Al12  1  0.333253  0.333560  0.558058  1
  Al  Al13  1  0.666511  0.666336  0.446134  1
  Al  Al14  1  0.665722  0.668592  0.056282  1
  Al  Al15  1  0.330788  0.334101  0.939485  1
  Al  Al16  1  0.449334  0.661036  0.749628  1
  Ga  Ga17  1  0.128065  0.127445  0.250226  1
  Ga  Ga18  1  0.870957  0.869640  0.749804  1
  Ga  Ga19  1  0.339960  0.549016  0.250369  1
  Ga  Ga20  1  0.661221  0.456097  0.747555  1
  Ga  Ga21  1  0.546033  0.340227  0.252424  1
  Ir  Ir22  1  0.329426  0.671356  0.997837  1
  Ir  Ir23  1  0.329471  0.671386  0.502160  1
  Ir  Ir24  1  0.672568  0.327816  0.499917  1
  Ir  Ir25  1  0.000364  0.000232  0.000036  1
  Ir  Ir26  1  0.000632  0.000033  0.500006  1
  Pt  Pt27  1  0.672720  0.327601  0.000043  1
