# generated using pymatgen
data_ScTiCuS4
_symmetry_space_group_name_H-M   'P 1'
_cell_length_a   7.23337957
_cell_length_b   7.23337957
_cell_length_c   7.23337911
_cell_angle_alpha   120.71433565
_cell_angle_beta   119.19569789
_cell_angle_gamma   90.08296024
_symmetry_Int_Tables_number   1
_chemical_formula_structural   ScTiCuS4
_chemical_formula_sum   'Sc2 Ti2 Cu2 S8'
_cell_volume   267.73689656
_cell_formula_units_Z   2
loop_
 _symmetry_equiv_pos_site_id
 _symmetry_equiv_pos_as_xyz
  1  'x, y, z'
loop_
 _atom_site_type_symbol
 _atom_site_label
 _atom_site_symmetry_multiplicity
 _atom_site_fract_x
 _atom_site_fract_y
 _atom_site_fract_z
 _atom_site_occupancy
  Sc  Sc0  1  0.000000  0.000000  0.000000  1
  Sc  Sc1  1  0.500000  0.000000  0.500000  1
  Ti  Ti2  1  0.000000  0.000000  0.500000  1
  Ti  Ti3  1  0.000000  0.500000  0.000000  1
  Cu  Cu4  1  0.377067  0.627067  0.750000  1
  Cu  Cu5  1  0.622933  0.372933  0.250000  1
  S  S6  1  0.238777  0.740335  0.001558  1
  S  S7  1  0.238777  0.237220  0.498442  1
  S  S8  1  0.231666  0.748279  0.483387  1
  S  S9  1  0.764893  0.748279  0.016613  1
  S  S10  1  0.761223  0.259665  0.998442  1
  S  S11  1  0.761223  0.762780  0.501558  1
  S  S12  1  0.768334  0.251721  0.516613  1
  S  S13  1  0.235107  0.251721  0.983387  1
