# generated using pymatgen
data_CeYTh(SnRh)3
_symmetry_space_group_name_H-M   'P 1'
_cell_length_a   7.56642181
_cell_length_b   7.52362909
_cell_length_c   4.04085000
_cell_angle_alpha   90.00000000
_cell_angle_beta   90.00000000
_cell_angle_gamma   120.41511513
_symmetry_Int_Tables_number   1
_chemical_formula_structural   CeYTh(SnRh)3
_chemical_formula_sum   'Ce1 Y1 Th1 Sn3 Rh3'
_cell_volume   198.37612500
_cell_formula_units_Z   1
loop_
 _symmetry_equiv_pos_site_id
 _symmetry_equiv_pos_as_xyz
  1  'x, y, z'
loop_
 _atom_site_type_symbol
 _atom_site_label
 _atom_site_symmetry_multiplicity
 _atom_site_fract_x
 _atom_site_fract_y
 _atom_site_fract_z
 _atom_site_occupancy
  Ce  Ce0  1  0.999764  0.412332  0.500000  1
  Y  Y1  1  0.592489  0.593008  0.500000  1
  Th  Th2  1  0.413805  0.000202  0.500000  1
  Sn  Sn3  1  0.751624  0.994239  0.000000  1
  Sn  Sn4  1  0.988949  0.740251  0.000000  1
  Sn  Sn5  1  0.258930  0.264266  0.000000  1
  Rh  Rh6  1  0.323701  0.672800  0.000000  1
  Rh  Rh7  1  0.662793  0.319766  0.000000  1
  Rh  Rh8  1  0.007946  0.003137  0.500000  1
