# generated using pymatgen
data_TbYb4U5O18
_symmetry_space_group_name_H-M   'P 1'
_cell_length_a   6.81436042
_cell_length_b   7.49899406
_cell_length_c   8.42079259
_cell_angle_alpha   99.08893241
_cell_angle_beta   98.42701052
_cell_angle_gamma   107.83025019
_symmetry_Int_Tables_number   1
_chemical_formula_structural   TbYb4U5O18
_chemical_formula_sum   'Tb1 Yb4 U5 O18'
_cell_volume   395.70603016
_cell_formula_units_Z   1
loop_
 _symmetry_equiv_pos_site_id
 _symmetry_equiv_pos_as_xyz
  1  'x, y, z'
loop_
 _atom_site_type_symbol
 _atom_site_label
 _atom_site_symmetry_multiplicity
 _atom_site_fract_x
 _atom_site_fract_y
 _atom_site_fract_z
 _atom_site_occupancy
  Tb  Tb0  1  0.797280  0.105881  0.579732  1
  Yb  Yb1  1  0.593724  0.697121  0.194711  1
  Yb  Yb2  1  0.405274  0.302859  0.804023  1
  Yb  Yb3  1  0.206009  0.896098  0.419105  1
  Yb  Yb4  1  0.002391  0.507969  0.006452  1
  U  U5  1  0.999213  0.998251  0.001718  1
  U  U6  1  0.790856  0.581303  0.591460  1
  U  U7  1  0.625776  0.205425  0.189474  1
  U  U8  1  0.373367  0.793809  0.807368  1
  U  U9  1  0.211522  0.422156  0.409320  1
  O  O10  1  0.820209  0.806615  0.474459  1
  O  O11  1  0.999673  0.255121  0.164386  1
  O  O12  1  0.670371  0.418305  0.061381  1
  O  O13  1  0.471534  0.999271  0.673734  1
  O  O14  1  0.860197  0.336861  0.429136  1
  O  O15  1  0.510020  0.410933  0.343380  1
  O  O16  1  0.255517  0.624507  0.276028  1
  O  O17  1  0.986119  0.829116  0.166776  1
  O  O18  1  0.657051  0.925198  0.006483  1
  O  O19  1  0.340980  0.072861  0.992032  1
  O  O20  1  0.008708  0.161726  0.828501  1
  O  O21  1  0.746074  0.373086  0.723620  1
  O  O22  1  0.491891  0.588114  0.657041  1
  O  O23  1  0.138316  0.662280  0.572544  1
  O  O24  1  0.542235  0.000683  0.325142  1
  O  O25  1  0.326222  0.580290  0.936088  1
  O  O26  1  0.997210  0.744142  0.835866  1
  O  O27  1  0.172259  0.200019  0.530040  1
