# generated using pymatgen
data_Tb2FeCoSi2C
_symmetry_space_group_name_H-M   'P 1'
_cell_length_a   5.62439024
_cell_length_b   5.62439014
_cell_length_c   6.80873326
_cell_angle_alpha   126.56748868
_cell_angle_beta   126.56749188
_cell_angle_gamma   40.59974147
_symmetry_Int_Tables_number   1
_chemical_formula_structural   Tb2FeCoSi2C
_chemical_formula_sum   'Tb2 Fe1 Co1 Si2 C1'
_cell_volume   108.25486068
_cell_formula_units_Z   1
loop_
 _symmetry_equiv_pos_site_id
 _symmetry_equiv_pos_as_xyz
  1  'x, y, z'
loop_
 _atom_site_type_symbol
 _atom_site_label
 _atom_site_symmetry_multiplicity
 _atom_site_fract_x
 _atom_site_fract_y
 _atom_site_fract_z
 _atom_site_occupancy
  Tb  Tb0  1  0.561480  0.561480  0.294345  1
  Tb  Tb1  1  0.437868  0.437868  0.704853  1
  Fe  Fe2  1  0.199164  0.199164  0.088168  1
  Co  Co3  1  0.799201  0.799201  0.909598  1
  Si  Si4  1  0.840182  0.840182  0.289335  1
  Si  Si5  1  0.159017  0.159017  0.710303  1
  C  C6  1  0.003088  0.003088  0.003398  1
