# generated using pymatgen
data_TbTh(Co3Si2)2
_symmetry_space_group_name_H-M   'P 1'
_cell_length_a   6.31429587
_cell_length_b   6.31429696
_cell_length_c   6.31429591
_cell_angle_alpha   130.22646834
_cell_angle_beta   113.93516468
_cell_angle_gamma   87.04720397
_symmetry_Int_Tables_number   1
_chemical_formula_structural   TbTh(Co3Si2)2
_chemical_formula_sum   'Tb1 Th1 Co6 Si4'
_cell_volume   167.50084196
_cell_formula_units_Z   1
loop_
 _symmetry_equiv_pos_site_id
 _symmetry_equiv_pos_as_xyz
  1  'x, y, z'
loop_
 _atom_site_type_symbol
 _atom_site_label
 _atom_site_symmetry_multiplicity
 _atom_site_fract_x
 _atom_site_fract_y
 _atom_site_fract_z
 _atom_site_occupancy
  Tb  Tb0  1  0.750000  0.459459  0.709459  1
  Th  Th1  1  0.250000  0.535319  0.285319  1
  Co  Co2  1  0.012794  0.000888  0.513682  1
  Co  Co3  1  0.487206  0.000888  0.988096  1
  Co  Co4  1  0.722438  0.999620  0.721542  1
  Co  Co5  1  0.221922  0.499104  0.721542  1
  Co  Co6  1  0.278078  0.999620  0.277183  1
  Co  Co7  1  0.777562  0.499104  0.277183  1
  Si  Si8  1  0.071434  0.869096  0.797661  1
  Si  Si9  1  0.908406  0.113743  0.205336  1
  Si  Si10  1  0.591594  0.796930  0.205336  1
  Si  Si11  1  0.428566  0.226227  0.797661  1
