# generated using pymatgen
data_Dy3Y13MgHg3Ir4
_symmetry_space_group_name_H-M   'P 1'
_cell_length_a   9.65579936
_cell_length_b   9.66089707
_cell_length_c   9.66089700
_cell_angle_alpha   59.99999681
_cell_angle_beta   59.98253107
_cell_angle_gamma   59.98252758
_symmetry_Int_Tables_number   1
_chemical_formula_structural   Dy3Y13MgHg3Ir4
_chemical_formula_sum   'Dy3 Y13 Mg1 Hg3 Ir4'
_cell_volume   637.07915780
_cell_formula_units_Z   1
loop_
 _symmetry_equiv_pos_site_id
 _symmetry_equiv_pos_as_xyz
  1  'x, y, z'
loop_
 _atom_site_type_symbol
 _atom_site_label
 _atom_site_symmetry_multiplicity
 _atom_site_fract_x
 _atom_site_fract_y
 _atom_site_fract_z
 _atom_site_occupancy
  Dy  Dy0  1  0.600171  0.598204  0.598204  1
  Dy  Dy1  1  0.600171  0.598204  0.203420  1
  Dy  Dy2  1  0.600171  0.203420  0.598204  1
  Y  Y3  1  0.192812  0.602396  0.602396  1
  Y  Y4  1  0.059296  0.440478  0.440478  1
  Y  Y5  1  0.437020  0.062195  0.062195  1
  Y  Y6  1  0.437020  0.062195  0.438589  1
  Y  Y7  1  0.059296  0.440478  0.059746  1
  Y  Y8  1  0.437020  0.438589  0.062195  1
  Y  Y9  1  0.059296  0.059746  0.440478  1
  Y  Y10  1  0.185854  0.812875  0.812875  1
  Y  Y11  1  0.811857  0.187462  0.187462  1
  Y  Y12  1  0.811857  0.187462  0.813219  1
  Y  Y13  1  0.185854  0.812875  0.188397  1
  Y  Y14  1  0.811857  0.813219  0.187462  1
  Y  Y15  1  0.185854  0.188397  0.812875  1
  Mg  Mg16  1  0.536194  0.821269  0.821269  1
  Hg  Hg17  1  0.830926  0.836255  0.836255  1
  Hg  Hg18  1  0.830926  0.836255  0.496564  1
  Hg  Hg19  1  0.830926  0.496564  0.836255  1
  Ir  Ir20  1  0.390907  0.393194  0.393194  1
  Ir  Ir21  1  0.390907  0.393194  0.822705  1
  Ir  Ir22  1  0.390907  0.822705  0.393194  1
  Ir  Ir23  1  0.822899  0.392367  0.392367  1
