# generated using pymatgen
data_Dy3Tm13(AlRh)4
_symmetry_space_group_name_H-M   'P 1'
_cell_length_a   9.42395303
_cell_length_b   9.41701316
_cell_length_c   9.42434855
_cell_angle_alpha   60.02297558
_cell_angle_beta   59.94989290
_cell_angle_gamma   59.99932700
_symmetry_Int_Tables_number   1
_chemical_formula_structural   Dy3Tm13(AlRh)4
_chemical_formula_sum   'Dy3 Tm13 Al4 Rh4'
_cell_volume   591.27700515
_cell_formula_units_Z   1
loop_
 _symmetry_equiv_pos_site_id
 _symmetry_equiv_pos_as_xyz
  1  'x, y, z'
loop_
 _atom_site_type_symbol
 _atom_site_label
 _atom_site_symmetry_multiplicity
 _atom_site_fract_x
 _atom_site_fract_y
 _atom_site_fract_z
 _atom_site_occupancy
  Dy  Dy0  1  0.063047  0.063047  0.436953  1
  Dy  Dy1  1  0.436159  0.064445  0.436269  1
  Dy  Dy2  1  0.064445  0.436159  0.063127  1
  Tm  Tm3  1  0.058668  0.645490  0.647845  1
  Tm  Tm4  1  0.437290  0.437290  0.062710  1
  Tm  Tm5  1  0.645490  0.058668  0.647999  1
  Tm  Tm6  1  0.193581  0.807082  0.191751  1
  Tm  Tm7  1  0.192156  0.192156  0.807844  1
  Tm  Tm8  1  0.807278  0.807278  0.192722  1
  Tm  Tm9  1  0.437673  0.062745  0.061555  1
  Tm  Tm10  1  0.807498  0.193240  0.191337  1
  Tm  Tm11  1  0.062745  0.437673  0.438027  1
  Tm  Tm12  1  0.807082  0.193581  0.807586  1
  Tm  Tm13  1  0.193240  0.807498  0.807925  1
  Tm  Tm14  1  0.647301  0.647157  0.056163  1
  Tm  Tm15  1  0.647157  0.647301  0.649381  1
  Al  Al16  1  0.421867  0.422313  0.422011  1
  Al  Al17  1  0.732196  0.422711  0.422820  1
  Al  Al18  1  0.422711  0.732196  0.422273  1
  Al  Al19  1  0.422313  0.421867  0.733809  1
  Rh  Rh20  1  0.857940  0.856873  0.427805  1
  Rh  Rh21  1  0.856873  0.857940  0.857380  1
  Rh  Rh22  1  0.428019  0.857273  0.857885  1
  Rh  Rh23  1  0.857273  0.428019  0.856822  1
