# generated using pymatgen
data_Dy8SiGeI12
_symmetry_space_group_name_H-M   'P 1'
_cell_length_a   4.21027700
_cell_length_b   14.01007302
_cell_length_c   14.78804102
_cell_angle_alpha   90.00549931
_cell_angle_beta   90.00000000
_cell_angle_gamma   90.00000000
_symmetry_Int_Tables_number   1
_chemical_formula_structural   Dy8SiGeI12
_chemical_formula_sum   'Dy8 Si1 Ge1 I12'
_cell_volume   872.29164515
_cell_formula_units_Z   1
loop_
 _symmetry_equiv_pos_site_id
 _symmetry_equiv_pos_as_xyz
  1  'x, y, z'
loop_
 _atom_site_type_symbol
 _atom_site_label
 _atom_site_symmetry_multiplicity
 _atom_site_fract_x
 _atom_site_fract_y
 _atom_site_fract_z
 _atom_site_occupancy
  Dy  Dy0  1  0.500000  0.114656  0.346893  1
  Dy  Dy1  1  0.500000  0.885344  0.653107  1
  Dy  Dy2  1  0.500000  0.613903  0.152101  1
  Dy  Dy3  1  0.500000  0.386097  0.847899  1
  Dy  Dy4  1  0.000000  0.112073  0.574981  1
  Dy  Dy5  1  0.000000  0.887927  0.425019  1
  Dy  Dy6  1  0.000000  0.611083  0.925684  1
  Dy  Dy7  1  0.000000  0.388917  0.074316  1
  Si  Si8  1  0.500000  0.500000  0.000000  1
  Ge  Ge9  1  0.500000  0.000000  0.500000  1
  I  I10  1  0.500000  0.245094  0.161471  1
  I  I11  1  0.500000  0.754906  0.838529  1
  I  I12  1  0.500000  0.745096  0.338551  1
  I  I13  1  0.500000  0.254904  0.661449  1
  I  I14  1  0.000000  0.258383  0.414057  1
  I  I15  1  0.000000  0.741617  0.585943  1
  I  I16  1  0.000000  0.758392  0.086028  1
  I  I17  1  0.000000  0.241608  0.913972  1
  I  I18  1  0.000000  0.999283  0.240742  1
  I  I19  1  0.000000  0.000717  0.759258  1
  I  I20  1  0.000000  0.499361  0.259280  1
  I  I21  1  0.000000  0.500639  0.740720  1
