# generated using pymatgen
data_NaPr5NdRhBr12
_symmetry_space_group_name_H-M   'P 1'
_cell_length_a   9.59582186
_cell_length_b   9.72899331
_cell_length_c   9.60635311
_cell_angle_alpha   107.70923813
_cell_angle_beta   106.97566520
_cell_angle_gamma   107.14540091
_symmetry_Int_Tables_number   1
_chemical_formula_structural   NaPr5NdRhBr12
_chemical_formula_sum   'Na1 Pr5 Nd1 Rh1 Br12'
_cell_volume   741.14909010
_cell_formula_units_Z   1
loop_
 _symmetry_equiv_pos_site_id
 _symmetry_equiv_pos_as_xyz
  1  'x, y, z'
loop_
 _atom_site_type_symbol
 _atom_site_label
 _atom_site_symmetry_multiplicity
 _atom_site_fract_x
 _atom_site_fract_y
 _atom_site_fract_z
 _atom_site_occupancy
  Na  Na0  1  0.499964  0.500052  0.499933  1
  Pr  Pr1  1  0.316372  0.029823  0.110750  1
  Pr  Pr2  1  0.030830  0.111506  0.318708  1
  Pr  Pr3  1  0.969450  0.889402  0.681695  1
  Pr  Pr4  1  0.683714  0.970240  0.889272  1
  Pr  Pr5  1  0.883610  0.670554  0.968455  1
  Nd  Nd6  1  0.115948  0.327823  0.031499  1
  Rh  Rh7  1  0.000162  0.000207  0.000285  1
  Br  Br8  1  0.218167  0.684660  0.072507  1
  Br  Br9  1  0.451887  0.370811  0.155740  1
  Br  Br10  1  0.684479  0.072934  0.218593  1
  Br  Br11  1  0.927444  0.783343  0.316003  1
  Br  Br12  1  0.155774  0.452048  0.369850  1
  Br  Br13  1  0.373894  0.158435  0.455743  1
  Br  Br14  1  0.626165  0.841677  0.544353  1
  Br  Br15  1  0.843994  0.547897  0.627814  1
  Br  Br16  1  0.072925  0.218042  0.686212  1
  Br  Br17  1  0.315557  0.927121  0.781474  1
  Br  Br18  1  0.545763  0.629317  0.843080  1
  Br  Br19  1  0.783907  0.314109  0.928039  1
