# generated using pymatgen
data_Zr3Si2Tc3Ge
_symmetry_space_group_name_H-M   'P 1'
_cell_length_a   7.04266000
_cell_length_b   7.04266009
_cell_length_c   3.44303300
_cell_angle_alpha   90.00000000
_cell_angle_beta   90.00000000
_cell_angle_gamma   120.00000896
_symmetry_Int_Tables_number   1
_chemical_formula_structural   Zr3Si2Tc3Ge
_chemical_formula_sum   'Zr3 Si2 Tc3 Ge1'
_cell_volume   147.89218596
_cell_formula_units_Z   1
loop_
 _symmetry_equiv_pos_site_id
 _symmetry_equiv_pos_as_xyz
  1  'x, y, z'
loop_
 _atom_site_type_symbol
 _atom_site_label
 _atom_site_symmetry_multiplicity
 _atom_site_fract_x
 _atom_site_fract_y
 _atom_site_fract_z
 _atom_site_occupancy
  Zr  Zr0  1  0.405944  0.005798  0.500000  1
  Zr  Zr1  1  0.994202  0.400147  0.500000  1
  Zr  Zr2  1  0.599853  0.594056  0.500000  1
  Si  Si3  1  0.666667  0.333333  0.000000  1
  Si  Si4  1  0.000000  0.000000  0.500000  1
  Tc  Tc5  1  0.750085  0.004471  0.000000  1
  Tc  Tc6  1  0.995529  0.745614  0.000000  1
  Tc  Tc7  1  0.254386  0.249915  0.000000  1
  Ge  Ge8  1  0.333333  0.666667  0.000000  1
