# generated using pymatgen
data_Tb3Dy5Cd2OsPt
_symmetry_space_group_name_H-M   'P 1'
_cell_length_a   9.67624433
_cell_length_b   9.67624451
_cell_length_c   9.73281200
_cell_angle_alpha   59.80642615
_cell_angle_beta   59.80642555
_cell_angle_gamma   59.66498029
_symmetry_Int_Tables_number   1
_chemical_formula_structural   Tb3Dy5Cd2OsPt
_chemical_formula_sum   'Tb6 Dy10 Cd4 Os2 Pt2'
_cell_volume   640.84774492
_cell_formula_units_Z   2
loop_
 _symmetry_equiv_pos_site_id
 _symmetry_equiv_pos_as_xyz
  1  'x, y, z'
loop_
 _atom_site_type_symbol
 _atom_site_label
 _atom_site_symmetry_multiplicity
 _atom_site_fract_x
 _atom_site_fract_y
 _atom_site_fract_z
 _atom_site_occupancy
  Tb  Tb0  1  0.938243  0.556762  0.566392  1
  Tb  Tb1  1  0.556762  0.938243  0.938603  1
  Tb  Tb2  1  0.556762  0.938243  0.566392  1
  Tb  Tb3  1  0.938243  0.556762  0.938603  1
  Tb  Tb4  1  0.563682  0.563682  0.936318  1
  Tb  Tb5  1  0.939987  0.939987  0.560013  1
  Dy  Dy6  1  0.349463  0.349463  0.352196  1
  Dy  Dy7  1  0.349463  0.349463  0.948878  1
  Dy  Dy8  1  0.346089  0.954846  0.349532  1
  Dy  Dy9  1  0.954846  0.346089  0.349532  1
  Dy  Dy10  1  0.814675  0.187963  0.190400  1
  Dy  Dy11  1  0.187963  0.814675  0.806962  1
  Dy  Dy12  1  0.187963  0.814675  0.190400  1
  Dy  Dy13  1  0.814675  0.187963  0.806962  1
  Dy  Dy14  1  0.188217  0.188217  0.811783  1
  Dy  Dy15  1  0.808572  0.808572  0.191428  1
  Cd  Cd16  1  0.580236  0.580236  0.581264  1
  Cd  Cd17  1  0.580236  0.580236  0.258263  1
  Cd  Cd18  1  0.580996  0.255884  0.581560  1
  Cd  Cd19  1  0.255884  0.580996  0.581560  1
  Os  Os20  1  0.144029  0.144029  0.137478  1
  Os  Os21  1  0.144029  0.144029  0.574465  1
  Pt  Pt22  1  0.144540  0.574448  0.140507  1
  Pt  Pt23  1  0.574448  0.144540  0.140507  1
