# generated using pymatgen
data_Tb8Er7Sc5Sn16
_symmetry_space_group_name_H-M   'P 1'
_cell_length_a   7.87180012
_cell_length_b   8.06707888
_cell_length_c   15.25237489
_cell_angle_alpha   90.16969758
_cell_angle_beta   89.74085098
_cell_angle_gamma   90.01387867
_symmetry_Int_Tables_number   1
_chemical_formula_structural   Tb8Er7Sc5Sn16
_chemical_formula_sum   'Tb8 Er7 Sc5 Sn16'
_cell_volume   968.54872600
_cell_formula_units_Z   1
loop_
 _symmetry_equiv_pos_site_id
 _symmetry_equiv_pos_as_xyz
  1  'x, y, z'
loop_
 _atom_site_type_symbol
 _atom_site_label
 _atom_site_symmetry_multiplicity
 _atom_site_fract_x
 _atom_site_fract_y
 _atom_site_fract_z
 _atom_site_occupancy
  Tb  Tb0  1  0.517444  0.321017  0.904780  1
  Tb  Tb1  1  0.019372  0.178639  0.596801  1
  Tb  Tb2  1  0.481337  0.679077  0.404503  1
  Tb  Tb3  1  0.981439  0.820810  0.094794  1
  Tb  Tb4  1  0.482701  0.679719  0.093611  1
  Tb  Tb5  1  0.981290  0.820514  0.404097  1
  Tb  Tb6  1  0.518556  0.320761  0.597405  1
  Tb  Tb7  1  0.016832  0.178285  0.904528  1
  Er  Er8  1  0.860255  0.661438  0.626148  1
  Er  Er9  1  0.639334  0.160923  0.375489  1
  Er  Er10  1  0.142687  0.338293  0.121838  1
  Er  Er11  1  0.640679  0.161525  0.124477  1
  Er  Er12  1  0.139659  0.338798  0.375616  1
  Er  Er13  1  0.361216  0.839107  0.625145  1
  Er  Er14  1  0.860439  0.660621  0.876310  1
  Sc  Sc15  1  0.357946  0.839456  0.872855  1
  Sc  Sc16  1  0.191594  0.504203  0.750734  1
  Sc  Sc17  1  0.689700  0.994975  0.750897  1
  Sc  Sc18  1  0.809754  0.495768  0.250012  1
  Sc  Sc19  1  0.309117  0.003344  0.249437  1
  Sn  Sn20  1  0.303099  0.034963  0.039189  1
  Sn  Sn21  1  0.799088  0.462234  0.457087  1
  Sn  Sn22  1  0.701841  0.962126  0.544103  1
  Sn  Sn23  1  0.204054  0.545692  0.954693  1
  Sn  Sn24  1  0.689653  0.959965  0.955296  1
  Sn  Sn25  1  0.200576  0.537740  0.544408  1
  Sn  Sn26  1  0.298665  0.037782  0.456451  1
  Sn  Sn27  1  0.801228  0.461572  0.043786  1
  Sn  Sn28  1  0.550609  0.621733  0.752821  1
  Sn  Sn29  1  0.055413  0.881619  0.752668  1
  Sn  Sn30  1  0.447353  0.383349  0.249704  1
  Sn  Sn31  1  0.948220  0.117485  0.248982  1
  Sn  Sn32  1  0.327049  0.151295  0.751861  1
  Sn  Sn33  1  0.826189  0.346482  0.751106  1
  Sn  Sn34  1  0.672583  0.845858  0.249443  1
  Sn  Sn35  1  0.173028  0.652833  0.248922  1
