# generated using pymatgen
data_Tb9Y11Sn15Te
_symmetry_space_group_name_H-M   'P 1'
_cell_length_a   8.07348681
_cell_length_b   8.19388922
_cell_length_c   15.46068500
_cell_angle_alpha   90.09893695
_cell_angle_beta   90.43324850
_cell_angle_gamma   90.04831687
_symmetry_Int_Tables_number   1
_chemical_formula_structural   Tb9Y11Sn15Te
_chemical_formula_sum   'Tb9 Y11 Sn15 Te1'
_cell_volume   1022.74352163
_cell_formula_units_Z   1
loop_
 _symmetry_equiv_pos_site_id
 _symmetry_equiv_pos_as_xyz
  1  'x, y, z'
loop_
 _atom_site_type_symbol
 _atom_site_label
 _atom_site_symmetry_multiplicity
 _atom_site_fract_x
 _atom_site_fract_y
 _atom_site_fract_z
 _atom_site_occupancy
  Tb  Tb0  1  0.870801  0.663539  0.878468  1
  Tb  Tb1  1  0.531194  0.330731  0.897875  1
  Tb  Tb2  1  0.021189  0.178546  0.597590  1
  Tb  Tb3  1  0.479355  0.678095  0.402257  1
  Tb  Tb4  1  0.967740  0.818358  0.101368  1
  Tb  Tb5  1  0.478253  0.670359  0.099221  1
  Tb  Tb6  1  0.979283  0.821265  0.402252  1
  Tb  Tb7  1  0.520500  0.320744  0.597502  1
  Tb  Tb8  1  0.019692  0.181886  0.899215  1
  Y  Y9  1  0.371858  0.837041  0.878809  1
  Y  Y10  1  0.867221  0.663437  0.622586  1
  Y  Y11  1  0.633713  0.162452  0.376510  1
  Y  Y12  1  0.127210  0.341418  0.122284  1
  Y  Y13  1  0.632047  0.162747  0.120798  1
  Y  Y14  1  0.133659  0.337115  0.376646  1
  Y  Y15  1  0.366952  0.837637  0.622713  1
  Y  Y16  1  0.198955  0.501473  0.749362  1
  Y  Y17  1  0.698497  0.998515  0.750079  1
  Y  Y18  1  0.801174  0.498547  0.250979  1
  Y  Y19  1  0.301780  0.000657  0.254196  1
  Sn  Sn20  1  0.793758  0.462658  0.458280  1
  Sn  Sn21  1  0.707085  0.963187  0.541215  1
  Sn  Sn22  1  0.213271  0.533879  0.958337  1
  Sn  Sn23  1  0.713715  0.966677  0.957853  1
  Sn  Sn24  1  0.206611  0.536818  0.541248  1
  Sn  Sn25  1  0.294020  0.037070  0.458789  1
  Sn  Sn26  1  0.790512  0.464538  0.042342  1
  Sn  Sn27  1  0.565744  0.620563  0.750136  1
  Sn  Sn28  1  0.066738  0.881100  0.751803  1
  Sn  Sn29  1  0.434759  0.378732  0.247772  1
  Sn  Sn30  1  0.935347  0.118955  0.247787  1
  Sn  Sn31  1  0.330993  0.147042  0.750427  1
  Sn  Sn32  1  0.831090  0.353964  0.748748  1
  Sn  Sn33  1  0.666889  0.852683  0.249570  1
  Sn  Sn34  1  0.168930  0.647309  0.249875  1
  Te  Te35  1  0.279463  0.030265  0.045110  1
