# generated using pymatgen
data_Hf5Sc(Tc2W)6
_symmetry_space_group_name_H-M   'P 1'
_cell_length_a   4.48440500
_cell_length_b   6.37600200
_cell_length_c   13.57881200
_cell_angle_alpha   90.00000000
_cell_angle_beta   90.00000000
_cell_angle_gamma   90.00000000
_symmetry_Int_Tables_number   1
_chemical_formula_structural   Hf5Sc(Tc2W)6
_chemical_formula_sum   'Hf5 Sc1 Tc12 W6'
_cell_volume   388.25320390
_cell_formula_units_Z   1
loop_
 _symmetry_equiv_pos_site_id
 _symmetry_equiv_pos_as_xyz
  1  'x, y, z'
loop_
 _atom_site_type_symbol
 _atom_site_label
 _atom_site_symmetry_multiplicity
 _atom_site_fract_x
 _atom_site_fract_y
 _atom_site_fract_z
 _atom_site_occupancy
  Hf  Hf0  1  0.999998  0.000000  0.998970  1
  Hf  Hf1  1  0.499935  0.500000  0.166126  1
  Hf  Hf2  1  0.999925  0.000000  0.333330  1
  Hf  Hf3  1  0.500008  0.500000  0.500542  1
  Hf  Hf4  1  0.000078  0.000000  0.667698  1
  Sc  Sc5  1  0.500147  0.500000  0.833346  1
  Tc  Tc6  1  0.499997  0.250166  0.000455  1
  Tc  Tc7  1  0.499997  0.749835  0.000455  1
  Tc  Tc8  1  0.999935  0.249331  0.166899  1
  Tc  Tc9  1  0.999935  0.750668  0.166899  1
  Tc  Tc10  1  0.499935  0.250848  0.333333  1
  Tc  Tc11  1  0.499935  0.749151  0.333333  1
  Tc  Tc12  1  0.000006  0.249331  0.499766  1
  Tc  Tc13  1  0.000006  0.750668  0.499766  1
  Tc  Tc14  1  0.500070  0.250157  0.666210  1
  Tc  Tc15  1  0.500070  0.749842  0.666210  1
  Tc  Tc16  1  0.000063  0.250662  0.833333  1
  Tc  Tc17  1  0.000063  0.749337  0.833333  1
  W  W18  1  0.999994  0.500000  0.998178  1
  W  W19  1  0.499933  0.000000  0.165582  1
  W  W20  1  0.999942  0.500000  0.333334  1
  W  W21  1  0.500001  0.000000  0.501080  1
  W  W22  1  0.000062  0.500000  0.668484  1
  W  W23  1  0.500067  0.000000  0.833337  1
