# generated using pymatgen
data_Li2Mg2ScNi9As7
_symmetry_space_group_name_H-M   'P 1'
_cell_length_a   9.54597767
_cell_length_b   9.51315197
_cell_length_c   3.81562200
_cell_angle_alpha   90.00000000
_cell_angle_beta   90.00000000
_cell_angle_gamma   119.80930714
_symmetry_Int_Tables_number   1
_chemical_formula_structural   Li2Mg2ScNi9As7
_chemical_formula_sum   'Li2 Mg2 Sc1 Ni9 As7'
_cell_volume   300.65756735
_cell_formula_units_Z   1
loop_
 _symmetry_equiv_pos_site_id
 _symmetry_equiv_pos_as_xyz
  1  'x, y, z'
loop_
 _atom_site_type_symbol
 _atom_site_label
 _atom_site_symmetry_multiplicity
 _atom_site_fract_x
 _atom_site_fract_y
 _atom_site_fract_z
 _atom_site_occupancy
  Li  Li0  1  0.781124  0.222641  0.500000  1
  Li  Li1  1  0.997088  0.002961  0.500000  1
  Mg  Mg2  1  0.774928  0.558147  0.500000  1
  Mg  Mg3  1  0.443659  0.214957  0.500000  1
  Sc  Sc4  1  0.327012  0.662238  0.000000  1
  Ni  Ni5  1  0.274616  0.381701  0.500000  1
  Ni  Ni6  1  0.625398  0.897847  0.500000  1
  Ni  Ni7  1  0.105285  0.723086  0.500000  1
  Ni  Ni8  1  0.497359  0.455110  0.000000  1
  Ni  Ni9  1  0.544685  0.038882  0.000000  1
  Ni  Ni10  1  0.957571  0.504682  0.000000  1
  Ni  Ni11  1  0.722164  0.760360  0.000000  1
  Ni  Ni12  1  0.246380  0.965759  0.000000  1
  Ni  Ni13  1  0.038595  0.281774  0.000000  1
  As  As14  1  0.976839  0.768473  0.000000  1
  As  As15  1  0.235793  0.210146  0.000000  1
  As  As16  1  0.791018  0.032422  0.000000  1
  As  As17  1  0.669720  0.329024  0.000000  1
  As  As18  1  0.532043  0.622623  0.500000  1
  As  As19  1  0.379884  0.907591  0.500000  1
  As  As20  1  0.078842  0.459578  0.500000  1
