# generated using pymatgen
data_ErCd(CuO2)4
_symmetry_space_group_name_H-M   'P 1'
_cell_length_a   6.24783421
_cell_length_b   6.24783465
_cell_length_c   6.24783449
_cell_angle_alpha   125.70894341
_cell_angle_beta   125.70894740
_cell_angle_gamma   80.36703149
_symmetry_Int_Tables_number   1
_chemical_formula_structural   ErCd(CuO2)4
_chemical_formula_sum   'Er1 Cd1 Cu4 O8'
_cell_volume   155.14625332
_cell_formula_units_Z   1
loop_
 _symmetry_equiv_pos_site_id
 _symmetry_equiv_pos_as_xyz
  1  'x, y, z'
loop_
 _atom_site_type_symbol
 _atom_site_label
 _atom_site_symmetry_multiplicity
 _atom_site_fract_x
 _atom_site_fract_y
 _atom_site_fract_z
 _atom_site_occupancy
  Er  Er0  1  0.750000  0.250000  0.500000  1
  Cd  Cd1  1  0.000000  0.000000  0.000000  1
  Cu  Cu2  1  0.369800  0.625143  0.243596  1
  Cu  Cu3  1  0.374857  0.618453  0.744656  1
  Cu  Cu4  1  0.873797  0.630200  0.255344  1
  Cu  Cu5  1  0.381547  0.126203  0.756404  1
  O  O6  1  0.158402  0.586101  0.848571  1
  O  O7  1  0.737531  0.309831  0.151429  1
  O  O8  1  0.356654  0.983003  0.938213  1
  O  O9  1  0.690169  0.841598  0.427699  1
  O  O10  1  0.044790  0.418440  0.061787  1
  O  O11  1  0.413899  0.262469  0.572301  1
  O  O12  1  0.016997  0.955210  0.373651  1
  O  O13  1  0.581560  0.643346  0.626349  1
