# generated using pymatgen
data_Eu5ErZn23P
_symmetry_space_group_name_H-M   'P 1'
_cell_length_a   9.23924855
_cell_length_b   9.23922677
_cell_length_c   9.23894100
_cell_angle_alpha   60.00119861
_cell_angle_beta   60.00142692
_cell_angle_gamma   59.99773253
_symmetry_Int_Tables_number   1
_chemical_formula_structural   Eu5ErZn23P
_chemical_formula_sum   'Eu5 Er1 Zn23 P1'
_cell_volume   557.67432094
_cell_formula_units_Z   1
loop_
 _symmetry_equiv_pos_site_id
 _symmetry_equiv_pos_as_xyz
  1  'x, y, z'
loop_
 _atom_site_type_symbol
 _atom_site_label
 _atom_site_symmetry_multiplicity
 _atom_site_fract_x
 _atom_site_fract_y
 _atom_site_fract_z
 _atom_site_occupancy
  Eu  Eu0  1  0.715959  0.283430  0.284038  1
  Eu  Eu1  1  0.715932  0.283427  0.716588  1
  Eu  Eu2  1  0.713356  0.713386  0.286636  1
  Eu  Eu3  1  0.283473  0.715895  0.716481  1
  Eu  Eu4  1  0.283381  0.715982  0.284068  1
  Er  Er5  1  0.286556  0.286614  0.713336  1
  Zn  Zn6  1  0.623472  0.125430  0.125562  1
  Zn  Zn7  1  0.125438  0.623462  0.125541  1
  Zn  Zn8  1  0.127235  0.127257  0.626076  1
  Zn  Zn9  1  0.127258  0.127245  0.119454  1
  Zn  Zn10  1  0.373948  0.880580  0.872747  1
  Zn  Zn11  1  0.880582  0.373934  0.872739  1
  Zn  Zn12  1  0.874466  0.874477  0.376536  1
  Zn  Zn13  1  0.874483  0.874454  0.874537  1
  Zn  Zn14  1  0.498311  0.002141  0.997855  1
  Zn  Zn15  1  0.498320  0.002147  0.501683  1
  Zn  Zn16  1  0.499976  0.499965  0.000017  1
  Zn  Zn17  1  0.002129  0.498292  0.501700  1
  Zn  Zn18  1  0.002143  0.498325  0.997865  1
  Zn  Zn19  1  0.999955  0.999993  0.500039  1
  Zn  Zn20  1  0.999478  0.999456  0.000545  1
  Zn  Zn21  1  0.020850  0.326029  0.326588  1
  Zn  Zn22  1  0.326026  0.020865  0.326564  1
  Zn  Zn23  1  0.326802  0.326789  0.017028  1
  Zn  Zn24  1  0.326780  0.326775  0.329404  1
  Zn  Zn25  1  0.982956  0.670622  0.673223  1
  Zn  Zn26  1  0.670625  0.982976  0.673213  1
  Zn  Zn27  1  0.673442  0.673455  0.979138  1
  Zn  Zn28  1  0.673452  0.673424  0.673986  1
  P  P29  1  0.493215  0.493172  0.506812  1
