# generated using pymatgen
data_TbGd3(ReB4)4
_symmetry_space_group_name_H-M   'P 1'
_cell_length_a   3.62969300
_cell_length_b   5.99838301
_cell_length_c   11.60945801
_cell_angle_alpha   89.99863876
_cell_angle_beta   90.00000000
_cell_angle_gamma   90.00000000
_symmetry_Int_Tables_number   1
_chemical_formula_structural   TbGd3(ReB4)4
_chemical_formula_sum   'Tb1 Gd3 Re4 B16'
_cell_volume   252.76447278
_cell_formula_units_Z   1
loop_
 _symmetry_equiv_pos_site_id
 _symmetry_equiv_pos_as_xyz
  1  'x, y, z'
loop_
 _atom_site_type_symbol
 _atom_site_label
 _atom_site_symmetry_multiplicity
 _atom_site_fract_x
 _atom_site_fract_y
 _atom_site_fract_z
 _atom_site_occupancy
  Tb  Tb0  1  0.000000  0.873460  0.849330  1
  Gd  Gd1  1  0.000000  0.626799  0.349513  1
  Gd  Gd2  1  0.000000  0.373723  0.650340  1
  Gd  Gd3  1  0.000000  0.126746  0.150665  1
  Re  Re4  1  0.000000  0.632673  0.087039  1
  Re  Re5  1  0.000000  0.367144  0.912655  1
  Re  Re6  1  0.000000  0.132964  0.412623  1
  Re  Re7  1  0.000000  0.867177  0.587684  1
  B  B8  1  0.500000  0.786090  0.184691  1
  B  B9  1  0.500000  0.213906  0.815297  1
  B  B10  1  0.500000  0.286032  0.315418  1
  B  B11  1  0.500000  0.713730  0.684489  1
  B  B12  1  0.500000  0.862875  0.031706  1
  B  B13  1  0.500000  0.136800  0.968527  1
  B  B14  1  0.500000  0.362881  0.468265  1
  B  B15  1  0.500000  0.637160  0.531515  1
  B  B16  1  0.500000  0.886745  0.453090  1
  B  B17  1  0.500000  0.113283  0.546902  1
  B  B18  1  0.500000  0.386416  0.047134  1
  B  B19  1  0.500000  0.613255  0.953052  1
  B  B20  1  0.500000  0.976403  0.308471  1
  B  B21  1  0.500000  0.023792  0.691682  1
  B  B22  1  0.500000  0.476530  0.191750  1
  B  B23  1  0.500000  0.523416  0.808162  1
