# generated using pymatgen
data_Dy3Y4ThSb20
_symmetry_space_group_name_H-M   'P 1'
_cell_length_a   4.23904900
_cell_length_b   13.21060415
_cell_length_c   14.68569100
_cell_angle_alpha   78.00319710
_cell_angle_beta   90.00000000
_cell_angle_gamma   90.00000000
_symmetry_Int_Tables_number   1
_chemical_formula_structural   Dy3Y4ThSb20
_chemical_formula_sum   'Dy3 Y4 Th1 Sb20'
_cell_volume   804.44257310
_cell_formula_units_Z   1
loop_
 _symmetry_equiv_pos_site_id
 _symmetry_equiv_pos_as_xyz
  1  'x, y, z'
loop_
 _atom_site_type_symbol
 _atom_site_label
 _atom_site_symmetry_multiplicity
 _atom_site_fract_x
 _atom_site_fract_y
 _atom_site_fract_z
 _atom_site_occupancy
  Dy  Dy0  1  0.750000  0.326963  0.424851  1
  Dy  Dy1  1  0.250000  0.952877  0.356157  1
  Dy  Dy2  1  0.750000  0.049649  0.641225  1
  Y  Y3  1  0.250000  0.391947  0.772450  1
  Y  Y4  1  0.750000  0.605020  0.227273  1
  Y  Y5  1  0.250000  0.663267  0.856895  1
  Y  Y6  1  0.750000  0.337041  0.144934  1
  Th  Th7  1  0.250000  0.672150  0.572764  1
  Sb  Sb8  1  0.250000  0.144069  0.778945  1
  Sb  Sb9  1  0.750000  0.855467  0.221084  1
  Sb  Sb10  1  0.250000  0.139182  0.482333  1
  Sb  Sb11  1  0.750000  0.862791  0.515718  1
  Sb  Sb12  1  0.250000  0.151378  0.170892  1
  Sb  Sb13  1  0.750000  0.850363  0.830899  1
  Sb  Sb14  1  0.250000  0.420229  0.976592  1
  Sb  Sb15  1  0.750000  0.579953  0.022792  1
  Sb  Sb16  1  0.750000  0.032819  0.911022  1
  Sb  Sb17  1  0.250000  0.969722  0.091280  1
  Sb  Sb18  1  0.750000  0.137732  0.320615  1
  Sb  Sb19  1  0.250000  0.864453  0.683282  1
  Sb  Sb20  1  0.750000  0.278804  0.939247  1
  Sb  Sb21  1  0.250000  0.721496  0.060610  1
  Sb  Sb22  1  0.750000  0.284387  0.655256  1
  Sb  Sb23  1  0.250000  0.714783  0.343486  1
  Sb  Sb24  1  0.750000  0.576971  0.734270  1
  Sb  Sb25  1  0.250000  0.422367  0.267298  1
  Sb  Sb26  1  0.750000  0.568736  0.445089  1
  Sb  Sb27  1  0.250000  0.425383  0.552744  1
