# generated using pymatgen
data_Y12Er4MgIn3(PdPt)2
_symmetry_space_group_name_H-M   'P 1'
_cell_length_a   9.75133190
_cell_length_b   9.72587145
_cell_length_c   9.72587100
_cell_angle_alpha   59.99999815
_cell_angle_beta   60.08633085
_cell_angle_gamma   60.08633021
_symmetry_Int_Tables_number   1
_chemical_formula_structural   Y12Er4MgIn3(PdPt)2
_chemical_formula_sum   'Y12 Er4 Mg1 In3 Pd2 Pt2'
_cell_volume   653.08760066
_cell_formula_units_Z   1
loop_
 _symmetry_equiv_pos_site_id
 _symmetry_equiv_pos_as_xyz
  1  'x, y, z'
loop_
 _atom_site_type_symbol
 _atom_site_label
 _atom_site_symmetry_multiplicity
 _atom_site_fract_x
 _atom_site_fract_y
 _atom_site_fract_z
 _atom_site_occupancy
  Y  Y0  1  0.810184  0.190702  0.190769  1
  Y  Y1  1  0.187530  0.813229  0.810505  1
  Y  Y2  1  0.187530  0.813229  0.188735  1
  Y  Y3  1  0.810184  0.190702  0.808346  1
  Y  Y4  1  0.187575  0.188513  0.811956  1
  Y  Y5  1  0.808388  0.810015  0.190799  1
  Y  Y6  1  0.936377  0.563417  0.564238  1
  Y  Y7  1  0.563042  0.936764  0.936953  1
  Y  Y8  1  0.563042  0.936764  0.563242  1
  Y  Y9  1  0.936377  0.563417  0.935967  1
  Y  Y10  1  0.564053  0.563399  0.936274  1
  Y  Y11  1  0.937011  0.936539  0.563225  1
  Er  Er12  1  0.350499  0.349597  0.351758  1
  Er  Er13  1  0.350499  0.349597  0.948147  1
  Er  Er14  1  0.349474  0.949143  0.350692  1
  Er  Er15  1  0.946127  0.349726  0.352073  1
  Mg  Mg16  1  0.266513  0.577865  0.577810  1
  In  In17  1  0.582484  0.583318  0.583288  1
  In  In18  1  0.582484  0.583318  0.250908  1
  In  In19  1  0.582669  0.250822  0.583253  1
  Pd  Pd20  1  0.144452  0.565250  0.145149  1
  Pd  Pd21  1  0.565735  0.144961  0.144652  1
  Pt  Pt22  1  0.143884  0.144857  0.144452  1
  Pt  Pt23  1  0.143884  0.144857  0.566807  1
