# generated using pymatgen
data_La2Pr2YSi4
_symmetry_space_group_name_H-M   'P 1'
_cell_length_a   7.88054600
_cell_length_b   7.88054600
_cell_length_c   15.42127000
_cell_angle_alpha   90.00000000
_cell_angle_beta   90.00000000
_cell_angle_gamma   90.00000000
_symmetry_Int_Tables_number   1
_chemical_formula_structural   La2Pr2YSi4
_chemical_formula_sum   'La8 Pr8 Y4 Si16'
_cell_volume   957.70721190
_cell_formula_units_Z   4
loop_
 _symmetry_equiv_pos_site_id
 _symmetry_equiv_pos_as_xyz
  1  'x, y, z'
loop_
 _atom_site_type_symbol
 _atom_site_label
 _atom_site_symmetry_multiplicity
 _atom_site_fract_x
 _atom_site_fract_y
 _atom_site_fract_z
 _atom_site_occupancy
  La  La0  1  0.377630  0.013672  0.445513  1
  La  La1  1  0.486328  0.877630  0.695513  1
  La  La2  1  0.513672  0.122370  0.195513  1
  La  La3  1  0.877630  0.486328  0.304487  1
  La  La4  1  0.122370  0.513672  0.804487  1
  La  La5  1  0.622370  0.986328  0.945513  1
  La  La6  1  0.013672  0.377630  0.554487  1
  La  La7  1  0.986328  0.622370  0.054487  1
  Pr  Pr8  1  0.125319  0.975947  0.878740  1
  Pr  Pr9  1  0.524053  0.625319  0.128740  1
  Pr  Pr10  1  0.475947  0.374681  0.628740  1
  Pr  Pr11  1  0.625319  0.524053  0.871260  1
  Pr  Pr12  1  0.374681  0.475947  0.371260  1
  Pr  Pr13  1  0.874681  0.024053  0.378740  1
  Pr  Pr14  1  0.975947  0.125319  0.121260  1
  Pr  Pr15  1  0.024053  0.874681  0.621260  1
  Y  Y16  1  0.309864  0.309864  0.000000  1
  Y  Y17  1  0.190136  0.809864  0.250000  1
  Y  Y18  1  0.809864  0.190136  0.750000  1
  Y  Y19  1  0.690136  0.690136  0.500000  1
  Si  Si20  1  0.188316  0.171345  0.708991  1
  Si  Si21  1  0.328655  0.688316  0.958991  1
  Si  Si22  1  0.671345  0.311684  0.458991  1
  Si  Si23  1  0.688316  0.328655  0.041009  1
  Si  Si24  1  0.311684  0.671345  0.541009  1
  Si  Si25  1  0.811684  0.828655  0.208991  1
  Si  Si26  1  0.171345  0.188316  0.291009  1
  Si  Si27  1  0.828655  0.811684  0.791009  1
  Si  Si28  1  0.286773  0.921098  0.063642  1
  Si  Si29  1  0.578902  0.786773  0.313642  1
  Si  Si30  1  0.421098  0.213227  0.813642  1
  Si  Si31  1  0.786773  0.578902  0.686358  1
  Si  Si32  1  0.213227  0.421098  0.186358  1
  Si  Si33  1  0.713227  0.078902  0.563642  1
  Si  Si34  1  0.921098  0.286773  0.936358  1
  Si  Si35  1  0.078902  0.713227  0.436358  1
