# generated using pymatgen
data_Tb2ErP4Pd7
_symmetry_space_group_name_H-M   'P 1'
_cell_length_a   7.94885280
_cell_length_b   7.94885334
_cell_length_c   9.42969120
_cell_angle_alpha   55.84562124
_cell_angle_beta   55.84561979
_cell_angle_gamma   29.13035694
_symmetry_Int_Tables_number   1
_chemical_formula_structural   Tb2ErP4Pd7
_chemical_formula_sum   'Tb2 Er1 P4 Pd7'
_cell_volume   236.25623763
_cell_formula_units_Z   1
loop_
 _symmetry_equiv_pos_site_id
 _symmetry_equiv_pos_as_xyz
  1  'x, y, z'
loop_
 _atom_site_type_symbol
 _atom_site_label
 _atom_site_symmetry_multiplicity
 _atom_site_fract_x
 _atom_site_fract_y
 _atom_site_fract_z
 _atom_site_occupancy
  Tb  Tb0  1  0.499910  0.499910  0.500059  1
  Tb  Tb1  1  0.820124  0.820124  0.176169  1
  Er  Er2  1  0.179564  0.179564  0.824306  1
  P  P3  1  0.393934  0.393934  0.320097  1
  P  P4  1  0.606612  0.606612  0.680195  1
  P  P5  1  0.840144  0.840144  0.753534  1
  P  P6  1  0.159108  0.159108  0.247267  1
  Pd  Pd7  1  0.668567  0.668567  0.076866  1
  Pd  Pd8  1  0.009652  0.009652  0.215312  1
  Pd  Pd9  1  0.990554  0.990554  0.784380  1
  Pd  Pd10  1  0.501059  0.501059  0.999018  1
  Pd  Pd11  1  0.195090  0.195090  0.470710  1
  Pd  Pd12  1  0.804517  0.804517  0.531060  1
  Pd  Pd13  1  0.331165  0.331165  0.921027  1
