# generated using pymatgen
data_CrCo3P4
_symmetry_space_group_name_H-M   'P 1'
_cell_length_a   3.17485400
_cell_length_b   5.13204672
_cell_length_c   5.71494106
_cell_angle_alpha   89.66647415
_cell_angle_beta   90.00000000
_cell_angle_gamma   90.00000000
_symmetry_Int_Tables_number   1
_chemical_formula_structural   CrCo3P4
_chemical_formula_sum   'Cr1 Co3 P4'
_cell_volume   93.11480903
_cell_formula_units_Z   1
loop_
 _symmetry_equiv_pos_site_id
 _symmetry_equiv_pos_as_xyz
  1  'x, y, z'
loop_
 _atom_site_type_symbol
 _atom_site_label
 _atom_site_symmetry_multiplicity
 _atom_site_fract_x
 _atom_site_fract_y
 _atom_site_fract_z
 _atom_site_occupancy
  Cr  Cr0  1  0.500000  0.504635  0.304377  1
  Co  Co1  1  0.500000  0.002069  0.197288  1
  Co  Co2  1  0.000000  0.500383  0.703934  1
  Co  Co3  1  0.000000  0.999104  0.794206  1
  P  P4  1  0.500000  0.686169  0.926793  1
  P  P5  1  0.500000  0.194201  0.577941  1
  P  P6  1  0.000000  0.304222  0.071054  1
  P  P7  1  0.000000  0.809216  0.424406  1
