# generated using pymatgen
data_TbHo15(ErSn4)4
_symmetry_space_group_name_H-M   'P 1'
_cell_length_a   8.00647700
_cell_length_b   8.14492817
_cell_length_c   15.40342801
_cell_angle_alpha   90.00432105
_cell_angle_beta   89.94474374
_cell_angle_gamma   89.96052032
_symmetry_Int_Tables_number   1
_chemical_formula_structural   TbHo15(ErSn4)4
_chemical_formula_sum   'Tb1 Ho15 Er4 Sn16'
_cell_volume   1004.49041242
_cell_formula_units_Z   1
loop_
 _symmetry_equiv_pos_site_id
 _symmetry_equiv_pos_as_xyz
  1  'x, y, z'
loop_
 _atom_site_type_symbol
 _atom_site_label
 _atom_site_symmetry_multiplicity
 _atom_site_fract_x
 _atom_site_fract_y
 _atom_site_fract_z
 _atom_site_occupancy
  Tb  Tb0  1  0.020352  0.179911  0.902808  1
  Ho  Ho1  1  0.367725  0.836192  0.877737  1
  Ho  Ho2  1  0.867870  0.663851  0.622030  1
  Ho  Ho3  1  0.632078  0.163721  0.377825  1
  Ho  Ho4  1  0.132449  0.336417  0.122327  1
  Ho  Ho5  1  0.632476  0.163717  0.122263  1
  Ho  Ho6  1  0.132127  0.336241  0.377821  1
  Ho  Ho7  1  0.367952  0.836147  0.622104  1
  Ho  Ho8  1  0.867790  0.663708  0.877794  1
  Ho  Ho9  1  0.520980  0.320386  0.902645  1
  Ho  Ho10  1  0.021151  0.179851  0.597557  1
  Ho  Ho11  1  0.478938  0.679751  0.402548  1
  Ho  Ho12  1  0.979218  0.819984  0.097426  1
  Ho  Ho13  1  0.479148  0.679898  0.097390  1
  Ho  Ho14  1  0.978939  0.820241  0.402567  1
  Ho  Ho15  1  0.521054  0.320310  0.597258  1
  Er  Er16  1  0.198393  0.502941  0.749853  1
  Er  Er17  1  0.698160  0.997007  0.749790  1
  Er  Er18  1  0.801741  0.497087  0.250062  1
  Er  Er19  1  0.301759  0.002848  0.250041  1
  Sn  Sn20  1  0.293124  0.034966  0.042187  1
  Sn  Sn21  1  0.792220  0.464641  0.458244  1
  Sn  Sn22  1  0.707824  0.964809  0.541730  1
  Sn  Sn23  1  0.208079  0.536299  0.958486  1
  Sn  Sn24  1  0.706428  0.963467  0.958515  1
  Sn  Sn25  1  0.207727  0.535370  0.541696  1
  Sn  Sn26  1  0.292254  0.035280  0.458262  1
  Sn  Sn27  1  0.792381  0.464600  0.041754  1
  Sn  Sn28  1  0.564671  0.618960  0.749960  1
  Sn  Sn29  1  0.064727  0.880674  0.749932  1
  Sn  Sn30  1  0.435345  0.381011  0.250019  1
  Sn  Sn31  1  0.935355  0.119085  0.250072  1
  Sn  Sn32  1  0.330264  0.147770  0.749829  1
  Sn  Sn33  1  0.829055  0.352844  0.749484  1
  Sn  Sn34  1  0.670146  0.852197  0.249969  1
  Sn  Sn35  1  0.170100  0.647822  0.250016  1
