# generated using pymatgen
data_TaNbSnB2Ru5
_symmetry_space_group_name_H-M   'P 1'
_cell_length_a   9.48984956
_cell_length_b   9.48984956
_cell_length_c   3.02513000
_cell_angle_alpha   90.00000000
_cell_angle_beta   90.00000000
_cell_angle_gamma   90.26594381
_symmetry_Int_Tables_number   1
_chemical_formula_structural   TaNbSnB2Ru5
_chemical_formula_sum   'Ta2 Nb2 Sn2 B4 Ru10'
_cell_volume   272.43193766
_cell_formula_units_Z   2
loop_
 _symmetry_equiv_pos_site_id
 _symmetry_equiv_pos_as_xyz
  1  'x, y, z'
loop_
 _atom_site_type_symbol
 _atom_site_label
 _atom_site_symmetry_multiplicity
 _atom_site_fract_x
 _atom_site_fract_y
 _atom_site_fract_z
 _atom_site_occupancy
  Ta  Ta0  1  0.323440  0.823440  0.000000  1
  Ta  Ta1  1  0.676560  0.176560  0.000000  1
  Nb  Nb2  1  0.822672  0.677328  0.000000  1
  Nb  Nb3  1  0.177328  0.322672  0.000000  1
  Sn  Sn4  1  0.500000  0.500000  0.000000  1
  Sn  Sn5  1  0.000000  0.000000  0.000000  1
  B  B6  1  0.621867  0.878133  0.000000  1
  B  B7  1  0.378133  0.121867  0.000000  1
  B  B8  1  0.121660  0.621660  0.000000  1
  B  B9  1  0.878340  0.378340  0.000000  1
  Ru  Ru10  1  0.568307  0.722358  0.500000  1
  Ru  Ru11  1  0.431693  0.277642  0.500000  1
  Ru  Ru12  1  0.071198  0.778570  0.500000  1
  Ru  Ru13  1  0.928802  0.221430  0.500000  1
  Ru  Ru14  1  0.278570  0.571198  0.500000  1
  Ru  Ru15  1  0.721430  0.428802  0.500000  1
  Ru  Ru16  1  0.222358  0.068307  0.500000  1
  Ru  Ru17  1  0.777642  0.931693  0.500000  1
  Ru  Ru18  1  0.500000  0.000000  0.500000  1
  Ru  Ru19  1  0.000000  0.500000  0.500000  1
