# generated using pymatgen
data_TbY7(Er3Sn4)4
_symmetry_space_group_name_H-M   'P 1'
_cell_length_a   8.01644809
_cell_length_b   8.15362501
_cell_length_c   15.41276819
_cell_angle_alpha   89.99382963
_cell_angle_beta   89.98315681
_cell_angle_gamma   89.99943972
_symmetry_Int_Tables_number   1
_chemical_formula_structural   TbY7(Er3Sn4)4
_chemical_formula_sum   'Tb1 Y7 Er12 Sn16'
_cell_volume   1007.42643818
_cell_formula_units_Z   1
loop_
 _symmetry_equiv_pos_site_id
 _symmetry_equiv_pos_as_xyz
  1  'x, y, z'
loop_
 _atom_site_type_symbol
 _atom_site_label
 _atom_site_symmetry_multiplicity
 _atom_site_fract_x
 _atom_site_fract_y
 _atom_site_fract_z
 _atom_site_occupancy
  Tb  Tb0  1  0.522275  0.320873  0.902335  1
  Y  Y1  1  0.022462  0.179033  0.597662  1
  Y  Y2  1  0.477546  0.679040  0.402307  1
  Y  Y3  1  0.977559  0.820916  0.097673  1
  Y  Y4  1  0.477572  0.679082  0.097696  1
  Y  Y5  1  0.977556  0.820945  0.402314  1
  Y  Y6  1  0.522476  0.320926  0.597729  1
  Y  Y7  1  0.022478  0.179015  0.902318  1
  Er  Er8  1  0.367332  0.836563  0.877636  1
  Er  Er9  1  0.867367  0.663450  0.622358  1
  Er  Er10  1  0.632626  0.163443  0.377618  1
  Er  Er11  1  0.132621  0.336584  0.122371  1
  Er  Er12  1  0.632637  0.163436  0.122356  1
  Er  Er13  1  0.132615  0.336577  0.377613  1
  Er  Er14  1  0.367387  0.836560  0.622349  1
  Er  Er15  1  0.867368  0.663491  0.877653  1
  Er  Er16  1  0.198644  0.503625  0.749959  1
  Er  Er17  1  0.698644  0.996422  0.749990  1
  Er  Er18  1  0.801384  0.496401  0.249979  1
  Er  Er19  1  0.301363  0.003595  0.250002  1
  Sn  Sn20  1  0.293386  0.036234  0.041877  1
  Sn  Sn21  1  0.793385  0.463800  0.458115  1
  Sn  Sn22  1  0.706596  0.963807  0.541836  1
  Sn  Sn23  1  0.206538  0.536249  0.958174  1
  Sn  Sn24  1  0.706671  0.963740  0.958155  1
  Sn  Sn25  1  0.206699  0.536206  0.541845  1
  Sn  Sn26  1  0.293349  0.036199  0.458103  1
  Sn  Sn27  1  0.793507  0.463847  0.041934  1
  Sn  Sn28  1  0.564869  0.620765  0.750024  1
  Sn  Sn29  1  0.064916  0.879272  0.749993  1
  Sn  Sn30  1  0.435098  0.379222  0.250030  1
  Sn  Sn31  1  0.935097  0.120754  0.250004  1
  Sn  Sn32  1  0.331006  0.147010  0.749984  1
  Sn  Sn33  1  0.831064  0.352952  0.750014  1
  Sn  Sn34  1  0.668948  0.852902  0.250000  1
  Sn  Sn35  1  0.168956  0.647065  0.249991  1
