# generated using pymatgen
data_Ho6GaCo2Sn11
_symmetry_space_group_name_H-M   'P 1'
_cell_length_a   8.41521906
_cell_length_b   8.41521924
_cell_length_c   13.07377800
_cell_angle_alpha   90.00000000
_cell_angle_beta   90.00000000
_cell_angle_gamma   148.89953157
_symmetry_Int_Tables_number   1
_chemical_formula_structural   Ho6GaCo2Sn11
_chemical_formula_sum   'Ho6 Ga1 Co2 Sn11'
_cell_volume   478.22932321
_cell_formula_units_Z   1
loop_
 _symmetry_equiv_pos_site_id
 _symmetry_equiv_pos_as_xyz
  1  'x, y, z'
loop_
 _atom_site_type_symbol
 _atom_site_label
 _atom_site_symmetry_multiplicity
 _atom_site_fract_x
 _atom_site_fract_y
 _atom_site_fract_z
 _atom_site_occupancy
  Ho  Ho0  1  0.898058  0.101942  0.095353  1
  Ho  Ho1  1  0.101855  0.898145  0.594696  1
  Ho  Ho2  1  0.899904  0.100096  0.750000  1
  Ho  Ho3  1  0.101855  0.898145  0.905304  1
  Ho  Ho4  1  0.101831  0.898169  0.250000  1
  Ho  Ho5  1  0.898058  0.101942  0.404647  1
  Ga  Ga6  1  0.741216  0.258784  0.250000  1
  Co  Co7  1  0.295201  0.704799  0.250000  1
  Co  Co8  1  0.698549  0.301451  0.750000  1
  Sn  Sn9  1  0.756247  0.243753  0.571139  1
  Sn  Sn10  1  0.428787  0.571213  0.573355  1
  Sn  Sn11  1  0.574776  0.425224  0.421524  1
  Sn  Sn12  1  0.265897  0.734103  0.750000  1
  Sn  Sn13  1  0.240741  0.759259  0.073655  1
  Sn  Sn14  1  0.240741  0.759259  0.426345  1
  Sn  Sn15  1  0.574776  0.425224  0.078476  1
  Sn  Sn16  1  0.451987  0.548013  0.250000  1
  Sn  Sn17  1  0.544489  0.455511  0.750000  1
  Sn  Sn18  1  0.756247  0.243753  0.928861  1
  Sn  Sn19  1  0.428787  0.571213  0.926645  1
