# generated using pymatgen
data_Ho5Sc3Cr2(B12Rh)2
_symmetry_space_group_name_H-M   'P 1'
_cell_length_a   3.53213400
_cell_length_b   9.01055783
_cell_length_c   11.40019211
_cell_angle_alpha   89.84218720
_cell_angle_beta   90.00000000
_cell_angle_gamma   90.00000000
_symmetry_Int_Tables_number   1
_chemical_formula_structural   Ho5Sc3Cr2(B12Rh)2
_chemical_formula_sum   'Ho5 Sc3 Cr2 B24 Rh2'
_cell_volume   362.82681132
_cell_formula_units_Z   1
loop_
 _symmetry_equiv_pos_site_id
 _symmetry_equiv_pos_as_xyz
  1  'x, y, z'
loop_
 _atom_site_type_symbol
 _atom_site_label
 _atom_site_symmetry_multiplicity
 _atom_site_fract_x
 _atom_site_fract_y
 _atom_site_fract_z
 _atom_site_occupancy
  Ho  Ho0  1  0.000000  0.818282  0.087919  1
  Ho  Ho1  1  0.000000  0.182115  0.910179  1
  Ho  Ho2  1  0.000000  0.324075  0.418009  1
  Ho  Ho3  1  0.000000  0.676246  0.583708  1
  Ho  Ho4  1  0.000000  0.447081  0.128147  1
  Sc  Sc5  1  0.000000  0.552513  0.869143  1
  Sc  Sc6  1  0.000000  0.940449  0.375040  1
  Sc  Sc7  1  0.000000  0.059663  0.625897  1
  Cr  Cr8  1  0.000000  0.643603  0.319755  1
  Cr  Cr9  1  0.000000  0.358947  0.681941  1
  B  B10  1  0.500000  0.052927  0.066204  1
  B  B11  1  0.500000  0.944996  0.932858  1
  B  B12  1  0.500000  0.554877  0.433468  1
  B  B13  1  0.500000  0.446050  0.568094  1
  B  B14  1  0.500000  0.249635  0.079589  1
  B  B15  1  0.500000  0.746381  0.918697  1
  B  B16  1  0.500000  0.752367  0.419294  1
  B  B17  1  0.500000  0.248449  0.581561  1
  B  B18  1  0.500000  0.291030  0.237012  1
  B  B19  1  0.500000  0.706008  0.764065  1
  B  B20  1  0.500000  0.795236  0.266625  1
  B  B21  1  0.500000  0.206043  0.733941  1
  B  B22  1  0.500000  0.127745  0.319100  1
  B  B23  1  0.500000  0.871489  0.681584  1
  B  B24  1  0.500000  0.633067  0.185722  1
  B  B25  1  0.500000  0.370359  0.815283  1
  B  B26  1  0.500000  0.483533  0.289215  1
  B  B27  1  0.500000  0.518332  0.713339  1
  B  B28  1  0.500000  0.980036  0.215264  1
  B  B29  1  0.500000  0.019417  0.784917  1
  B  B30  1  0.500000  0.099178  0.473188  1
  B  B31  1  0.500000  0.900789  0.527705  1
  B  B32  1  0.500000  0.603873  0.024338  1
  B  B33  1  0.500000  0.398246  0.969425  1
  Rh  Rh34  1  0.000000  0.136235  0.181185  1
  Rh  Rh35  1  0.000000  0.860730  0.818588  1
