# generated using pymatgen
data_Y19ErCd6IrRu
_symmetry_space_group_name_H-M   'P 1'
_cell_length_a   9.67485300
_cell_length_b   9.67485284
_cell_length_c   9.84794800
_cell_angle_alpha   90.00000000
_cell_angle_beta   90.00000000
_cell_angle_gamma   120.00000397
_symmetry_Int_Tables_number   1
_chemical_formula_structural   Y19ErCd6IrRu
_chemical_formula_sum   'Y19 Er1 Cd6 Ir1 Ru1'
_cell_volume   798.29811517
_cell_formula_units_Z   1
loop_
 _symmetry_equiv_pos_site_id
 _symmetry_equiv_pos_as_xyz
  1  'x, y, z'
loop_
 _atom_site_type_symbol
 _atom_site_label
 _atom_site_symmetry_multiplicity
 _atom_site_fract_x
 _atom_site_fract_y
 _atom_site_fract_z
 _atom_site_occupancy
  Y  Y0  1  0.000000  0.000000  0.000361  1
  Y  Y1  1  0.208902  0.791098  0.440338  1
  Y  Y2  1  0.208902  0.417803  0.440338  1
  Y  Y3  1  0.582197  0.791098  0.440338  1
  Y  Y4  1  0.790665  0.209335  0.560205  1
  Y  Y5  1  0.790665  0.581329  0.560205  1
  Y  Y6  1  0.418671  0.209335  0.560205  1
  Y  Y7  1  0.790345  0.209655  0.939742  1
  Y  Y8  1  0.790345  0.580688  0.939742  1
  Y  Y9  1  0.419312  0.209655  0.939742  1
  Y  Y10  1  0.209232  0.790768  0.059701  1
  Y  Y11  1  0.209232  0.418463  0.059701  1
  Y  Y12  1  0.581537  0.790768  0.059701  1
  Y  Y13  1  0.541380  0.458620  0.250023  1
  Y  Y14  1  0.541380  0.082760  0.250023  1
  Y  Y15  1  0.917240  0.458620  0.250023  1
  Y  Y16  1  0.458749  0.541251  0.749982  1
  Y  Y17  1  0.458749  0.917498  0.749982  1
  Y  Y18  1  0.082502  0.541251  0.749982  1
  Er  Er19  1  0.000000  0.000000  0.499570  1
  Cd  Cd20  1  0.885341  0.114659  0.250437  1
  Cd  Cd21  1  0.885341  0.770682  0.250437  1
  Cd  Cd22  1  0.229318  0.114659  0.250437  1
  Cd  Cd23  1  0.114520  0.885480  0.749583  1
  Cd  Cd24  1  0.114520  0.229038  0.749583  1
  Cd  Cd25  1  0.770962  0.885480  0.749583  1
  Ir  Ir26  1  0.333333  0.666667  0.250142  1
  Ru  Ru27  1  0.666667  0.333333  0.749892  1
