# generated using pymatgen
data_Sc2Fe3P7Ir2Ru7
_symmetry_space_group_name_H-M   'P 1'
_cell_length_a   9.22410550
_cell_length_b   9.29717587
_cell_length_c   3.82134900
_cell_angle_alpha   90.00000000
_cell_angle_beta   90.00000000
_cell_angle_gamma   120.07849886
_symmetry_Int_Tables_number   1
_chemical_formula_structural   Sc2Fe3P7Ir2Ru7
_chemical_formula_sum   'Sc2 Fe3 P7 Ir2 Ru7'
_cell_volume   283.58193986
_cell_formula_units_Z   1
loop_
 _symmetry_equiv_pos_site_id
 _symmetry_equiv_pos_as_xyz
  1  'x, y, z'
loop_
 _atom_site_type_symbol
 _atom_site_label
 _atom_site_symmetry_multiplicity
 _atom_site_fract_x
 _atom_site_fract_y
 _atom_site_fract_z
 _atom_site_occupancy
  Sc  Sc0  1  0.668672  0.333658  0.500000  1
  Sc  Sc1  1  0.330235  0.665912  0.000000  1
  Fe  Fe2  1  0.728497  0.890363  0.000000  1
  Fe  Fe3  1  0.111782  0.841530  0.000000  1
  Fe  Fe4  1  0.162493  0.269988  0.000000  1
  P  P5  1  0.601431  0.718375  0.500000  1
  P  P6  1  0.000879  0.000578  0.000000  1
  P  P7  1  0.276179  0.878855  0.500000  1
  P  P8  1  0.115289  0.401260  0.500000  1
  P  P9  1  0.888453  0.583747  0.000000  1
  P  P10  1  0.418259  0.301371  0.000000  1
  P  P11  1  0.700061  0.114478  0.000000  1
  Ir  Ir12  1  0.553056  0.938769  0.500000  1
  Ir  Ir13  1  0.384649  0.443930  0.500000  1
  Ru  Ru14  1  0.912674  0.119983  0.500000  1
  Ru  Ru15  1  0.208496  0.088131  0.500000  1
  Ru  Ru16  1  0.881192  0.795566  0.500000  1
  Ru  Ru17  1  0.428856  0.064538  0.000000  1
  Ru  Ru18  1  0.938057  0.361999  0.000000  1
  Ru  Ru19  1  0.637912  0.573770  0.000000  1
  Ru  Ru20  1  0.052878  0.613198  0.500000  1
