# generated using pymatgen
data_UCrB6Mo
_symmetry_space_group_name_H-M   'P 1'
_cell_length_a   3.37245800
_cell_length_b   8.85670200
_cell_length_c   11.22771600
_cell_angle_alpha   90.00000000
_cell_angle_beta   90.00000000
_cell_angle_gamma   90.00000000
_symmetry_Int_Tables_number   1
_chemical_formula_structural   UCrB6Mo
_chemical_formula_sum   'U4 Cr4 B24 Mo4'
_cell_volume   335.35902695
_cell_formula_units_Z   4
loop_
 _symmetry_equiv_pos_site_id
 _symmetry_equiv_pos_as_xyz
  1  'x, y, z'
loop_
 _atom_site_type_symbol
 _atom_site_label
 _atom_site_symmetry_multiplicity
 _atom_site_fract_x
 _atom_site_fract_y
 _atom_site_fract_z
 _atom_site_occupancy
  U  U0  1  0.000000  0.821152  0.086776  1
  U  U1  1  0.000000  0.178848  0.913224  1
  U  U2  1  0.000000  0.321152  0.413224  1
  U  U3  1  0.000000  0.678848  0.586776  1
  Cr  Cr4  1  0.000000  0.141668  0.181143  1
  Cr  Cr5  1  0.000000  0.858332  0.818857  1
  Cr  Cr6  1  0.000000  0.641668  0.318857  1
  Cr  Cr7  1  0.000000  0.358332  0.681143  1
  B  B8  1  0.500000  0.053203  0.065643  1
  B  B9  1  0.500000  0.946797  0.934357  1
  B  B10  1  0.500000  0.553203  0.434357  1
  B  B11  1  0.500000  0.446797  0.565643  1
  B  B12  1  0.500000  0.254017  0.080569  1
  B  B13  1  0.500000  0.745983  0.919431  1
  B  B14  1  0.500000  0.754017  0.419431  1
  B  B15  1  0.500000  0.245983  0.580569  1
  B  B16  1  0.500000  0.296592  0.234993  1
  B  B17  1  0.500000  0.703408  0.765007  1
  B  B18  1  0.500000  0.796592  0.265007  1
  B  B19  1  0.500000  0.203408  0.734993  1
  B  B20  1  0.500000  0.129123  0.318117  1
  B  B21  1  0.500000  0.870877  0.681883  1
  B  B22  1  0.500000  0.629123  0.181883  1
  B  B23  1  0.500000  0.370877  0.818117  1
  B  B24  1  0.500000  0.480345  0.286312  1
  B  B25  1  0.500000  0.519655  0.713688  1
  B  B26  1  0.500000  0.980345  0.213688  1
  B  B27  1  0.500000  0.019655  0.786312  1
  B  B28  1  0.500000  0.099134  0.473494  1
  B  B29  1  0.500000  0.900866  0.526506  1
  B  B30  1  0.500000  0.599134  0.026506  1
  B  B31  1  0.500000  0.400866  0.973494  1
  Mo  Mo32  1  0.000000  0.444814  0.127374  1
  Mo  Mo33  1  0.000000  0.555186  0.872626  1
  Mo  Mo34  1  0.000000  0.944814  0.372626  1
  Mo  Mo35  1  0.000000  0.055186  0.627374  1
