# generated using pymatgen
data_KRb5HoErF12
_symmetry_space_group_name_H-M   'P 1'
_cell_length_a   6.81479906
_cell_length_b   6.58508364
_cell_length_c   11.42602905
_cell_angle_alpha   55.24802115
_cell_angle_beta   89.97218316
_cell_angle_gamma   90.16965985
_symmetry_Int_Tables_number   1
_chemical_formula_structural   KRb5HoErF12
_chemical_formula_sum   'K1 Rb5 Ho1 Er1 F12'
_cell_volume   421.28993744
_cell_formula_units_Z   1
loop_
 _symmetry_equiv_pos_site_id
 _symmetry_equiv_pos_as_xyz
  1  'x, y, z'
loop_
 _atom_site_type_symbol
 _atom_site_label
 _atom_site_symmetry_multiplicity
 _atom_site_fract_x
 _atom_site_fract_y
 _atom_site_fract_z
 _atom_site_occupancy
  K  K0  1  0.000000  0.500000  0.500000  1
  Rb  Rb1  1  0.500000  0.500000  0.000000  1
  Rb  Rb2  1  0.047804  0.736500  0.750412  1
  Rb  Rb3  1  0.952196  0.263500  0.249588  1
  Rb  Rb4  1  0.549678  0.269296  0.745024  1
  Rb  Rb5  1  0.450322  0.730704  0.254976  1
  Ho  Ho6  1  0.500000  0.000000  0.500000  1
  Er  Er7  1  0.000000  0.000000  0.000000  1
  F  F8  1  0.761174  0.766583  0.560021  1
  F  F9  1  0.238826  0.233417  0.439979  1
  F  F10  1  0.263341  0.225279  0.938224  1
  F  F11  1  0.736659  0.774721  0.061776  1
  F  F12  1  0.452872  0.882234  0.718421  1
  F  F13  1  0.547128  0.117766  0.281579  1
  F  F14  1  0.955011  0.124472  0.779548  1
  F  F15  1  0.044989  0.875528  0.220452  1
  F  F16  1  0.318642  0.690128  0.542175  1
  F  F17  1  0.681358  0.309872  0.457825  1
  F  F18  1  0.829950  0.313438  0.955681  1
  F  F19  1  0.170050  0.686562  0.044319  1
