# generated using pymatgen
data_LaDy2(AlPd)4
_symmetry_space_group_name_H-M   'P 1'
_cell_length_a   8.27691522
_cell_length_b   8.27691361
_cell_length_c   8.27691400
_cell_angle_alpha   151.28615010
_cell_angle_beta   127.06138430
_cell_angle_gamma   61.33416894
_symmetry_Int_Tables_number   1
_chemical_formula_structural   LaDy2(AlPd)4
_chemical_formula_sum   'La1 Dy2 Al4 Pd4'
_cell_volume   215.61663071
_cell_formula_units_Z   1
loop_
 _symmetry_equiv_pos_site_id
 _symmetry_equiv_pos_as_xyz
  1  'x, y, z'
loop_
 _atom_site_type_symbol
 _atom_site_label
 _atom_site_symmetry_multiplicity
 _atom_site_fract_x
 _atom_site_fract_y
 _atom_site_fract_z
 _atom_site_occupancy
  La  La0  1  0.500000  0.000000  0.500000  1
  Dy  Dy1  1  0.878536  0.878536  0.000000  1
  Dy  Dy2  1  0.121464  0.121464  0.000000  1
  Al  Al3  1  0.481743  0.679206  0.802537  1
  Al  Al4  1  0.876669  0.679206  0.197463  1
  Al  Al5  1  0.123331  0.320794  0.802537  1
  Al  Al6  1  0.518257  0.320794  0.197463  1
  Pd  Pd7  1  0.279357  0.779357  0.500000  1
  Pd  Pd8  1  0.720643  0.220643  0.500000  1
  Pd  Pd9  1  0.800848  0.500000  0.300848  1
  Pd  Pd10  1  0.199152  0.500000  0.699152  1
