# generated using pymatgen
data_Y2Ga9PdRuPt
_symmetry_space_group_name_H-M   'P 1'
_cell_length_a   7.63774603
_cell_length_b   7.63774925
_cell_length_c   9.54094008
_cell_angle_alpha   90.00763382
_cell_angle_beta   90.00763729
_cell_angle_gamma   119.64832362
_symmetry_Int_Tables_number   1
_chemical_formula_structural   Y2Ga9PdRuPt
_chemical_formula_sum   'Y4 Ga18 Pd2 Ru2 Pt2'
_cell_volume   483.70495030
_cell_formula_units_Z   2
loop_
 _symmetry_equiv_pos_site_id
 _symmetry_equiv_pos_as_xyz
  1  'x, y, z'
loop_
 _atom_site_type_symbol
 _atom_site_label
 _atom_site_symmetry_multiplicity
 _atom_site_fract_x
 _atom_site_fract_y
 _atom_site_fract_z
 _atom_site_occupancy
  Y  Y0  1  0.997989  0.667865  0.250050  1
  Y  Y1  1  0.002011  0.332135  0.749950  1
  Y  Y2  1  0.667865  0.997989  0.250050  1
  Y  Y3  1  0.332135  0.002011  0.749950  1
  Ga  Ga4  1  0.120291  0.120291  0.249944  1
  Ga  Ga5  1  0.879709  0.879709  0.750056  1
  Ga  Ga6  1  0.999856  0.329809  0.081158  1
  Ga  Ga7  1  0.000144  0.670191  0.918842  1
  Ga  Ga8  1  0.000266  0.670541  0.581109  1
  Ga  Ga9  1  0.329460  0.999734  0.418891  1
  Ga  Ga10  1  0.999734  0.329459  0.418891  1
  Ga  Ga11  1  0.670540  0.000266  0.581109  1
  Ga  Ga12  1  0.670190  0.000144  0.918842  1
  Ga  Ga13  1  0.329810  0.999856  0.081158  1
  Ga  Ga14  1  0.325054  0.325054  0.566097  1
  Ga  Ga15  1  0.674946  0.674946  0.433903  1
  Ga  Ga16  1  0.674365  0.674365  0.066101  1
  Ga  Ga17  1  0.325635  0.325635  0.933899  1
  Ga  Ga18  1  0.342902  0.544455  0.249550  1
  Ga  Ga19  1  0.657098  0.455545  0.750450  1
  Ga  Ga20  1  0.544455  0.342902  0.249550  1
  Ga  Ga21  1  0.455545  0.657098  0.750450  1
  Pd  Pd22  1  0.671314  0.328686  0.000000  1
  Pd  Pd23  1  0.328686  0.671314  0.000000  1
  Ru  Ru24  1  0.000000  0.000000  0.000000  1
  Ru  Ru25  1  0.000000  0.000000  0.500000  1
  Pt  Pt26  1  0.328401  0.671599  0.500000  1
  Pt  Pt27  1  0.671599  0.328401  0.500000  1
