# generated using pymatgen
data_ThNpF8
_symmetry_space_group_name_H-M   'P 1'
_cell_length_a   8.47694876
_cell_length_b   8.51721904
_cell_length_c   8.44872774
_cell_angle_alpha   63.27126077
_cell_angle_beta   63.43055810
_cell_angle_gamma   80.53503467
_symmetry_Int_Tables_number   1
_chemical_formula_structural   ThNpF8
_chemical_formula_sum   'Th3 Np3 F24'
_cell_volume   486.76564686
_cell_formula_units_Z   3
loop_
 _symmetry_equiv_pos_site_id
 _symmetry_equiv_pos_as_xyz
  1  'x, y, z'
loop_
 _atom_site_type_symbol
 _atom_site_label
 _atom_site_symmetry_multiplicity
 _atom_site_fract_x
 _atom_site_fract_y
 _atom_site_fract_z
 _atom_site_occupancy
  Th  Th0  1  0.786320  0.210756  0.252051  1
  Th  Th1  1  0.215409  0.786301  0.750520  1
  Th  Th2  1  0.630480  0.775813  0.166645  1
  Np  Np3  1  0.779082  0.628365  0.667817  1
  Np  Np4  1  0.367238  0.225552  0.829507  1
  Np  Np5  1  0.221879  0.365397  0.332128  1
  F  F6  1  0.739803  0.680886  0.398662  1
  F  F7  1  0.594643  0.186250  0.576948  1
  F  F8  1  0.741666  0.496916  0.216875  1
  F  F9  1  0.317356  0.263177  0.104086  1
  F  F10  1  0.069519  0.178187  0.039677  1
  F  F11  1  0.185044  0.593811  0.077599  1
  F  F12  1  0.400180  0.816053  0.428439  1
  F  F13  1  0.393660  0.598332  0.252063  1
  F  F14  1  0.601536  0.398782  0.749420  1
  F  F15  1  0.501839  0.738906  0.715404  1
  F  F16  1  0.822097  0.929420  0.461383  1
  F  F17  1  0.177708  0.069444  0.540260  1
  F  F18  1  0.259458  0.499842  0.784856  1
  F  F19  1  0.262337  0.318136  0.603811  1
  F  F20  1  0.724705  0.028834  0.148611  1
  F  F21  1  0.001590  0.498326  0.500284  1
  F  F22  1  0.975325  0.275920  0.350505  1
  F  F23  1  0.813761  0.405128  0.924574  1
  F  F24  1  0.499020  0.259519  0.285776  1
  F  F25  1  0.934160  0.826689  0.956310  1
  F  F26  1  0.277828  0.977298  0.848136  1
  F  F27  1  0.683192  0.739179  0.890035  1
  F  F28  1  0.024165  0.721759  0.652455  1
  F  F29  1  0.499000  0.007018  0.995163  1
