# generated using pymatgen
data_MgZn21(SnRu3)2
_symmetry_space_group_name_H-M   'P 1'
_cell_length_a   5.27468529
_cell_length_b   5.29934084
_cell_length_c   17.07933500
_cell_angle_alpha   90.00000000
_cell_angle_beta   90.00000000
_cell_angle_gamma   97.75394973
_symmetry_Int_Tables_number   1
_chemical_formula_structural   MgZn21(SnRu3)2
_chemical_formula_sum   'Mg1 Zn21 Sn2 Ru6'
_cell_volume   473.04250847
_cell_formula_units_Z   1
loop_
 _symmetry_equiv_pos_site_id
 _symmetry_equiv_pos_as_xyz
  1  'x, y, z'
loop_
 _atom_site_type_symbol
 _atom_site_label
 _atom_site_symmetry_multiplicity
 _atom_site_fract_x
 _atom_site_fract_y
 _atom_site_fract_z
 _atom_site_occupancy
  Mg  Mg0  1  0.559947  0.943242  0.250000  1
  Zn  Zn1  1  0.883406  0.888573  0.832649  1
  Zn  Zn2  1  0.109494  0.114358  0.166143  1
  Zn  Zn3  1  0.883406  0.888573  0.667351  1
  Zn  Zn4  1  0.109494  0.114358  0.333857  1
  Zn  Zn5  1  0.503610  0.497196  0.998263  1
  Zn  Zn6  1  0.503610  0.497196  0.501737  1
  Zn  Zn7  1  0.323194  0.729412  0.874005  1
  Zn  Zn8  1  0.268196  0.672294  0.124286  1
  Zn  Zn9  1  0.323194  0.729412  0.625995  1
  Zn  Zn10  1  0.268196  0.672294  0.375714  1
  Zn  Zn11  1  0.651112  0.252586  0.126224  1
  Zn  Zn12  1  0.756760  0.349460  0.869458  1
  Zn  Zn13  1  0.651112  0.252586  0.373776  1
  Zn  Zn14  1  0.756760  0.349460  0.630542  1
  Zn  Zn15  1  0.012190  0.988690  0.999146  1
  Zn  Zn16  1  0.012190  0.988690  0.500854  1
  Zn  Zn17  1  0.515777  0.000849  0.995386  1
  Zn  Zn18  1  0.998222  0.484154  0.002581  1
  Zn  Zn19  1  0.515777  0.000849  0.504614  1
  Zn  Zn20  1  0.998222  0.484154  0.497419  1
  Zn  Zn21  1  0.061527  0.448690  0.750000  1
  Sn  Sn22  1  0.413202  0.072753  0.750000  1
  Sn  Sn23  1  0.926951  0.578119  0.250000  1
  Ru  Ru24  1  0.241192  0.235103  0.891688  1
  Ru  Ru25  1  0.764093  0.759735  0.106189  1
  Ru  Ru26  1  0.241192  0.235103  0.608312  1
  Ru  Ru27  1  0.764093  0.759735  0.393811  1
  Ru  Ru28  1  0.570721  0.585728  0.750000  1
  Ru  Ru29  1  0.413165  0.426649  0.250000  1
