# generated using pymatgen
data_Zr12ZnGaCu2(Ir2N)4
_symmetry_space_group_name_H-M   'P 1'
_cell_length_a   8.54353261
_cell_length_b   8.51948237
_cell_length_c   8.54350300
_cell_angle_alpha   59.90579795
_cell_angle_beta   59.99940609
_cell_angle_gamma   59.90595590
_symmetry_Int_Tables_number   1
_chemical_formula_structural   Zr12ZnGaCu2(Ir2N)4
_chemical_formula_sum   'Zr12 Zn1 Ga1 Cu2 Ir8 N4'
_cell_volume   439.08681848
_cell_formula_units_Z   1
loop_
 _symmetry_equiv_pos_site_id
 _symmetry_equiv_pos_as_xyz
  1  'x, y, z'
loop_
 _atom_site_type_symbol
 _atom_site_label
 _atom_site_symmetry_multiplicity
 _atom_site_fract_x
 _atom_site_fract_y
 _atom_site_fract_z
 _atom_site_occupancy
  Zr  Zr0  1  0.806270  0.194189  0.193009  1
  Zr  Zr1  1  0.194178  0.806678  0.192145  1
  Zr  Zr2  1  0.805070  0.805091  0.194921  1
  Zr  Zr3  1  0.194180  0.806677  0.806999  1
  Zr  Zr4  1  0.806271  0.194189  0.806535  1
  Zr  Zr5  1  0.192442  0.191523  0.808018  1
  Zr  Zr6  1  0.443730  0.055811  0.056991  1
  Zr  Zr7  1  0.055822  0.443322  0.057855  1
  Zr  Zr8  1  0.444930  0.444909  0.055079  1
  Zr  Zr9  1  0.055820  0.443323  0.443001  1
  Zr  Zr10  1  0.443729  0.055811  0.443465  1
  Zr  Zr11  1  0.057558  0.058477  0.441982  1
  Zn  Zn12  1  0.625000  0.125000  0.625000  1
  Ga  Ga13  1  0.125000  0.625000  0.625000  1
  Cu  Cu14  1  0.625000  0.625000  0.125000  1
  Cu  Cu15  1  0.625000  0.625000  0.625000  1
  Ir  Ir16  1  0.415103  0.416297  0.755061  1
  Ir  Ir17  1  0.415103  0.416297  0.413537  1
  Ir  Ir18  1  0.753621  0.416758  0.414810  1
  Ir  Ir19  1  0.415918  0.754320  0.414880  1
  Ir  Ir20  1  0.834897  0.833703  0.494939  1
  Ir  Ir21  1  0.834897  0.833703  0.836463  1
  Ir  Ir22  1  0.496379  0.833242  0.835190  1
  Ir  Ir23  1  0.834082  0.495680  0.835120  1
  N  N24  1  0.125000  0.125000  0.625000  1
  N  N25  1  0.125000  0.125000  0.125000  1
  N  N26  1  0.625000  0.125000  0.125000  1
  N  N27  1  0.125000  0.625000  0.125000  1
