# generated using pymatgen
data_Tb5Yb(YIn4)2
_symmetry_space_group_name_H-M   'P 1'
_cell_length_a   6.51584685
_cell_length_b   6.51584789
_cell_length_c   10.81947600
_cell_angle_alpha   90.00000000
_cell_angle_beta   90.00000000
_cell_angle_gamma   110.38483760
_symmetry_Int_Tables_number   1
_chemical_formula_structural   Tb5Yb(YIn4)2
_chemical_formula_sum   'Tb5 Yb1 Y2 In8'
_cell_volume   430.58711528
_cell_formula_units_Z   1
loop_
 _symmetry_equiv_pos_site_id
 _symmetry_equiv_pos_as_xyz
  1  'x, y, z'
loop_
 _atom_site_type_symbol
 _atom_site_label
 _atom_site_symmetry_multiplicity
 _atom_site_fract_x
 _atom_site_fract_y
 _atom_site_fract_z
 _atom_site_occupancy
  Tb  Tb0  1  0.498403  0.498403  0.750000  1
  Tb  Tb1  1  0.250981  0.749130  0.498947  1
  Tb  Tb2  1  0.250981  0.749130  0.001053  1
  Tb  Tb3  1  0.749130  0.250981  0.498947  1
  Tb  Tb4  1  0.749130  0.250981  0.001053  1
  Yb  Yb5  1  0.501412  0.501412  0.250000  1
  Y  Y6  1  0.996593  0.996593  0.250000  1
  Y  Y7  1  0.003175  0.003175  0.750000  1
  In  In8  1  0.247992  0.247992  0.002068  1
  In  In9  1  0.752117  0.752117  0.999568  1
  In  In10  1  0.247992  0.247992  0.497932  1
  In  In11  1  0.752117  0.752117  0.500432  1
  In  In12  1  0.497677  0.001035  0.250000  1
  In  In13  1  0.999028  0.502238  0.750000  1
  In  In14  1  0.502238  0.999028  0.750000  1
  In  In15  1  0.001035  0.497677  0.250000  1
