# generated using pymatgen
data_ThFeH6
_symmetry_space_group_name_H-M   'P 1'
_cell_length_a   4.44342997
_cell_length_b   4.44343043
_cell_length_c   4.44470406
_cell_angle_alpha   59.60112552
_cell_angle_beta   59.60112760
_cell_angle_gamma   59.60469766
_symmetry_Int_Tables_number   1
_chemical_formula_structural   ThFeH6
_chemical_formula_sum   'Th1 Fe1 H6'
_cell_volume   61.49237262
_cell_formula_units_Z   1
loop_
 _symmetry_equiv_pos_site_id
 _symmetry_equiv_pos_as_xyz
  1  'x, y, z'
loop_
 _atom_site_type_symbol
 _atom_site_label
 _atom_site_symmetry_multiplicity
 _atom_site_fract_x
 _atom_site_fract_y
 _atom_site_fract_z
 _atom_site_occupancy
  Th  Th0  1  0.500000  0.500000  0.500000  1
  Fe  Fe1  1  0.000000  0.000000  0.000000  1
  H  H2  1  0.576725  0.099260  0.099174  1
  H  H3  1  0.099260  0.576725  0.099174  1
  H  H4  1  0.900896  0.900896  0.423070  1
  H  H5  1  0.099104  0.099104  0.576929  1
  H  H6  1  0.900740  0.423274  0.900826  1
  H  H7  1  0.423274  0.900740  0.900826  1
