# generated using pymatgen
data_Sr4AlInPd4
_symmetry_space_group_name_H-M   'P 1'
_cell_length_a   6.02669599
_cell_length_b   6.02669580
_cell_length_c   8.26092419
_cell_angle_alpha   79.26726557
_cell_angle_beta   79.26726572
_cell_angle_gamma   61.12827518
_symmetry_Int_Tables_number   1
_chemical_formula_structural   Sr4AlInPd4
_chemical_formula_sum   'Sr4 Al1 In1 Pd4'
_cell_volume   256.53196417
_cell_formula_units_Z   1
loop_
 _symmetry_equiv_pos_site_id
 _symmetry_equiv_pos_as_xyz
  1  'x, y, z'
loop_
 _atom_site_type_symbol
 _atom_site_label
 _atom_site_symmetry_multiplicity
 _atom_site_fract_x
 _atom_site_fract_y
 _atom_site_fract_z
 _atom_site_occupancy
  Sr  Sr0  1  0.514796  0.783194  0.352339  1
  Sr  Sr1  1  0.216806  0.485204  0.147661  1
  Sr  Sr2  1  0.486033  0.215154  0.648468  1
  Sr  Sr3  1  0.784846  0.513967  0.851532  1
  Al  Al4  1  0.889688  0.110312  0.250000  1
  In  In5  1  0.134395  0.865605  0.750000  1
  Pd  Pd6  1  0.736850  0.011486  0.017480  1
  Pd  Pd7  1  0.988514  0.263150  0.482520  1
  Pd  Pd8  1  0.254692  0.006620  0.011273  1
  Pd  Pd9  1  0.993380  0.745308  0.488727  1
