# generated using pymatgen
data_Yb3Tm5(B6Os)4
_symmetry_space_group_name_H-M   'P 1'
_cell_length_a   3.62054100
_cell_length_b   9.10125146
_cell_length_c   11.49028684
_cell_angle_alpha   89.93511938
_cell_angle_beta   90.00000000
_cell_angle_gamma   90.00000000
_symmetry_Int_Tables_number   1
_chemical_formula_structural   Yb3Tm5(B6Os)4
_chemical_formula_sum   'Yb3 Tm5 B24 Os4'
_cell_volume   378.62141623
_cell_formula_units_Z   1
loop_
 _symmetry_equiv_pos_site_id
 _symmetry_equiv_pos_as_xyz
  1  'x, y, z'
loop_
 _atom_site_type_symbol
 _atom_site_label
 _atom_site_symmetry_multiplicity
 _atom_site_fract_x
 _atom_site_fract_y
 _atom_site_fract_z
 _atom_site_occupancy
  Yb  Yb0  1  0.000000  0.324666  0.414314  1
  Yb  Yb1  1  0.000000  0.675316  0.585243  1
  Yb  Yb2  1  0.000000  0.823214  0.086296  1
  Tm  Tm3  1  0.000000  0.175870  0.914868  1
  Tm  Tm4  1  0.000000  0.941711  0.367731  1
  Tm  Tm5  1  0.000000  0.057673  0.630668  1
  Tm  Tm6  1  0.000000  0.443304  0.131614  1
  Tm  Tm7  1  0.000000  0.558134  0.868942  1
  B  B8  1  0.500000  0.553377  0.432963  1
  B  B9  1  0.500000  0.445905  0.567877  1
  B  B10  1  0.500000  0.053911  0.066456  1
  B  B11  1  0.500000  0.946339  0.933446  1
  B  B12  1  0.500000  0.749139  0.417713  1
  B  B13  1  0.500000  0.250658  0.582439  1
  B  B14  1  0.500000  0.249414  0.081168  1
  B  B15  1  0.500000  0.751274  0.918084  1
  B  B16  1  0.500000  0.791287  0.264320  1
  B  B17  1  0.500000  0.208053  0.736162  1
  B  B18  1  0.500000  0.291546  0.234422  1
  B  B19  1  0.500000  0.709652  0.765179  1
  B  B20  1  0.500000  0.630825  0.185766  1
  B  B21  1  0.500000  0.368700  0.815499  1
  B  B22  1  0.500000  0.130992  0.313525  1
  B  B23  1  0.500000  0.869619  0.685371  1
  B  B24  1  0.500000  0.982675  0.210776  1
  B  B25  1  0.500000  0.017897  0.788591  1
  B  B26  1  0.500000  0.483292  0.288569  1
  B  B27  1  0.500000  0.516392  0.712204  1
  B  B28  1  0.500000  0.598645  0.027321  1
  B  B29  1  0.500000  0.399959  0.972475  1
  B  B30  1  0.500000  0.096732  0.472773  1
  B  B31  1  0.500000  0.903274  0.526360  1
  Os  Os32  1  0.000000  0.638938  0.320648  1
  Os  Os33  1  0.000000  0.359580  0.681061  1
  Os  Os34  1  0.000000  0.138781  0.178604  1
  Os  Os35  1  0.000000  0.863253  0.820553  1
