# generated using pymatgen
data_Sc6SiSe2
_symmetry_space_group_name_H-M   'P 1'
_cell_length_a   3.80235600
_cell_length_b   12.58712900
_cell_length_c   15.60647900
_cell_angle_alpha   90.00000000
_cell_angle_beta   90.00000000
_cell_angle_gamma   90.00000000
_symmetry_Int_Tables_number   1
_chemical_formula_structural   Sc6SiSe2
_chemical_formula_sum   'Sc24 Si4 Se8'
_cell_volume   746.93771919
_cell_formula_units_Z   4
loop_
 _symmetry_equiv_pos_site_id
 _symmetry_equiv_pos_as_xyz
  1  'x, y, z'
loop_
 _atom_site_type_symbol
 _atom_site_label
 _atom_site_symmetry_multiplicity
 _atom_site_fract_x
 _atom_site_fract_y
 _atom_site_fract_z
 _atom_site_occupancy
  Sc  Sc0  1  0.000000  0.027481  0.103375  1
  Sc  Sc1  1  0.000000  0.972519  0.896625  1
  Sc  Sc2  1  0.500000  0.472519  0.603375  1
  Sc  Sc3  1  0.500000  0.527481  0.396625  1
  Sc  Sc4  1  0.000000  0.405719  0.242140  1
  Sc  Sc5  1  0.000000  0.594281  0.757860  1
  Sc  Sc6  1  0.500000  0.094281  0.742140  1
  Sc  Sc7  1  0.500000  0.905719  0.257860  1
  Sc  Sc8  1  0.000000  0.087504  0.576630  1
  Sc  Sc9  1  0.000000  0.912496  0.423370  1
  Sc  Sc10  1  0.500000  0.412496  0.076630  1
  Sc  Sc11  1  0.500000  0.587504  0.923370  1
  Sc  Sc12  1  0.000000  0.337728  0.483418  1
  Sc  Sc13  1  0.000000  0.662272  0.516582  1
  Sc  Sc14  1  0.500000  0.162272  0.983418  1
  Sc  Sc15  1  0.500000  0.837728  0.016582  1
  Sc  Sc16  1  0.000000  0.689897  0.296142  1
  Sc  Sc17  1  0.000000  0.310103  0.703858  1
  Sc  Sc18  1  0.500000  0.810103  0.796142  1
  Sc  Sc19  1  0.500000  0.189897  0.203858  1
  Sc  Sc20  1  0.000000  0.618099  0.080177  1
  Sc  Sc21  1  0.000000  0.381901  0.919823  1
  Sc  Sc22  1  0.500000  0.881901  0.580177  1
  Sc  Sc23  1  0.500000  0.118099  0.419823  1
  Si  Si24  1  0.000000  0.257134  0.092106  1
  Si  Si25  1  0.000000  0.742866  0.907894  1
  Si  Si26  1  0.500000  0.242866  0.592106  1
  Si  Si27  1  0.500000  0.757134  0.407894  1
  Se  Se28  1  0.000000  0.060934  0.288845  1
  Se  Se29  1  0.000000  0.939066  0.711155  1
  Se  Se30  1  0.500000  0.439066  0.788845  1
  Se  Se31  1  0.500000  0.560934  0.211155  1
  Se  Se32  1  0.000000  0.816343  0.152188  1
  Se  Se33  1  0.000000  0.183657  0.847812  1
  Se  Se34  1  0.500000  0.683657  0.652188  1
  Se  Se35  1  0.500000  0.316343  0.347812  1
