# generated using pymatgen
data_EuY6NiI12
_symmetry_space_group_name_H-M   'P 1'
_cell_length_a   9.76966446
_cell_length_b   9.76966349
_cell_length_c   9.76966421
_cell_angle_alpha   106.54609345
_cell_angle_beta   106.54608891
_cell_angle_gamma   106.54609581
_symmetry_Int_Tables_number   1
_chemical_formula_structural   EuY6NiI12
_chemical_formula_sum   'Eu1 Y6 Ni1 I12'
_cell_volume   785.99456769
_cell_formula_units_Z   1
loop_
 _symmetry_equiv_pos_site_id
 _symmetry_equiv_pos_as_xyz
  1  'x, y, z'
loop_
 _atom_site_type_symbol
 _atom_site_label
 _atom_site_symmetry_multiplicity
 _atom_site_fract_x
 _atom_site_fract_y
 _atom_site_fract_z
 _atom_site_occupancy
  Eu  Eu0  1  0.500000  0.500000  0.500000  1
  Y  Y1  1  0.905855  0.976444  0.707311  1
  Y  Y2  1  0.707311  0.905855  0.976444  1
  Y  Y3  1  0.976444  0.707311  0.905855  1
  Y  Y4  1  0.094145  0.023556  0.292689  1
  Y  Y5  1  0.292689  0.094145  0.023556  1
  Y  Y6  1  0.023556  0.292689  0.094145  1
  Ni  Ni7  1  0.000000  0.000000  0.000000  1
  I  I8  1  0.926119  0.321407  0.776723  1
  I  I9  1  0.776723  0.926119  0.321407  1
  I  I10  1  0.321407  0.776723  0.926119  1
  I  I11  1  0.073881  0.678593  0.223277  1
  I  I12  1  0.223277  0.073881  0.678593  1
  I  I13  1  0.678593  0.223277  0.073881  1
  I  I14  1  0.546719  0.859017  0.625752  1
  I  I15  1  0.625752  0.546719  0.859017  1
  I  I16  1  0.859017  0.625752  0.546719  1
  I  I17  1  0.453281  0.140983  0.374248  1
  I  I18  1  0.374248  0.453281  0.140983  1
  I  I19  1  0.140983  0.374248  0.453281  1
