# generated using pymatgen
data_Hf2ZrMn(Co4P3)2
_symmetry_space_group_name_H-M   'P 1'
_cell_length_a   11.91942333
_cell_length_b   11.94950754
_cell_length_c   3.61302200
_cell_angle_alpha   90.00000000
_cell_angle_beta   90.00000000
_cell_angle_gamma   120.08351390
_symmetry_Int_Tables_number   1
_chemical_formula_structural   Hf2ZrMn(Co4P3)2
_chemical_formula_sum   'Hf4 Zr2 Mn2 Co16 P12'
_cell_volume   445.28739077
_cell_formula_units_Z   2
loop_
 _symmetry_equiv_pos_site_id
 _symmetry_equiv_pos_as_xyz
  1  'x, y, z'
loop_
 _atom_site_type_symbol
 _atom_site_label
 _atom_site_symmetry_multiplicity
 _atom_site_fract_x
 _atom_site_fract_y
 _atom_site_fract_z
 _atom_site_occupancy
  Hf  Hf0  1  0.000000  0.555684  0.000000  1
  Hf  Hf1  1  0.818371  0.818005  0.500000  1
  Hf  Hf2  1  0.181629  0.999632  0.500000  1
  Hf  Hf3  1  0.000000  0.175938  0.500000  1
  Zr  Zr4  1  0.666463  0.332404  0.000000  1
  Zr  Zr5  1  0.333537  0.665942  0.000000  1
  Mn  Mn6  1  0.446545  0.446268  0.000000  1
  Mn  Mn7  1  0.553455  0.999723  0.000000  1
  Co  Co8  1  0.198184  0.373075  0.000000  1
  Co  Co9  1  0.181386  0.810823  0.000000  1
  Co  Co10  1  0.818614  0.629437  0.000000  1
  Co  Co11  1  0.801816  0.174891  0.000000  1
  Co  Co12  1  0.375151  0.197116  0.000000  1
  Co  Co13  1  0.127312  0.478783  0.500000  1
  Co  Co14  1  0.358617  0.875309  0.500000  1
  Co  Co15  1  0.517108  0.645380  0.500000  1
  Co  Co16  1  0.641383  0.516691  0.500000  1
  Co  Co17  1  0.872688  0.351471  0.500000  1
  Co  Co18  1  0.482892  0.128273  0.500000  1
  Co  Co19  1  0.000000  0.001458  0.000000  1
  Co  Co20  1  0.716491  0.999386  0.500000  1
  Co  Co21  1  0.000000  0.722079  0.500000  1
  Co  Co22  1  0.624849  0.821966  0.000000  1
  Co  Co23  1  0.283509  0.282895  0.500000  1
  P  P24  1  0.639735  0.643767  0.000000  1
  P  P25  1  0.360265  0.004032  0.000000  1
  P  P26  1  0.000000  0.344194  0.000000  1
  P  P27  1  0.482196  0.315891  0.500000  1
  P  P28  1  0.683360  0.165158  0.500000  1
  P  P29  1  0.824987  0.516603  0.500000  1
  P  P30  1  0.517804  0.833695  0.500000  1
  P  P31  1  0.175013  0.691616  0.500000  1
  P  P32  1  0.822479  0.998204  0.000000  1
  P  P33  1  0.000000  0.826690  0.000000  1
  P  P34  1  0.316640  0.481798  0.500000  1
  P  P35  1  0.177521  0.175725  0.000000  1
