# generated using pymatgen
data_Ba3(IO5)2
_symmetry_space_group_name_H-M   'P 1'
_cell_length_a   8.23315233
_cell_length_b   8.23315206
_cell_length_c   8.46664700
_cell_angle_alpha   72.74230398
_cell_angle_beta   72.74231183
_cell_angle_gamma   89.47554525
_symmetry_Int_Tables_number   1
_chemical_formula_structural   Ba3(IO5)2
_chemical_formula_sum   'Ba6 I4 O20'
_cell_volume   521.43800107
_cell_formula_units_Z   2
loop_
 _symmetry_equiv_pos_site_id
 _symmetry_equiv_pos_as_xyz
  1  'x, y, z'
loop_
 _atom_site_type_symbol
 _atom_site_label
 _atom_site_symmetry_multiplicity
 _atom_site_fract_x
 _atom_site_fract_y
 _atom_site_fract_z
 _atom_site_occupancy
  Ba  Ba0  1  0.960616  0.745843  0.001246  1
  Ba  Ba1  1  0.254157  0.039384  0.498754  1
  Ba  Ba2  1  0.039384  0.254157  0.998754  1
  Ba  Ba3  1  0.745843  0.960616  0.501246  1
  Ba  Ba4  1  0.500000  0.500000  0.000000  1
  Ba  Ba5  1  0.500000  0.500000  0.500000  1
  I  I6  1  0.048087  0.419974  0.347636  1
  I  I7  1  0.580026  0.951913  0.152364  1
  I  I8  1  0.951913  0.580026  0.652364  1
  I  I9  1  0.419974  0.048087  0.847636  1
  O  O10  1  0.942693  0.350385  0.607723  1
  O  O11  1  0.649615  0.057307  0.892277  1
  O  O12  1  0.057307  0.649615  0.392277  1
  O  O13  1  0.350385  0.942693  0.107723  1
  O  O14  1  0.838160  0.465238  0.310346  1
  O  O15  1  0.534762  0.161840  0.189654  1
  O  O16  1  0.161840  0.534762  0.689654  1
  O  O17  1  0.465238  0.838160  0.810346  1
  O  O18  1  0.154476  0.510482  0.106942  1
  O  O19  1  0.489518  0.845524  0.393058  1
  O  O20  1  0.845524  0.489518  0.893058  1
  O  O21  1  0.510482  0.154476  0.606942  1
  O  O22  1  0.021593  0.192758  0.349207  1
  O  O23  1  0.807242  0.978407  0.150793  1
  O  O24  1  0.978407  0.807242  0.650793  1
  O  O25  1  0.192758  0.021593  0.849207  1
  O  O26  1  0.733231  0.613550  0.627255  1
  O  O27  1  0.386450  0.266769  0.872745  1
  O  O28  1  0.266769  0.386450  0.372745  1
  O  O29  1  0.613550  0.733231  0.127255  1
