# generated using pymatgen
data_Er4MgPd4Pb
_symmetry_space_group_name_H-M   'P 1'
_cell_length_a   7.83062200
_cell_length_b   7.83062200
_cell_length_c   3.60868500
_cell_angle_alpha   90.00000000
_cell_angle_beta   90.00000000
_cell_angle_gamma   90.00000000
_symmetry_Int_Tables_number   1
_chemical_formula_structural   Er4MgPd4Pb
_chemical_formula_sum   'Er4 Mg1 Pd4 Pb1'
_cell_volume   221.27965966
_cell_formula_units_Z   1
loop_
 _symmetry_equiv_pos_site_id
 _symmetry_equiv_pos_as_xyz
  1  'x, y, z'
loop_
 _atom_site_type_symbol
 _atom_site_label
 _atom_site_symmetry_multiplicity
 _atom_site_fract_x
 _atom_site_fract_y
 _atom_site_fract_z
 _atom_site_occupancy
  Er  Er0  1  0.658284  0.176430  0.500000  1
  Er  Er1  1  0.176430  0.341716  0.500000  1
  Er  Er2  1  0.823570  0.658284  0.500000  1
  Er  Er3  1  0.341716  0.823570  0.500000  1
  Mg  Mg4  1  0.000000  0.000000  0.000000  1
  Pd  Pd5  1  0.355732  0.115413  0.000000  1
  Pd  Pd6  1  0.115413  0.644268  0.000000  1
  Pd  Pd7  1  0.644268  0.884587  0.000000  1
  Pd  Pd8  1  0.884587  0.355732  0.000000  1
  Pb  Pb9  1  0.500000  0.500000  0.000000  1
